MODEL 1
REMARK VINA RESULT:      -9.5      0.000      0.000
REMARK SMILES COc1ccccc1OC1CCN(c2cccc(C(=O)NCCCCCCNC(=O)c3ccc(-c4c5nc(c(-c6c(F)cc(S(=O)(=O)[O-])cc6F)c6ccc([nH]6)c(-c6c(F)cc(S(=O)(=O)[O-])cc6F)c6nc(c(-c7c(F)cc(S(=O)(=O)[O-])cc7F)c7ccc4[nH]7)C=C6)C=C5)cc3)n2)CC1
REMARK SMILES IDX 24 1 23 2 22 3 21 4 19 5 20 6 18 8 14 9 15 10 97 11 16 12
REMARK SMILES IDX 17 13 13 14 10 15 11 16 99 17 12 18 98 19 9 20 8 21 3 22
REMARK SMILES IDX 4 23 5 24 7 25 6 26 2 27 1 28 25 29 26 30 27 31 28 32 29 33
REMARK SMILES IDX 30 35 31 36 32 37 96 38 33 39 95 40 34 41 35 42 36 43 89 44
REMARK SMILES IDX 37 45 94 46 88 47 90 48 38 49 93 50 87 51 86 52 39 54 73 55
REMARK SMILES IDX 52 56 72 57 53 58 56 59 71 60 91 61 54 62 55 63 70 65 92 66
REMARK SMILES IDX 57 67 40 68 41 69 50 70 42 71 43 72 49 73 51 74 44 75 45 76
REMARK SMILES IDX 46 77 47 78 48 79 74 80 75 81 84 82 76 83 77 84 83 85 85 86
REMARK SMILES IDX 78 87 79 88 80 89 81 90 82 91 58 92 59 93 68 94 60 95 61 96
REMARK SMILES IDX 67 97 69 98 62 99 63 100 64 101 65 102 66 103
REMARK H PARENT 21 7 28 34 90 53 56 64
REMARK Flexibility Score: inf
ROOT
ATOM      1  C   UNL A   1      39.954  28.011  29.401  1.00  0.00     0.002 C 
ENDROOT
BRANCH   1   2
ATOM      2  C   UNL A   1      39.212  29.064  30.220  1.00  0.00     0.021 C 
BRANCH   2   3
ATOM      3  C   UNL A   1      37.826  28.647  30.689  1.00  0.00     0.116 C 
BRANCH   3   4
ATOM      4  N   UNL A   1      37.365  29.424  31.816  1.00  0.00    -0.351 N 
ATOM      5  C   UNL A   1      36.976  30.736  31.935  1.00  0.00     0.269 C 
ATOM      6  O   UNL A   1      36.714  31.124  33.077  1.00  0.00    -0.268 OA
ATOM      7  H   UNL A   1      37.323  28.918  32.659  1.00  0.00     0.163 HD
BRANCH   5   8
ATOM      8  C   UNL A   1      36.857  31.690  30.774  1.00  0.00     0.130 A 
ATOM      9  C   UNL A   1      35.765  32.030  28.759  1.00  0.00     0.129 A 
ATOM     10  C   UNL A   1      36.536  33.152  28.488  1.00  0.00     0.047 A 
ATOM     11  N   UNL A   1      35.857  31.362  29.919  1.00  0.00    -0.226 NA
ATOM     12  C   UNL A   1      37.526  33.521  29.379  1.00  0.00     0.006 A 
ATOM     13  C   UNL A   1      37.744  32.724  30.496  1.00  0.00     0.034 A 
BRANCH   9  14
ATOM     14  N   UNL A   1      35.034  31.453  27.744  1.00  0.00    -0.356 N 
ATOM     15  C   UNL A   1      32.494  29.024  26.312  1.00  0.00     0.177 C 
ATOM     16  C   UNL A   1      31.953  30.796  26.905  1.00  0.00     0.066 C 
ATOM     17  C   UNL A   1      34.295  28.436  26.757  1.00  0.00     0.066 C 
ATOM     18  C   UNL A   1      33.323  32.063  27.456  1.00  0.00     0.122 C 
ATOM     19  C   UNL A   1      35.611  29.763  27.284  1.00  0.00     0.122 C 
BRANCH  15  20
ATOM     20  O   UNL A   1      32.444  29.055  24.854  1.00  0.00    -0.486 OA
BRANCH  20  21
ATOM     21  C   UNL A   1      31.726  27.959  24.419  1.00  0.00     0.161 A 
ATOM     22  C   UNL A   1      30.426  28.134  23.930  1.00  0.00     0.160 A 
ATOM     23  C   UNL A   1      29.703  27.026  23.484  1.00  0.00     0.050 A 
ATOM     24  C   UNL A   1      30.299  25.764  23.498  1.00  0.00     0.004 A 
ATOM     25  C   UNL A   1      32.320  26.705  24.446  1.00  0.00     0.050 A 
ATOM     26  C   UNL A   1      31.604  25.604  23.974  1.00  0.00     0.004 A 
BRANCH  22  27
ATOM     27  O   UNL A   1      30.060  29.466  23.919  1.00  0.00    -0.493 OA
ATOM     28  C   UNL A   1      29.474  31.221  23.926  1.00  0.00     0.278 C 
ENDBRANCH  22  27
ENDBRANCH  20  21
ENDBRANCH  15  20
ENDBRANCH   9  14
ENDBRANCH   5   8
ENDBRANCH   3   4
ENDBRANCH   2   3
ENDBRANCH   1   2
BRANCH   1  29
ATOM     29  C   UNL A   1      39.139  27.362  28.276  1.00  0.00     0.002 C 
BRANCH  29  30
ATOM     30  C   UNL A   1      39.677  26.021  27.767  1.00  0.00     0.021 C 
BRANCH  30  31
ATOM     31  C   UNL A   1      41.029  25.624  28.344  1.00  0.00     0.116 C 
BRANCH  31  32
ATOM     32  N   UNL A   1      41.992  25.339  27.294  1.00  0.00    -0.352 N 
ATOM     33  C   UNL A   1      42.871  26.190  26.675  1.00  0.00     0.251 C 
ATOM     34  H   UNL A   1      42.018  24.405  26.984  1.00  0.00     0.163 HD
ATOM     35  O   UNL A   1      43.422  25.851  25.633  1.00  0.00    -0.269 OA
BRANCH  33  36
ATOM     36  C   UNL A   1      43.143  27.516  27.270  1.00  0.00     0.039 A 
ATOM     37  C   UNL A   1      42.511  28.641  26.739  1.00  0.00     0.014 A 
ATOM     38  C   UNL A   1      44.032  27.644  28.341  1.00  0.00     0.014 A 
ATOM     39  C   UNL A   1      42.745  29.893  27.308  1.00  0.00     0.010 A 
ATOM     40  C   UNL A   1      44.193  28.877  28.962  1.00  0.00     0.010 A 
ATOM     41  C   UNL A   1      43.568  30.018  28.439  1.00  0.00    -0.014 A 
BRANCH  41  42
ATOM     42  C   UNL A   1      43.812  31.338  29.073  1.00  0.00     0.031 A 
ATOM     43  C   UNL A   1      44.924  32.220  28.570  1.00  0.00     0.074 A 
ATOM     44  C   UNL A   1      43.069  31.717  30.130  1.00  0.00     0.049 A 
ATOM     45  N   UNL A   1      45.316  33.388  29.010  1.00  0.00    -0.248 NA
ATOM     46  C   UNL A   1      45.721  31.708  27.442  1.00  0.00     0.031 C 
ATOM     47  C   UNL A   1      41.989  30.930  30.731  1.00  0.00     0.029 A 
ATOM     48  N   UNL A   1      43.106  32.860  30.888  1.00  0.00    -0.354 N 
ATOM     49  C   UNL A   1      46.412  33.739  28.230  1.00  0.00     0.074 A 
ATOM     50  C   UNL A   1      46.660  32.635  27.330  1.00  0.00     0.031 C 
ATOM     51  C   UNL A   1      41.441  31.631  31.735  1.00  0.00     0.029 A 
ATOM     52  C   UNL A   1      42.158  32.894  31.883  1.00  0.00     0.049 A 
ATOM     53  H   UNL A   1      43.753  33.587  30.735  1.00  0.00     0.167 HD
ATOM     54  C   UNL A   1      47.131  34.886  28.247  1.00  0.00     0.037 A 
ATOM     55  C   UNL A   1      41.897  33.836  32.809  1.00  0.00     0.037 A 
ATOM     56  C   UNL A   1      46.861  35.986  29.138  1.00  0.00     0.049 A 
ATOM     57  C   UNL A   1      42.722  35.095  32.822  1.00  0.00     0.074 A 
ATOM     58  C   UNL A   1      47.484  37.220  29.193  1.00  0.00     0.029 A 
ATOM     59  N   UNL A   1      45.897  35.980  30.136  1.00  0.00    -0.354 N 
ATOM     60  N   UNL A   1      43.708  35.445  32.030  1.00  0.00    -0.248 NA
ATOM     61  C   UNL A   1      42.396  36.089  33.852  1.00  0.00     0.031 C 
ATOM     62  C   UNL A   1      46.947  37.931  30.271  1.00  0.00     0.029 A 
ATOM     63  C   UNL A   1      45.934  37.173  30.839  1.00  0.00     0.049 A 
ATOM     64  H   UNL A   1      45.277  35.236  30.318  1.00  0.00     0.167 HD
ATOM     65  C   UNL A   1      44.093  36.717  32.439  1.00  0.00     0.074 A 
ATOM     66  C   UNL A   1      43.229  37.075  33.546  1.00  0.00     0.031 C 
ATOM     67  C   UNL A   1      45.066  37.519  31.938  1.00  0.00     0.037 A 
BRANCH  54  68
ATOM     68  C   UNL A   1      48.292  34.998  27.293  1.00  0.00     0.058 A 
ATOM     69  C   UNL A   1      48.151  35.535  26.002  1.00  0.00     0.135 A 
ATOM     70  C   UNL A   1      49.572  34.570  27.683  1.00  0.00     0.135 A 
ATOM     71  F   UNL A   1      46.950  35.949  25.568  1.00  0.00    -0.206 F 
ATOM     72  C   UNL A   1      49.223  35.597  25.117  1.00  0.00     0.059 A 
ATOM     73  C   UNL A   1      50.667  34.659  26.827  1.00  0.00     0.059 A 
ATOM     74  F   UNL A   1      49.770  34.051  28.905  1.00  0.00    -0.206 F 
ATOM     75  C   UNL A   1      50.478  35.154  25.539  1.00  0.00     0.060 A 
BRANCH  75  76
ATOM     76  S   UNL A   1      51.854  35.224  24.373  1.00  0.00     0.124 S 
ATOM     77  O   UNL A   1      51.772  33.908  23.747  1.00  0.00    -0.237 OA
ATOM     78  O   UNL A   1      51.485  36.352  23.525  1.00  0.00    -0.237 OA
ATOM     79  O   UNL A   1      53.016  35.439  25.229  1.00  0.00    -0.744 OA
ENDBRANCH  75  76
ENDBRANCH  54  68
BRANCH  55  80
ATOM     80  C   UNL A   1      40.776  33.644  33.768  1.00  0.00     0.058 A 
ATOM     81  C   UNL A   1      40.969  32.940  34.966  1.00  0.00     0.135 A 
ATOM     82  C   UNL A   1      39.501  34.180  33.524  1.00  0.00     0.135 A 
ATOM     83  F   UNL A   1      42.167  32.403  35.242  1.00  0.00    -0.206 F 
ATOM     84  C   UNL A   1      39.938  32.760  35.882  1.00  0.00     0.059 A 
ATOM     85  C   UNL A   1      38.462  34.039  34.439  1.00  0.00     0.059 A 
ATOM     86  F   UNL A   1      39.267  34.877  32.402  1.00  0.00    -0.206 F 
ATOM     87  C   UNL A   1      38.688  33.320  35.612  1.00  0.00     0.060 A 
BRANCH  87  88
ATOM     88  S   UNL A   1      37.376  33.133  36.838  1.00  0.00     0.124 S 
ATOM     89  O   UNL A   1      37.842  34.012  37.904  1.00  0.00    -0.237 OA
ATOM     90  O   UNL A   1      36.203  33.590  36.099  1.00  0.00    -0.237 OA
ATOM     91  O   UNL A   1      37.400  31.705  37.141  1.00  0.00    -0.744 OA
ENDBRANCH  87  88
ENDBRANCH  55  80
BRANCH  67  92
ATOM     92  C   UNL A   1      45.221  38.888  32.547  1.00  0.00     0.058 A 
ATOM     93  C   UNL A   1      44.486  39.995  32.095  1.00  0.00     0.135 A 
ATOM     94  C   UNL A   1      46.084  39.078  33.641  1.00  0.00     0.135 A 
ATOM     95  F   UNL A   1      43.652  39.872  31.050  1.00  0.00    -0.206 F 
ATOM     96  C   UNL A   1      44.625  41.248  32.682  1.00  0.00     0.059 A 
ATOM     97  C   UNL A   1      46.210  40.313  34.267  1.00  0.00     0.059 A 
ATOM     98  F   UNL A   1      46.802  38.052  34.123  1.00  0.00    -0.206 F 
ATOM     99  C   UNL A   1      45.487  41.396  33.772  1.00  0.00     0.060 A 
BRANCH  99 100
ATOM    100  S   UNL A   1      45.633  43.021  34.544  1.00  0.00     0.124 S 
ATOM    101  O   UNL A   1      45.822  43.883  33.382  1.00  0.00    -0.237 OA
ATOM    102  O   UNL A   1      44.351  43.156  35.230  1.00  0.00    -0.237 OA
ATOM    103  O   UNL A   1      46.794  42.881  35.418  1.00  0.00    -0.744 OA
ENDBRANCH  99 100
ENDBRANCH  67  92
ENDBRANCH  41  42
ENDBRANCH  33  36
ENDBRANCH  31  32
ENDBRANCH  30  31
ENDBRANCH  29  30
ENDBRANCH   1  29
TORSDOF 20
ENDMDL
MODEL 2
REMARK VINA RESULT:      -9.4      5.100     10.219
REMARK SMILES COc1ccccc1OC1CCN(c2cccc(C(=O)NCCCCCCNC(=O)c3ccc(-c4c5nc(c(-c6c(F)cc(S(=O)(=O)[O-])cc6F)c6ccc([nH]6)c(-c6c(F)cc(S(=O)(=O)[O-])cc6F)c6nc(c(-c7c(F)cc(S(=O)(=O)[O-])cc7F)c7ccc4[nH]7)C=C6)C=C5)cc3)n2)CC1
REMARK SMILES IDX 24 1 23 2 22 3 21 4 19 5 20 6 18 8 14 9 15 10 97 11 16 12
REMARK SMILES IDX 17 13 13 14 10 15 11 16 99 17 12 18 98 19 9 20 8 21 3 22
REMARK SMILES IDX 4 23 5 24 7 25 6 26 2 27 1 28 25 29 26 30 27 31 28 32 29 33
REMARK SMILES IDX 30 35 31 36 32 37 96 38 33 39 95 40 34 41 35 42 36 43 89 44
REMARK SMILES IDX 37 45 94 46 88 47 90 48 38 49 93 50 87 51 86 52 39 54 73 55
REMARK SMILES IDX 52 56 72 57 53 58 56 59 71 60 91 61 54 62 55 63 70 65 92 66
REMARK SMILES IDX 57 67 40 68 41 69 50 70 42 71 43 72 49 73 51 74 44 75 45 76
REMARK SMILES IDX 46 77 47 78 48 79 74 80 75 81 84 82 76 83 77 84 83 85 85 86
REMARK SMILES IDX 78 87 79 88 80 89 81 90 82 91 58 92 59 93 68 94 60 95 61 96
REMARK SMILES IDX 67 97 69 98 62 99 63 100 64 101 65 102 66 103
REMARK H PARENT 21 7 28 34 90 53 56 64
REMARK Flexibility Score: inf
ROOT
ATOM      1  C   UNL A   1      45.805  24.568  27.012  1.00  0.00     0.002 C 
ENDROOT
BRANCH   1   2
ATOM      2  C   UNL A   1      45.751  25.005  25.551  1.00  0.00     0.021 C 
BRANCH   2   3
ATOM      3  C   UNL A   1      44.857  26.204  25.276  1.00  0.00     0.116 C 
BRANCH   3   4
ATOM      4  N   UNL A   1      45.601  27.363  24.840  1.00  0.00    -0.351 N 
ATOM      5  C   UNL A   1      45.975  28.516  25.487  1.00  0.00     0.269 C 
ATOM      6  O   UNL A   1      46.543  29.367  24.796  1.00  0.00    -0.268 OA
ATOM      7  H   UNL A   1      45.894  27.320  23.902  1.00  0.00     0.163 HD
BRANCH   5   8
ATOM      8  C   UNL A   1      45.734  28.777  26.952  1.00  0.00     0.130 A 
ATOM      9  C   UNL A   1      45.045  30.400  28.455  1.00  0.00     0.129 A 
ATOM     10  C   UNL A   1      45.345  29.579  29.535  1.00  0.00     0.047 A 
ATOM     11  N   UNL A   1      45.150  29.978  27.186  1.00  0.00    -0.226 NA
ATOM     12  C   UNL A   1      45.896  28.334  29.301  1.00  0.00     0.006 A 
ATOM     13  C   UNL A   1      46.173  27.965  27.991  1.00  0.00     0.034 A 
BRANCH   9  14
ATOM     14  N   UNL A   1      44.834  31.744  28.669  1.00  0.00    -0.356 N 
ATOM     15  C   UNL A   1      43.352  35.144  27.864  1.00  0.00     0.177 C 
ATOM     16  C   UNL A   1      42.414  33.897  29.027  1.00  0.00     0.066 C 
ATOM     17  C   UNL A   1      44.903  34.478  26.896  1.00  0.00     0.066 C 
ATOM     18  C   UNL A   1      43.303  32.249  29.553  1.00  0.00     0.122 C 
ATOM     19  C   UNL A   1      45.745  32.833  27.492  1.00  0.00     0.122 C 
BRANCH  15  20
ATOM     20  O   UNL A   1      43.860  36.200  28.733  1.00  0.00    -0.486 OA
BRANCH  20  21
ATOM     21  C   UNL A   1      43.218  37.378  28.408  1.00  0.00     0.161 A 
ATOM     22  C   UNL A   1      43.291  38.470  29.281  1.00  0.00     0.160 A 
ATOM     23  C   UNL A   1      42.648  39.663  28.948  1.00  0.00     0.050 A 
ATOM     24  C   UNL A   1      41.969  39.763  27.732  1.00  0.00     0.004 A 
ATOM     25  C   UNL A   1      42.535  37.468  27.203  1.00  0.00     0.050 A 
ATOM     26  C   UNL A   1      41.916  38.671  26.860  1.00  0.00     0.004 A 
BRANCH  22  27
ATOM     27  O   UNL A   1      44.081  38.192  30.380  1.00  0.00    -0.493 OA
ATOM     28  C   UNL A   1      45.221  37.826  31.790  1.00  0.00     0.278 C 
ENDBRANCH  22  27
ENDBRANCH  20  21
ENDBRANCH  15  20
ENDBRANCH   9  14
ENDBRANCH   5   8
ENDBRANCH   3   4
ENDBRANCH   2   3
ENDBRANCH   1   2
BRANCH   1  29
ATOM     29  C   UNL A   1      44.920  23.369  27.370  1.00  0.00     0.002 C 
BRANCH  29  30
ATOM     30  C   UNL A   1      43.813  23.652  28.391  1.00  0.00     0.021 C 
BRANCH  30  31
ATOM     31  C   UNL A   1      42.400  23.449  27.860  1.00  0.00     0.116 C 
BRANCH  31  32
ATOM     32  N   UNL A   1      42.210  24.120  26.585  1.00  0.00    -0.352 N 
ATOM     33  C   UNL A   1      41.630  25.336  26.328  1.00  0.00     0.251 C 
ATOM     34  H   UNL A   1      42.545  23.635  25.797  1.00  0.00     0.163 HD
ATOM     35  O   UNL A   1      41.312  25.632  25.181  1.00  0.00    -0.269 OA
BRANCH  33  36
ATOM     36  C   UNL A   1      41.389  26.278  27.441  1.00  0.00     0.039 A 
ATOM     37  C   UNL A   1      40.285  26.080  28.271  1.00  0.00     0.014 A 
ATOM     38  C   UNL A   1      42.247  27.362  27.652  1.00  0.00     0.014 A 
ATOM     39  C   UNL A   1      40.062  26.953  29.336  1.00  0.00     0.010 A 
ATOM     40  C   UNL A   1      42.074  28.173  28.766  1.00  0.00     0.010 A 
ATOM     41  C   UNL A   1      40.967  27.991  29.608  1.00  0.00    -0.014 A 
BRANCH  41  42
ATOM     42  C   UNL A   1      40.760  28.916  30.750  1.00  0.00     0.031 A 
ATOM     43  C   UNL A   1      41.617  28.795  31.982  1.00  0.00     0.074 A 
ATOM     44  C   UNL A   1      39.770  29.828  30.698  1.00  0.00     0.049 A 
ATOM     45  N   UNL A   1      41.570  29.483  33.093  1.00  0.00    -0.248 NA
ATOM     46  C   UNL A   1      42.644  27.739  31.976  1.00  0.00     0.031 C 
ATOM     47  C   UNL A   1      38.850  30.014  29.574  1.00  0.00     0.029 A 
ATOM     48  N   UNL A   1      39.370  30.770  31.612  1.00  0.00    -0.354 N 
ATOM     49  C   UNL A   1      42.542  28.933  33.921  1.00  0.00     0.074 A 
ATOM     50  C   UNL A   1      43.121  27.816  33.208  1.00  0.00     0.031 C 
ATOM     51  C   UNL A   1      38.023  31.035  29.847  1.00  0.00     0.029 A 
ATOM     52  C   UNL A   1      38.319  31.545  31.183  1.00  0.00     0.049 A 
ATOM     53  H   UNL A   1      39.796  30.880  32.493  1.00  0.00     0.167 HD
ATOM     54  C   UNL A   1      42.931  29.336  35.154  1.00  0.00     0.037 A 
ATOM     55  C   UNL A   1      37.668  32.552  31.796  1.00  0.00     0.037 A 
ATOM     56  C   UNL A   1      42.356  30.462  35.846  1.00  0.00     0.049 A 
ATOM     57  C   UNL A   1      38.105  32.970  33.174  1.00  0.00     0.074 A 
ATOM     58  C   UNL A   1      42.722  30.997  37.067  1.00  0.00     0.029 A 
ATOM     59  N   UNL A   1      41.289  31.217  35.382  1.00  0.00    -0.354 N 
ATOM     60  N   UNL A   1      39.074  32.488  33.916  1.00  0.00    -0.248 NA
ATOM     61  C   UNL A   1      37.361  34.072  33.799  1.00  0.00     0.031 C 
ATOM     62  C   UNL A   1      41.829  32.029  37.376  1.00  0.00     0.029 A 
ATOM     63  C   UNL A   1      40.956  32.190  36.310  1.00  0.00     0.049 A 
ATOM     64  H   UNL A   1      40.834  31.082  34.518  1.00  0.00     0.167 HD
ATOM     65  C   UNL A   1      39.084  33.255  35.076  1.00  0.00     0.074 A 
ATOM     66  C   UNL A   1      38.026  34.235  34.935  1.00  0.00     0.031 C 
ATOM     67  C   UNL A   1      39.901  33.162  36.155  1.00  0.00     0.037 A 
BRANCH  54  68
ATOM     68  C   UNL A   1      44.009  28.540  35.842  1.00  0.00     0.058 A 
ATOM     69  C   UNL A   1      45.374  28.829  35.676  1.00  0.00     0.135 A 
ATOM     70  C   UNL A   1      43.669  27.474  36.693  1.00  0.00     0.135 A 
ATOM     71  F   UNL A   1      45.762  29.826  34.866  1.00  0.00    -0.206 F 
ATOM     72  C   UNL A   1      46.361  28.061  36.287  1.00  0.00     0.059 A 
ATOM     73  C   UNL A   1      44.639  26.718  37.345  1.00  0.00     0.059 A 
ATOM     74  F   UNL A   1      42.381  27.153  36.893  1.00  0.00    -0.206 F 
ATOM     75  C   UNL A   1      45.983  27.006  37.119  1.00  0.00     0.060 A 
BRANCH  75  76
ATOM     76  S   UNL A   1      47.276  26.008  37.888  1.00  0.00     0.124 S 
ATOM     77  O   UNL A   1      48.477  26.567  37.276  1.00  0.00    -0.237 OA
ATOM     78  O   UNL A   1      47.092  26.301  39.305  1.00  0.00    -0.237 OA
ATOM     79  O   UNL A   1      46.942  24.646  37.483  1.00  0.00    -0.744 OA
ENDBRANCH  75  76
ENDBRANCH  54  68
BRANCH  55  80
ATOM     80  C   UNL A   1      36.567  33.262  31.092  1.00  0.00     0.058 A 
ATOM     81  C   UNL A   1      36.840  34.139  30.032  1.00  0.00     0.135 A 
ATOM     82  C   UNL A   1      35.222  33.062  31.443  1.00  0.00     0.135 A 
ATOM     83  F   UNL A   1      38.110  34.370  29.664  1.00  0.00    -0.206 F 
ATOM     84  C   UNL A   1      35.825  34.804  29.353  1.00  0.00     0.059 A 
ATOM     85  C   UNL A   1      34.187  33.692  30.759  1.00  0.00     0.059 A 
ATOM     86  F   UNL A   1      34.903  32.220  32.438  1.00  0.00    -0.206 F 
ATOM     87  C   UNL A   1      34.499  34.568  29.720  1.00  0.00     0.060 A 
BRANCH  87  88
ATOM     88  S   UNL A   1      33.187  35.388  28.789  1.00  0.00     0.124 S 
ATOM     89  O   UNL A   1      32.409  36.004  29.858  1.00  0.00    -0.237 OA
ATOM     90  O   UNL A   1      33.943  36.302  27.940  1.00  0.00    -0.237 OA
ATOM     91  O   UNL A   1      32.534  34.287  28.088  1.00  0.00    -0.744 OA
ENDBRANCH  87  88
ENDBRANCH  55  80
BRANCH  67  92
ATOM     92  C   UNL A   1      39.721  34.178  37.253  1.00  0.00     0.058 A 
ATOM     93  C   UNL A   1      39.026  33.883  38.437  1.00  0.00     0.135 A 
ATOM     94  C   UNL A   1      40.301  35.453  37.136  1.00  0.00     0.135 A 
ATOM     95  F   UNL A   1      38.447  32.683  38.601  1.00  0.00    -0.206 F 
ATOM     96  C   UNL A   1      38.886  34.825  39.451  1.00  0.00     0.059 A 
ATOM     97  C   UNL A   1      40.205  36.397  38.152  1.00  0.00     0.059 A 
ATOM     98  F   UNL A   1      40.986  35.785  36.030  1.00  0.00    -0.206 F 
ATOM     99  C   UNL A   1      39.484  36.079  39.300  1.00  0.00     0.060 A 
BRANCH  99 100
ATOM    100  S   UNL A   1      39.321  37.280  40.638  1.00  0.00     0.124 S 
ATOM    101  O   UNL A   1      40.689  37.773  40.759  1.00  0.00    -0.237 OA
ATOM    102  O   UNL A   1      38.353  38.226  40.091  1.00  0.00    -0.237 OA
ATOM    103  O   UNL A   1      38.842  36.478  41.760  1.00  0.00    -0.744 OA
ENDBRANCH  99 100
ENDBRANCH  67  92
ENDBRANCH  41  42
ENDBRANCH  33  36
ENDBRANCH  31  32
ENDBRANCH  30  31
ENDBRANCH  29  30
ENDBRANCH   1  29
TORSDOF 20
ENDMDL
MODEL 3
REMARK VINA RESULT:      -9.1      7.577     14.246
REMARK SMILES COc1ccccc1OC1CCN(c2cccc(C(=O)NCCCCCCNC(=O)c3ccc(-c4c5nc(c(-c6c(F)cc(S(=O)(=O)[O-])cc6F)c6ccc([nH]6)c(-c6c(F)cc(S(=O)(=O)[O-])cc6F)c6nc(c(-c7c(F)cc(S(=O)(=O)[O-])cc7F)c7ccc4[nH]7)C=C6)C=C5)cc3)n2)CC1
REMARK SMILES IDX 24 1 23 2 22 3 21 4 19 5 20 6 18 8 14 9 15 10 97 11 16 12
REMARK SMILES IDX 17 13 13 14 10 15 11 16 99 17 12 18 98 19 9 20 8 21 3 22
REMARK SMILES IDX 4 23 5 24 7 25 6 26 2 27 1 28 25 29 26 30 27 31 28 32 29 33
REMARK SMILES IDX 30 35 31 36 32 37 96 38 33 39 95 40 34 41 35 42 36 43 89 44
REMARK SMILES IDX 37 45 94 46 88 47 90 48 38 49 93 50 87 51 86 52 39 54 73 55
REMARK SMILES IDX 52 56 72 57 53 58 56 59 71 60 91 61 54 62 55 63 70 65 92 66
REMARK SMILES IDX 57 67 40 68 41 69 50 70 42 71 43 72 49 73 51 74 44 75 45 76
REMARK SMILES IDX 46 77 47 78 48 79 74 80 75 81 84 82 76 83 77 84 83 85 85 86
REMARK SMILES IDX 78 87 79 88 80 89 81 90 82 91 58 92 59 93 68 94 60 95 61 96
REMARK SMILES IDX 67 97 69 98 62 99 63 100 64 101 65 102 66 103
REMARK H PARENT 21 7 28 34 90 53 56 64
REMARK Flexibility Score: inf
ROOT
ATOM      1  C   UNL A   1      46.228  37.526  26.504  1.00  0.00     0.002 C 
ENDROOT
BRANCH   1   2
ATOM      2  C   UNL A   1      47.204  38.541  25.914  1.00  0.00     0.021 C 
BRANCH   2   3
ATOM      3  C   UNL A   1      46.551  39.764  25.288  1.00  0.00     0.116 C 
BRANCH   3   4
ATOM      4  N   UNL A   1      46.304  40.814  26.248  1.00  0.00    -0.351 N 
ATOM      5  C   UNL A   1      45.277  41.717  26.384  1.00  0.00     0.269 C 
ATOM      6  O   UNL A   1      45.408  42.558  27.278  1.00  0.00    -0.268 OA
ATOM      7  H   UNL A   1      47.005  40.901  26.934  1.00  0.00     0.163 HD
BRANCH   5   8
ATOM      8  C   UNL A   1      44.041  41.724  25.522  1.00  0.00     0.130 A 
ATOM      9  C   UNL A   1      43.156  42.576  23.558  1.00  0.00     0.129 A 
ATOM     10  C   UNL A   1      41.909  42.036  23.841  1.00  0.00     0.047 A 
ATOM     11  N   UNL A   1      44.226  42.351  24.335  1.00  0.00    -0.226 NA
ATOM     12  C   UNL A   1      41.725  41.353  25.029  1.00  0.00     0.006 A 
ATOM     13  C   UNL A   1      42.787  41.273  25.920  1.00  0.00     0.034 A 
BRANCH   9  14
ATOM     14  N   UNL A   1      43.267  43.538  22.578  1.00  0.00    -0.356 N 
ATOM     15  C   UNL A   1      45.096  45.463  19.867  1.00  0.00     0.177 C 
ATOM     16  C   UNL A   1      44.075  43.863  19.437  1.00  0.00     0.066 C 
ATOM     17  C   UNL A   1      45.397  45.860  21.748  1.00  0.00     0.066 C 
ATOM     18  C   UNL A   1      43.009  43.024  20.831  1.00  0.00     0.122 C 
ATOM     19  C   UNL A   1      44.281  44.994  23.079  1.00  0.00     0.122 C 
BRANCH  15  20
ATOM     20  O   UNL A   1      44.319  46.586  19.351  1.00  0.00    -0.486 OA
BRANCH  20  21
ATOM     21  C   UNL A   1      45.136  47.341  18.533  1.00  0.00     0.161 A 
ATOM     22  C   UNL A   1      44.868  47.408  17.161  1.00  0.00     0.160 A 
ATOM     23  C   UNL A   1      45.690  48.178  16.336  1.00  0.00     0.050 A 
ATOM     24  C   UNL A   1      46.747  48.899  16.895  1.00  0.00     0.004 A 
ATOM     25  C   UNL A   1      46.191  48.046  19.094  1.00  0.00     0.050 A 
ATOM     26  C   UNL A   1      46.994  48.836  18.270  1.00  0.00     0.004 A 
BRANCH  22  27
ATOM     27  O   UNL A   1      43.732  46.698  16.827  1.00  0.00    -0.493 OA
ATOM     28  C   UNL A   1      42.224  45.689  16.465  1.00  0.00     0.278 C 
ENDBRANCH  22  27
ENDBRANCH  20  21
ENDBRANCH  15  20
ENDBRANCH   9  14
ENDBRANCH   5   8
ENDBRANCH   3   4
ENDBRANCH   2   3
ENDBRANCH   1   2
BRANCH   1  29
ATOM     29  C   UNL A   1      45.816  37.782  27.958  1.00  0.00     0.002 C 
BRANCH  29  30
ATOM     30  C   UNL A   1      44.408  38.356  28.149  1.00  0.00     0.021 C 
BRANCH  30  31
ATOM     31  C   UNL A   1      43.473  38.139  26.967  1.00  0.00     0.116 C 
BRANCH  31  32
ATOM     32  N   UNL A   1      42.249  37.470  27.374  1.00  0.00    -0.352 N 
ATOM     33  C   UNL A   1      41.961  36.129  27.386  1.00  0.00     0.251 C 
ATOM     34  H   UNL A   1      41.526  38.061  27.684  1.00  0.00     0.163 HD
ATOM     35  O   UNL A   1      40.799  35.753  27.503  1.00  0.00    -0.269 OA
BRANCH  33  36
ATOM     36  C   UNL A   1      43.057  35.148  27.252  1.00  0.00     0.039 A 
ATOM     37  C   UNL A   1      43.420  34.704  25.980  1.00  0.00     0.014 A 
ATOM     38  C   UNL A   1      43.715  34.658  28.385  1.00  0.00     0.014 A 
ATOM     39  C   UNL A   1      44.467  33.793  25.843  1.00  0.00     0.010 A 
ATOM     40  C   UNL A   1      44.815  33.823  28.239  1.00  0.00     0.010 A 
ATOM     41  C   UNL A   1      45.190  33.364  26.968  1.00  0.00    -0.014 A 
BRANCH  41  42
ATOM     42  C   UNL A   1      46.323  32.413  26.840  1.00  0.00     0.031 A 
ATOM     43  C   UNL A   1      47.724  32.932  26.656  1.00  0.00     0.074 A 
ATOM     44  C   UNL A   1      46.083  31.088  26.839  1.00  0.00     0.049 A 
ATOM     45  N   UNL A   1      48.837  32.266  26.493  1.00  0.00    -0.248 NA
ATOM     46  C   UNL A   1      47.892  34.395  26.619  1.00  0.00     0.031 C 
ATOM     47  C   UNL A   1      44.763  30.467  26.972  1.00  0.00     0.029 A 
ATOM     48  N   UNL A   1      46.940  30.022  26.723  1.00  0.00    -0.354 N 
ATOM     49  C   UNL A   1      49.830  33.224  26.315  1.00  0.00     0.074 A 
ATOM     50  C   UNL A   1      49.178  34.514  26.329  1.00  0.00     0.031 C 
ATOM     51  C   UNL A   1      44.904  29.132  26.972  1.00  0.00     0.029 A 
ATOM     52  C   UNL A   1      46.314  28.800  26.791  1.00  0.00     0.049 A 
ATOM     53  H   UNL A   1      47.912  30.124  26.601  1.00  0.00     0.167 HD
ATOM     54  C   UNL A   1      51.165  33.044  26.176  1.00  0.00     0.037 A 
ATOM     55  C   UNL A   1      46.819  27.554  26.716  1.00  0.00     0.037 A 
ATOM     56  C   UNL A   1      51.803  31.753  26.181  1.00  0.00     0.049 A 
ATOM     57  C   UNL A   1      48.304  27.379  26.541  1.00  0.00     0.074 A 
ATOM     58  C   UNL A   1      53.153  31.462  26.115  1.00  0.00     0.029 A 
ATOM     59  N   UNL A   1      51.135  30.538  26.245  1.00  0.00    -0.354 N 
ATOM     60  N   UNL A   1      49.239  28.295  26.448  1.00  0.00    -0.248 NA
ATOM     61  C   UNL A   1      48.803  26.000  26.464  1.00  0.00     0.031 C 
ATOM     62  C   UNL A   1      53.297  30.071  26.065  1.00  0.00     0.029 A 
ATOM     63  C   UNL A   1      52.042  29.493  26.180  1.00  0.00     0.049 A 
ATOM     64  H   UNL A   1      50.158  30.434  26.325  1.00  0.00     0.167 HD
ATOM     65  C   UNL A   1      50.441  27.603  26.344  1.00  0.00     0.074 A 
ATOM     66  C   UNL A   1      50.113  26.193  26.390  1.00  0.00     0.031 C 
ATOM     67  C   UNL A   1      51.702  28.092  26.230  1.00  0.00     0.037 A 
BRANCH  54  68
ATOM     68  C   UNL A   1      52.018  34.271  25.980  1.00  0.00     0.058 A 
ATOM     69  C   UNL A   1      52.549  34.994  27.061  1.00  0.00     0.135 A 
ATOM     70  C   UNL A   1      52.320  34.723  24.684  1.00  0.00     0.135 A 
ATOM     71  F   UNL A   1      52.285  34.618  28.323  1.00  0.00    -0.206 F 
ATOM     72  C   UNL A   1      53.304  36.147  26.867  1.00  0.00     0.059 A 
ATOM     73  C   UNL A   1      53.106  35.852  24.467  1.00  0.00     0.059 A 
ATOM     74  F   UNL A   1      51.844  34.072  23.612  1.00  0.00    -0.206 F 
ATOM     75  C   UNL A   1      53.575  36.569  25.565  1.00  0.00     0.060 A 
BRANCH  75  76
ATOM     76  S   UNL A   1      54.540  38.077  25.331  1.00  0.00     0.124 S 
ATOM     77  O   UNL A   1      53.561  38.952  24.694  1.00  0.00    -0.237 OA
ATOM     78  O   UNL A   1      54.906  38.426  26.699  1.00  0.00    -0.237 OA
ATOM     79  O   UNL A   1      55.644  37.646  24.479  1.00  0.00    -0.744 OA
ENDBRANCH  75  76
ENDBRANCH  54  68
BRANCH  55  80
ATOM     80  C   UNL A   1      45.919  26.378  26.853  1.00  0.00     0.058 A 
ATOM     81  C   UNL A   1      45.132  25.946  25.775  1.00  0.00     0.135 A 
ATOM     82  C   UNL A   1      45.845  25.646  28.050  1.00  0.00     0.135 A 
ATOM     83  F   UNL A   1      45.162  26.617  24.613  1.00  0.00    -0.206 F 
ATOM     84  C   UNL A   1      44.293  24.842  25.879  1.00  0.00     0.059 A 
ATOM     85  C   UNL A   1      45.037  24.520  28.168  1.00  0.00     0.059 A 
ATOM     86  F   UNL A   1      46.590  26.006  29.106  1.00  0.00    -0.206 F 
ATOM     87  C   UNL A   1      44.258  24.130  27.079  1.00  0.00     0.060 A 
BRANCH  87  88
ATOM     88  S   UNL A   1      43.213  22.661  27.181  1.00  0.00     0.124 S 
ATOM     89  O   UNL A   1      43.970  21.706  26.380  1.00  0.00    -0.237 OA
ATOM     90  O   UNL A   1      43.182  22.409  28.618  1.00  0.00    -0.237 OA
ATOM     91  O   UNL A   1      41.949  23.108  26.603  1.00  0.00    -0.744 OA
ENDBRANCH  87  88
ENDBRANCH  55  80
BRANCH  67  92
ATOM     92  C   UNL A   1      52.833  27.097  26.198  1.00  0.00     0.058 A 
ATOM     93  C   UNL A   1      53.369  26.614  24.994  1.00  0.00     0.135 A 
ATOM     94  C   UNL A   1      53.422  26.661  27.397  1.00  0.00     0.135 A 
ATOM     95  F   UNL A   1      52.842  26.993  23.818  1.00  0.00    -0.206 F 
ATOM     96  C   UNL A   1      54.428  25.712  24.980  1.00  0.00     0.059 A 
ATOM     97  C   UNL A   1      54.505  25.789  27.406  1.00  0.00     0.059 A 
ATOM     98  F   UNL A   1      52.957  27.099  28.578  1.00  0.00    -0.206 F 
ATOM     99  C   UNL A   1      54.992  25.308  26.193  1.00  0.00     0.060 A 
BRANCH  99 100
ATOM    100  S   UNL A   1      56.386  24.162  26.158  1.00  0.00     0.124 S 
ATOM    101  O   UNL A   1      57.146  24.589  27.328  1.00  0.00    -0.237 OA
ATOM    102  O   UNL A   1      55.725  22.865  26.271  1.00  0.00    -0.237 OA
ATOM    103  O   UNL A   1      57.015  24.429  24.869  1.00  0.00    -0.744 OA
ENDBRANCH  99 100
ENDBRANCH  67  92
ENDBRANCH  41  42
ENDBRANCH  33  36
ENDBRANCH  31  32
ENDBRANCH  30  31
ENDBRANCH  29  30
ENDBRANCH   1  29
TORSDOF 20
ENDMDL
