MODEL 1
REMARK VINA RESULT:     -10.3      0.000      0.000
REMARK SMILES CCN(C(=O)c1nc(C(C)(C)C)n[nH]1)[C@@H](C)CC(=O)NCCCCCCNC(=O)c1ccc(-c2c3nc(c(-c4c(F)cc(S(=O)(=O)[O-])cc4F)c4ccc([nH]4)c(-c4c(F)cc(S(=O)(=O)[O-])cc4F)c4nc(c(-c5c(F)cc(S(=O)(=O)[O-])cc5F)c5ccc2[nH]5)C=C4)C=C3)cc1
REMARK SMILES IDX 22 1 21 2 20 3 18 4 19 5 17 7 15 8 16 9 3 10 2 11 1 12 4 13
REMARK SMILES IDX 5 14 6 15 7 16 14 17 8 18 13 19 9 21 10 22 11 23 12 24 23 25
REMARK SMILES IDX 24 26 25 27 26 28 27 29 28 30 29 32 30 33 31 34 95 35 32 36
REMARK SMILES IDX 94 37 33 38 34 39 35 40 88 41 36 42 93 43 87 44 89 45 37 46
REMARK SMILES IDX 92 47 86 48 85 49 38 51 72 52 51 53 71 54 52 55 55 56 70 57
REMARK SMILES IDX 90 58 53 59 54 60 69 62 91 63 56 64 39 65 40 66 49 67 41 68
REMARK SMILES IDX 42 69 48 70 50 71 43 72 44 73 45 74 46 75 47 76 73 77 74 78
REMARK SMILES IDX 83 79 75 80 76 81 82 82 84 83 77 84 78 85 79 86 80 87 81 88
REMARK SMILES IDX 57 89 58 90 67 91 59 92 60 93 66 94 68 95 61 96 62 97 63 98
REMARK SMILES IDX 64 99 65 100
REMARK H PARENT 20 6 14 20 27 31 89 50 55 61
REMARK Flexibility Score: inf
ROOT
ATOM      1  C   UNL A   1      37.773  22.259  25.634  1.00  0.00     0.021 C 
ENDROOT
BRANCH   1   2
ATOM      2  C   UNL A   1      36.886  22.248  24.384  1.00  0.00     0.116 C 
BRANCH   2   3
ATOM      3  N   UNL A   1      36.172  23.508  24.239  1.00  0.00    -0.356 N 
ATOM      4  C   UNL A   1      34.949  23.778  23.700  1.00  0.00     0.222 C 
ATOM      5  O   UNL A   1      34.589  24.956  23.631  1.00  0.00    -0.275 OA
ATOM      6  H   UNL A   1      36.650  24.295  24.588  1.00  0.00     0.163 HD
BRANCH   4   7
ATOM      7  C   UNL A   1      34.030  22.665  23.233  1.00  0.00     0.124 C 
BRANCH   7   8
ATOM      8  C   UNL A   1      33.654  21.695  24.365  1.00  0.00     0.091 C 
ATOM      9  C   UNL A   1      32.741  20.547  23.912  1.00  0.00     0.031 C 
BRANCH   8  10
ATOM     10  N   UNL A   1      33.133  22.353  25.589  1.00  0.00    -0.333 N 
BRANCH  10  11
ATOM     11  C   UNL A   1      33.940  22.448  26.828  1.00  0.00     0.117 C 
ATOM     12  C   UNL A   1      33.264  22.404  28.191  1.00  0.00     0.027 C 
ENDBRANCH  10  11
BRANCH  10  13
ATOM     13  C   UNL A   1      31.927  23.092  25.441  1.00  0.00     0.291 C 
ATOM     14  O   UNL A   1      30.829  22.529  25.490  1.00  0.00    -0.265 OA
BRANCH  13  15
ATOM     15  C   UNL A   1      31.953  24.536  25.313  1.00  0.00     0.214 A 
ATOM     16  N   UNL A   1      32.260  25.449  26.211  1.00  0.00    -0.207 NA
ATOM     17  N   UNL A   1      31.596  25.174  24.161  1.00  0.00    -0.255 N 
ATOM     18  C   UNL A   1      32.012  26.639  25.576  1.00  0.00     0.156 A 
ATOM     19  N   UNL A   1      31.538  26.504  24.327  1.00  0.00    -0.158 NA
ATOM     20  H   UNL A   1      31.403  24.714  23.311  1.00  0.00     0.192 HD
BRANCH  18  21
ATOM     21  C   UNL A   1      32.228  27.969  26.257  1.00  0.00     0.024 C 
ATOM     22  C   UNL A   1      33.728  28.215  26.501  1.00  0.00     0.019 C 
ATOM     23  C   UNL A   1      31.643  29.106  25.401  1.00  0.00     0.019 C 
ATOM     24  C   UNL A   1      31.517  27.995  27.623  1.00  0.00     0.019 C 
ENDBRANCH  18  21
ENDBRANCH  13  15
ENDBRANCH  10  13
ENDBRANCH   8  10
ENDBRANCH   7   8
ENDBRANCH   4   7
ENDBRANCH   2   3
ENDBRANCH   1   2
BRANCH   1  25
ATOM     25  C   UNL A   1      38.744  21.080  25.744  1.00  0.00     0.002 C 
BRANCH  25  26
ATOM     26  C   UNL A   1      40.187  21.463  26.113  1.00  0.00     0.002 C 
BRANCH  26  27
ATOM     27  C   UNL A   1      40.416  21.961  27.553  1.00  0.00     0.021 C 
BRANCH  27  28
ATOM     28  C   UNL A   1      41.764  22.640  27.813  1.00  0.00     0.116 C 
BRANCH  28  29
ATOM     29  N   UNL A   1      42.283  23.335  26.645  1.00  0.00    -0.352 N 
ATOM     30  C   UNL A   1      42.407  24.675  26.360  1.00  0.00     0.251 C 
ATOM     31  H   UNL A   1      42.602  22.739  25.930  1.00  0.00     0.163 HD
ATOM     32  O   UNL A   1      42.747  25.002  25.222  1.00  0.00    -0.269 OA
BRANCH  30  33
ATOM     33  C   UNL A   1      42.110  25.741  27.354  1.00  0.00     0.039 A 
ATOM     34  C   UNL A   1      40.928  25.644  28.100  1.00  0.00     0.014 A 
ATOM     35  C   UNL A   1      42.910  26.872  27.514  1.00  0.00     0.014 A 
ATOM     36  C   UNL A   1      40.608  26.612  29.065  1.00  0.00     0.010 A 
ATOM     37  C   UNL A   1      42.612  27.812  28.515  1.00  0.00     0.010 A 
ATOM     38  C   UNL A   1      41.479  27.681  29.332  1.00  0.00    -0.014 A 
BRANCH  38  39
ATOM     39  C   UNL A   1      41.257  28.597  30.498  1.00  0.00     0.031 A 
ATOM     40  C   UNL A   1      42.051  28.475  31.780  1.00  0.00     0.074 A 
ATOM     41  C   UNL A   1      40.259  29.508  30.447  1.00  0.00     0.049 A 
ATOM     42  N   UNL A   1      41.925  29.156  32.894  1.00  0.00    -0.248 NA
ATOM     43  C   UNL A   1      43.098  27.444  31.830  1.00  0.00     0.031 C 
ATOM     44  C   UNL A   1      39.340  29.696  29.322  1.00  0.00     0.029 A 
ATOM     45  N   UNL A   1      39.838  30.441  31.368  1.00  0.00    -0.354 N 
ATOM     46  C   UNL A   1      42.847  28.617  33.785  1.00  0.00     0.074 A 
ATOM     47  C   UNL A   1      43.508  27.532  33.088  1.00  0.00     0.031 C 
ATOM     48  C   UNL A   1      38.488  30.692  29.605  1.00  0.00     0.029 A 
ATOM     49  C   UNL A   1      38.764  31.193  30.948  1.00  0.00     0.049 A 
ATOM     50  H   UNL A   1      40.265  30.558  32.248  1.00  0.00     0.167 HD
ATOM     51  C   UNL A   1      43.134  28.996  35.055  1.00  0.00     0.037 A 
ATOM     52  C   UNL A   1      38.064  32.168  31.564  1.00  0.00     0.037 A 
ATOM     53  C   UNL A   1      42.537  30.119  35.736  1.00  0.00     0.049 A 
ATOM     54  C   UNL A   1      38.432  32.601  32.955  1.00  0.00     0.074 A 
ATOM     55  C   UNL A   1      42.883  30.654  36.968  1.00  0.00     0.029 A 
ATOM     56  N   UNL A   1      41.476  30.870  35.261  1.00  0.00    -0.354 N 
ATOM     57  N   UNL A   1      39.386  32.147  33.732  1.00  0.00    -0.248 NA
ATOM     58  C   UNL A   1      37.627  33.675  33.558  1.00  0.00     0.031 C 
ATOM     59  C   UNL A   1      42.002  31.702  37.256  1.00  0.00     0.029 A 
ATOM     60  C   UNL A   1      41.132  31.841  36.190  1.00  0.00     0.049 A 
ATOM     61  H   UNL A   1      41.032  30.735  34.393  1.00  0.00     0.167 HD
ATOM     62  C   UNL A   1      39.297  32.884  34.908  1.00  0.00     0.074 A 
ATOM     63  C   UNL A   1      38.214  33.826  34.737  1.00  0.00     0.031 C 
ATOM     64  C   UNL A   1      40.050  32.778  36.030  1.00  0.00     0.037 A 
BRANCH  51  65
ATOM     65  C   UNL A   1      44.167  28.209  35.814  1.00  0.00     0.058 A 
ATOM     66  C   UNL A   1      43.812  27.119  36.623  1.00  0.00     0.135 A 
ATOM     67  C   UNL A   1      45.534  28.485  35.647  1.00  0.00     0.135 A 
ATOM     68  F   UNL A   1      42.519  26.815  36.816  1.00  0.00    -0.206 F 
ATOM     69  C   UNL A   1      44.775  26.340  37.255  1.00  0.00     0.059 A 
ATOM     70  C   UNL A   1      46.515  27.707  36.253  1.00  0.00     0.059 A 
ATOM     71  F   UNL A   1      45.927  29.512  34.876  1.00  0.00    -0.206 F 
ATOM     72  C   UNL A   1      46.125  26.641  37.063  1.00  0.00     0.060 A 
BRANCH  72  73
ATOM     73  S   UNL A   1      47.364  25.602  37.866  1.00  0.00     0.124 S 
ATOM     74  O   UNL A   1      48.297  25.363  36.769  1.00  0.00    -0.237 OA
ATOM     75  O   UNL A   1      47.853  26.466  38.936  1.00  0.00    -0.237 OA
ATOM     76  O   UNL A   1      46.601  24.438  38.306  1.00  0.00    -0.744 OA
ENDBRANCH  72  73
ENDBRANCH  51  65
BRANCH  52  77
ATOM     77  C   UNL A   1      36.918  32.808  30.865  1.00  0.00     0.058 A 
ATOM     78  C   UNL A   1      37.128  33.771  29.868  1.00  0.00     0.135 A 
ATOM     79  C   UNL A   1      35.595  32.472  31.188  1.00  0.00     0.135 A 
ATOM     80  F   UNL A   1      38.377  34.131  29.535  1.00  0.00    -0.206 F 
ATOM     81  C   UNL A   1      36.063  34.395  29.225  1.00  0.00     0.059 A 
ATOM     82  C   UNL A   1      34.514  33.066  30.544  1.00  0.00     0.059 A 
ATOM     83  F   UNL A   1      35.346  31.545  32.126  1.00  0.00    -0.206 F 
ATOM     84  C   UNL A   1      34.759  34.035  29.572  1.00  0.00     0.060 A 
BRANCH  84  85
ATOM     85  S   UNL A   1      33.381  34.815  28.706  1.00  0.00     0.124 S 
ATOM     86  O   UNL A   1      34.021  35.999  28.144  1.00  0.00    -0.237 OA
ATOM     87  O   UNL A   1      32.990  33.785  27.749  1.00  0.00    -0.237 OA
ATOM     88  O   UNL A   1      32.417  35.064  29.774  1.00  0.00    -0.744 OA
ENDBRANCH  84  85
ENDBRANCH  52  77
BRANCH  64  89
ATOM     89  C   UNL A   1      39.737  33.702  37.174  1.00  0.00     0.058 A 
ATOM     90  C   UNL A   1      38.785  33.361  38.146  1.00  0.00     0.135 A 
ATOM     91  C   UNL A   1      40.441  34.906  37.339  1.00  0.00     0.135 A 
ATOM     92  F   UNL A   1      38.077  32.226  38.029  1.00  0.00    -0.206 F 
ATOM     93  C   UNL A   1      38.536  34.185  39.240  1.00  0.00     0.059 A 
ATOM     94  C   UNL A   1      40.223  35.734  38.436  1.00  0.00     0.059 A 
ATOM     95  F   UNL A   1      41.366  35.277  36.439  1.00  0.00    -0.206 F 
ATOM     96  C   UNL A   1      39.263  35.367  39.380  1.00  0.00     0.060 A 
BRANCH  96  97
ATOM     97  S   UNL A   1      38.973  36.400  40.833  1.00  0.00     0.124 S 
ATOM     98  O   UNL A   1      40.298  36.431  41.442  1.00  0.00    -0.237 OA
ATOM     99  O   UNL A   1      38.518  37.655  40.240  1.00  0.00    -0.237 OA
ATOM    100  O   UNL A   1      37.957  35.662  41.577  1.00  0.00    -0.744 OA
ENDBRANCH  96  97
ENDBRANCH  64  89
ENDBRANCH  38  39
ENDBRANCH  30  33
ENDBRANCH  28  29
ENDBRANCH  27  28
ENDBRANCH  26  27
ENDBRANCH  25  26
ENDBRANCH   1  25
TORSDOF 22
ENDMDL
MODEL 2
REMARK VINA RESULT:     -10.0      6.102     11.887
REMARK SMILES CCN(C(=O)c1nc(C(C)(C)C)n[nH]1)[C@@H](C)CC(=O)NCCCCCCNC(=O)c1ccc(-c2c3nc(c(-c4c(F)cc(S(=O)(=O)[O-])cc4F)c4ccc([nH]4)c(-c4c(F)cc(S(=O)(=O)[O-])cc4F)c4nc(c(-c5c(F)cc(S(=O)(=O)[O-])cc5F)c5ccc2[nH]5)C=C4)C=C3)cc1
REMARK SMILES IDX 22 1 21 2 20 3 18 4 19 5 17 7 15 8 16 9 3 10 2 11 1 12 4 13
REMARK SMILES IDX 5 14 6 15 7 16 14 17 8 18 13 19 9 21 10 22 11 23 12 24 23 25
REMARK SMILES IDX 24 26 25 27 26 28 27 29 28 30 29 32 30 33 31 34 95 35 32 36
REMARK SMILES IDX 94 37 33 38 34 39 35 40 88 41 36 42 93 43 87 44 89 45 37 46
REMARK SMILES IDX 92 47 86 48 85 49 38 51 72 52 51 53 71 54 52 55 55 56 70 57
REMARK SMILES IDX 90 58 53 59 54 60 69 62 91 63 56 64 39 65 40 66 49 67 41 68
REMARK SMILES IDX 42 69 48 70 50 71 43 72 44 73 45 74 46 75 47 76 73 77 74 78
REMARK SMILES IDX 83 79 75 80 76 81 82 82 84 83 77 84 78 85 79 86 80 87 81 88
REMARK SMILES IDX 57 89 58 90 67 91 59 92 60 93 66 94 68 95 61 96 62 97 63 98
REMARK SMILES IDX 64 99 65 100
REMARK H PARENT 20 6 14 20 27 31 89 50 55 61
REMARK Flexibility Score: inf
ROOT
ATOM      1  C   UNL A   1      33.865  28.924  26.781  1.00  0.00     0.021 C 
ENDROOT
BRANCH   1   2
ATOM      2  C   UNL A   1      32.764  27.985  27.287  1.00  0.00     0.116 C 
BRANCH   2   3
ATOM      3  N   UNL A   1      31.829  27.654  26.222  1.00  0.00    -0.356 N 
ATOM      4  C   UNL A   1      31.511  26.453  25.662  1.00  0.00     0.222 C 
ATOM      5  O   UNL A   1      30.727  26.442  24.710  1.00  0.00    -0.275 OA
ATOM      6  H   UNL A   1      31.348  28.425  25.842  1.00  0.00     0.163 HD
BRANCH   4   7
ATOM      7  C   UNL A   1      32.069  25.153  26.213  1.00  0.00     0.124 C 
BRANCH   7   8
ATOM      8  C   UNL A   1      32.089  24.028  25.166  1.00  0.00     0.091 C 
ATOM      9  C   UNL A   1      31.064  22.919  25.436  1.00  0.00     0.031 C 
BRANCH   8  10
ATOM     10  N   UNL A   1      33.436  23.469  24.891  1.00  0.00    -0.333 N 
BRANCH  10  11
ATOM     11  C   UNL A   1      34.384  24.133  23.966  1.00  0.00     0.117 C 
ATOM     12  C   UNL A   1      35.617  23.393  23.467  1.00  0.00     0.027 C 
ENDBRANCH  10  11
BRANCH  10  13
ATOM     13  C   UNL A   1      33.859  22.405  25.735  1.00  0.00     0.291 C 
ATOM     14  O   UNL A   1      34.023  22.584  26.946  1.00  0.00    -0.265 OA
BRANCH  13  15
ATOM     15  C   UNL A   1      34.029  21.065  25.210  1.00  0.00     0.214 A 
ATOM     16  N   UNL A   1      33.138  20.261  24.668  1.00  0.00    -0.207 NA
ATOM     17  N   UNL A   1      35.225  20.409  25.254  1.00  0.00    -0.255 N 
ATOM     18  C   UNL A   1      33.827  19.094  24.454  1.00  0.00     0.156 A 
ATOM     19  N   UNL A   1      35.104  19.130  24.865  1.00  0.00    -0.158 NA
ATOM     20  H   UNL A   1      36.072  20.822  25.538  1.00  0.00     0.192 HD
BRANCH  18  21
ATOM     21  C   UNL A   1      33.172  17.880  23.840  1.00  0.00     0.024 C 
ATOM     22  C   UNL A   1      32.348  17.118  24.893  1.00  0.00     0.019 C 
ATOM     23  C   UNL A   1      32.265  18.301  22.670  1.00  0.00     0.019 C 
ATOM     24  C   UNL A   1      34.237  16.916  23.286  1.00  0.00     0.019 C 
ENDBRANCH  18  21
ENDBRANCH  13  15
ENDBRANCH  10  13
ENDBRANCH   8  10
ENDBRANCH   7   8
ENDBRANCH   4   7
ENDBRANCH   2   3
ENDBRANCH   1   2
BRANCH   1  25
ATOM     25  C   UNL A   1      34.622  29.679  27.878  1.00  0.00     0.002 C 
BRANCH  25  26
ATOM     26  C   UNL A   1      35.339  30.955  27.407  1.00  0.00     0.002 C 
BRANCH  26  27
ATOM     27  C   UNL A   1      34.998  32.251  28.167  1.00  0.00     0.021 C 
BRANCH  27  28
ATOM     28  C   UNL A   1      36.117  32.817  29.047  1.00  0.00     0.116 C 
BRANCH  28  29
ATOM     29  N   UNL A   1      35.975  32.452  30.448  1.00  0.00    -0.352 N 
ATOM     30  C   UNL A   1      36.711  31.613  31.252  1.00  0.00     0.251 C 
ATOM     31  H   UNL A   1      35.215  32.882  30.902  1.00  0.00     0.163 HD
ATOM     32  O   UNL A   1      36.284  31.360  32.380  1.00  0.00    -0.269 OA
BRANCH  30  33
ATOM     33  C   UNL A   1      37.974  30.970  30.804  1.00  0.00     0.039 A 
ATOM     34  C   UNL A   1      38.334  31.082  29.454  1.00  0.00     0.014 A 
ATOM     35  C   UNL A   1      38.770  30.193  31.645  1.00  0.00     0.014 A 
ATOM     36  C   UNL A   1      39.526  30.511  28.981  1.00  0.00     0.010 A 
ATOM     37  C   UNL A   1      39.986  29.665  31.179  1.00  0.00     0.010 A 
ATOM     38  C   UNL A   1      40.405  29.845  29.852  1.00  0.00    -0.014 A 
BRANCH  38  39
ATOM     39  C   UNL A   1      41.772  29.420  29.408  1.00  0.00     0.031 A 
ATOM     40  C   UNL A   1      42.930  30.389  29.327  1.00  0.00     0.074 A 
ATOM     41  C   UNL A   1      41.967  28.151  28.981  1.00  0.00     0.049 A 
ATOM     42  N   UNL A   1      44.152  30.177  28.901  1.00  0.00    -0.248 NA
ATOM     43  C   UNL A   1      42.680  31.775  29.750  1.00  0.00     0.031 C 
ATOM     44  C   UNL A   1      40.935  27.114  28.907  1.00  0.00     0.029 A 
ATOM     45  N   UNL A   1      43.097  27.518  28.513  1.00  0.00    -0.354 N 
ATOM     46  C   UNL A   1      44.806  31.403  28.972  1.00  0.00     0.074 A 
ATOM     47  C   UNL A   1      43.834  32.361  29.457  1.00  0.00     0.031 C 
ATOM     48  C   UNL A   1      41.481  25.975  28.453  1.00  0.00     0.029 A 
ATOM     49  C   UNL A   1      42.893  26.204  28.160  1.00  0.00     0.049 A 
ATOM     50  H   UNL A   1      43.971  27.965  28.438  1.00  0.00     0.167 HD
ATOM     51  C   UNL A   1      46.096  31.704  28.680  1.00  0.00     0.037 A 
ATOM     52  C   UNL A   1      43.730  25.279  27.646  1.00  0.00     0.037 A 
ATOM     53  C   UNL A   1      47.094  30.748  28.266  1.00  0.00     0.049 A 
ATOM     54  C   UNL A   1      45.166  25.626  27.375  1.00  0.00     0.074 A 
ATOM     55  C   UNL A   1      48.455  30.952  28.096  1.00  0.00     0.029 A 
ATOM     56  N   UNL A   1      46.849  29.423  27.950  1.00  0.00    -0.354 N 
ATOM     57  N   UNL A   1      45.785  26.767  27.559  1.00  0.00    -0.248 NA
ATOM     58  C   UNL A   1      46.020  24.563  26.821  1.00  0.00     0.031 C 
ATOM     59  C   UNL A   1      49.025  29.761  27.635  1.00  0.00     0.029 A 
ATOM     60  C   UNL A   1      48.026  28.807  27.552  1.00  0.00     0.049 A 
ATOM     61  H   UNL A   1      45.970  28.983  28.000  1.00  0.00     0.167 HD
ATOM     62  C   UNL A   1      47.098  26.555  27.150  1.00  0.00     0.074 A 
ATOM     63  C   UNL A   1      47.193  25.175  26.729  1.00  0.00     0.031 C 
ATOM     64  C   UNL A   1      48.127  27.436  27.125  1.00  0.00     0.037 A 
BRANCH  51  65
ATOM     65  C   UNL A   1      46.538  33.135  28.816  1.00  0.00     0.058 A 
ATOM     66  C   UNL A   1      46.425  34.043  27.752  1.00  0.00     0.135 A 
ATOM     67  C   UNL A   1      46.982  33.626  30.054  1.00  0.00     0.135 A 
ATOM     68  F   UNL A   1      46.006  33.624  26.548  1.00  0.00    -0.206 F 
ATOM     69  C   UNL A   1      46.753  35.386  27.905  1.00  0.00     0.059 A 
ATOM     70  C   UNL A   1      47.297  34.970  30.236  1.00  0.00     0.059 A 
ATOM     71  F   UNL A   1      47.100  32.801  31.106  1.00  0.00    -0.206 F 
ATOM     72  C   UNL A   1      47.188  35.840  29.152  1.00  0.00     0.060 A 
BRANCH  72  73
ATOM     73  S   UNL A   1      47.582  37.592  29.344  1.00  0.00     0.124 S 
ATOM     74  O   UNL A   1      46.264  38.203  29.204  1.00  0.00    -0.237 OA
ATOM     75  O   UNL A   1      48.162  37.639  30.682  1.00  0.00    -0.237 OA
ATOM     76  O   UNL A   1      48.514  37.853  28.252  1.00  0.00    -0.744 OA
ENDBRANCH  72  73
ENDBRANCH  51  65
BRANCH  52  77
ATOM     77  C   UNL A   1      43.224  23.915  27.338  1.00  0.00     0.058 A 
ATOM     78  C   UNL A   1      42.592  23.637  26.118  1.00  0.00     0.135 A 
ATOM     79  C   UNL A   1      43.356  22.869  28.264  1.00  0.00     0.135 A 
ATOM     80  F   UNL A   1      42.434  24.610  25.208  1.00  0.00    -0.206 F 
ATOM     81  C   UNL A   1      42.093  22.371  25.830  1.00  0.00     0.059 A 
ATOM     82  C   UNL A   1      42.884  21.589  27.990  1.00  0.00     0.059 A 
ATOM     83  F   UNL A   1      43.967  23.084  29.440  1.00  0.00    -0.206 F 
ATOM     84  C   UNL A   1      42.243  21.354  26.775  1.00  0.00     0.060 A 
BRANCH  84  85
ATOM     85  S   UNL A   1      41.632  19.701  26.381  1.00  0.00     0.124 S 
ATOM     86  O   UNL A   1      41.984  18.964  27.589  1.00  0.00    -0.237 OA
ATOM     87  O   UNL A   1      40.207  19.938  26.169  1.00  0.00    -0.237 OA
ATOM     88  O   UNL A   1      42.384  19.347  25.181  1.00  0.00    -0.744 OA
ENDBRANCH  84  85
ENDBRANCH  52  77
BRANCH  64  89
ATOM     89  C   UNL A   1      49.457  26.945  26.624  1.00  0.00     0.058 A 
ATOM     90  C   UNL A   1      50.380  26.336  27.487  1.00  0.00     0.135 A 
ATOM     91  C   UNL A   1      49.786  27.023  25.261  1.00  0.00     0.135 A 
ATOM     92  F   UNL A   1      50.120  26.246  28.801  1.00  0.00    -0.206 F 
ATOM     93  C   UNL A   1      51.588  25.825  27.018  1.00  0.00     0.059 A 
ATOM     94  C   UNL A   1      50.978  26.501  24.767  1.00  0.00     0.059 A 
ATOM     95  F   UNL A   1      48.935  27.592  24.393  1.00  0.00    -0.206 F 
ATOM     96  C   UNL A   1      51.875  25.908  25.655  1.00  0.00     0.060 A 
BRANCH  96  97
ATOM     97  S   UNL A   1      53.418  25.191  25.048  1.00  0.00     0.124 S 
ATOM     98  O   UNL A   1      54.393  25.766  25.970  1.00  0.00    -0.237 OA
ATOM     99  O   UNL A   1      53.178  23.758  25.195  1.00  0.00    -0.237 OA
ATOM    100  O   UNL A   1      53.498  25.670  23.672  1.00  0.00    -0.744 OA
ENDBRANCH  96  97
ENDBRANCH  64  89
ENDBRANCH  38  39
ENDBRANCH  30  33
ENDBRANCH  28  29
ENDBRANCH  27  28
ENDBRANCH  26  27
ENDBRANCH  25  26
ENDBRANCH   1  25
TORSDOF 22
ENDMDL
MODEL 3
REMARK VINA RESULT:      -9.9      6.216     10.975
REMARK SMILES CCN(C(=O)c1nc(C(C)(C)C)n[nH]1)[C@@H](C)CC(=O)NCCCCCCNC(=O)c1ccc(-c2c3nc(c(-c4c(F)cc(S(=O)(=O)[O-])cc4F)c4ccc([nH]4)c(-c4c(F)cc(S(=O)(=O)[O-])cc4F)c4nc(c(-c5c(F)cc(S(=O)(=O)[O-])cc5F)c5ccc2[nH]5)C=C4)C=C3)cc1
REMARK SMILES IDX 22 1 21 2 20 3 18 4 19 5 17 7 15 8 16 9 3 10 2 11 1 12 4 13
REMARK SMILES IDX 5 14 6 15 7 16 14 17 8 18 13 19 9 21 10 22 11 23 12 24 23 25
REMARK SMILES IDX 24 26 25 27 26 28 27 29 28 30 29 32 30 33 31 34 95 35 32 36
REMARK SMILES IDX 94 37 33 38 34 39 35 40 88 41 36 42 93 43 87 44 89 45 37 46
REMARK SMILES IDX 92 47 86 48 85 49 38 51 72 52 51 53 71 54 52 55 55 56 70 57
REMARK SMILES IDX 90 58 53 59 54 60 69 62 91 63 56 64 39 65 40 66 49 67 41 68
REMARK SMILES IDX 42 69 48 70 50 71 43 72 44 73 45 74 46 75 47 76 73 77 74 78
REMARK SMILES IDX 83 79 75 80 76 81 82 82 84 83 77 84 78 85 79 86 80 87 81 88
REMARK SMILES IDX 57 89 58 90 67 91 59 92 60 93 66 94 68 95 61 96 62 97 63 98
REMARK SMILES IDX 64 99 65 100
REMARK H PARENT 20 6 14 20 27 31 89 50 55 61
REMARK Flexibility Score: inf
ROOT
ATOM      1  C   UNL A   1      35.840  23.012  25.668  1.00  0.00     0.021 C 
ENDROOT
BRANCH   1   2
ATOM      2  C   UNL A   1      35.353  24.163  24.781  1.00  0.00     0.116 C 
BRANCH   2   3
ATOM      3  N   UNL A   1      34.659  25.171  25.569  1.00  0.00    -0.356 N 
ATOM      4  C   UNL A   1      33.842  26.192  25.182  1.00  0.00     0.222 C 
ATOM      5  O   UNL A   1      33.425  26.965  26.048  1.00  0.00    -0.275 OA
ATOM      6  H   UNL A   1      34.803  25.105  26.540  1.00  0.00     0.163 HD
BRANCH   4   7
ATOM      7  C   UNL A   1      33.418  26.358  23.735  1.00  0.00     0.124 C 
BRANCH   7   8
ATOM      8  C   UNL A   1      32.784  25.082  23.155  1.00  0.00     0.091 C 
ATOM      9  C   UNL A   1      32.559  25.142  21.639  1.00  0.00     0.031 C 
BRANCH   8  10
ATOM     10  N   UNL A   1      31.566  24.623  23.868  1.00  0.00    -0.333 N 
BRANCH  10  11
ATOM     11  C   UNL A   1      30.211  25.064  23.462  1.00  0.00     0.117 C 
ATOM     12  C   UNL A   1      29.516  26.196  24.207  1.00  0.00     0.027 C 
ENDBRANCH  10  11
BRANCH  10  13
ATOM     13  C   UNL A   1      31.744  23.561  24.797  1.00  0.00     0.291 C 
ATOM     14  O   UNL A   1      31.597  23.748  26.009  1.00  0.00    -0.265 OA
BRANCH  13  15
ATOM     15  C   UNL A   1      32.021  22.214  24.339  1.00  0.00     0.214 A 
ATOM     16  N   UNL A   1      32.504  21.187  25.008  1.00  0.00    -0.207 NA
ATOM     17  N   UNL A   1      31.835  21.829  23.043  1.00  0.00    -0.255 N 
ATOM     18  C   UNL A   1      32.657  20.210  24.057  1.00  0.00     0.156 A 
ATOM     19  N   UNL A   1      32.313  20.595  22.819  1.00  0.00    -0.158 NA
ATOM     20  H   UNL A   1      31.405  22.389  22.357  1.00  0.00     0.192 HD
BRANCH  18  21
ATOM     21  C   UNL A   1      33.198  18.842  24.397  1.00  0.00     0.024 C 
ATOM     22  C   UNL A   1      34.722  18.897  24.599  1.00  0.00     0.019 C 
ATOM     23  C   UNL A   1      32.519  18.303  25.669  1.00  0.00     0.019 C 
ATOM     24  C   UNL A   1      32.908  17.851  23.254  1.00  0.00     0.019 C 
ENDBRANCH  18  21
ENDBRANCH  13  15
ENDBRANCH  10  13
ENDBRANCH   8  10
ENDBRANCH   7   8
ENDBRANCH   4   7
ENDBRANCH   2   3
ENDBRANCH   1   2
BRANCH   1  25
ATOM     25  C   UNL A   1      37.360  22.822  25.699  1.00  0.00     0.002 C 
BRANCH  25  26
ATOM     26  C   UNL A   1      37.852  21.462  25.177  1.00  0.00     0.002 C 
BRANCH  26  27
ATOM     27  C   UNL A   1      39.304  21.081  25.524  1.00  0.00     0.021 C 
BRANCH  27  28
ATOM     28  C   UNL A   1      39.467  19.897  26.483  1.00  0.00     0.116 C 
BRANCH  28  29
ATOM     29  N   UNL A   1      40.571  19.023  26.121  1.00  0.00    -0.352 N 
ATOM     30  C   UNL A   1      41.920  19.263  25.987  1.00  0.00     0.251 C 
ATOM     31  H   UNL A   1      40.307  18.093  25.939  1.00  0.00     0.163 HD
ATOM     32  O   UNL A   1      42.629  18.371  25.520  1.00  0.00    -0.269 OA
BRANCH  30  33
ATOM     33  C   UNL A   1      42.546  20.563  26.345  1.00  0.00     0.039 A 
ATOM     34  C   UNL A   1      43.232  21.268  25.347  1.00  0.00     0.014 A 
ATOM     35  C   UNL A   1      42.554  21.068  27.645  1.00  0.00     0.014 A 
ATOM     36  C   UNL A   1      43.825  22.509  25.626  1.00  0.00     0.010 A 
ATOM     37  C   UNL A   1      43.106  22.334  27.908  1.00  0.00     0.010 A 
ATOM     38  C   UNL A   1      43.717  23.093  26.899  1.00  0.00    -0.014 A 
BRANCH  38  39
ATOM     39  C   UNL A   1      44.157  24.503  27.152  1.00  0.00     0.031 A 
ATOM     40  C   UNL A   1      43.195  25.577  27.609  1.00  0.00     0.074 A 
ATOM     41  C   UNL A   1      45.434  24.859  26.883  1.00  0.00     0.049 A 
ATOM     42  N   UNL A   1      43.421  26.854  27.807  1.00  0.00    -0.248 NA
ATOM     43  C   UNL A   1      41.801  25.176  27.848  1.00  0.00     0.031 C 
ATOM     44  C   UNL A   1      46.468  23.970  26.349  1.00  0.00     0.029 A 
ATOM     45  N   UNL A   1      46.081  26.069  27.007  1.00  0.00    -0.354 N 
ATOM     46  C   UNL A   1      42.197  27.414  28.160  1.00  0.00     0.074 A 
ATOM     47  C   UNL A   1      41.225  26.340  28.121  1.00  0.00     0.031 C 
ATOM     48  C   UNL A   1      47.616  24.650  26.218  1.00  0.00     0.029 A 
ATOM     49  C   UNL A   1      47.400  26.038  26.616  1.00  0.00     0.049 A 
ATOM     50  H   UNL A   1      45.639  26.882  27.343  1.00  0.00     0.167 HD
ATOM     51  C   UNL A   1      41.907  28.694  28.501  1.00  0.00     0.037 A 
ATOM     52  C   UNL A   1      48.338  27.006  26.566  1.00  0.00     0.037 A 
ATOM     53  C   UNL A   1      42.875  29.758  28.615  1.00  0.00     0.049 A 
ATOM     54  C   UNL A   1      48.002  28.407  26.994  1.00  0.00     0.074 A 
ATOM     55  C   UNL A   1      42.681  31.043  29.098  1.00  0.00     0.029 A 
ATOM     56  N   UNL A   1      44.204  29.673  28.238  1.00  0.00    -0.354 N 
ATOM     57  N   UNL A   1      46.862  28.882  27.431  1.00  0.00    -0.248 NA
ATOM     58  C   UNL A   1      49.080  29.407  26.917  1.00  0.00     0.031 C 
ATOM     59  C   UNL A   1      43.883  31.747  28.973  1.00  0.00     0.029 A 
ATOM     60  C   UNL A   1      44.833  30.891  28.446  1.00  0.00     0.049 A 
ATOM     61  H   UNL A   1      44.639  28.867  27.877  1.00  0.00     0.167 HD
ATOM     62  C   UNL A   1      47.087  30.231  27.686  1.00  0.00     0.074 A 
ATOM     63  C   UNL A   1      48.475  30.494  27.377  1.00  0.00     0.031 C 
ATOM     64  C   UNL A   1      46.212  31.163  28.134  1.00  0.00     0.037 A 
BRANCH  51  65
ATOM     65  C   UNL A   1      40.476  29.039  28.809  1.00  0.00     0.058 A 
ATOM     66  C   UNL A   1      40.025  29.194  30.129  1.00  0.00     0.135 A 
ATOM     67  C   UNL A   1      39.574  29.319  27.770  1.00  0.00     0.135 A 
ATOM     68  F   UNL A   1      40.847  28.937  31.158  1.00  0.00    -0.206 F 
ATOM     69  C   UNL A   1      38.723  29.597  30.408  1.00  0.00     0.059 A 
ATOM     70  C   UNL A   1      38.273  29.743  28.026  1.00  0.00     0.059 A 
ATOM     71  F   UNL A   1      39.959  29.195  26.489  1.00  0.00    -0.206 F 
ATOM     72  C   UNL A   1      37.855  29.870  29.350  1.00  0.00     0.060 A 
BRANCH  72  73
ATOM     73  S   UNL A   1      36.177  30.421  29.729  1.00  0.00     0.124 S 
ATOM     74  O   UNL A   1      35.889  29.660  30.941  1.00  0.00    -0.237 OA
ATOM     75  O   UNL A   1      36.353  31.859  29.912  1.00  0.00    -0.237 OA
ATOM     76  O   UNL A   1      35.416  30.032  28.547  1.00  0.00    -0.744 OA
ENDBRANCH  72  73
ENDBRANCH  51  65
BRANCH  52  77
ATOM     77  C   UNL A   1      49.704  26.685  26.076  1.00  0.00     0.058 A 
ATOM     78  C   UNL A   1      50.667  26.131  26.932  1.00  0.00     0.135 A 
ATOM     79  C   UNL A   1      50.073  26.935  24.745  1.00  0.00     0.135 A 
ATOM     80  F   UNL A   1      50.361  25.886  28.215  1.00  0.00    -0.206 F 
ATOM     81  C   UNL A   1      51.956  25.851  26.491  1.00  0.00     0.059 A 
ATOM     82  C   UNL A   1      51.350  26.642  24.275  1.00  0.00     0.059 A 
ATOM     83  F   UNL A   1      49.181  27.451  23.885  1.00  0.00    -0.206 F 
ATOM     84  C   UNL A   1      52.287  26.112  25.160  1.00  0.00     0.060 A 
BRANCH  84  85
ATOM     85  S   UNL A   1      53.949  25.707  24.580  1.00  0.00     0.124 S 
ATOM     86  O   UNL A   1      54.777  26.383  25.571  1.00  0.00    -0.237 OA
ATOM     87  O   UNL A   1      53.951  24.248  24.632  1.00  0.00    -0.237 OA
ATOM     88  O   UNL A   1      53.978  26.276  23.235  1.00  0.00    -0.744 OA
ENDBRANCH  84  85
ENDBRANCH  52  77
BRANCH  64  89
ATOM     89  C   UNL A   1      46.718  32.567  28.320  1.00  0.00     0.058 A 
ATOM     90  C   UNL A   1      47.331  32.967  29.516  1.00  0.00     0.135 A 
ATOM     91  C   UNL A   1      46.651  33.500  27.273  1.00  0.00     0.135 A 
ATOM     92  F   UNL A   1      47.411  32.116  30.552  1.00  0.00    -0.206 F 
ATOM     93  C   UNL A   1      47.856  34.247  29.673  1.00  0.00     0.059 A 
ATOM     94  C   UNL A   1      47.187  34.779  27.400  1.00  0.00     0.059 A 
ATOM     95  F   UNL A   1      46.078  33.167  26.106  1.00  0.00    -0.206 F 
ATOM     96  C   UNL A   1      47.783  35.145  28.607  1.00  0.00     0.060 A 
BRANCH  96  97
ATOM     97  S   UNL A   1      48.518  36.783  28.800  1.00  0.00     0.124 S 
ATOM     98  O   UNL A   1      49.573  36.521  29.773  1.00  0.00    -0.237 OA
ATOM     99  O   UNL A   1      48.969  37.088  27.444  1.00  0.00    -0.237 OA
ATOM    100  O   UNL A   1      47.408  37.599  29.282  1.00  0.00    -0.744 OA
ENDBRANCH  96  97
ENDBRANCH  64  89
ENDBRANCH  38  39
ENDBRANCH  30  33
ENDBRANCH  28  29
ENDBRANCH  27  28
ENDBRANCH  26  27
ENDBRANCH  25  26
ENDBRANCH   1  25
TORSDOF 22
ENDMDL
