MODEL 1
REMARK VINA RESULT:      -9.1      0.000      0.000
REMARK SMILES O=C(CCCN1C(=O)/C(=C/c2ccccc2Cl)SC1=S)Nc1cccc(C(=O)NCCCCCCNC(=O)c2ccc(-c3c4nc(c(-c5c(F)cc(S(=O)(=O)[O-])cc5F)c5ccc([nH]5)c(-c5c(F)cc(S(=O)(=O)[O-])cc5F)c5nc(c(-c6c(F)cc(S(=O)(=O)[O-])cc6F)c6ccc3[nH]6)C=C5)C=C4)cc2)c1
REMARK SMILES IDX 31 1 30 2 29 3 27 4 28 5 26 7 22 8 23 9 105 10 24 11 25 12
REMARK SMILES IDX 21 13 1 14 2 15 3 17 4 18 5 19 6 20 7 21 19 22 8 23 9 24
REMARK SMILES IDX 18 25 20 26 10 27 11 28 12 29 16 30 13 31 15 32 17 33 14 34
REMARK SMILES IDX 32 35 33 36 34 37 35 38 36 39 37 40 38 42 39 43 40 44 104 45
REMARK SMILES IDX 41 46 103 47 42 48 43 49 44 50 97 51 45 52 102 53 96 54
REMARK SMILES IDX 98 55 46 56 101 57 95 58 94 59 47 61 81 62 60 63 80 64 61 65
REMARK SMILES IDX 64 66 79 67 99 68 62 69 63 70 78 72 100 73 65 74 48 75 49 76
REMARK SMILES IDX 58 77 50 78 51 79 57 80 59 81 52 82 53 83 54 84 55 85 56 86
REMARK SMILES IDX 82 87 83 88 92 89 84 90 85 91 91 92 93 93 86 94 87 95 88 96
REMARK SMILES IDX 89 97 90 98 66 99 67 100 76 101 68 102 69 103 75 104 77 105
REMARK SMILES IDX 70 106 71 107 72 108 73 109 74 110
REMARK H PARENT 29 6 21 16 36 41 98 60 64 71
REMARK Flexibility Score: inf
ROOT
ATOM      1  C   UNL A   1      35.848  34.764  33.718  1.00  0.00     0.021 C 
ENDROOT
BRANCH   1   2
ATOM      2  C   UNL A   1      36.991  34.180  34.543  1.00  0.00     0.116 C 
BRANCH   2   3
ATOM      3  N   UNL A   1      38.322  34.545  34.068  1.00  0.00    -0.352 N 
ATOM      4  C   UNL A   1      39.378  33.754  33.657  1.00  0.00     0.251 C 
ATOM      5  O   UNL A   1      40.434  34.288  33.323  1.00  0.00    -0.269 OA
ATOM      6  H   UNL A   1      38.496  35.513  34.035  1.00  0.00     0.163 HD
BRANCH   4   7
ATOM      7  C   UNL A   1      39.293  32.270  33.691  1.00  0.00     0.041 A 
ATOM      8  C   UNL A   1      40.363  30.143  34.123  1.00  0.00     0.041 A 
ATOM      9  C   UNL A   1      39.396  29.507  33.337  1.00  0.00     0.026 A 
ATOM     10  C   UNL A   1      40.224  31.503  34.390  1.00  0.00     0.040 A 
ATOM     11  C   UNL A   1      38.339  30.240  32.789  1.00  0.00     0.003 A 
ATOM     12  C   UNL A   1      38.306  31.627  32.938  1.00  0.00     0.014 A 
BRANCH   8  13
ATOM     13  N   UNL A   1      41.516  29.410  34.484  1.00  0.00    -0.326 N 
ATOM     14  O   UNL A   1      40.789  28.352  36.422  1.00  0.00    -0.275 OA
ATOM     15  C   UNL A   1      41.681  28.671  35.640  1.00  0.00     0.224 C 
ATOM     16  H   UNL A   1      42.270  29.427  33.852  1.00  0.00     0.169 HD
BRANCH  15  17
ATOM     17  C   UNL A   1      43.121  28.367  35.998  1.00  0.00     0.102 C 
BRANCH  17  18
ATOM     18  C   UNL A   1      44.178  29.213  35.298  1.00  0.00     0.032 C 
BRANCH  18  19
ATOM     19  C   UNL A   1      45.644  28.944  35.680  1.00  0.00     0.128 C 
BRANCH  19  20
ATOM     20  N   UNL A   1      46.044  27.540  35.820  1.00  0.00    -0.293 N 
ATOM     21  C   UNL A   1      46.134  26.753  34.678  1.00  0.00     0.266 C 
ATOM     22  C   UNL A   1      46.228  26.877  37.019  1.00  0.00     0.148 C 
ATOM     23  O   UNL A   1      46.019  27.143  33.523  1.00  0.00    -0.268 OA
ATOM     24  C   UNL A   1      46.379  25.333  35.052  1.00  0.00     0.081 C 
ATOM     25  S   UNL A   1      46.843  25.261  36.705  1.00  0.00    -0.054 SA
ATOM     26  S   UNL A   1      45.941  27.419  38.566  1.00  0.00    -0.052 S 
ATOM     27  C   UNL A   1      46.174  24.305  34.215  1.00  0.00     0.031 C 
BRANCH  27  28
ATOM     28  C   UNL A   1      46.351  22.882  34.565  1.00  0.00    -0.006 A 
ATOM     29  C   UNL A   1      45.197  22.147  34.874  1.00  0.00     0.010 A 
ATOM     30  C   UNL A   1      47.594  22.220  34.585  1.00  0.00     0.048 A 
ATOM     31  C   UNL A   1      45.272  20.775  35.135  1.00  0.00     0.001 A 
ATOM     32  C   UNL A   1      47.660  20.842  34.815  1.00  0.00     0.021 A 
ATOM     33  Cl  UNL A   1      49.094  23.062  34.381  1.00  0.00    -0.084 Cl
ATOM     34  C   UNL A   1      46.499  20.119  35.081  1.00  0.00     0.002 A 
ENDBRANCH  27  28
ENDBRANCH  19  20
ENDBRANCH  18  19
ENDBRANCH  17  18
ENDBRANCH  15  17
ENDBRANCH   8  13
ENDBRANCH   4   7
ENDBRANCH   2   3
ENDBRANCH   1   2
BRANCH   1  35
ATOM     35  C   UNL A   1      34.704  33.811  33.375  1.00  0.00     0.002 C 
BRANCH  35  36
ATOM     36  C   UNL A   1      34.363  33.669  31.890  1.00  0.00     0.002 C 
BRANCH  36  37
ATOM     37  C   UNL A   1      35.031  32.508  31.148  1.00  0.00     0.021 C 
BRANCH  37  38
ATOM     38  C   UNL A   1      35.177  32.681  29.637  1.00  0.00     0.116 C 
BRANCH  38  39
ATOM     39  N   UNL A   1      34.337  31.766  28.879  1.00  0.00    -0.352 N 
ATOM     40  C   UNL A   1      34.661  30.587  28.249  1.00  0.00     0.251 C 
ATOM     41  H   UNL A   1      33.392  32.032  28.807  1.00  0.00     0.163 HD
ATOM     42  O   UNL A   1      33.842  30.033  27.528  1.00  0.00    -0.269 OA
BRANCH  40  43
ATOM     43  C   UNL A   1      36.011  30.004  28.421  1.00  0.00     0.039 A 
ATOM     44  C   UNL A   1      36.936  30.124  27.379  1.00  0.00     0.014 A 
ATOM     45  C   UNL A   1      36.369  29.355  29.605  1.00  0.00     0.014 A 
ATOM     46  C   UNL A   1      38.246  29.673  27.560  1.00  0.00     0.010 A 
ATOM     47  C   UNL A   1      37.692  28.964  29.808  1.00  0.00     0.010 A 
ATOM     48  C   UNL A   1      38.647  29.138  28.795  1.00  0.00    -0.014 A 
BRANCH  48  49
ATOM     49  C   UNL A   1      40.071  28.813  29.072  1.00  0.00     0.031 A 
ATOM     50  C   UNL A   1      40.992  29.844  29.658  1.00  0.00     0.074 A 
ATOM     51  C   UNL A   1      40.551  27.606  28.711  1.00  0.00     0.049 A 
ATOM     52  N   UNL A   1      42.279  29.770  29.882  1.00  0.00    -0.248 NA
ATOM     53  C   UNL A   1      40.391  31.136  30.021  1.00  0.00     0.031 C 
ATOM     54  C   UNL A   1      39.763  26.530  28.105  1.00  0.00     0.029 A 
ATOM     55  N   UNL A   1      41.819  27.083  28.787  1.00  0.00    -0.354 N 
ATOM     56  C   UNL A   1      42.645  31.004  30.407  1.00  0.00     0.074 A 
ATOM     57  C   UNL A   1      41.452  31.825  30.417  1.00  0.00     0.031 C 
ATOM     58  C   UNL A   1      40.557  25.471  27.886  1.00  0.00     0.029 A 
ATOM     59  C   UNL A   1      41.920  25.807  28.286  1.00  0.00     0.049 A 
ATOM     60  H   UNL A   1      42.583  27.577  29.163  1.00  0.00     0.167 HD
ATOM     61  C   UNL A   1      43.859  31.408  30.854  1.00  0.00     0.037 A 
ATOM     62  C   UNL A   1      42.991  25.000  28.149  1.00  0.00     0.037 A 
ATOM     63  C   UNL A   1      45.041  30.585  30.834  1.00  0.00     0.049 A 
ATOM     64  C   UNL A   1      44.341  25.492  28.593  1.00  0.00     0.074 A 
ATOM     65  C   UNL A   1      46.307  30.883  31.307  1.00  0.00     0.029 A 
ATOM     66  N   UNL A   1      45.109  29.306  30.295  1.00  0.00    -0.354 N 
ATOM     67  N   UNL A   1      44.658  26.638  29.147  1.00  0.00    -0.248 NA
ATOM     68  C   UNL A   1      45.479  24.588  28.385  1.00  0.00     0.031 C 
ATOM     69  C   UNL A   1      47.152  29.810  31.003  1.00  0.00     0.029 A 
ATOM     70  C   UNL A   1      46.403  28.818  30.390  1.00  0.00     0.049 A 
ATOM     71  H   UNL A   1      44.349  28.818  29.903  1.00  0.00     0.167 HD
ATOM     72  C   UNL A   1      46.029  26.586  29.372  1.00  0.00     0.074 A 
ATOM     73  C   UNL A   1      46.478  25.288  28.906  1.00  0.00     0.031 C 
ATOM     74  C   UNL A   1      46.840  27.526  29.915  1.00  0.00     0.037 A 
BRANCH  61  75
ATOM     75  C   UNL A   1      43.965  32.812  31.391  1.00  0.00     0.058 A 
ATOM     76  C   UNL A   1      43.728  33.104  32.744  1.00  0.00     0.135 A 
ATOM     77  C   UNL A   1      44.312  33.878  30.546  1.00  0.00     0.135 A 
ATOM     78  F   UNL A   1      43.383  32.126  33.598  1.00  0.00    -0.206 F 
ATOM     79  C   UNL A   1      43.777  34.408  33.229  1.00  0.00     0.059 A 
ATOM     80  C   UNL A   1      44.400  35.186  31.015  1.00  0.00     0.059 A 
ATOM     81  F   UNL A   1      44.558  33.658  29.245  1.00  0.00    -0.206 F 
ATOM     82  C   UNL A   1      44.106  35.444  32.353  1.00  0.00     0.060 A 
BRANCH  82  83
ATOM     83  S   UNL A   1      44.127  37.133  32.988  1.00  0.00     0.124 S 
ATOM     84  O   UNL A   1      43.075  37.077  33.999  1.00  0.00    -0.237 OA
ATOM     85  O   UNL A   1      45.489  37.261  33.497  1.00  0.00    -0.237 OA
ATOM     86  O   UNL A   1      43.823  37.942  31.812  1.00  0.00    -0.744 OA
ENDBRANCH  82  83
ENDBRANCH  61  75
BRANCH  62  87
ATOM     87  C   UNL A   1      42.818  23.636  27.582  1.00  0.00     0.058 A 
ATOM     88  C   UNL A   1      42.905  23.422  26.198  1.00  0.00     0.135 A 
ATOM     89  C   UNL A   1      42.610  22.519  28.406  1.00  0.00     0.135 A 
ATOM     90  F   UNL A   1      43.094  24.459  25.369  1.00  0.00    -0.206 F 
ATOM     91  C   UNL A   1      42.793  22.149  25.651  1.00  0.00     0.059 A 
ATOM     92  C   UNL A   1      42.520  21.232  27.883  1.00  0.00     0.059 A 
ATOM     93  F   UNL A   1      42.532  22.669  29.736  1.00  0.00    -0.206 F 
ATOM     94  C   UNL A   1      42.609  21.058  26.503  1.00  0.00     0.060 A 
BRANCH  94  95
ATOM     95  S   UNL A   1      42.537  19.403  25.782  1.00  0.00     0.124 S 
ATOM     96  O   UNL A   1      42.912  18.571  26.919  1.00  0.00    -0.237 OA
ATOM     97  O   UNL A   1      41.143  19.315  25.359  1.00  0.00    -0.237 OA
ATOM     98  O   UNL A   1      43.512  19.467  24.697  1.00  0.00    -0.744 OA
ENDBRANCH  94  95
ENDBRANCH  62  87
BRANCH  74  99
ATOM     99  C   UNL A   1      48.301  27.191  30.049  1.00  0.00     0.058 A 
ATOM    100  C   UNL A   1      49.265  27.752  29.197  1.00  0.00     0.135 A 
ATOM    101  C   UNL A   1      48.750  26.357  31.086  1.00  0.00     0.135 A 
ATOM    102  F   UNL A   1      48.889  28.546  28.181  1.00  0.00    -0.206 F 
ATOM    103  C   UNL A   1      50.621  27.491  29.361  1.00  0.00     0.059 A 
ATOM    104  C   UNL A   1      50.104  26.105  31.287  1.00  0.00     0.059 A 
ATOM    105  F   UNL A   1      47.872  25.798  31.933  1.00  0.00    -0.206 F 
ATOM    106  C   UNL A   1      51.033  26.673  30.415  1.00  0.00     0.060 A 
BRANCH 106 107
ATOM    107  S   UNL A   1      52.801  26.396  30.655  1.00  0.00     0.124 S 
ATOM    108  O   UNL A   1      53.246  27.710  31.109  1.00  0.00    -0.237 OA
ATOM    109  O   UNL A   1      52.816  25.339  31.660  1.00  0.00    -0.237 OA
ATOM    110  O   UNL A   1      53.267  25.999  29.330  1.00  0.00    -0.744 OA
ENDBRANCH 106 107
ENDBRANCH  74  99
ENDBRANCH  48  49
ENDBRANCH  40  43
ENDBRANCH  38  39
ENDBRANCH  37  38
ENDBRANCH  36  37
ENDBRANCH  35  36
ENDBRANCH   1  35
TORSDOF 22
ENDMDL
MODEL 2
REMARK VINA RESULT:      -8.9      3.474     10.443
REMARK SMILES O=C(CCCN1C(=O)/C(=C/c2ccccc2Cl)SC1=S)Nc1cccc(C(=O)NCCCCCCNC(=O)c2ccc(-c3c4nc(c(-c5c(F)cc(S(=O)(=O)[O-])cc5F)c5ccc([nH]5)c(-c5c(F)cc(S(=O)(=O)[O-])cc5F)c5nc(c(-c6c(F)cc(S(=O)(=O)[O-])cc6F)c6ccc3[nH]6)C=C5)C=C4)cc2)c1
REMARK SMILES IDX 31 1 30 2 29 3 27 4 28 5 26 7 22 8 23 9 105 10 24 11 25 12
REMARK SMILES IDX 21 13 1 14 2 15 3 17 4 18 5 19 6 20 7 21 19 22 8 23 9 24
REMARK SMILES IDX 18 25 20 26 10 27 11 28 12 29 16 30 13 31 15 32 17 33 14 34
REMARK SMILES IDX 32 35 33 36 34 37 35 38 36 39 37 40 38 42 39 43 40 44 104 45
REMARK SMILES IDX 41 46 103 47 42 48 43 49 44 50 97 51 45 52 102 53 96 54
REMARK SMILES IDX 98 55 46 56 101 57 95 58 94 59 47 61 81 62 60 63 80 64 61 65
REMARK SMILES IDX 64 66 79 67 99 68 62 69 63 70 78 72 100 73 65 74 48 75 49 76
REMARK SMILES IDX 58 77 50 78 51 79 57 80 59 81 52 82 53 83 54 84 55 85 56 86
REMARK SMILES IDX 82 87 83 88 92 89 84 90 85 91 91 92 93 93 86 94 87 95 88 96
REMARK SMILES IDX 89 97 90 98 66 99 67 100 76 101 68 102 69 103 75 104 77 105
REMARK SMILES IDX 70 106 71 107 72 108 73 109 74 110
REMARK H PARENT 29 6 21 16 36 41 98 60 64 71
REMARK Flexibility Score: inf
ROOT
ATOM      1  C   UNL A   1      44.882  23.731  24.577  1.00  0.00     0.021 C 
ENDROOT
BRANCH   1   2
ATOM      2  C   UNL A   1      45.217  24.856  25.552  1.00  0.00     0.116 C 
BRANCH   2   3
ATOM      3  N   UNL A   1      46.498  24.700  26.233  1.00  0.00    -0.352 N 
ATOM      4  C   UNL A   1      46.788  24.496  27.568  1.00  0.00     0.251 C 
ATOM      5  O   UNL A   1      47.963  24.425  27.924  1.00  0.00    -0.269 OA
ATOM      6  H   UNL A   1      47.285  24.749  25.643  1.00  0.00     0.163 HD
BRANCH   4   7
ATOM      7  C   UNL A   1      45.714  24.446  28.596  1.00  0.00     0.041 A 
ATOM      8  C   UNL A   1      44.763  25.314  30.644  1.00  0.00     0.041 A 
ATOM      9  C   UNL A   1      44.040  24.128  30.801  1.00  0.00     0.026 A 
ATOM     10  C   UNL A   1      45.497  25.505  29.475  1.00  0.00     0.040 A 
ATOM     11  C   UNL A   1      44.096  23.133  29.821  1.00  0.00     0.003 A 
ATOM     12  C   UNL A   1      44.960  23.276  28.734  1.00  0.00     0.014 A 
BRANCH   8  13
ATOM     13  N   UNL A   1      44.840  26.199  31.743  1.00  0.00    -0.326 N 
ATOM     14  O   UNL A   1      46.518  25.204  33.007  1.00  0.00    -0.275 OA
ATOM     15  C   UNL A   1      45.615  26.027  32.875  1.00  0.00     0.224 C 
ATOM     16  H   UNL A   1      44.291  27.015  31.697  1.00  0.00     0.169 HD
BRANCH  15  17
ATOM     17  C   UNL A   1      45.187  26.855  34.068  1.00  0.00     0.102 C 
BRANCH  17  18
ATOM     18  C   UNL A   1      44.113  26.243  34.958  1.00  0.00     0.032 C 
BRANCH  18  19
ATOM     19  C   UNL A   1      42.663  26.684  34.695  1.00  0.00     0.128 C 
BRANCH  19  20
ATOM     20  N   UNL A   1      42.428  28.122  34.533  1.00  0.00    -0.293 N 
ATOM     21  C   UNL A   1      42.209  28.895  35.667  1.00  0.00     0.266 C 
ATOM     22  C   UNL A   1      42.279  28.777  33.324  1.00  0.00     0.148 C 
ATOM     23  O   UNL A   1      42.302  28.517  36.827  1.00  0.00    -0.268 OA
ATOM     24  C   UNL A   1      41.818  30.278  35.276  1.00  0.00     0.081 C 
ATOM     25  S   UNL A   1      42.161  30.507  33.608  1.00  0.00    -0.054 SA
ATOM     26  S   UNL A   1      42.204  28.134  31.792  1.00  0.00    -0.052 S 
ATOM     27  C   UNL A   1      41.221  31.139  36.114  1.00  0.00     0.031 C 
BRANCH  27  28
ATOM     28  C   UNL A   1      40.770  32.497  35.749  1.00  0.00    -0.006 A 
ATOM     29  C   UNL A   1      39.449  32.635  35.296  1.00  0.00     0.010 A 
ATOM     30  C   UNL A   1      41.569  33.652  35.850  1.00  0.00     0.048 A 
ATOM     31  C   UNL A   1      38.921  33.898  35.010  1.00  0.00     0.001 A 
ATOM     32  C   UNL A   1      41.027  34.915  35.594  1.00  0.00     0.021 A 
ATOM     33  Cl  UNL A   1      43.256  33.577  36.240  1.00  0.00    -0.084 Cl
ATOM     34  C   UNL A   1      39.701  35.038  35.182  1.00  0.00     0.002 A 
ENDBRANCH  27  28
ENDBRANCH  19  20
ENDBRANCH  18  19
ENDBRANCH  17  18
ENDBRANCH  15  17
ENDBRANCH   8  13
ENDBRANCH   4   7
ENDBRANCH   2   3
ENDBRANCH   1   2
BRANCH   1  35
ATOM     35  C   UNL A   1      45.007  22.307  25.115  1.00  0.00     0.002 C 
BRANCH  35  36
ATOM     36  C   UNL A   1      43.698  21.607  25.486  1.00  0.00     0.002 C 
BRANCH  36  37
ATOM     37  C   UNL A   1      42.480  22.510  25.696  1.00  0.00     0.021 C 
BRANCH  37  38
ATOM     38  C   UNL A   1      41.496  22.060  26.774  1.00  0.00     0.116 C 
BRANCH  38  39
ATOM     39  N   UNL A   1      40.120  22.019  26.303  1.00  0.00    -0.352 N 
ATOM     40  C   UNL A   1      39.149  22.992  26.330  1.00  0.00     0.251 C 
ATOM     41  H   UNL A   1      39.843  21.163  25.903  1.00  0.00     0.163 HD
ATOM     42  O   UNL A   1      37.997  22.716  26.021  1.00  0.00    -0.269 OA
BRANCH  40  43
ATOM     43  C   UNL A   1      39.491  24.367  26.760  1.00  0.00     0.039 A 
ATOM     44  C   UNL A   1      39.262  24.735  28.089  1.00  0.00     0.014 A 
ATOM     45  C   UNL A   1      40.047  25.284  25.864  1.00  0.00     0.014 A 
ATOM     46  C   UNL A   1      39.673  25.992  28.540  1.00  0.00     0.010 A 
ATOM     47  C   UNL A   1      40.515  26.511  26.330  1.00  0.00     0.010 A 
ATOM     48  C   UNL A   1      40.350  26.869  27.677  1.00  0.00    -0.014 A 
BRANCH  48  49
ATOM     49  C   UNL A   1      40.951  28.134  28.174  1.00  0.00     0.031 A 
ATOM     50  C   UNL A   1      42.436  28.354  28.110  1.00  0.00     0.074 A 
ATOM     51  C   UNL A   1      40.158  29.050  28.764  1.00  0.00     0.049 A 
ATOM     52  N   UNL A   1      43.143  29.351  28.575  1.00  0.00    -0.248 NA
ATOM     53  C   UNL A   1      43.231  27.306  27.453  1.00  0.00     0.031 C 
ATOM     54  C   UNL A   1      38.705  28.938  28.915  1.00  0.00     0.029 A 
ATOM     55  N   UNL A   1      40.459  30.250  29.360  1.00  0.00    -0.354 N 
ATOM     56  C   UNL A   1      44.467  29.051  28.275  1.00  0.00     0.074 A 
ATOM     57  C   UNL A   1      44.466  27.752  27.634  1.00  0.00     0.031 C 
ATOM     58  C   UNL A   1      38.240  30.031  29.539  1.00  0.00     0.029 A 
ATOM     59  C   UNL A   1      39.364  30.899  29.879  1.00  0.00     0.049 A 
ATOM     60  H   UNL A   1      41.373  30.611  29.412  1.00  0.00     0.167 HD
ATOM     61  C   UNL A   1      45.576  29.797  28.497  1.00  0.00     0.037 A 
ATOM     62  C   UNL A   1      39.272  32.054  30.567  1.00  0.00     0.037 A 
ATOM     63  C   UNL A   1      45.566  31.085  29.141  1.00  0.00     0.049 A 
ATOM     64  C   UNL A   1      40.524  32.834  30.859  1.00  0.00     0.074 A 
ATOM     65  C   UNL A   1      46.629  31.941  29.371  1.00  0.00     0.029 A 
ATOM     66  N   UNL A   1      44.440  31.697  29.676  1.00  0.00    -0.354 N 
ATOM     67  N   UNL A   1      41.760  32.568  30.511  1.00  0.00    -0.248 NA
ATOM     68  C   UNL A   1      40.371  34.066  31.644  1.00  0.00     0.031 C 
ATOM     69  C   UNL A   1      46.156  33.042  30.094  1.00  0.00     0.029 A 
ATOM     70  C   UNL A   1      44.789  32.901  30.269  1.00  0.00     0.049 A 
ATOM     71  H   UNL A   1      43.528  31.329  29.640  1.00  0.00     0.167 HD
ATOM     72  C   UNL A   1      42.531  33.608  31.018  1.00  0.00     0.074 A 
ATOM     73  C   UNL A   1      41.618  34.516  31.685  1.00  0.00     0.031 C 
ATOM     74  C   UNL A   1      43.871  33.794  30.937  1.00  0.00     0.037 A 
BRANCH  61  75
ATOM     75  C   UNL A   1      46.895  29.223  28.049  1.00  0.00     0.058 A 
ATOM     76  C   UNL A   1      47.360  29.381  26.733  1.00  0.00     0.135 A 
ATOM     77  C   UNL A   1      47.708  28.509  28.944  1.00  0.00     0.135 A 
ATOM     78  F   UNL A   1      46.622  30.047  25.830  1.00  0.00    -0.206 F 
ATOM     79  C   UNL A   1      48.555  28.808  26.307  1.00  0.00     0.059 A 
ATOM     80  C   UNL A   1      48.923  27.955  28.550  1.00  0.00     0.059 A 
ATOM     81  F   UNL A   1      47.319  28.332  30.217  1.00  0.00    -0.206 F 
ATOM     82  C   UNL A   1      49.325  28.090  27.221  1.00  0.00     0.060 A 
BRANCH  82  83
ATOM     83  S   UNL A   1      50.852  27.319  26.643  1.00  0.00     0.124 S 
ATOM     84  O   UNL A   1      51.083  28.035  25.392  1.00  0.00    -0.237 OA
ATOM     85  O   UNL A   1      51.784  27.618  27.726  1.00  0.00    -0.237 OA
ATOM     86  O   UNL A   1      50.491  25.912  26.502  1.00  0.00    -0.744 OA
ENDBRANCH  82  83
ENDBRANCH  61  75
BRANCH  62  87
ATOM     87  C   UNL A   1      37.939  32.547  31.006  1.00  0.00     0.058 A 
ATOM     88  C   UNL A   1      37.347  32.055  32.179  1.00  0.00     0.135 A 
ATOM     89  C   UNL A   1      37.253  33.544  30.295  1.00  0.00     0.135 A 
ATOM     90  F   UNL A   1      37.960  31.095  32.888  1.00  0.00    -0.206 F 
ATOM     91  C   UNL A   1      36.123  32.535  32.633  1.00  0.00     0.059 A 
ATOM     92  C   UNL A   1      36.039  34.056  30.743  1.00  0.00     0.059 A 
ATOM     93  F   UNL A   1      37.782  34.055  29.173  1.00  0.00    -0.206 F 
ATOM     94  C   UNL A   1      35.481  33.542  31.912  1.00  0.00     0.060 A 
BRANCH  94  95
ATOM     95  S   UNL A   1      33.927  34.205  32.553  1.00  0.00     0.124 S 
ATOM     96  O   UNL A   1      34.397  35.310  33.380  1.00  0.00    -0.237 OA
ATOM     97  O   UNL A   1      33.227  34.578  31.328  1.00  0.00    -0.237 OA
ATOM     98  O   UNL A   1      33.352  33.074  33.276  1.00  0.00    -0.744 OA
ENDBRANCH  94  95
ENDBRANCH  62  87
BRANCH  74  99
ATOM     99  C   UNL A   1      44.442  35.031  31.576  1.00  0.00     0.058 A 
ATOM    100  C   UNL A   1      44.452  36.265  30.907  1.00  0.00     0.135 A 
ATOM    101  C   UNL A   1      44.916  34.998  32.898  1.00  0.00     0.135 A 
ATOM    102  F   UNL A   1      44.021  36.349  29.638  1.00  0.00    -0.206 F 
ATOM    103  C   UNL A   1      44.922  37.421  31.522  1.00  0.00     0.059 A 
ATOM    104  C   UNL A   1      45.364  36.148  33.542  1.00  0.00     0.059 A 
ATOM    105  F   UNL A   1      44.925  33.846  33.585  1.00  0.00    -0.206 F 
ATOM    106  C   UNL A   1      45.368  37.355  32.843  1.00  0.00     0.060 A 
BRANCH 106 107
ATOM    107  S   UNL A   1      45.913  38.876  33.648  1.00  0.00     0.124 S 
ATOM    108  O   UNL A   1      45.200  39.890  32.876  1.00  0.00    -0.237 OA
ATOM    109  O   UNL A   1      45.453  38.684  35.019  1.00  0.00    -0.237 OA
ATOM    110  O   UNL A   1      47.362  38.856  33.471  1.00  0.00    -0.744 OA
ENDBRANCH 106 107
ENDBRANCH  74  99
ENDBRANCH  48  49
ENDBRANCH  40  43
ENDBRANCH  38  39
ENDBRANCH  37  38
ENDBRANCH  36  37
ENDBRANCH  35  36
ENDBRANCH   1  35
TORSDOF 22
ENDMDL
MODEL 3
REMARK VINA RESULT:      -8.8      5.181      9.830
REMARK SMILES O=C(CCCN1C(=O)/C(=C/c2ccccc2Cl)SC1=S)Nc1cccc(C(=O)NCCCCCCNC(=O)c2ccc(-c3c4nc(c(-c5c(F)cc(S(=O)(=O)[O-])cc5F)c5ccc([nH]5)c(-c5c(F)cc(S(=O)(=O)[O-])cc5F)c5nc(c(-c6c(F)cc(S(=O)(=O)[O-])cc6F)c6ccc3[nH]6)C=C5)C=C4)cc2)c1
REMARK SMILES IDX 31 1 30 2 29 3 27 4 28 5 26 7 22 8 23 9 105 10 24 11 25 12
REMARK SMILES IDX 21 13 1 14 2 15 3 17 4 18 5 19 6 20 7 21 19 22 8 23 9 24
REMARK SMILES IDX 18 25 20 26 10 27 11 28 12 29 16 30 13 31 15 32 17 33 14 34
REMARK SMILES IDX 32 35 33 36 34 37 35 38 36 39 37 40 38 42 39 43 40 44 104 45
REMARK SMILES IDX 41 46 103 47 42 48 43 49 44 50 97 51 45 52 102 53 96 54
REMARK SMILES IDX 98 55 46 56 101 57 95 58 94 59 47 61 81 62 60 63 80 64 61 65
REMARK SMILES IDX 64 66 79 67 99 68 62 69 63 70 78 72 100 73 65 74 48 75 49 76
REMARK SMILES IDX 58 77 50 78 51 79 57 80 59 81 52 82 53 83 54 84 55 85 56 86
REMARK SMILES IDX 82 87 83 88 92 89 84 90 85 91 91 92 93 93 86 94 87 95 88 96
REMARK SMILES IDX 89 97 90 98 66 99 67 100 76 101 68 102 69 103 75 104 77 105
REMARK SMILES IDX 70 106 71 107 72 108 73 109 74 110
REMARK H PARENT 29 6 21 16 36 41 98 60 64 71
REMARK Flexibility Score: inf
ROOT
ATOM      1  C   UNL A   1      38.123  29.626  27.578  1.00  0.00     0.021 C 
ENDROOT
BRANCH   1   2
ATOM      2  C   UNL A   1      39.503  29.014  27.800  1.00  0.00     0.116 C 
BRANCH   2   3
ATOM      3  N   UNL A   1      40.380  29.066  26.634  1.00  0.00    -0.352 N 
ATOM      4  C   UNL A   1      41.166  28.088  26.057  1.00  0.00     0.251 C 
ATOM      5  O   UNL A   1      41.858  28.372  25.080  1.00  0.00    -0.269 OA
ATOM      6  H   UNL A   1      40.416  29.941  26.186  1.00  0.00     0.163 HD
BRANCH   4   7
ATOM      7  C   UNL A   1      41.260  26.723  26.640  1.00  0.00     0.041 A 
ATOM      8  C   UNL A   1      40.600  24.396  26.585  1.00  0.00     0.041 A 
ATOM      9  C   UNL A   1      40.991  24.262  27.920  1.00  0.00     0.026 A 
ATOM     10  C   UNL A   1      40.857  25.596  25.925  1.00  0.00     0.040 A 
ATOM     11  C   UNL A   1      41.583  25.335  28.593  1.00  0.00     0.003 A 
ATOM     12  C   UNL A   1      41.686  26.577  27.964  1.00  0.00     0.014 A 
BRANCH   8  13
ATOM     13  N   UNL A   1      39.827  23.363  26.009  1.00  0.00    -0.326 N 
ATOM     14  O   UNL A   1      37.671  24.122  26.435  1.00  0.00    -0.275 OA
ATOM     15  C   UNL A   1      38.450  23.245  26.071  1.00  0.00     0.224 C 
ATOM     16  H   UNL A   1      40.314  22.662  25.518  1.00  0.00     0.169 HD
BRANCH  15  17
ATOM     17  C   UNL A   1      37.920  21.857  25.782  1.00  0.00     0.102 C 
BRANCH  17  18
ATOM     18  C   UNL A   1      37.103  21.704  24.504  1.00  0.00     0.032 C 
BRANCH  18  19
ATOM     19  C   UNL A   1      35.606  21.393  24.673  1.00  0.00     0.128 C 
BRANCH  19  20
ATOM     20  N   UNL A   1      34.710  22.538  24.863  1.00  0.00    -0.293 N 
ATOM     21  C   UNL A   1      34.569  23.455  23.829  1.00  0.00     0.266 C 
ATOM     22  C   UNL A   1      34.070  22.865  26.044  1.00  0.00     0.148 C 
ATOM     23  O   UNL A   1      35.039  23.352  22.704  1.00  0.00    -0.268 OA
ATOM     24  C   UNL A   1      33.763  24.621  24.285  1.00  0.00     0.081 C 
ATOM     25  S   UNL A   1      32.991  24.223  25.767  1.00  0.00    -0.054 SA
ATOM     26  S   UNL A   1      34.224  22.161  27.544  1.00  0.00    -0.052 S 
ATOM     27  C   UNL A   1      33.746  25.800  23.645  1.00  0.00     0.031 C 
BRANCH  27  28
ATOM     28  C   UNL A   1      33.004  26.995  24.095  1.00  0.00    -0.006 A 
ATOM     29  C   UNL A   1      33.734  27.991  24.762  1.00  0.00     0.010 A 
ATOM     30  C   UNL A   1      31.629  27.204  23.876  1.00  0.00     0.048 A 
ATOM     31  C   UNL A   1      33.123  29.188  25.146  1.00  0.00     0.001 A 
ATOM     32  C   UNL A   1      31.029  28.416  24.233  1.00  0.00     0.021 A 
ATOM     33  Cl  UNL A   1      30.602  25.977  23.212  1.00  0.00    -0.084 Cl
ATOM     34  C   UNL A   1      31.778  29.410  24.860  1.00  0.00     0.002 A 
ENDBRANCH  27  28
ENDBRANCH  19  20
ENDBRANCH  18  19
ENDBRANCH  17  18
ENDBRANCH  15  17
ENDBRANCH   8  13
ENDBRANCH   4   7
ENDBRANCH   2   3
ENDBRANCH   1   2
BRANCH   1  35
ATOM     35  C   UNL A   1      37.207  29.695  28.797  1.00  0.00     0.002 C 
BRANCH  35  36
ATOM     36  C   UNL A   1      35.704  29.609  28.521  1.00  0.00     0.002 C 
BRANCH  36  37
ATOM     37  C   UNL A   1      35.094  30.763  27.720  1.00  0.00     0.021 C 
BRANCH  37  38
ATOM     38  C   UNL A   1      35.474  32.168  28.184  1.00  0.00     0.116 C 
BRANCH  38  39
ATOM     39  N   UNL A   1      34.640  32.649  29.274  1.00  0.00    -0.352 N 
ATOM     40  C   UNL A   1      34.866  32.630  30.631  1.00  0.00     0.251 C 
ATOM     41  H   UNL A   1      33.784  33.049  29.000  1.00  0.00     0.163 HD
ATOM     42  O   UNL A   1      33.972  32.947  31.405  1.00  0.00    -0.269 OA
BRANCH  40  43
ATOM     43  C   UNL A   1      36.182  32.201  31.156  1.00  0.00     0.039 A 
ATOM     44  C   UNL A   1      37.325  32.909  30.773  1.00  0.00     0.014 A 
ATOM     45  C   UNL A   1      36.289  31.117  32.031  1.00  0.00     0.014 A 
ATOM     46  C   UNL A   1      38.562  32.586  31.337  1.00  0.00     0.010 A 
ATOM     47  C   UNL A   1      37.510  30.838  32.642  1.00  0.00     0.010 A 
ATOM     48  C   UNL A   1      38.655  31.583  32.316  1.00  0.00    -0.014 A 
BRANCH  48  49
ATOM     49  C   UNL A   1      39.919  31.338  33.057  1.00  0.00     0.031 A 
ATOM     50  C   UNL A   1      40.251  32.129  34.290  1.00  0.00     0.074 A 
ATOM     51  C   UNL A   1      40.811  30.456  32.561  1.00  0.00     0.049 A 
ATOM     52  N   UNL A   1      41.342  32.116  35.010  1.00  0.00    -0.248 NA
ATOM     53  C   UNL A   1      39.227  33.072  34.763  1.00  0.00     0.031 C 
ATOM     54  C   UNL A   1      40.618  29.649  31.353  1.00  0.00     0.029 A 
ATOM     55  N   UNL A   1      42.062  30.099  32.999  1.00  0.00    -0.354 N 
ATOM     56  C   UNL A   1      41.143  33.051  36.019  1.00  0.00     0.074 A 
ATOM     57  C   UNL A   1      39.845  33.650  35.783  1.00  0.00     0.031 C 
ATOM     58  C   UNL A   1      41.698  28.877  31.162  1.00  0.00     0.029 A 
ATOM     59  C   UNL A   1      42.682  29.169  32.199  1.00  0.00     0.049 A 
ATOM     60  H   UNL A   1      42.476  30.475  33.810  1.00  0.00     0.167 HD
ATOM     61  C   UNL A   1      41.958  33.368  37.054  1.00  0.00     0.037 A 
ATOM     62  C   UNL A   1      43.912  28.623  32.280  1.00  0.00     0.037 A 
ATOM     63  C   UNL A   1      43.250  32.771  37.275  1.00  0.00     0.049 A 
ATOM     64  C   UNL A   1      44.826  29.036  33.400  1.00  0.00     0.074 A 
ATOM     65  C   UNL A   1      44.132  32.988  38.319  1.00  0.00     0.029 A 
ATOM     66  N   UNL A   1      43.856  31.851  36.428  1.00  0.00    -0.354 N 
ATOM     67  N   UNL A   1      44.596  29.874  34.383  1.00  0.00    -0.248 NA
ATOM     68  C   UNL A   1      46.167  28.439  33.419  1.00  0.00     0.031 C 
ATOM     69  C   UNL A   1      45.293  32.245  38.074  1.00  0.00     0.029 A 
ATOM     70  C   UNL A   1      45.114  31.521  36.905  1.00  0.00     0.049 A 
ATOM     71  H   UNL A   1      43.449  31.488  35.608  1.00  0.00     0.167 HD
ATOM     72  C   UNL A   1      45.757  29.890  35.148  1.00  0.00     0.074 A 
ATOM     73  C   UNL A   1      46.682  28.967  34.521  1.00  0.00     0.031 C 
ATOM     74  C   UNL A   1      46.030  30.605  36.268  1.00  0.00     0.037 A 
BRANCH  61  75
ATOM     75  C   UNL A   1      41.475  34.422  38.017  1.00  0.00     0.058 A 
ATOM     76  C   UNL A   1      41.782  35.781  37.838  1.00  0.00     0.135 A 
ATOM     77  C   UNL A   1      40.694  34.072  39.130  1.00  0.00     0.135 A 
ATOM     78  F   UNL A   1      42.533  36.174  36.796  1.00  0.00    -0.206 F 
ATOM     79  C   UNL A   1      41.377  36.747  38.755  1.00  0.00     0.059 A 
ATOM     80  C   UNL A   1      40.250  35.025  40.043  1.00  0.00     0.059 A 
ATOM     81  F   UNL A   1      40.362  32.789  39.348  1.00  0.00    -0.206 F 
ATOM     82  C   UNL A   1      40.619  36.357  39.859  1.00  0.00     0.060 A 
BRANCH  82  83
ATOM     83  S   UNL A   1      40.137  37.616  41.060  1.00  0.00     0.124 S 
ATOM     84  O   UNL A   1      38.754  37.874  40.671  1.00  0.00    -0.237 OA
ATOM     85  O   UNL A   1      40.319  36.922  42.331  1.00  0.00    -0.237 OA
ATOM     86  O   UNL A   1      41.073  38.706  40.805  1.00  0.00    -0.744 OA
ENDBRANCH  82  83
ENDBRANCH  61  75
BRANCH  62  87
ATOM     87  C   UNL A   1      44.336  27.610  31.276  1.00  0.00     0.058 A 
ATOM     88  C   UNL A   1      44.254  26.240  31.567  1.00  0.00     0.135 A 
ATOM     89  C   UNL A   1      44.784  27.983  30.000  1.00  0.00     0.135 A 
ATOM     90  F   UNL A   1      43.840  25.834  32.776  1.00  0.00    -0.206 F 
ATOM     91  C   UNL A   1      44.602  25.275  30.628  1.00  0.00     0.059 A 
ATOM     92  C   UNL A   1      45.114  27.035  29.035  1.00  0.00     0.059 A 
ATOM     93  F   UNL A   1      44.868  29.280  29.668  1.00  0.00    -0.206 F 
ATOM     94  C   UNL A   1      45.022  25.683  29.361  1.00  0.00     0.060 A 
BRANCH  94  95
ATOM     95  S   UNL A   1      45.401  24.418  28.128  1.00  0.00     0.124 S 
ATOM     96  O   UNL A   1      46.852  24.524  28.032  1.00  0.00    -0.237 OA
ATOM     97  O   UNL A   1      44.890  23.209  28.767  1.00  0.00    -0.237 OA
ATOM     98  O   UNL A   1      44.656  24.860  26.953  1.00  0.00    -0.744 OA
ENDBRANCH  94  95
ENDBRANCH  62  87
BRANCH  74  99
ATOM     99  C   UNL A   1      47.382  30.414  36.901  1.00  0.00     0.058 A 
ATOM    100  C   UNL A   1      47.617  29.396  37.838  1.00  0.00     0.135 A 
ATOM    101  C   UNL A   1      48.471  31.212  36.514  1.00  0.00     0.135 A 
ATOM    102  F   UNL A   1      46.608  28.613  38.253  1.00  0.00    -0.206 F 
ATOM    103  C   UNL A   1      48.881  29.181  38.376  1.00  0.00     0.059 A 
ATOM    104  C   UNL A   1      49.751  30.996  37.017  1.00  0.00     0.059 A 
ATOM    105  F   UNL A   1      48.303  32.197  35.618  1.00  0.00    -0.206 F 
ATOM    106  C   UNL A   1      49.945  29.980  37.953  1.00  0.00     0.060 A 
BRANCH 106 107
ATOM    107  S   UNL A   1      51.593  29.646  38.612  1.00  0.00     0.124 S 
ATOM    108  O   UNL A   1      51.937  28.403  37.927  1.00  0.00    -0.237 OA
ATOM    109  O   UNL A   1      52.339  30.827  38.193  1.00  0.00    -0.237 OA
ATOM    110  O   UNL A   1      51.369  29.529  40.049  1.00  0.00    -0.744 OA
ENDBRANCH 106 107
ENDBRANCH  74  99
ENDBRANCH  48  49
ENDBRANCH  40  43
ENDBRANCH  38  39
ENDBRANCH  37  38
ENDBRANCH  36  37
ENDBRANCH  35  36
ENDBRANCH   1  35
TORSDOF 22
ENDMDL
