MODEL 1
REMARK VINA RESULT:      -9.8      0.000      0.000
REMARK SMILES O=C(CCCNC(=O)CN1CSCC1=O)NCCCCCCNC(=O)c1ccc(-c2c3nc(c(-c4c(F)cc(S(=O)(=O)[O-])cc4F)c4ccc([nH]4)c(-c4c(F)cc(S(=O)(=O)[O-])cc4F)c4nc(c(-c5c(F)cc(S(=O)(=O)[O-])cc5F)c5ccc2[nH]5)C=C4)C=C3)cc1
REMARK SMILES IDX 18 1 17 2 16 3 1 4 2 5 3 7 4 8 5 9 6 10 7 11 8 13 9 14 10 15
REMARK SMILES IDX 11 16 14 17 12 18 13 19 15 20 19 21 20 22 21 23 22 24 23 25
REMARK SMILES IDX 24 26 25 28 26 29 27 30 91 31 28 32 90 33 29 34 30 35 31 36
REMARK SMILES IDX 84 37 32 38 89 39 83 40 85 41 33 42 88 43 82 44 81 45 34 47
REMARK SMILES IDX 68 48 47 49 67 50 48 51 51 52 66 53 86 54 49 55 50 56 65 58
REMARK SMILES IDX 87 59 52 60 35 61 36 62 45 63 37 64 38 65 44 66 46 67 39 68
REMARK SMILES IDX 40 69 41 70 42 71 43 72 69 73 70 74 79 75 71 76 72 77 78 78
REMARK SMILES IDX 80 79 73 80 74 81 75 82 76 83 77 84 53 85 54 86 63 87 55 88
REMARK SMILES IDX 56 89 62 90 64 91 57 92 58 93 59 94 60 95 61 96
REMARK H PARENT 16 6 6 12 23 27 85 46 51 57
REMARK Flexibility Score: inf
ROOT
ATOM      1  C   UNL A   1      39.567  22.026  26.194  1.00  0.00     0.021 C 
ENDROOT
BRANCH   1   2
ATOM      2  C   UNL A   1      38.526  23.142  26.228  1.00  0.00     0.116 C 
BRANCH   2   3
ATOM      3  N   UNL A   1      37.819  23.231  24.967  1.00  0.00    -0.356 N 
ATOM      4  O   UNL A   1      36.287  21.567  25.381  1.00  0.00    -0.275 OA
ATOM      5  C   UNL A   1      36.715  22.470  24.671  1.00  0.00     0.220 C 
ATOM      6  H   UNL A   1      38.145  23.867  24.290  1.00  0.00     0.163 HD
BRANCH   5   7
ATOM      7  C   UNL A   1      36.013  22.915  23.405  1.00  0.00     0.102 C 
BRANCH   7   8
ATOM      8  C   UNL A   1      34.505  23.051  23.634  1.00  0.00     0.031 C 
BRANCH   8   9
ATOM      9  C   UNL A   1      34.099  24.207  24.547  1.00  0.00     0.116 C 
BRANCH   9  10
ATOM     10  N   UNL A   1      34.062  25.481  23.858  1.00  0.00    -0.355 N 
ATOM     11  C   UNL A   1      33.756  26.718  24.353  1.00  0.00     0.239 C 
ATOM     12  H   UNL A   1      34.286  25.451  22.900  1.00  0.00     0.163 HD
ATOM     13  O   UNL A   1      34.083  27.692  23.671  1.00  0.00    -0.273 OA
BRANCH  11  14
ATOM     14  C   UNL A   1      33.195  26.886  25.773  1.00  0.00     0.220 C 
BRANCH  14  15
ATOM     15  N   UNL A   1      33.041  28.276  26.189  1.00  0.00    -0.323 N 
ATOM     16  C   UNL A   1      34.154  29.018  26.717  1.00  0.00     0.190 C 
ATOM     17  C   UNL A   1      31.965  29.027  25.743  1.00  0.00     0.233 C 
ATOM     18  S   UNL A   1      33.482  30.584  27.284  1.00  0.00    -0.130 SA
ATOM     19  C   UNL A   1      32.046  30.468  26.192  1.00  0.00     0.171 C 
ATOM     20  O   UNL A   1      31.050  28.589  25.054  1.00  0.00    -0.274 OA
ENDBRANCH  14  15
ENDBRANCH  11  14
ENDBRANCH   9  10
ENDBRANCH   8   9
ENDBRANCH   7   8
ENDBRANCH   5   7
ENDBRANCH   2   3
ENDBRANCH   1   2
BRANCH   1  21
ATOM     21  C   UNL A   1      40.417  21.900  27.468  1.00  0.00     0.002 C 
BRANCH  21  22
ATOM     22  C   UNL A   1      41.922  21.725  27.241  1.00  0.00     0.002 C 
BRANCH  22  23
ATOM     23  C   UNL A   1      42.813  22.722  27.984  1.00  0.00     0.021 C 
BRANCH  23  24
ATOM     24  C   UNL A   1      43.520  23.744  27.099  1.00  0.00     0.116 C 
BRANCH  24  25
ATOM     25  N   UNL A   1      42.654  24.284  26.063  1.00  0.00    -0.352 N 
ATOM     26  C   UNL A   1      41.722  25.290  26.144  1.00  0.00     0.251 C 
ATOM     27  H   UNL A   1      42.751  23.869  25.175  1.00  0.00     0.163 HD
ATOM     28  O   UNL A   1      40.966  25.494  25.197  1.00  0.00    -0.269 OA
BRANCH  26  29
ATOM     29  C   UNL A   1      41.606  26.103  27.375  1.00  0.00     0.039 A 
ATOM     30  C   UNL A   1      42.474  27.182  27.552  1.00  0.00     0.014 A 
ATOM     31  C   UNL A   1      40.648  25.810  28.351  1.00  0.00     0.014 A 
ATOM     32  C   UNL A   1      42.338  28.005  28.673  1.00  0.00     0.010 A 
ATOM     33  C   UNL A   1      40.464  26.677  29.429  1.00  0.00     0.010 A 
ATOM     34  C   UNL A   1      41.306  27.785  29.600  1.00  0.00    -0.014 A 
BRANCH  34  35
ATOM     35  C   UNL A   1      41.081  28.731  30.726  1.00  0.00     0.031 A 
ATOM     36  C   UNL A   1      41.936  28.678  31.962  1.00  0.00     0.074 A 
ATOM     37  C   UNL A   1      40.069  29.618  30.646  1.00  0.00     0.049 A 
ATOM     38  N   UNL A   1      41.891  29.435  33.029  1.00  0.00    -0.248 NA
ATOM     39  C   UNL A   1      42.961  27.625  32.020  1.00  0.00     0.031 C 
ATOM     40  C   UNL A   1      39.132  29.730  29.526  1.00  0.00     0.029 A 
ATOM     41  N   UNL A   1      39.658  30.595  31.519  1.00  0.00    -0.354 N 
ATOM     42  C   UNL A   1      42.870  28.945  33.887  1.00  0.00     0.074 A 
ATOM     43  C   UNL A   1      43.455  27.792  33.237  1.00  0.00     0.031 C 
ATOM     44  C   UNL A   1      38.285  30.745  29.760  1.00  0.00     0.029 A 
ATOM     45  C   UNL A   1      38.591  31.331  31.060  1.00  0.00     0.049 A 
ATOM     46  H   UNL A   1      40.087  30.754  32.390  1.00  0.00     0.167 HD
ATOM     47  C   UNL A   1      43.260  29.426  35.094  1.00  0.00     0.037 A 
ATOM     48  C   UNL A   1      37.931  32.364  31.621  1.00  0.00     0.037 A 
ATOM     49  C   UNL A   1      42.677  30.582  35.728  1.00  0.00     0.049 A 
ATOM     50  C   UNL A   1      38.377  32.875  32.963  1.00  0.00     0.074 A 
ATOM     51  C   UNL A   1      43.048  31.191  36.914  1.00  0.00     0.029 A 
ATOM     52  N   UNL A   1      41.591  31.295  35.238  1.00  0.00    -0.354 N 
ATOM     53  N   UNL A   1      39.364  32.455  33.720  1.00  0.00    -0.248 NA
ATOM     54  C   UNL A   1      37.625  34.004  33.523  1.00  0.00     0.031 C 
ATOM     55  C   UNL A   1      42.149  32.232  37.173  1.00  0.00     0.029 A 
ATOM     56  C   UNL A   1      41.256  32.314  36.116  1.00  0.00     0.049 A 
ATOM     57  H   UNL A   1      41.127  31.106  34.391  1.00  0.00     0.167 HD
ATOM     58  C   UNL A   1      39.364  33.283  34.837  1.00  0.00     0.074 A 
ATOM     59  C   UNL A   1      38.292  34.240  34.645  1.00  0.00     0.031 C 
ATOM     60  C   UNL A   1      40.177  33.253  35.923  1.00  0.00     0.037 A 
BRANCH  47  61
ATOM     61  C   UNL A   1      44.362  28.692  35.812  1.00  0.00     0.058 A 
ATOM     62  C   UNL A   1      44.105  27.578  36.628  1.00  0.00     0.135 A 
ATOM     63  C   UNL A   1      45.701  29.096  35.667  1.00  0.00     0.135 A 
ATOM     64  F   UNL A   1      42.845  27.152  36.813  1.00  0.00    -0.206 F 
ATOM     65  C   UNL A   1      45.125  26.920  37.308  1.00  0.00     0.059 A 
ATOM     66  C   UNL A   1      46.741  28.431  36.310  1.00  0.00     0.059 A 
ATOM     67  F   UNL A   1      46.009  30.151  34.896  1.00  0.00    -0.206 F 
ATOM     68  C   UNL A   1      46.441  27.357  37.146  1.00  0.00     0.060 A 
BRANCH  68  69
ATOM     69  S   UNL A   1      47.751  26.504  38.048  1.00  0.00     0.124 S 
ATOM     70  O   UNL A   1      47.673  25.163  37.474  1.00  0.00    -0.237 OA
ATOM     71  O   UNL A   1      48.934  27.279  37.688  1.00  0.00    -0.237 OA
ATOM     72  O   UNL A   1      47.333  26.614  39.442  1.00  0.00    -0.744 OA
ENDBRANCH  68  69
ENDBRANCH  47  61
BRANCH  48  73
ATOM     73  C   UNL A   1      36.804  33.003  30.892  1.00  0.00     0.058 A 
ATOM     74  C   UNL A   1      35.475  32.782  31.287  1.00  0.00     0.135 A 
ATOM     75  C   UNL A   1      37.028  33.872  29.813  1.00  0.00     0.135 A 
ATOM     76  F   UNL A   1      35.208  31.955  32.307  1.00  0.00    -0.206 F 
ATOM     77  C   UNL A   1      34.409  33.394  30.634  1.00  0.00     0.059 A 
ATOM     78  C   UNL A   1      35.980  34.517  29.162  1.00  0.00     0.059 A 
ATOM     79  F   UNL A   1      38.281  34.130  29.407  1.00  0.00    -0.206 F 
ATOM     80  C   UNL A   1      34.673  34.266  29.577  1.00  0.00     0.060 A 
BRANCH  80  81
ATOM     81  S   UNL A   1      33.286  35.109  28.785  1.00  0.00     0.124 S 
ATOM     82  O   UNL A   1      32.513  35.553  29.939  1.00  0.00    -0.237 OA
ATOM     83  O   UNL A   1      33.960  36.156  28.025  1.00  0.00    -0.237 OA
ATOM     84  O   UNL A   1      32.671  34.057  27.979  1.00  0.00    -0.744 OA
ENDBRANCH  80  81
ENDBRANCH  48  73
BRANCH  60  85
ATOM     85  C   UNL A   1      39.947  34.298  36.983  1.00  0.00     0.058 A 
ATOM     86  C   UNL A   1      40.528  35.574  36.903  1.00  0.00     0.135 A 
ATOM     87  C   UNL A   1      39.115  34.028  38.083  1.00  0.00     0.135 A 
ATOM     88  F   UNL A   1      41.335  35.885  35.877  1.00  0.00    -0.206 F 
ATOM     89  C   UNL A   1      40.327  36.530  37.895  1.00  0.00     0.059 A 
ATOM     90  C   UNL A   1      38.873  34.980  39.069  1.00  0.00     0.059 A 
ATOM     91  F   UNL A   1      38.523  32.830  38.205  1.00  0.00    -0.206 F 
ATOM     92  C   UNL A   1      39.498  36.222  38.975  1.00  0.00     0.060 A 
BRANCH  92  93
ATOM     93  S   UNL A   1      39.240  37.472  40.251  1.00  0.00     0.124 S 
ATOM     94  O   UNL A   1      40.583  38.025  40.395  1.00  0.00    -0.237 OA
ATOM     95  O   UNL A   1      38.256  38.353  39.630  1.00  0.00    -0.237 OA
ATOM     96  O   UNL A   1      38.752  36.701  41.390  1.00  0.00    -0.744 OA
ENDBRANCH  92  93
ENDBRANCH  60  85
ENDBRANCH  34  35
ENDBRANCH  26  29
ENDBRANCH  24  25
ENDBRANCH  23  24
ENDBRANCH  22  23
ENDBRANCH  21  22
ENDBRANCH   1  21
TORSDOF 21
ENDMDL
MODEL 2
REMARK VINA RESULT:      -9.7      1.434      2.043
REMARK SMILES O=C(CCCNC(=O)CN1CSCC1=O)NCCCCCCNC(=O)c1ccc(-c2c3nc(c(-c4c(F)cc(S(=O)(=O)[O-])cc4F)c4ccc([nH]4)c(-c4c(F)cc(S(=O)(=O)[O-])cc4F)c4nc(c(-c5c(F)cc(S(=O)(=O)[O-])cc5F)c5ccc2[nH]5)C=C4)C=C3)cc1
REMARK SMILES IDX 18 1 17 2 16 3 1 4 2 5 3 7 4 8 5 9 6 10 7 11 8 13 9 14 10 15
REMARK SMILES IDX 11 16 14 17 12 18 13 19 15 20 19 21 20 22 21 23 22 24 23 25
REMARK SMILES IDX 24 26 25 28 26 29 27 30 91 31 28 32 90 33 29 34 30 35 31 36
REMARK SMILES IDX 84 37 32 38 89 39 83 40 85 41 33 42 88 43 82 44 81 45 34 47
REMARK SMILES IDX 68 48 47 49 67 50 48 51 51 52 66 53 86 54 49 55 50 56 65 58
REMARK SMILES IDX 87 59 52 60 35 61 36 62 45 63 37 64 38 65 44 66 46 67 39 68
REMARK SMILES IDX 40 69 41 70 42 71 43 72 69 73 70 74 79 75 71 76 72 77 78 78
REMARK SMILES IDX 80 79 73 80 74 81 75 82 76 83 77 84 53 85 54 86 63 87 55 88
REMARK SMILES IDX 56 89 62 90 64 91 57 92 58 93 59 94 60 95 61 96
REMARK H PARENT 16 6 6 12 23 27 85 46 51 57
REMARK Flexibility Score: inf
ROOT
ATOM      1  C   UNL A   1      39.792  22.403  27.079  1.00  0.00     0.021 C 
ENDROOT
BRANCH   1   2
ATOM      2  C   UNL A   1      38.752  23.055  26.171  1.00  0.00     0.116 C 
BRANCH   2   3
ATOM      3  N   UNL A   1      37.702  22.118  25.829  1.00  0.00    -0.356 N 
ATOM      4  O   UNL A   1      35.925  23.459  26.404  1.00  0.00    -0.275 OA
ATOM      5  C   UNL A   1      36.366  22.422  25.921  1.00  0.00     0.220 C 
ATOM      6  H   UNL A   1      37.957  21.220  25.516  1.00  0.00     0.163 HD
BRANCH   5   7
ATOM      7  C   UNL A   1      35.477  21.378  25.279  1.00  0.00     0.102 C 
BRANCH   7   8
ATOM      8  C   UNL A   1      34.208  21.154  26.108  1.00  0.00     0.031 C 
BRANCH   8   9
ATOM      9  C   UNL A   1      32.914  21.591  25.423  1.00  0.00     0.116 C 
BRANCH   9  10
ATOM     10  N   UNL A   1      31.895  22.013  26.362  1.00  0.00    -0.355 N 
ATOM     11  C   UNL A   1      31.577  23.275  26.778  1.00  0.00     0.239 C 
ATOM     12  H   UNL A   1      31.358  21.288  26.757  1.00  0.00     0.163 HD
ATOM     13  O   UNL A   1      30.488  23.425  27.338  1.00  0.00    -0.273 OA
BRANCH  11  14
ATOM     14  C   UNL A   1      32.456  24.477  26.402  1.00  0.00     0.220 C 
BRANCH  14  15
ATOM     15  N   UNL A   1      32.044  25.154  25.177  1.00  0.00    -0.323 N 
ATOM     16  C   UNL A   1      30.932  26.064  25.172  1.00  0.00     0.190 C 
ATOM     17  C   UNL A   1      32.915  25.250  24.102  1.00  0.00     0.233 C 
ATOM     18  S   UNL A   1      30.651  26.497  23.452  1.00  0.00    -0.130 SA
ATOM     19  C   UNL A   1      32.344  26.083  22.976  1.00  0.00     0.171 C 
ATOM     20  O   UNL A   1      34.026  24.735  24.059  1.00  0.00    -0.274 OA
ENDBRANCH  14  15
ENDBRANCH  11  14
ENDBRANCH   9  10
ENDBRANCH   8   9
ENDBRANCH   7   8
ENDBRANCH   5   7
ENDBRANCH   2   3
ENDBRANCH   1   2
BRANCH   1  21
ATOM     21  C   UNL A   1      40.667  21.340  26.397  1.00  0.00     0.002 C 
BRANCH  21  22
ATOM     22  C   UNL A   1      42.144  21.344  26.803  1.00  0.00     0.002 C 
BRANCH  22  23
ATOM     23  C   UNL A   1      42.545  22.437  27.794  1.00  0.00     0.021 C 
BRANCH  23  24
ATOM     24  C   UNL A   1      43.408  23.554  27.214  1.00  0.00     0.116 C 
BRANCH  24  25
ATOM     25  N   UNL A   1      42.753  24.261  26.125  1.00  0.00    -0.352 N 
ATOM     26  C   UNL A   1      41.970  25.389  26.166  1.00  0.00     0.251 C 
ATOM     27  H   UNL A   1      42.892  23.876  25.229  1.00  0.00     0.163 HD
ATOM     28  O   UNL A   1      41.365  25.745  25.156  1.00  0.00    -0.269 OA
BRANCH  26  29
ATOM     29  C   UNL A   1      41.828  26.155  27.424  1.00  0.00     0.039 A 
ATOM     30  C   UNL A   1      42.716  27.203  27.676  1.00  0.00     0.014 A 
ATOM     31  C   UNL A   1      40.829  25.848  28.353  1.00  0.00     0.014 A 
ATOM     32  C   UNL A   1      42.560  27.984  28.824  1.00  0.00     0.010 A 
ATOM     33  C   UNL A   1      40.626  26.676  29.457  1.00  0.00     0.010 A 
ATOM     34  C   UNL A   1      41.488  27.754  29.704  1.00  0.00    -0.014 A 
BRANCH  34  35
ATOM     35  C   UNL A   1      41.246  28.661  30.858  1.00  0.00     0.031 A 
ATOM     36  C   UNL A   1      42.089  28.571  32.101  1.00  0.00     0.074 A 
ATOM     37  C   UNL A   1      40.229  29.543  30.798  1.00  0.00     0.049 A 
ATOM     38  N   UNL A   1      42.028  29.291  33.193  1.00  0.00    -0.248 NA
ATOM     39  C   UNL A   1      43.120  27.523  32.134  1.00  0.00     0.031 C 
ATOM     40  C   UNL A   1      39.302  29.686  29.673  1.00  0.00     0.029 A 
ATOM     41  N   UNL A   1      39.802  30.487  31.699  1.00  0.00    -0.354 N 
ATOM     42  C   UNL A   1      43.001  28.778  34.044  1.00  0.00     0.074 A 
ATOM     43  C   UNL A   1      43.600  27.652  33.362  1.00  0.00     0.031 C 
ATOM     44  C   UNL A   1      38.447  30.688  29.932  1.00  0.00     0.029 A 
ATOM     45  C   UNL A   1      38.735  31.231  31.255  1.00  0.00     0.049 A 
ATOM     46  H   UNL A   1      40.221  30.619  32.580  1.00  0.00     0.167 HD
ATOM     47  C   UNL A   1      43.375  29.221  35.270  1.00  0.00     0.037 A 
ATOM     48  C   UNL A   1      38.063  32.241  31.843  1.00  0.00     0.037 A 
ATOM     49  C   UNL A   1      42.779  30.350  35.936  1.00  0.00     0.049 A 
ATOM     50  C   UNL A   1      38.492  32.709  33.206  1.00  0.00     0.074 A 
ATOM     51  C   UNL A   1      43.133  30.922  37.147  1.00  0.00     0.029 A 
ATOM     52  N   UNL A   1      41.693  31.073  35.460  1.00  0.00    -0.354 N 
ATOM     53  N   UNL A   1      39.473  32.270  33.959  1.00  0.00    -0.248 NA
ATOM     54  C   UNL A   1      37.726  33.813  33.797  1.00  0.00     0.031 C 
ATOM     55  C   UNL A   1      42.224  31.947  37.431  1.00  0.00     0.029 A 
ATOM     56  C   UNL A   1      41.342  32.059  36.369  1.00  0.00     0.049 A 
ATOM     57  H   UNL A   1      41.239  30.910  34.602  1.00  0.00     0.167 HD
ATOM     58  C   UNL A   1      39.456  33.059  35.104  1.00  0.00     0.074 A 
ATOM     59  C   UNL A   1      38.380  34.015  34.933  1.00  0.00     0.031 C 
ATOM     60  C   UNL A   1      40.258  32.997  36.197  1.00  0.00     0.037 A 
BRANCH  47  61
ATOM     61  C   UNL A   1      44.475  28.470  35.974  1.00  0.00     0.058 A 
ATOM     62  C   UNL A   1      44.206  27.405  36.850  1.00  0.00     0.135 A 
ATOM     63  C   UNL A   1      45.822  28.806  35.756  1.00  0.00     0.135 A 
ATOM     64  F   UNL A   1      42.939  27.044  37.107  1.00  0.00    -0.206 F 
ATOM     65  C   UNL A   1      45.226  26.732  37.517  1.00  0.00     0.059 A 
ATOM     66  C   UNL A   1      46.860  28.124  36.385  1.00  0.00     0.059 A 
ATOM     67  F   UNL A   1      46.142  29.812  34.926  1.00  0.00    -0.206 F 
ATOM     68  C   UNL A   1      46.550  27.101  37.280  1.00  0.00     0.060 A 
BRANCH  68  69
ATOM     69  S   UNL A   1      47.860  26.231  38.165  1.00  0.00     0.124 S 
ATOM     70  O   UNL A   1      48.255  27.230  39.155  1.00  0.00    -0.237 OA
ATOM     71  O   UNL A   1      47.160  25.063  38.690  1.00  0.00    -0.237 OA
ATOM     72  O   UNL A   1      48.847  25.953  37.127  1.00  0.00    -0.744 OA
ENDBRANCH  68  69
ENDBRANCH  47  61
BRANCH  48  73
ATOM     73  C   UNL A   1      36.938  32.897  31.125  1.00  0.00     0.058 A 
ATOM     74  C   UNL A   1      37.183  33.847  30.121  1.00  0.00     0.135 A 
ATOM     75  C   UNL A   1      35.602  32.568  31.401  1.00  0.00     0.135 A 
ATOM     76  F   UNL A   1      38.442  34.201  29.826  1.00  0.00    -0.206 F 
ATOM     77  C   UNL A   1      36.144  34.451  29.421  1.00  0.00     0.059 A 
ATOM     78  C   UNL A   1      34.547  33.139  30.695  1.00  0.00     0.059 A 
ATOM     79  F   UNL A   1      35.315  31.654  32.341  1.00  0.00    -0.206 F 
ATOM     80  C   UNL A   1      34.828  34.084  29.710  1.00  0.00     0.060 A 
BRANCH  80  81
ATOM     81  S   UNL A   1      33.493  34.822  28.744  1.00  0.00     0.124 S 
ATOM     82  O   UNL A   1      32.527  35.157  29.784  1.00  0.00    -0.237 OA
ATOM     83  O   UNL A   1      34.166  35.950  28.107  1.00  0.00    -0.237 OA
ATOM     84  O   UNL A   1      33.099  33.745  27.840  1.00  0.00    -0.744 OA
ENDBRANCH  80  81
ENDBRANCH  48  73
BRANCH  60  85
ATOM     85  C   UNL A   1      40.010  34.005  37.288  1.00  0.00     0.058 A 
ATOM     86  C   UNL A   1      40.698  35.228  37.337  1.00  0.00     0.135 A 
ATOM     87  C   UNL A   1      39.056  33.752  38.288  1.00  0.00     0.135 A 
ATOM     88  F   UNL A   1      41.624  35.519  36.411  1.00  0.00    -0.206 F 
ATOM     89  C   UNL A   1      40.478  36.147  38.359  1.00  0.00     0.059 A 
ATOM     90  C   UNL A   1      38.795  34.671  39.300  1.00  0.00     0.059 A 
ATOM     91  F   UNL A   1      38.360  32.605  38.285  1.00  0.00    -0.206 F 
ATOM     92  C   UNL A   1      39.525  35.858  39.337  1.00  0.00     0.060 A 
BRANCH  92  93
ATOM     93  S   UNL A   1      39.245  37.061  40.653  1.00  0.00     0.124 S 
ATOM     94  O   UNL A   1      40.559  37.684  40.766  1.00  0.00    -0.237 OA
ATOM     95  O   UNL A   1      38.192  37.901  40.090  1.00  0.00    -0.237 OA
ATOM     96  O   UNL A   1      38.841  36.237  41.789  1.00  0.00    -0.744 OA
ENDBRANCH  92  93
ENDBRANCH  60  85
ENDBRANCH  34  35
ENDBRANCH  26  29
ENDBRANCH  24  25
ENDBRANCH  23  24
ENDBRANCH  22  23
ENDBRANCH  21  22
ENDBRANCH   1  21
TORSDOF 21
ENDMDL
MODEL 3
REMARK VINA RESULT:      -9.6      6.473     12.195
REMARK SMILES O=C(CCCNC(=O)CN1CSCC1=O)NCCCCCCNC(=O)c1ccc(-c2c3nc(c(-c4c(F)cc(S(=O)(=O)[O-])cc4F)c4ccc([nH]4)c(-c4c(F)cc(S(=O)(=O)[O-])cc4F)c4nc(c(-c5c(F)cc(S(=O)(=O)[O-])cc5F)c5ccc2[nH]5)C=C4)C=C3)cc1
REMARK SMILES IDX 18 1 17 2 16 3 1 4 2 5 3 7 4 8 5 9 6 10 7 11 8 13 9 14 10 15
REMARK SMILES IDX 11 16 14 17 12 18 13 19 15 20 19 21 20 22 21 23 22 24 23 25
REMARK SMILES IDX 24 26 25 28 26 29 27 30 91 31 28 32 90 33 29 34 30 35 31 36
REMARK SMILES IDX 84 37 32 38 89 39 83 40 85 41 33 42 88 43 82 44 81 45 34 47
REMARK SMILES IDX 68 48 47 49 67 50 48 51 51 52 66 53 86 54 49 55 50 56 65 58
REMARK SMILES IDX 87 59 52 60 35 61 36 62 45 63 37 64 38 65 44 66 46 67 39 68
REMARK SMILES IDX 40 69 41 70 42 71 43 72 69 73 70 74 79 75 71 76 72 77 78 78
REMARK SMILES IDX 80 79 73 80 74 81 75 82 76 83 77 84 53 85 54 86 63 87 55 88
REMARK SMILES IDX 56 89 62 90 64 91 57 92 58 93 59 94 60 95 61 96
REMARK H PARENT 16 6 6 12 23 27 85 46 51 57
REMARK Flexibility Score: inf
ROOT
ATOM      1  C   UNL A   1      32.704  29.780  25.683  1.00  0.00     0.021 C 
ENDROOT
BRANCH   1   2
ATOM      2  C   UNL A   1      32.746  28.641  24.668  1.00  0.00     0.116 C 
BRANCH   2   3
ATOM      3  N   UNL A   1      31.915  27.534  25.096  1.00  0.00    -0.356 N 
ATOM      4  O   UNL A   1      33.607  26.202  25.902  1.00  0.00    -0.275 OA
ATOM      5  C   UNL A   1      32.413  26.425  25.734  1.00  0.00     0.220 C 
ATOM      6  H   UNL A   1      30.948  27.579  24.921  1.00  0.00     0.163 HD
BRANCH   5   7
ATOM      7  C   UNL A   1      31.328  25.530  26.296  1.00  0.00     0.102 C 
BRANCH   7   8
ATOM      8  C   UNL A   1      31.346  24.157  25.618  1.00  0.00     0.031 C 
BRANCH   8   9
ATOM      9  C   UNL A   1      32.208  23.109  26.320  1.00  0.00     0.116 C 
BRANCH   9  10
ATOM     10  N   UNL A   1      31.836  21.752  25.977  1.00  0.00    -0.355 N 
ATOM     11  C   UNL A   1      32.295  20.965  24.959  1.00  0.00     0.239 C 
ATOM     12  H   UNL A   1      31.156  21.340  26.558  1.00  0.00     0.163 HD
ATOM     13  O   UNL A   1      32.071  19.754  25.039  1.00  0.00    -0.273 OA
BRANCH  11  14
ATOM     14  C   UNL A   1      33.202  21.540  23.861  1.00  0.00     0.220 C 
BRANCH  14  15
ATOM     15  N   UNL A   1      34.508  21.979  24.340  1.00  0.00    -0.323 N 
ATOM     16  C   UNL A   1      35.465  21.036  24.851  1.00  0.00     0.190 C 
ATOM     17  C   UNL A   1      35.012  23.217  23.969  1.00  0.00     0.233 C 
ATOM     18  S   UNL A   1      36.822  22.010  25.509  1.00  0.00    -0.130 SA
ATOM     19  C   UNL A   1      36.420  23.436  24.473  1.00  0.00     0.171 C 
ATOM     20  O   UNL A   1      34.401  24.044  23.301  1.00  0.00    -0.274 OA
ENDBRANCH  14  15
ENDBRANCH  11  14
ENDBRANCH   9  10
ENDBRANCH   8   9
ENDBRANCH   7   8
ENDBRANCH   5   7
ENDBRANCH   2   3
ENDBRANCH   1   2
BRANCH   1  21
ATOM     21  C   UNL A   1      33.147  29.395  27.103  1.00  0.00     0.002 C 
BRANCH  21  22
ATOM     22  C   UNL A   1      34.556  29.847  27.499  1.00  0.00     0.002 C 
BRANCH  22  23
ATOM     23  C   UNL A   1      34.697  31.336  27.819  1.00  0.00     0.021 C 
BRANCH  23  24
ATOM     24  C   UNL A   1      35.852  31.694  28.749  1.00  0.00     0.116 C 
BRANCH  24  25
ATOM     25  N   UNL A   1      35.709  31.107  30.072  1.00  0.00    -0.352 N 
ATOM     26  C   UNL A   1      36.586  30.317  30.774  1.00  0.00     0.251 C 
ATOM     27  H   UNL A   1      34.860  31.306  30.531  1.00  0.00     0.163 HD
ATOM     28  O   UNL A   1      36.218  29.778  31.815  1.00  0.00    -0.269 OA
BRANCH  26  29
ATOM     29  C   UNL A   1      37.958  30.090  30.266  1.00  0.00     0.039 A 
ATOM     30  C   UNL A   1      39.016  30.060  31.176  1.00  0.00     0.014 A 
ATOM     31  C   UNL A   1      38.205  29.906  28.902  1.00  0.00     0.014 A 
ATOM     32  C   UNL A   1      40.309  29.780  30.729  1.00  0.00     0.010 A 
ATOM     33  C   UNL A   1      39.483  29.549  28.468  1.00  0.00     0.010 A 
ATOM     34  C   UNL A   1      40.547  29.481  29.377  1.00  0.00    -0.014 A 
BRANCH  34  35
ATOM     35  C   UNL A   1      41.899  29.060  28.919  1.00  0.00     0.031 A 
ATOM     36  C   UNL A   1      43.044  30.035  28.891  1.00  0.00     0.074 A 
ATOM     37  C   UNL A   1      42.082  27.796  28.487  1.00  0.00     0.049 A 
ATOM     38  N   UNL A   1      44.289  29.836  28.538  1.00  0.00    -0.248 NA
ATOM     39  C   UNL A   1      42.750  31.420  29.288  1.00  0.00     0.031 C 
ATOM     40  C   UNL A   1      41.038  26.772  28.409  1.00  0.00     0.029 A 
ATOM     41  N   UNL A   1      43.208  27.154  28.033  1.00  0.00    -0.354 N 
ATOM     42  C   UNL A   1      44.922  31.068  28.661  1.00  0.00     0.074 A 
ATOM     43  C   UNL A   1      43.911  32.019  29.068  1.00  0.00     0.031 C 
ATOM     44  C   UNL A   1      41.581  25.622  27.978  1.00  0.00     0.029 A 
ATOM     45  C   UNL A   1      42.998  25.834  27.711  1.00  0.00     0.049 A 
ATOM     46  H   UNL A   1      44.082  27.598  27.946  1.00  0.00     0.167 HD
ATOM     47  C   UNL A   1      46.231  31.372  28.473  1.00  0.00     0.037 A 
ATOM     48  C   UNL A   1      43.852  24.896  27.254  1.00  0.00     0.037 A 
ATOM     49  C   UNL A   1      47.233  30.415  28.077  1.00  0.00     0.049 A 
ATOM     50  C   UNL A   1      45.296  25.259  27.046  1.00  0.00     0.074 A 
ATOM     51  C   UNL A   1      48.595  30.607  27.929  1.00  0.00     0.029 A 
ATOM     52  N   UNL A   1      46.981  29.090  27.750  1.00  0.00    -0.354 N 
ATOM     53  N   UNL A   1      45.896  26.408  27.253  1.00  0.00    -0.248 NA
ATOM     54  C   UNL A   1      46.180  24.197  26.550  1.00  0.00     0.031 C 
ATOM     55  C   UNL A   1      49.157  29.417  27.453  1.00  0.00     0.029 A 
ATOM     56  C   UNL A   1      48.157  28.463  27.365  1.00  0.00     0.049 A 
ATOM     57  H   UNL A   1      46.098  28.657  27.786  1.00  0.00     0.167 HD
ATOM     58  C   UNL A   1      47.233  26.201  26.932  1.00  0.00     0.074 A 
ATOM     59  C   UNL A   1      47.355  24.811  26.538  1.00  0.00     0.031 C 
ATOM     60  C   UNL A   1      48.266  27.082  26.960  1.00  0.00     0.037 A 
BRANCH  47  61
ATOM     61  C   UNL A   1      46.649  32.805  28.682  1.00  0.00     0.058 A 
ATOM     62  C   UNL A   1      46.656  33.738  27.632  1.00  0.00     0.135 A 
ATOM     63  C   UNL A   1      47.029  33.258  29.957  1.00  0.00     0.135 A 
ATOM     64  F   UNL A   1      46.312  33.362  26.390  1.00  0.00    -0.206 F 
ATOM     65  C   UNL A   1      47.066  35.054  27.828  1.00  0.00     0.059 A 
ATOM     66  C   UNL A   1      47.411  34.578  30.182  1.00  0.00     0.059 A 
ATOM     67  F   UNL A   1      47.038  32.413  31.000  1.00  0.00    -0.206 F 
ATOM     68  C   UNL A   1      47.446  35.463  29.106  1.00  0.00     0.060 A 
BRANCH  68  69
ATOM     69  S   UNL A   1      47.993  37.167  29.340  1.00  0.00     0.124 S 
ATOM     70  O   UNL A   1      46.814  37.768  29.959  1.00  0.00    -0.237 OA
ATOM     71  O   UNL A   1      49.153  37.006  30.211  1.00  0.00    -0.237 OA
ATOM     72  O   UNL A   1      48.289  37.620  27.984  1.00  0.00    -0.744 OA
ENDBRANCH  68  69
ENDBRANCH  47  61
BRANCH  48  73
ATOM     73  C   UNL A   1      43.364  23.515  26.998  1.00  0.00     0.058 A 
ATOM     74  C   UNL A   1      43.161  23.055  25.688  1.00  0.00     0.135 A 
ATOM     75  C   UNL A   1      43.122  22.617  28.050  1.00  0.00     0.135 A 
ATOM     76  F   UNL A   1      43.370  23.876  24.649  1.00  0.00    -0.206 F 
ATOM     77  C   UNL A   1      42.730  21.757  25.430  1.00  0.00     0.059 A 
ATOM     78  C   UNL A   1      42.718  21.307  27.816  1.00  0.00     0.059 A 
ATOM     79  F   UNL A   1      43.316  23.004  29.321  1.00  0.00    -0.206 F 
ATOM     80  C   UNL A   1      42.520  20.888  26.501  1.00  0.00     0.060 A 
BRANCH  80  81
ATOM     81  S   UNL A   1      42.031  19.185  26.149  1.00  0.00     0.124 S 
ATOM     82  O   UNL A   1      42.840  18.884  24.973  1.00  0.00    -0.237 OA
ATOM     83  O   UNL A   1      42.410  18.499  27.380  1.00  0.00    -0.237 OA
ATOM     84  O   UNL A   1      40.593  19.291  25.916  1.00  0.00    -0.744 OA
ENDBRANCH  80  81
ENDBRANCH  48  73
BRANCH  60  85
ATOM     85  C   UNL A   1      49.623  26.561  26.568  1.00  0.00     0.058 A 
ATOM     86  C   UNL A   1      50.071  26.589  25.237  1.00  0.00     0.135 A 
ATOM     87  C   UNL A   1      50.498  26.047  27.540  1.00  0.00     0.135 A 
ATOM     88  F   UNL A   1      49.275  27.064  24.267  1.00  0.00    -0.206 F 
ATOM     89  C   UNL A   1      51.319  26.089  24.878  1.00  0.00     0.059 A 
ATOM     90  C   UNL A   1      51.764  25.573  27.209  1.00  0.00     0.059 A 
ATOM     91  F   UNL A   1      50.128  26.007  28.830  1.00  0.00    -0.206 F 
ATOM     92  C   UNL A   1      52.158  25.581  25.872  1.00  0.00     0.060 A 
BRANCH  92  93
ATOM     93  S   UNL A   1      53.777  24.942  25.394  1.00  0.00     0.124 S 
ATOM     94  O   UNL A   1      53.451  23.571  25.016  1.00  0.00    -0.237 OA
ATOM     95  O   UNL A   1      54.151  25.831  24.297  1.00  0.00    -0.237 OA
ATOM     96  O   UNL A   1      54.573  25.087  26.609  1.00  0.00    -0.744 OA
ENDBRANCH  92  93
ENDBRANCH  60  85
ENDBRANCH  34  35
ENDBRANCH  26  29
ENDBRANCH  24  25
ENDBRANCH  23  24
ENDBRANCH  22  23
ENDBRANCH  21  22
ENDBRANCH   1  21
TORSDOF 21
ENDMDL
