MODEL 1
REMARK VINA RESULT:     -11.0      0.000      0.000
REMARK SMILES COc1ccc2c(c1)c(Cc1nc(-c3ccc(C(=O)NCCCCCCNC(=O)c4ccc(-c5c6nc(c(-c7c(F)cc(S(=O)(=O)[O-])cc7F)c7ccc([nH]7)c(-c7c(F)cc(S(=O)(=O)[O-])cc7F)c7nc(c(-c8c(F)cc(S(=O)(=O)[O-])cc8F)c8ccc5[nH]8)C=C7)C=C6)cc4)cc3)cs1)c(C)n2C(=O)c1ccc(Cl)cc1
REMARK SMILES IDX 22 1 21 2 20 3 18 4 19 5 17 7 14 8 15 9 97 10 16 11 96 12
REMARK SMILES IDX 13 13 11 14 12 15 99 16 98 17 10 18 9 19 3 20 4 21 8 22 5 23
REMARK SMILES IDX 7 24 6 25 102 26 100 27 101 28 2 29 1 30 103 31 104 32
REMARK SMILES IDX 105 33 106 34 111 35 107 36 110 37 108 38 109 39 23 40 24 41
REMARK SMILES IDX 25 42 26 43 27 44 28 45 29 47 30 48 31 49 95 50 32 51 94 52
REMARK SMILES IDX 33 53 34 54 35 55 88 56 36 57 93 58 87 59 89 60 37 61 92 62
REMARK SMILES IDX 86 63 85 64 38 66 72 67 51 68 71 69 52 70 55 71 70 72 90 73
REMARK SMILES IDX 53 74 54 75 69 77 91 78 56 79 39 80 40 81 49 82 41 83 42 84
REMARK SMILES IDX 48 85 50 86 43 87 44 88 45 89 46 90 47 91 73 92 74 93 83 94
REMARK SMILES IDX 75 95 76 96 82 97 84 98 77 99 78 100 79 101 80 102 81 103
REMARK SMILES IDX 57 104 58 105 67 106 59 107 60 108 66 109 68 110 61 111
REMARK SMILES IDX 62 112 63 113 64 114 65 115
REMARK H PARENT 20 6 27 46 89 65 55 76
REMARK Flexibility Score: inf
ROOT
ATOM      1  C   UNL A   1      46.789  25.536  24.599  1.00  0.00     0.021 C 
ENDROOT
BRANCH   1   2
ATOM      2  C   UNL A   1      48.205  26.074  24.784  1.00  0.00     0.116 C 
BRANCH   2   3
ATOM      3  N   UNL A   1      48.264  27.470  25.187  1.00  0.00    -0.352 N 
ATOM      4  C   UNL A   1      47.983  28.079  26.388  1.00  0.00     0.251 C 
ATOM      5  O   UNL A   1      48.087  29.303  26.470  1.00  0.00    -0.269 OA
ATOM      6  H   UNL A   1      48.555  28.086  24.476  1.00  0.00     0.163 HD
BRANCH   4   7
ATOM      7  C   UNL A   1      47.469  27.322  27.562  1.00  0.00     0.039 A 
ATOM      8  C   UNL A   1      46.662  26.170  30.002  1.00  0.00     0.001 A 
ATOM      9  C   UNL A   1      48.011  26.167  29.632  1.00  0.00     0.011 A 
ATOM     10  C   UNL A   1      45.713  26.623  29.075  1.00  0.00     0.011 A 
ATOM     11  C   UNL A   1      48.412  26.746  28.425  1.00  0.00     0.014 A 
ATOM     12  C   UNL A   1      46.113  27.166  27.850  1.00  0.00     0.014 A 
BRANCH   8  13
ATOM     13  C   UNL A   1      46.224  25.706  31.310  1.00  0.00     0.081 A 
ATOM     14  C   UNL A   1      46.539  25.021  33.391  1.00  0.00     0.098 A 
ATOM     15  N   UNL A   1      47.140  25.294  32.253  1.00  0.00    -0.241 NA
ATOM     16  S   UNL A   1      44.823  25.052  33.334  1.00  0.00    -0.126 S 
ATOM     17  C   UNL A   1      44.905  25.582  31.702  1.00  0.00     0.095 A 
BRANCH  14  18
ATOM     18  C   UNL A   1      47.272  24.735  34.668  1.00  0.00     0.105 C 
BRANCH  18  19
ATOM     19  C   UNL A   1      47.423  23.251  34.893  1.00  0.00    -0.012 A 
ATOM     20  C   UNL A   1      50.729  21.828  33.603  1.00  0.00     0.119 A 
ATOM     21  C   UNL A   1      50.439  20.504  33.876  1.00  0.00     0.048 A 
ATOM     22  C   UNL A   1      49.787  22.809  33.907  1.00  0.00     0.057 A 
ATOM     23  C   UNL A   1      49.216  20.146  34.461  1.00  0.00     0.031 A 
ATOM     24  C   UNL A   1      48.555  22.475  34.517  1.00  0.00     0.008 A 
ATOM     25  C   UNL A   1      48.289  21.143  34.839  1.00  0.00     0.057 A 
ATOM     26  N   UNL A   1      47.058  21.098  35.528  1.00  0.00    -0.280 N 
ATOM     27  C   UNL A   1      46.511  22.393  35.498  1.00  0.00     0.028 A 
ATOM     28  C   UNL A   1      45.182  22.801  36.054  1.00  0.00     0.065 C 
BRANCH  20  29
ATOM     29  O   UNL A   1      51.901  22.291  33.073  1.00  0.00    -0.497 OA
ATOM     30  C   UNL A   1      52.723  21.316  32.442  1.00  0.00     0.278 C 
ENDBRANCH  20  29
BRANCH  26  31
ATOM     31  C   UNL A   1      46.487  19.943  36.136  1.00  0.00     0.262 C 
ATOM     32  O   UNL A   1      45.673  19.262  35.503  1.00  0.00    -0.268 OA
BRANCH  31  33
ATOM     33  C   UNL A   1      46.803  19.439  37.481  1.00  0.00     0.040 A 
ATOM     34  C   UNL A   1      47.968  19.838  38.148  1.00  0.00     0.015 A 
ATOM     35  C   UNL A   1      45.922  18.522  38.066  1.00  0.00     0.015 A 
ATOM     36  C   UNL A   1      48.293  19.244  39.370  1.00  0.00     0.021 A 
ATOM     37  C   UNL A   1      46.248  17.939  39.291  1.00  0.00     0.021 A 
ATOM     38  C   UNL A   1      47.440  18.288  39.927  1.00  0.00     0.041 A 
ATOM     39  Cl  UNL A   1      47.870  17.518  41.403  1.00  0.00    -0.084 Cl
ENDBRANCH  31  33
ENDBRANCH  26  31
ENDBRANCH  18  19
ENDBRANCH  14  18
ENDBRANCH   8  13
ENDBRANCH   4   7
ENDBRANCH   2   3
ENDBRANCH   1   2
BRANCH   1  40
ATOM     40  C   UNL A   1      46.472  24.195  25.260  1.00  0.00     0.002 C 
BRANCH  40  41
ATOM     41  C   UNL A   1      46.339  22.984  24.331  1.00  0.00     0.002 C 
BRANCH  41  42
ATOM     42  C   UNL A   1      44.974  22.279  24.289  1.00  0.00     0.021 C 
BRANCH  42  43
ATOM     43  C   UNL A   1      43.754  23.173  24.511  1.00  0.00     0.116 C 
BRANCH  43  44
ATOM     44  N   UNL A   1      42.614  22.478  25.069  1.00  0.00    -0.352 N 
ATOM     45  C   UNL A   1      41.554  22.807  25.865  1.00  0.00     0.251 C 
ATOM     46  H   UNL A   1      42.599  21.527  24.809  1.00  0.00     0.163 HD
ATOM     47  O   UNL A   1      40.711  21.916  26.010  1.00  0.00    -0.269 OA
BRANCH  45  48
ATOM     48  C   UNL A   1      41.349  24.105  26.573  1.00  0.00     0.039 A 
ATOM     49  C   UNL A   1      40.462  25.113  26.204  1.00  0.00     0.014 A 
ATOM     50  C   UNL A   1      42.175  24.327  27.696  1.00  0.00     0.014 A 
ATOM     51  C   UNL A   1      40.434  26.321  26.909  1.00  0.00     0.010 A 
ATOM     52  C   UNL A   1      42.147  25.528  28.404  1.00  0.00     0.010 A 
ATOM     53  C   UNL A   1      41.295  26.547  27.992  1.00  0.00    -0.014 A 
BRANCH  53  54
ATOM     54  C   UNL A   1      41.215  27.837  28.685  1.00  0.00     0.031 A 
ATOM     55  C   UNL A   1      42.279  28.826  28.342  1.00  0.00     0.074 A 
ATOM     56  C   UNL A   1      40.235  28.208  29.536  1.00  0.00     0.049 A 
ATOM     57  N   UNL A   1      43.246  29.247  29.091  1.00  0.00    -0.248 NA
ATOM     58  C   UNL A   1      42.324  29.339  26.967  1.00  0.00     0.031 C 
ATOM     59  C   UNL A   1      38.961  27.542  29.819  1.00  0.00     0.029 A 
ATOM     60  N   UNL A   1      40.165  29.338  30.301  1.00  0.00    -0.354 N 
ATOM     61  C   UNL A   1      43.925  30.216  28.352  1.00  0.00     0.074 A 
ATOM     62  C   UNL A   1      43.388  30.146  27.016  1.00  0.00     0.031 C 
ATOM     63  C   UNL A   1      38.169  28.374  30.535  1.00  0.00     0.029 A 
ATOM     64  C   UNL A   1      38.929  29.560  30.892  1.00  0.00     0.049 A 
ATOM     65  H   UNL A   1      40.929  29.947  30.423  1.00  0.00     0.167 HD
ATOM     66  C   UNL A   1      44.767  31.116  28.936  1.00  0.00     0.037 A 
ATOM     67  C   UNL A   1      38.549  30.651  31.604  1.00  0.00     0.037 A 
ATOM     68  C   UNL A   1      45.130  30.713  30.269  1.00  0.00     0.049 A 
ATOM     69  C   UNL A   1      39.782  31.290  32.126  1.00  0.00     0.074 A 
ATOM     70  C   UNL A   1      45.797  29.637  30.819  1.00  0.00     0.029 A 
ATOM     71  N   UNL A   1      44.509  31.340  31.322  1.00  0.00    -0.354 N 
ATOM     72  N   UNL A   1      40.559  30.757  33.028  1.00  0.00    -0.248 NA
ATOM     73  C   UNL A   1      40.373  32.374  31.358  1.00  0.00     0.031 C 
ATOM     74  C   UNL A   1      45.152  29.397  32.067  1.00  0.00     0.029 A 
ATOM     75  C   UNL A   1      44.155  30.363  32.217  1.00  0.00     0.049 A 
ATOM     76  H   UNL A   1      44.348  32.306  31.416  1.00  0.00     0.167 HD
ATOM     77  C   UNL A   1      41.840  31.139  32.664  1.00  0.00     0.074 A 
ATOM     78  C   UNL A   1      41.653  32.217  31.698  1.00  0.00     0.031 C 
ATOM     79  C   UNL A   1      42.926  30.372  32.978  1.00  0.00     0.037 A 
BRANCH  66  80
ATOM     80  C   UNL A   1      45.033  32.520  28.438  1.00  0.00     0.058 A 
ATOM     81  C   UNL A   1      46.358  32.918  28.155  1.00  0.00     0.135 A 
ATOM     82  C   UNL A   1      44.088  33.565  28.515  1.00  0.00     0.135 A 
ATOM     83  F   UNL A   1      47.339  32.007  28.049  1.00  0.00    -0.206 F 
ATOM     84  C   UNL A   1      46.733  34.258  28.054  1.00  0.00     0.059 A 
ATOM     85  C   UNL A   1      44.432  34.906  28.365  1.00  0.00     0.059 A 
ATOM     86  F   UNL A   1      42.808  33.343  28.838  1.00  0.00    -0.206 F 
ATOM     87  C   UNL A   1      45.763  35.246  28.186  1.00  0.00     0.060 A 
BRANCH  87  88
ATOM     88  S   UNL A   1      46.268  36.977  28.208  1.00  0.00     0.124 S 
ATOM     89  O   UNL A   1      45.115  37.606  28.842  1.00  0.00    -0.237 OA
ATOM     90  O   UNL A   1      47.489  36.927  29.004  1.00  0.00    -0.237 OA
ATOM     91  O   UNL A   1      46.459  37.288  26.794  1.00  0.00    -0.744 OA
ENDBRANCH  87  88
ENDBRANCH  66  80
BRANCH  67  92
ATOM     92  C   UNL A   1      37.238  31.353  31.590  1.00  0.00     0.058 A 
ATOM     93  C   UNL A   1      36.585  31.702  32.788  1.00  0.00     0.135 A 
ATOM     94  C   UNL A   1      36.751  31.964  30.417  1.00  0.00     0.135 A 
ATOM     95  F   UNL A   1      36.992  31.181  33.955  1.00  0.00    -0.206 F 
ATOM     96  C   UNL A   1      35.556  32.649  32.828  1.00  0.00     0.059 A 
ATOM     97  C   UNL A   1      35.721  32.904  30.432  1.00  0.00     0.059 A 
ATOM     98  F   UNL A   1      37.331  31.739  29.229  1.00  0.00    -0.206 F 
ATOM     99  C   UNL A   1      35.149  33.265  31.646  1.00  0.00     0.060 A 
BRANCH  99 100
ATOM    100  S   UNL A   1      33.957  34.624  31.718  1.00  0.00     0.124 S 
ATOM    101  O   UNL A   1      33.474  34.675  30.342  1.00  0.00    -0.237 OA
ATOM    102  O   UNL A   1      33.002  34.143  32.711  1.00  0.00    -0.237 OA
ATOM    103  O   UNL A   1      34.768  35.764  32.137  1.00  0.00    -0.744 OA
ENDBRANCH  99 100
ENDBRANCH  67  92
BRANCH  79 104
ATOM    104  C   UNL A   1      42.761  29.285  34.008  1.00  0.00     0.058 A 
ATOM    105  C   UNL A   1      42.778  29.499  35.397  1.00  0.00     0.135 A 
ATOM    106  C   UNL A   1      42.409  28.002  33.561  1.00  0.00     0.135 A 
ATOM    107  F   UNL A   1      43.007  30.719  35.904  1.00  0.00    -0.206 F 
ATOM    108  C   UNL A   1      42.486  28.476  36.300  1.00  0.00     0.059 A 
ATOM    109  C   UNL A   1      42.083  26.974  34.443  1.00  0.00     0.059 A 
ATOM    110  F   UNL A   1      42.318  27.749  32.245  1.00  0.00    -0.206 F 
ATOM    111  C   UNL A   1      42.131  27.217  35.814  1.00  0.00     0.060 A 
BRANCH 111 112
ATOM    112  S   UNL A   1      41.649  25.926  36.983  1.00  0.00     0.124 S 
ATOM    113  O   UNL A   1      41.173  24.869  36.097  1.00  0.00    -0.237 OA
ATOM    114  O   UNL A   1      42.901  25.652  37.684  1.00  0.00    -0.237 OA
ATOM    115  O   UNL A   1      40.620  26.569  37.796  1.00  0.00    -0.744 OA
ENDBRANCH 111 112
ENDBRANCH  79 104
ENDBRANCH  53  54
ENDBRANCH  45  48
ENDBRANCH  43  44
ENDBRANCH  42  43
ENDBRANCH  41  42
ENDBRANCH  40  41
ENDBRANCH   1  40
TORSDOF 22
ENDMDL
MODEL 2
REMARK VINA RESULT:     -10.1      5.959     10.771
REMARK SMILES COc1ccc2c(c1)c(Cc1nc(-c3ccc(C(=O)NCCCCCCNC(=O)c4ccc(-c5c6nc(c(-c7c(F)cc(S(=O)(=O)[O-])cc7F)c7ccc([nH]7)c(-c7c(F)cc(S(=O)(=O)[O-])cc7F)c7nc(c(-c8c(F)cc(S(=O)(=O)[O-])cc8F)c8ccc5[nH]8)C=C7)C=C6)cc4)cc3)cs1)c(C)n2C(=O)c1ccc(Cl)cc1
REMARK SMILES IDX 22 1 21 2 20 3 18 4 19 5 17 7 14 8 15 9 97 10 16 11 96 12
REMARK SMILES IDX 13 13 11 14 12 15 99 16 98 17 10 18 9 19 3 20 4 21 8 22 5 23
REMARK SMILES IDX 7 24 6 25 102 26 100 27 101 28 2 29 1 30 103 31 104 32
REMARK SMILES IDX 105 33 106 34 111 35 107 36 110 37 108 38 109 39 23 40 24 41
REMARK SMILES IDX 25 42 26 43 27 44 28 45 29 47 30 48 31 49 95 50 32 51 94 52
REMARK SMILES IDX 33 53 34 54 35 55 88 56 36 57 93 58 87 59 89 60 37 61 92 62
REMARK SMILES IDX 86 63 85 64 38 66 72 67 51 68 71 69 52 70 55 71 70 72 90 73
REMARK SMILES IDX 53 74 54 75 69 77 91 78 56 79 39 80 40 81 49 82 41 83 42 84
REMARK SMILES IDX 48 85 50 86 43 87 44 88 45 89 46 90 47 91 73 92 74 93 83 94
REMARK SMILES IDX 75 95 76 96 82 97 84 98 77 99 78 100 79 101 80 102 81 103
REMARK SMILES IDX 57 104 58 105 67 106 59 107 60 108 66 109 68 110 61 111
REMARK SMILES IDX 62 112 63 113 64 114 65 115
REMARK H PARENT 20 6 27 46 89 65 55 76
REMARK Flexibility Score: inf
ROOT
ATOM      1  C   UNL A   1      43.876  26.267  30.019  1.00  0.00     0.021 C 
ENDROOT
BRANCH   1   2
ATOM      2  C   UNL A   1      43.750  27.197  28.816  1.00  0.00     0.116 C 
BRANCH   2   3
ATOM      3  N   UNL A   1      42.813  28.293  29.004  1.00  0.00    -0.352 N 
ATOM      4  C   UNL A   1      41.460  28.377  28.770  1.00  0.00     0.251 C 
ATOM      5  O   UNL A   1      40.887  29.445  28.990  1.00  0.00    -0.269 OA
ATOM      6  H   UNL A   1      43.217  29.117  29.360  1.00  0.00     0.163 HD
BRANCH   4   7
ATOM      7  C   UNL A   1      40.685  27.256  28.174  1.00  0.00     0.039 A 
ATOM      8  C   UNL A   1      39.561  24.952  27.007  1.00  0.00     0.001 A 
ATOM      9  C   UNL A   1      40.346  25.820  26.241  1.00  0.00     0.011 A 
ATOM     10  C   UNL A   1      39.230  25.325  28.317  1.00  0.00     0.011 A 
ATOM     11  C   UNL A   1      40.909  26.960  26.823  1.00  0.00     0.014 A 
ATOM     12  C   UNL A   1      39.762  26.487  28.885  1.00  0.00     0.014 A 
BRANCH   8  13
ATOM     13  C   UNL A   1      39.076  23.686  26.477  1.00  0.00     0.081 A 
ATOM     14  C   UNL A   1      37.778  22.425  25.203  1.00  0.00     0.098 A 
ATOM     15  N   UNL A   1      37.975  23.646  25.649  1.00  0.00    -0.241 NA
ATOM     16  S   UNL A   1      38.781  21.222  25.908  1.00  0.00    -0.126 S 
ATOM     17  C   UNL A   1      39.608  22.448  26.780  1.00  0.00     0.095 A 
BRANCH  14  18
ATOM     18  C   UNL A   1      36.783  22.083  24.134  1.00  0.00     0.105 C 
BRANCH  18  19
ATOM     19  C   UNL A   1      35.379  22.040  24.684  1.00  0.00    -0.012 A 
ATOM     20  C   UNL A   1      33.871  18.528  24.774  1.00  0.00     0.119 A 
ATOM     21  C   UNL A   1      32.615  18.915  25.202  1.00  0.00     0.048 A 
ATOM     22  C   UNL A   1      34.853  19.497  24.575  1.00  0.00     0.057 A 
ATOM     23  C   UNL A   1      32.327  20.266  25.446  1.00  0.00     0.031 A 
ATOM     24  C   UNL A   1      34.594  20.863  24.834  1.00  0.00     0.008 A 
ATOM     25  C   UNL A   1      33.340  21.243  25.317  1.00  0.00     0.057 A 
ATOM     26  N   UNL A   1      33.379  22.626  25.592  1.00  0.00    -0.280 N 
ATOM     27  C   UNL A   1      34.620  23.111  25.140  1.00  0.00     0.028 A 
ATOM     28  C   UNL A   1      35.072  24.538  25.171  1.00  0.00     0.065 C 
BRANCH  20  29
ATOM     29  O   UNL A   1      34.270  17.241  24.546  1.00  0.00    -0.497 OA
ATOM     30  C   UNL A   1      34.337  16.846  23.180  1.00  0.00     0.278 C 
ENDBRANCH  20  29
BRANCH  26  31
ATOM     31  C   UNL A   1      32.343  23.381  26.214  1.00  0.00     0.262 C 
ATOM     32  O   UNL A   1      32.155  23.268  27.430  1.00  0.00    -0.268 OA
BRANCH  31  33
ATOM     33  C   UNL A   1      31.459  24.343  25.537  1.00  0.00     0.040 A 
ATOM     34  C   UNL A   1      30.923  24.067  24.273  1.00  0.00     0.015 A 
ATOM     35  C   UNL A   1      31.194  25.559  26.178  1.00  0.00     0.015 A 
ATOM     36  C   UNL A   1      30.189  25.056  23.613  1.00  0.00     0.021 A 
ATOM     37  C   UNL A   1      30.453  26.538  25.517  1.00  0.00     0.021 A 
ATOM     38  C   UNL A   1      29.971  26.290  24.231  1.00  0.00     0.041 A 
ATOM     39  Cl  UNL A   1      29.115  27.524  23.393  1.00  0.00    -0.084 Cl
ENDBRANCH  31  33
ENDBRANCH  26  31
ENDBRANCH  18  19
ENDBRANCH  14  18
ENDBRANCH   8  13
ENDBRANCH   4   7
ENDBRANCH   2   3
ENDBRANCH   1   2
BRANCH   1  40
ATOM     40  C   UNL A   1      43.713  24.772  29.751  1.00  0.00     0.002 C 
BRANCH  40  41
ATOM     41  C   UNL A   1      44.573  23.823  30.593  1.00  0.00     0.002 C 
BRANCH  41  42
ATOM     42  C   UNL A   1      44.199  23.667  32.075  1.00  0.00     0.021 C 
BRANCH  42  43
ATOM     43  C   UNL A   1      45.041  24.473  33.065  1.00  0.00     0.116 C 
BRANCH  43  44
ATOM     44  N   UNL A   1      44.612  24.342  34.440  1.00  0.00    -0.352 N 
ATOM     45  C   UNL A   1      43.764  25.013  35.274  1.00  0.00     0.251 C 
ATOM     46  H   UNL A   1      45.039  23.575  34.888  1.00  0.00     0.163 HD
ATOM     47  O   UNL A   1      43.582  24.481  36.375  1.00  0.00    -0.269 OA
BRANCH  45  48
ATOM     48  C   UNL A   1      43.081  26.308  34.986  1.00  0.00     0.039 A 
ATOM     49  C   UNL A   1      42.528  26.695  33.767  1.00  0.00     0.014 A 
ATOM     50  C   UNL A   1      43.041  27.230  36.054  1.00  0.00     0.014 A 
ATOM     51  C   UNL A   1      41.994  27.978  33.610  1.00  0.00     0.010 A 
ATOM     52  C   UNL A   1      42.505  28.509  35.903  1.00  0.00     0.010 A 
ATOM     53  C   UNL A   1      42.006  28.901  34.666  1.00  0.00    -0.014 A 
BRANCH  53  54
ATOM     54  C   UNL A   1      41.431  30.230  34.432  1.00  0.00     0.031 A 
ATOM     55  C   UNL A   1      42.405  31.361  34.400  1.00  0.00     0.074 A 
ATOM     56  C   UNL A   1      40.130  30.487  34.182  1.00  0.00     0.049 A 
ATOM     57  N   UNL A   1      42.545  32.316  35.262  1.00  0.00    -0.248 NA
ATOM     58  C   UNL A   1      43.402  31.382  33.322  1.00  0.00     0.031 C 
ATOM     59  C   UNL A   1      39.046  29.545  33.893  1.00  0.00     0.029 A 
ATOM     60  N   UNL A   1      39.515  31.703  34.076  1.00  0.00    -0.354 N 
ATOM     61  C   UNL A   1      43.528  33.165  34.755  1.00  0.00     0.074 A 
ATOM     62  C   UNL A   1      44.100  32.480  33.622  1.00  0.00     0.031 C 
ATOM     63  C   UNL A   1      37.963  30.229  33.453  1.00  0.00     0.029 A 
ATOM     64  C   UNL A   1      38.221  31.653  33.577  1.00  0.00     0.049 A 
ATOM     65  H   UNL A   1      39.954  32.545  34.331  1.00  0.00     0.167 HD
ATOM     66  C   UNL A   1      43.689  34.441  35.208  1.00  0.00     0.037 A 
ATOM     67  C   UNL A   1      37.426  32.708  33.265  1.00  0.00     0.037 A 
ATOM     68  C   UNL A   1      43.006  34.649  36.458  1.00  0.00     0.049 A 
ATOM     69  C   UNL A   1      37.911  33.873  34.046  1.00  0.00     0.074 A 
ATOM     70  C   UNL A   1      43.107  34.118  37.728  1.00  0.00     0.029 A 
ATOM     71  N   UNL A   1      41.809  35.322  36.433  1.00  0.00    -0.354 N 
ATOM     72  N   UNL A   1      37.828  33.972  35.344  1.00  0.00    -0.248 NA
ATOM     73  C   UNL A   1      38.850  34.783  33.411  1.00  0.00     0.031 C 
ATOM     74  C   UNL A   1      41.771  34.085  38.225  1.00  0.00     0.029 A 
ATOM     75  C   UNL A   1      40.944  34.631  37.242  1.00  0.00     0.049 A 
ATOM     76  H   UNL A   1      41.609  36.144  35.930  1.00  0.00     0.167 HD
ATOM     77  C   UNL A   1      38.981  34.640  35.723  1.00  0.00     0.074 A 
ATOM     78  C   UNL A   1      39.514  35.207  34.488  1.00  0.00     0.031 C 
ATOM     79  C   UNL A   1      39.538  34.452  36.956  1.00  0.00     0.037 A 
BRANCH  66  80
ATOM     80  C   UNL A   1      44.201  35.606  34.389  1.00  0.00     0.058 A 
ATOM     81  C   UNL A   1      45.246  36.407  34.897  1.00  0.00     0.135 A 
ATOM     82  C   UNL A   1      43.514  36.137  33.276  1.00  0.00     0.135 A 
ATOM     83  F   UNL A   1      45.975  35.997  35.948  1.00  0.00    -0.206 F 
ATOM     84  C   UNL A   1      45.522  37.682  34.402  1.00  0.00     0.059 A 
ATOM     85  C   UNL A   1      43.808  37.385  32.734  1.00  0.00     0.059 A 
ATOM     86  F   UNL A   1      42.461  35.518  32.729  1.00  0.00    -0.206 F 
ATOM     87  C   UNL A   1      44.778  38.172  33.334  1.00  0.00     0.060 A 
BRANCH  87  88
ATOM     88  S   UNL A   1      45.029  39.873  32.793  1.00  0.00     0.124 S 
ATOM     89  O   UNL A   1      45.529  39.674  31.438  1.00  0.00    -0.237 OA
ATOM     90  O   UNL A   1      43.685  40.429  32.904  1.00  0.00    -0.237 OA
ATOM     91  O   UNL A   1      45.999  40.390  33.754  1.00  0.00    -0.744 OA
ENDBRANCH  87  88
ENDBRANCH  66  80
BRANCH  67  92
ATOM     92  C   UNL A   1      36.499  32.857  32.112  1.00  0.00     0.058 A 
ATOM     93  C   UNL A   1      35.175  33.303  32.294  1.00  0.00     0.135 A 
ATOM     94  C   UNL A   1      36.979  32.863  30.787  1.00  0.00     0.135 A 
ATOM     95  F   UNL A   1      34.641  33.346  33.524  1.00  0.00    -0.206 F 
ATOM     96  C   UNL A   1      34.398  33.785  31.235  1.00  0.00     0.059 A 
ATOM     97  C   UNL A   1      36.219  33.331  29.715  1.00  0.00     0.059 A 
ATOM     98  F   UNL A   1      38.240  32.504  30.508  1.00  0.00    -0.206 F 
ATOM     99  C   UNL A   1      34.940  33.820  29.952  1.00  0.00     0.060 A 
BRANCH  99 100
ATOM    100  S   UNL A   1      34.014  34.618  28.619  1.00  0.00     0.124 S 
ATOM    101  O   UNL A   1      32.638  34.268  28.954  1.00  0.00    -0.237 OA
ATOM    102  O   UNL A   1      34.375  36.022  28.792  1.00  0.00    -0.237 OA
ATOM    103  O   UNL A   1      34.542  33.986  27.412  1.00  0.00    -0.744 OA
ENDBRANCH  99 100
ENDBRANCH  67  92
BRANCH  79 104
ATOM    104  C   UNL A   1      38.713  33.775  38.019  1.00  0.00     0.058 A 
ATOM    105  C   UNL A   1      38.370  32.412  38.007  1.00  0.00     0.135 A 
ATOM    106  C   UNL A   1      38.400  34.505  39.176  1.00  0.00     0.135 A 
ATOM    107  F   UNL A   1      38.721  31.621  36.983  1.00  0.00    -0.206 F 
ATOM    108  C   UNL A   1      37.719  31.810  39.086  1.00  0.00     0.059 A 
ATOM    109  C   UNL A   1      37.779  33.919  40.276  1.00  0.00     0.059 A 
ATOM    110  F   UNL A   1      38.754  35.798  39.272  1.00  0.00    -0.206 F 
ATOM    111  C   UNL A   1      37.435  32.570  40.222  1.00  0.00     0.060 A 
BRANCH 111 112
ATOM    112  S   UNL A   1      36.691  31.763  41.656  1.00  0.00     0.124 S 
ATOM    113  O   UNL A   1      35.287  31.680  41.270  1.00  0.00    -0.237 OA
ATOM    114  O   UNL A   1      37.411  30.492  41.711  1.00  0.00    -0.237 OA
ATOM    115  O   UNL A   1      36.984  32.680  42.754  1.00  0.00    -0.744 OA
ENDBRANCH 111 112
ENDBRANCH  79 104
ENDBRANCH  53  54
ENDBRANCH  45  48
ENDBRANCH  43  44
ENDBRANCH  42  43
ENDBRANCH  41  42
ENDBRANCH  40  41
ENDBRANCH   1  40
TORSDOF 22
ENDMDL
MODEL 3
REMARK VINA RESULT:      -9.7      1.805      2.778
REMARK SMILES COc1ccc2c(c1)c(Cc1nc(-c3ccc(C(=O)NCCCCCCNC(=O)c4ccc(-c5c6nc(c(-c7c(F)cc(S(=O)(=O)[O-])cc7F)c7ccc([nH]7)c(-c7c(F)cc(S(=O)(=O)[O-])cc7F)c7nc(c(-c8c(F)cc(S(=O)(=O)[O-])cc8F)c8ccc5[nH]8)C=C7)C=C6)cc4)cc3)cs1)c(C)n2C(=O)c1ccc(Cl)cc1
REMARK SMILES IDX 22 1 21 2 20 3 18 4 19 5 17 7 14 8 15 9 97 10 16 11 96 12
REMARK SMILES IDX 13 13 11 14 12 15 99 16 98 17 10 18 9 19 3 20 4 21 8 22 5 23
REMARK SMILES IDX 7 24 6 25 102 26 100 27 101 28 2 29 1 30 103 31 104 32
REMARK SMILES IDX 105 33 106 34 111 35 107 36 110 37 108 38 109 39 23 40 24 41
REMARK SMILES IDX 25 42 26 43 27 44 28 45 29 47 30 48 31 49 95 50 32 51 94 52
REMARK SMILES IDX 33 53 34 54 35 55 88 56 36 57 93 58 87 59 89 60 37 61 92 62
REMARK SMILES IDX 86 63 85 64 38 66 72 67 51 68 71 69 52 70 55 71 70 72 90 73
REMARK SMILES IDX 53 74 54 75 69 77 91 78 56 79 39 80 40 81 49 82 41 83 42 84
REMARK SMILES IDX 48 85 50 86 43 87 44 88 45 89 46 90 47 91 73 92 74 93 83 94
REMARK SMILES IDX 75 95 76 96 82 97 84 98 77 99 78 100 79 101 80 102 81 103
REMARK SMILES IDX 57 104 58 105 67 106 59 107 60 108 66 109 68 110 61 111
REMARK SMILES IDX 62 112 63 113 64 114 65 115
REMARK H PARENT 20 6 27 46 89 65 55 76
REMARK Flexibility Score: inf
ROOT
ATOM      1  C   UNL A   1      46.154  25.077  25.259  1.00  0.00     0.021 C 
ENDROOT
BRANCH   1   2
ATOM      2  C   UNL A   1      47.534  25.711  25.106  1.00  0.00     0.116 C 
BRANCH   2   3
ATOM      3  N   UNL A   1      47.593  27.111  25.492  1.00  0.00    -0.352 N 
ATOM      4  C   UNL A   1      47.340  27.730  26.694  1.00  0.00     0.251 C 
ATOM      5  O   UNL A   1      47.437  28.956  26.761  1.00  0.00    -0.269 OA
ATOM      6  H   UNL A   1      47.861  27.722  24.768  1.00  0.00     0.163 HD
BRANCH   4   7
ATOM      7  C   UNL A   1      46.863  26.982  27.889  1.00  0.00     0.039 A 
ATOM      8  C   UNL A   1      46.039  25.892  30.352  1.00  0.00     0.001 A 
ATOM      9  C   UNL A   1      47.393  26.145  30.110  1.00  0.00     0.011 A 
ATOM     10  C   UNL A   1      45.127  26.055  29.300  1.00  0.00     0.011 A 
ATOM     11  C   UNL A   1      47.800  26.693  28.890  1.00  0.00     0.014 A 
ATOM     12  C   UNL A   1      45.543  26.565  28.066  1.00  0.00     0.014 A 
BRANCH   8  13
ATOM     13  C   UNL A   1      45.561  25.456  31.656  1.00  0.00     0.081 A 
ATOM     14  C   UNL A   1      45.631  25.330  33.864  1.00  0.00     0.098 A 
ATOM     15  N   UNL A   1      46.293  25.713  32.795  1.00  0.00    -0.241 NA
ATOM     16  S   UNL A   1      44.182  24.463  33.552  1.00  0.00    -0.126 S 
ATOM     17  C   UNL A   1      44.409  24.726  31.870  1.00  0.00     0.095 A 
BRANCH  14  18
ATOM     18  C   UNL A   1      46.065  25.645  35.265  1.00  0.00     0.105 C 
BRANCH  18  19
ATOM     19  C   UNL A   1      47.424  25.062  35.562  1.00  0.00    -0.012 A 
ATOM     20  C   UNL A   1      50.230  27.658  35.621  1.00  0.00     0.119 A 
ATOM     21  C   UNL A   1      51.265  26.757  35.794  1.00  0.00     0.048 A 
ATOM     22  C   UNL A   1      48.922  27.185  35.533  1.00  0.00     0.057 A 
ATOM     23  C   UNL A   1      51.006  25.382  35.892  1.00  0.00     0.031 A 
ATOM     24  C   UNL A   1      48.634  25.806  35.649  1.00  0.00     0.008 A 
ATOM     25  C   UNL A   1      49.676  24.905  35.878  1.00  0.00     0.057 A 
ATOM     26  N   UNL A   1      49.114  23.624  36.062  1.00  0.00    -0.280 N 
ATOM     27  C   UNL A   1      47.735  23.729  35.804  1.00  0.00     0.028 A 
ATOM     28  C   UNL A   1      46.749  22.602  35.818  1.00  0.00     0.065 C 
BRANCH  20  29
ATOM     29  O   UNL A   1      50.364  29.016  35.553  1.00  0.00    -0.497 OA
ATOM     30  C   UNL A   1      49.563  29.670  34.575  1.00  0.00     0.278 C 
ENDBRANCH  20  29
BRANCH  26  31
ATOM     31  C   UNL A   1      49.825  22.449  36.440  1.00  0.00     0.262 C 
ATOM     32  O   UNL A   1      49.687  21.996  37.582  1.00  0.00    -0.268 OA
BRANCH  31  33
ATOM     33  C   UNL A   1      50.717  21.670  35.568  1.00  0.00     0.040 A 
ATOM     34  C   UNL A   1      50.220  20.987  34.451  1.00  0.00     0.015 A 
ATOM     35  C   UNL A   1      52.075  21.603  35.903  1.00  0.00     0.015 A 
ATOM     36  C   UNL A   1      51.077  20.160  33.720  1.00  0.00     0.021 A 
ATOM     37  C   UNL A   1      52.926  20.782  35.163  1.00  0.00     0.021 A 
ATOM     38  C   UNL A   1      52.420  20.051  34.088  1.00  0.00     0.041 A 
ATOM     39  Cl  UNL A   1      53.459  18.990  33.220  1.00  0.00    -0.084 Cl
ENDBRANCH  31  33
ENDBRANCH  26  31
ENDBRANCH  18  19
ENDBRANCH  14  18
ENDBRANCH   8  13
ENDBRANCH   4   7
ENDBRANCH   2   3
ENDBRANCH   1   2
BRANCH   1  40
ATOM     40  C   UNL A   1      46.116  23.595  25.630  1.00  0.00     0.002 C 
BRANCH  40  41
ATOM     41  C   UNL A   1      45.953  22.600  24.477  1.00  0.00     0.002 C 
BRANCH  41  42
ATOM     42  C   UNL A   1      44.536  22.076  24.198  1.00  0.00     0.021 C 
BRANCH  42  43
ATOM     43  C   UNL A   1      43.388  22.985  24.641  1.00  0.00     0.116 C 
BRANCH  43  44
ATOM     44  N   UNL A   1      42.317  22.286  25.318  1.00  0.00    -0.352 N 
ATOM     45  C   UNL A   1      41.313  22.624  26.179  1.00  0.00     0.251 C 
ATOM     46  H   UNL A   1      42.311  21.325  25.103  1.00  0.00     0.163 HD
ATOM     47  O   UNL A   1      40.511  21.718  26.431  1.00  0.00    -0.269 OA
BRANCH  45  48
ATOM     48  C   UNL A   1      41.124  23.948  26.842  1.00  0.00     0.039 A 
ATOM     49  C   UNL A   1      40.190  24.920  26.489  1.00  0.00     0.014 A 
ATOM     50  C   UNL A   1      42.016  24.238  27.897  1.00  0.00     0.014 A 
ATOM     51  C   UNL A   1      40.180  26.158  27.141  1.00  0.00     0.010 A 
ATOM     52  C   UNL A   1      42.006  25.469  28.552  1.00  0.00     0.010 A 
ATOM     53  C   UNL A   1      41.104  26.450  28.153  1.00  0.00    -0.014 A 
BRANCH  53  54
ATOM     54  C   UNL A   1      41.039  27.768  28.793  1.00  0.00     0.031 A 
ATOM     55  C   UNL A   1      42.136  28.717  28.438  1.00  0.00     0.074 A 
ATOM     56  C   UNL A   1      40.048  28.196  29.604  1.00  0.00     0.049 A 
ATOM     57  N   UNL A   1      43.094  29.146  29.194  1.00  0.00    -0.248 NA
ATOM     58  C   UNL A   1      42.227  29.175  27.045  1.00  0.00     0.031 C 
ATOM     59  C   UNL A   1      38.752  27.572  29.880  1.00  0.00     0.029 A 
ATOM     60  N   UNL A   1      39.988  29.357  30.322  1.00  0.00    -0.354 N 
ATOM     61  C   UNL A   1      43.814  30.068  28.436  1.00  0.00     0.074 A 
ATOM     62  C   UNL A   1      43.308  29.957  27.090  1.00  0.00     0.031 C 
ATOM     63  C   UNL A   1      37.963  28.451  30.543  1.00  0.00     0.029 A 
ATOM     64  C   UNL A   1      38.743  29.632  30.872  1.00  0.00     0.049 A 
ATOM     65  H   UNL A   1      40.763  29.952  30.439  1.00  0.00     0.167 HD
ATOM     66  C   UNL A   1      44.664  30.970  29.005  1.00  0.00     0.037 A 
ATOM     67  C   UNL A   1      38.372  30.759  31.530  1.00  0.00     0.037 A 
ATOM     68  C   UNL A   1      44.984  30.613  30.362  1.00  0.00     0.049 A 
ATOM     69  C   UNL A   1      39.608  31.389  32.058  1.00  0.00     0.074 A 
ATOM     70  C   UNL A   1      45.610  29.544  30.970  1.00  0.00     0.029 A 
ATOM     71  N   UNL A   1      44.353  31.295  31.373  1.00  0.00    -0.354 N 
ATOM     72  N   UNL A   1      40.349  30.874  33.000  1.00  0.00    -0.248 NA
ATOM     73  C   UNL A   1      40.243  32.427  31.264  1.00  0.00     0.031 C 
ATOM     74  C   UNL A   1      44.929  29.369  32.210  1.00  0.00     0.029 A 
ATOM     75  C   UNL A   1      43.953  30.364  32.297  1.00  0.00     0.049 A 
ATOM     76  H   UNL A   1      44.213  32.268  31.425  1.00  0.00     0.167 HD
ATOM     77  C   UNL A   1      41.647  31.211  32.654  1.00  0.00     0.074 A 
ATOM     78  C   UNL A   1      41.511  32.254  31.642  1.00  0.00     0.031 C 
ATOM     79  C   UNL A   1      42.706  30.432  33.026  1.00  0.00     0.037 A 
BRANCH  66  80
ATOM     80  C   UNL A   1      44.975  32.347  28.460  1.00  0.00     0.058 A 
ATOM     81  C   UNL A   1      46.317  32.704  28.201  1.00  0.00     0.135 A 
ATOM     82  C   UNL A   1      44.053  33.414  28.465  1.00  0.00     0.135 A 
ATOM     83  F   UNL A   1      47.280  31.769  28.162  1.00  0.00    -0.206 F 
ATOM     84  C   UNL A   1      46.725  34.031  28.057  1.00  0.00     0.059 A 
ATOM     85  C   UNL A   1      44.431  34.740  28.272  1.00  0.00     0.059 A 
ATOM     86  F   UNL A   1      42.759  33.233  28.757  1.00  0.00    -0.206 F 
ATOM     87  C   UNL A   1      45.775  35.044  28.120  1.00  0.00     0.060 A 
BRANCH  87  88
ATOM     88  S   UNL A   1      46.318  36.763  28.087  1.00  0.00     0.124 S 
ATOM     89  O   UNL A   1      46.119  37.102  26.683  1.00  0.00    -0.237 OA
ATOM     90  O   UNL A   1      45.400  37.389  29.033  1.00  0.00    -0.237 OA
ATOM     91  O   UNL A   1      47.708  36.683  28.528  1.00  0.00    -0.744 OA
ENDBRANCH  87  88
ENDBRANCH  66  80
BRANCH  67  92
ATOM     92  C   UNL A   1      37.080  31.490  31.456  1.00  0.00     0.058 A 
ATOM     93  C   UNL A   1      36.358  31.816  32.620  1.00  0.00     0.135 A 
ATOM     94  C   UNL A   1      36.683  32.149  30.275  1.00  0.00     0.135 A 
ATOM     95  F   UNL A   1      36.677  31.248  33.793  1.00  0.00    -0.206 F 
ATOM     96  C   UNL A   1      35.348  32.784  32.626  1.00  0.00     0.059 A 
ATOM     97  C   UNL A   1      35.673  33.111  30.255  1.00  0.00     0.059 A 
ATOM     98  F   UNL A   1      37.334  31.949  29.120  1.00  0.00    -0.206 F 
ATOM     99  C   UNL A   1      35.031  33.446  31.441  1.00  0.00     0.060 A 
BRANCH  99 100
ATOM    100  S   UNL A   1      33.866  34.829  31.482  1.00  0.00     0.124 S 
ATOM    101  O   UNL A   1      33.341  34.822  30.120  1.00  0.00    -0.237 OA
ATOM    102  O   UNL A   1      32.934  34.415  32.526  1.00  0.00    -0.237 OA
ATOM    103  O   UNL A   1      34.708  35.973  31.820  1.00  0.00    -0.744 OA
ENDBRANCH  99 100
ENDBRANCH  67  92
BRANCH  79 104
ATOM    104  C   UNL A   1      42.490  29.391  34.092  1.00  0.00     0.058 A 
ATOM    105  C   UNL A   1      41.875  28.146  33.873  1.00  0.00     0.135 A 
ATOM    106  C   UNL A   1      43.080  29.602  35.349  1.00  0.00     0.135 A 
ATOM    107  F   UNL A   1      41.375  27.826  32.671  1.00  0.00    -0.206 F 
ATOM    108  C   UNL A   1      41.824  27.168  34.868  1.00  0.00     0.059 A 
ATOM    109  C   UNL A   1      43.068  28.629  36.345  1.00  0.00     0.059 A 
ATOM    110  F   UNL A   1      43.734  30.748  35.601  1.00  0.00    -0.206 F 
ATOM    111  C   UNL A   1      42.431  27.414  36.100  1.00  0.00     0.060 A 
BRANCH 111 112
ATOM    112  S   UNL A   1      42.457  26.106  37.345  1.00  0.00     0.124 S 
ATOM    113  O   UNL A   1      41.063  26.063  37.776  1.00  0.00    -0.237 OA
ATOM    114  O   UNL A   1      42.920  24.951  36.579  1.00  0.00    -0.237 OA
ATOM    115  O   UNL A   1      43.404  26.601  38.341  1.00  0.00    -0.744 OA
ENDBRANCH 111 112
ENDBRANCH  79 104
ENDBRANCH  53  54
ENDBRANCH  45  48
ENDBRANCH  43  44
ENDBRANCH  42  43
ENDBRANCH  41  42
ENDBRANCH  40  41
ENDBRANCH   1  40
TORSDOF 22
ENDMDL
