MODEL 1
REMARK VINA RESULT:     -11.8      0.000      0.000
REMARK SMILES Cc1cc(Cl)c2c(c1)C=C(C(=O)NCCCCCCNC(=O)c1ccc(-c3c4nc(c(-c5c(F)cc(S(=O)(=O)[O-])cc5F)c5ccc([nH]5)c(-c5c(F)cc(S(=O)(=O)[O-])cc5F)c5nc(c(-c6c(F)cc(S(=O)(=O)[O-])cc6F)c6ccc3[nH]6)C=C5)C=C4)cc1)[C@@H](C(F)(F)F)O2
REMARK SMILES IDX 17 1 16 2 15 3 14 4 13 5 11 6 12 7 10 9 1 10 2 11 3 12 8 13
REMARK SMILES IDX 4 14 7 15 5 16 6 17 9 18 94 19 89 20 90 21 91 22 92 23 93 24
REMARK SMILES IDX 18 25 19 26 20 27 21 28 22 30 23 31 24 32 88 33 25 34 87 35
REMARK SMILES IDX 26 36 27 37 28 38 81 39 29 40 86 41 80 42 82 43 30 44 85 45
REMARK SMILES IDX 79 46 78 47 31 49 65 50 44 51 64 52 45 53 48 54 63 55 83 56
REMARK SMILES IDX 46 57 47 58 62 60 84 61 49 62 32 63 33 64 42 65 34 66 35 67
REMARK SMILES IDX 41 68 43 69 36 70 37 71 38 72 39 73 40 74 66 75 67 76 76 77
REMARK SMILES IDX 68 78 69 79 75 80 77 81 70 82 71 83 72 84 73 85 74 86 50 87
REMARK SMILES IDX 51 88 60 89 52 90 53 91 59 92 61 93 54 94 55 95 56 96 57 97
REMARK SMILES IDX 58 98
REMARK H PARENT 13 8 20 29 82 48 48 59
REMARK Flexibility Score: inf
ROOT
ATOM      1  C   UNL A   1      33.222  28.879  24.531  1.00  0.00     0.002 C 
ENDROOT
BRANCH   1   2
ATOM      2  C   UNL A   1      31.715  29.087  24.329  1.00  0.00     0.002 C 
BRANCH   2   3
ATOM      3  C   UNL A   1      31.204  28.786  22.918  1.00  0.00     0.021 C 
BRANCH   3   4
ATOM      4  C   UNL A   1      30.850  27.319  22.700  1.00  0.00     0.116 C 
BRANCH   4   5
ATOM      5  N   UNL A   1      31.718  26.697  21.715  1.00  0.00    -0.352 N 
ATOM      6  C   UNL A   1      32.615  25.685  21.687  1.00  0.00     0.251 C 
ATOM      7  O   UNL A   1      33.133  25.470  20.585  1.00  0.00    -0.270 OA
ATOM      8  H   UNL A   1      31.631  27.128  20.835  1.00  0.00     0.163 HD
BRANCH   6   9
ATOM      9  C   UNL A   1      33.004  24.845  22.859  1.00  0.00     0.067 C 
ATOM     10  C   UNL A   1      37.631  21.211  24.796  1.00  0.00     0.044 C 
ATOM     11  C   UNL A   1      36.326  21.945  24.880  1.00  0.00    -0.049 A 
ATOM     12  C   UNL A   1      35.572  21.903  26.058  1.00  0.00     0.028 A 
ATOM     13  C   UNL A   1      35.881  22.733  23.809  1.00  0.00     0.015 A 
ATOM     14  C   UNL A   1      34.377  22.615  26.154  1.00  0.00     0.084 A 
ATOM     15  C   UNL A   1      34.680  23.447  23.900  1.00  0.00     0.019 A 
ATOM     16  Cl  UNL A   1      33.484  22.533  27.629  1.00  0.00    -0.080 Cl
ATOM     17  C   UNL A   1      33.925  23.377  25.072  1.00  0.00     0.146 A 
ATOM     18  C   UNL A   1      34.233  24.299  22.805  1.00  0.00     0.025 C 
ATOM     19  O   UNL A   1      32.767  24.081  25.227  1.00  0.00    -0.474 OA
ATOM     20  C   UNL A   1      32.105  24.558  24.029  1.00  0.00     0.314 C 
BRANCH  20  21
ATOM     21  C   UNL A   1      30.954  23.601  23.670  1.00  0.00     0.429 C 
ATOM     22  F   UNL A   1      29.906  24.285  23.154  1.00  0.00    -0.167 F 
ATOM     23  F   UNL A   1      31.310  22.686  22.736  1.00  0.00    -0.167 F 
ATOM     24  F   UNL A   1      30.507  22.909  24.743  1.00  0.00    -0.167 F 
ENDBRANCH  20  21
ENDBRANCH   6   9
ENDBRANCH   4   5
ENDBRANCH   3   4
ENDBRANCH   2   3
ENDBRANCH   1   2
BRANCH   1  25
ATOM     25  C   UNL A   1      33.605  27.651  25.362  1.00  0.00     0.021 C 
BRANCH  25  26
ATOM     26  C   UNL A   1      34.112  27.973  26.763  1.00  0.00     0.116 C 
BRANCH  26  27
ATOM     27  N   UNL A   1      33.780  29.334  27.153  1.00  0.00    -0.352 N 
ATOM     28  C   UNL A   1      34.515  30.222  27.893  1.00  0.00     0.251 C 
ATOM     29  H   UNL A   1      32.907  29.662  26.842  1.00  0.00     0.163 HD
ATOM     30  O   UNL A   1      33.988  31.243  28.330  1.00  0.00    -0.269 OA
BRANCH  28  31
ATOM     31  C   UNL A   1      35.937  29.939  28.169  1.00  0.00     0.039 A 
ATOM     32  C   UNL A   1      36.308  29.508  29.443  1.00  0.00     0.014 A 
ATOM     33  C   UNL A   1      36.900  30.107  27.169  1.00  0.00     0.014 A 
ATOM     34  C   UNL A   1      37.644  29.200  29.702  1.00  0.00     0.010 A 
ATOM     35  C   UNL A   1      38.218  29.731  27.408  1.00  0.00     0.010 A 
ATOM     36  C   UNL A   1      38.604  29.285  28.680  1.00  0.00    -0.014 A 
BRANCH  36  37
ATOM     37  C   UNL A   1      40.024  28.938  28.936  1.00  0.00     0.031 A 
ATOM     38  C   UNL A   1      40.946  29.961  29.542  1.00  0.00     0.074 A 
ATOM     39  C   UNL A   1      40.486  27.720  28.592  1.00  0.00     0.049 A 
ATOM     40  N   UNL A   1      42.223  29.865  29.805  1.00  0.00    -0.248 NA
ATOM     41  C   UNL A   1      40.363  31.270  29.881  1.00  0.00     0.031 C 
ATOM     42  C   UNL A   1      39.690  26.661  27.966  1.00  0.00     0.029 A 
ATOM     43  N   UNL A   1      41.734  27.165  28.718  1.00  0.00    -0.354 N 
ATOM     44  C   UNL A   1      42.594  31.093  30.337  1.00  0.00     0.074 A 
ATOM     45  C   UNL A   1      41.423  31.941  30.304  1.00  0.00     0.031 C 
ATOM     46  C   UNL A   1      40.462  25.576  27.791  1.00  0.00     0.029 A 
ATOM     47  C   UNL A   1      41.814  25.872  28.256  1.00  0.00     0.049 A 
ATOM     48  H   UNL A   1      42.501  27.647  29.105  1.00  0.00     0.167 HD
ATOM     49  C   UNL A   1      43.794  31.469  30.836  1.00  0.00     0.037 A 
ATOM     50  C   UNL A   1      42.861  25.025  28.207  1.00  0.00     0.037 A 
ATOM     51  C   UNL A   1      44.947  30.609  30.889  1.00  0.00     0.049 A 
ATOM     52  C   UNL A   1      44.193  25.479  28.742  1.00  0.00     0.074 A 
ATOM     53  C   UNL A   1      46.197  30.882  31.416  1.00  0.00     0.029 A 
ATOM     54  N   UNL A   1      44.992  29.311  30.403  1.00  0.00    -0.354 N 
ATOM     55  N   UNL A   1      44.512  26.628  29.289  1.00  0.00    -0.248 NA
ATOM     56  C   UNL A   1      45.306  24.524  28.658  1.00  0.00     0.031 C 
ATOM     57  C   UNL A   1      47.011  29.767  31.204  1.00  0.00     0.029 A 
ATOM     58  C   UNL A   1      46.255  28.778  30.595  1.00  0.00     0.049 A 
ATOM     59  H   UNL A   1      44.237  28.838  29.982  1.00  0.00     0.167 HD
ATOM     60  C   UNL A   1      45.855  26.526  29.635  1.00  0.00     0.074 A 
ATOM     61  C   UNL A   1      46.284  25.197  29.251  1.00  0.00     0.031 C 
ATOM     62  C   UNL A   1      46.662  27.449  30.213  1.00  0.00     0.037 A 
BRANCH  49  63
ATOM     63  C   UNL A   1      43.925  32.862  31.388  1.00  0.00     0.058 A 
ATOM     64  C   UNL A   1      44.127  33.967  30.546  1.00  0.00     0.135 A 
ATOM     65  C   UNL A   1      43.766  33.105  32.762  1.00  0.00     0.135 A 
ATOM     66  F   UNL A   1      44.306  33.789  29.227  1.00  0.00    -0.206 F 
ATOM     67  C   UNL A   1      44.175  35.263  31.047  1.00  0.00     0.059 A 
ATOM     68  C   UNL A   1      43.781  34.397  33.281  1.00  0.00     0.059 A 
ATOM     69  F   UNL A   1      43.575  32.084  33.611  1.00  0.00    -0.206 F 
ATOM     70  C   UNL A   1      43.991  35.469  32.415  1.00  0.00     0.060 A 
BRANCH  70  71
ATOM     71  S   UNL A   1      44.010  37.163  33.037  1.00  0.00     0.124 S 
ATOM     72  O   UNL A   1      42.818  37.180  33.878  1.00  0.00    -0.237 OA
ATOM     73  O   UNL A   1      45.286  37.218  33.745  1.00  0.00    -0.237 OA
ATOM     74  O   UNL A   1      43.932  37.973  31.826  1.00  0.00    -0.744 OA
ENDBRANCH  70  71
ENDBRANCH  49  63
BRANCH  50  75
ATOM     75  C   UNL A   1      42.688  23.655  27.651  1.00  0.00     0.058 A 
ATOM     76  C   UNL A   1      42.408  22.565  28.489  1.00  0.00     0.135 A 
ATOM     77  C   UNL A   1      42.793  23.407  26.273  1.00  0.00     0.135 A 
ATOM     78  F   UNL A   1      42.304  22.749  29.814  1.00  0.00    -0.206 F 
ATOM     79  C   UNL A   1      42.256  21.278  27.986  1.00  0.00     0.059 A 
ATOM     80  C   UNL A   1      42.618  22.132  25.743  1.00  0.00     0.059 A 
ATOM     81  F   UNL A   1      43.044  24.416  25.424  1.00  0.00    -0.206 F 
ATOM     82  C   UNL A   1      42.360  21.072  26.610  1.00  0.00     0.060 A 
BRANCH  82  83
ATOM     83  S   UNL A   1      42.125  19.400  25.968  1.00  0.00     0.124 S 
ATOM     84  O   UNL A   1      42.960  19.424  24.773  1.00  0.00    -0.237 OA
ATOM     85  O   UNL A   1      42.612  18.579  27.071  1.00  0.00    -0.237 OA
ATOM     86  O   UNL A   1      40.686  19.330  25.731  1.00  0.00    -0.744 OA
ENDBRANCH  82  83
ENDBRANCH  50  75
BRANCH  62  87
ATOM     87  C   UNL A   1      48.086  27.058  30.490  1.00  0.00     0.058 A 
ATOM     88  C   UNL A   1      49.121  27.380  29.599  1.00  0.00     0.135 A 
ATOM     89  C   UNL A   1      48.431  26.428  31.697  1.00  0.00     0.135 A 
ATOM     90  F   UNL A   1      48.845  27.976  28.428  1.00  0.00    -0.206 F 
ATOM     91  C   UNL A   1      50.448  27.079  29.888  1.00  0.00     0.059 A 
ATOM     92  C   UNL A   1      49.754  26.144  32.021  1.00  0.00     0.059 A 
ATOM     93  F   UNL A   1      47.479  26.108  32.589  1.00  0.00    -0.206 F 
ATOM     94  C   UNL A   1      50.755  26.468  31.106  1.00  0.00     0.060 A 
BRANCH  94  95
ATOM     95  S   UNL A   1      52.487  26.130  31.487  1.00  0.00     0.124 S 
ATOM     96  O   UNL A   1      53.097  26.193  30.162  1.00  0.00    -0.237 OA
ATOM     97  O   UNL A   1      52.823  27.224  32.393  1.00  0.00    -0.237 OA
ATOM     98  O   UNL A   1      52.450  24.805  32.098  1.00  0.00    -0.744 OA
ENDBRANCH  94  95
ENDBRANCH  62  87
ENDBRANCH  36  37
ENDBRANCH  28  31
ENDBRANCH  26  27
ENDBRANCH  25  26
ENDBRANCH   1  25
TORSDOF 17
ENDMDL
MODEL 2
REMARK VINA RESULT:     -11.8      1.422      2.113
REMARK SMILES Cc1cc(Cl)c2c(c1)C=C(C(=O)NCCCCCCNC(=O)c1ccc(-c3c4nc(c(-c5c(F)cc(S(=O)(=O)[O-])cc5F)c5ccc([nH]5)c(-c5c(F)cc(S(=O)(=O)[O-])cc5F)c5nc(c(-c6c(F)cc(S(=O)(=O)[O-])cc6F)c6ccc3[nH]6)C=C5)C=C4)cc1)[C@@H](C(F)(F)F)O2
REMARK SMILES IDX 17 1 16 2 15 3 14 4 13 5 11 6 12 7 10 9 1 10 2 11 3 12 8 13
REMARK SMILES IDX 4 14 7 15 5 16 6 17 9 18 94 19 89 20 90 21 91 22 92 23 93 24
REMARK SMILES IDX 18 25 19 26 20 27 21 28 22 30 23 31 24 32 88 33 25 34 87 35
REMARK SMILES IDX 26 36 27 37 28 38 81 39 29 40 86 41 80 42 82 43 30 44 85 45
REMARK SMILES IDX 79 46 78 47 31 49 65 50 44 51 64 52 45 53 48 54 63 55 83 56
REMARK SMILES IDX 46 57 47 58 62 60 84 61 49 62 32 63 33 64 42 65 34 66 35 67
REMARK SMILES IDX 41 68 43 69 36 70 37 71 38 72 39 73 40 74 66 75 67 76 76 77
REMARK SMILES IDX 68 78 69 79 75 80 77 81 70 82 71 83 72 84 73 85 74 86 50 87
REMARK SMILES IDX 51 88 60 89 52 90 53 91 59 92 61 93 54 94 55 95 56 96 57 97
REMARK SMILES IDX 58 98
REMARK H PARENT 13 8 20 29 82 48 48 59
REMARK Flexibility Score: inf
ROOT
ATOM      1  C   UNL A   1      31.463  28.294  25.945  1.00  0.00     0.002 C 
ENDROOT
BRANCH   1   2
ATOM      2  C   UNL A   1      31.573  27.873  24.473  1.00  0.00     0.002 C 
BRANCH   2   3
ATOM      3  C   UNL A   1      30.325  27.202  23.897  1.00  0.00     0.021 C 
BRANCH   3   4
ATOM      4  C   UNL A   1      30.587  25.808  23.336  1.00  0.00     0.116 C 
BRANCH   4   5
ATOM      5  N   UNL A   1      31.542  25.840  22.243  1.00  0.00    -0.352 N 
ATOM      6  C   UNL A   1      32.669  25.177  21.895  1.00  0.00     0.251 C 
ATOM      7  O   UNL A   1      33.176  25.525  20.823  1.00  0.00    -0.270 OA
ATOM      8  H   UNL A   1      31.309  26.528  21.580  1.00  0.00     0.163 HD
BRANCH   6   9
ATOM      9  C   UNL A   1      33.312  24.091  22.695  1.00  0.00     0.067 C 
ATOM     10  C   UNL A   1      32.335  18.227  24.431  1.00  0.00     0.044 C 
ATOM     11  C   UNL A   1      33.078  19.524  24.311  1.00  0.00    -0.049 A 
ATOM     12  C   UNL A   1      34.361  19.651  24.855  1.00  0.00     0.028 A 
ATOM     13  C   UNL A   1      32.526  20.598  23.598  1.00  0.00     0.015 A 
ATOM     14  C   UNL A   1      35.069  20.843  24.713  1.00  0.00     0.084 A 
ATOM     15  C   UNL A   1      33.234  21.798  23.455  1.00  0.00     0.019 A 
ATOM     16  Cl  UNL A   1      36.650  20.949  25.401  1.00  0.00    -0.080 Cl
ATOM     17  C   UNL A   1      34.503  21.920  24.024  1.00  0.00     0.146 A 
ATOM     18  C   UNL A   1      32.681  22.903  22.681  1.00  0.00     0.025 C 
ATOM     19  O   UNL A   1      35.250  23.053  23.884  1.00  0.00    -0.474 OA
ATOM     20  C   UNL A   1      34.557  24.272  23.517  1.00  0.00     0.314 C 
BRANCH  20  21
ATOM     21  C   UNL A   1      34.316  25.120  24.779  1.00  0.00     0.429 C 
ATOM     22  F   UNL A   1      33.097  24.857  25.307  1.00  0.00    -0.167 F 
ATOM     23  F   UNL A   1      35.219  24.864  25.757  1.00  0.00    -0.167 F 
ATOM     24  F   UNL A   1      34.380  26.447  24.527  1.00  0.00    -0.167 F 
ENDBRANCH  20  21
ENDBRANCH   6   9
ENDBRANCH   4   5
ENDBRANCH   3   4
ENDBRANCH   2   3
ENDBRANCH   1   2
BRANCH   1  25
ATOM     25  C   UNL A   1      32.447  27.606  26.896  1.00  0.00     0.021 C 
BRANCH  25  26
ATOM     26  C   UNL A   1      33.783  28.324  27.043  1.00  0.00     0.116 C 
BRANCH  26  27
ATOM     27  N   UNL A   1      33.605  29.715  27.427  1.00  0.00    -0.352 N 
ATOM     28  C   UNL A   1      34.455  30.534  28.121  1.00  0.00     0.251 C 
ATOM     29  H   UNL A   1      32.755  30.124  27.149  1.00  0.00     0.163 HD
ATOM     30  O   UNL A   1      34.051  31.606  28.566  1.00  0.00    -0.269 OA
BRANCH  28  31
ATOM     31  C   UNL A   1      35.854  30.114  28.340  1.00  0.00     0.039 A 
ATOM     32  C   UNL A   1      36.747  30.145  27.268  1.00  0.00     0.014 A 
ATOM     33  C   UNL A   1      36.276  29.686  29.603  1.00  0.00     0.014 A 
ATOM     34  C   UNL A   1      38.080  29.788  27.475  1.00  0.00     0.010 A 
ATOM     35  C   UNL A   1      37.620  29.401  29.823  1.00  0.00     0.010 A 
ATOM     36  C   UNL A   1      38.531  29.438  28.759  1.00  0.00    -0.014 A 
BRANCH  36  37
ATOM     37  C   UNL A   1      39.951  29.079  28.997  1.00  0.00     0.031 A 
ATOM     38  C   UNL A   1      40.893  30.099  29.576  1.00  0.00     0.074 A 
ATOM     39  C   UNL A   1      40.395  27.851  28.661  1.00  0.00     0.049 A 
ATOM     40  N   UNL A   1      42.173  29.993  29.820  1.00  0.00    -0.248 NA
ATOM     41  C   UNL A   1      40.329  31.419  29.907  1.00  0.00     0.031 C 
ATOM     42  C   UNL A   1      39.578  26.794  28.060  1.00  0.00     0.029 A 
ATOM     43  N   UNL A   1      41.639  27.285  28.774  1.00  0.00    -0.354 N 
ATOM     44  C   UNL A   1      42.565  31.223  30.331  1.00  0.00     0.074 A 
ATOM     45  C   UNL A   1      41.403  32.083  30.305  1.00  0.00     0.031 C 
ATOM     46  C   UNL A   1      40.336  25.698  27.888  1.00  0.00     0.029 A 
ATOM     47  C   UNL A   1      41.698  25.986  28.327  1.00  0.00     0.049 A 
ATOM     48  H   UNL A   1      42.416  27.763  29.144  1.00  0.00     0.167 HD
ATOM     49  C   UNL A   1      43.777  31.593  30.806  1.00  0.00     0.037 A 
ATOM     50  C   UNL A   1      42.735  25.127  28.273  1.00  0.00     0.037 A 
ATOM     51  C   UNL A   1      44.921  30.721  30.851  1.00  0.00     0.049 A 
ATOM     52  C   UNL A   1      44.080  25.573  28.782  1.00  0.00     0.074 A 
ATOM     53  C   UNL A   1      46.182  30.988  31.355  1.00  0.00     0.029 A 
ATOM     54  N   UNL A   1      44.945  29.417  30.381  1.00  0.00    -0.354 N 
ATOM     55  N   UNL A   1      44.419  26.726  29.309  1.00  0.00    -0.248 NA
ATOM     56  C   UNL A   1      45.182  24.606  28.692  1.00  0.00     0.031 C 
ATOM     57  C   UNL A   1      46.982  29.861  31.145  1.00  0.00     0.029 A 
ATOM     58  C   UNL A   1      46.205  28.873  30.560  1.00  0.00     0.049 A 
ATOM     59  H   UNL A   1      44.179  28.947  29.979  1.00  0.00     0.167 HD
ATOM     60  C   UNL A   1      45.767  26.613  29.635  1.00  0.00     0.074 A 
ATOM     61  C   UNL A   1      46.176  25.275  29.261  1.00  0.00     0.031 C 
ATOM     62  C   UNL A   1      46.593  27.535  30.189  1.00  0.00     0.037 A 
BRANCH  49  63
ATOM     63  C   UNL A   1      43.931  32.991  31.338  1.00  0.00     0.058 A 
ATOM     64  C   UNL A   1      43.729  33.282  32.697  1.00  0.00     0.135 A 
ATOM     65  C   UNL A   1      44.363  34.033  30.502  1.00  0.00     0.135 A 
ATOM     66  F   UNL A   1      43.297  32.328  33.537  1.00  0.00    -0.206 F 
ATOM     67  C   UNL A   1      43.942  34.558  33.206  1.00  0.00     0.059 A 
ATOM     68  C   UNL A   1      44.610  35.311  30.995  1.00  0.00     0.059 A 
ATOM     69  F   UNL A   1      44.566  33.809  29.194  1.00  0.00    -0.206 F 
ATOM     70  C   UNL A   1      44.392  35.564  32.349  1.00  0.00     0.060 A 
BRANCH  70  71
ATOM     71  S   UNL A   1      44.707  37.202  33.040  1.00  0.00     0.124 S 
ATOM     72  O   UNL A   1      43.400  37.543  33.592  1.00  0.00    -0.237 OA
ATOM     73  O   UNL A   1      45.756  36.927  34.018  1.00  0.00    -0.237 OA
ATOM     74  O   UNL A   1      45.121  37.987  31.882  1.00  0.00    -0.744 OA
ENDBRANCH  70  71
ENDBRANCH  49  63
BRANCH  50  75
ATOM     75  C   UNL A   1      42.539  23.752  27.737  1.00  0.00     0.058 A 
ATOM     76  C   UNL A   1      42.478  23.517  26.355  1.00  0.00     0.135 A 
ATOM     77  C   UNL A   1      42.413  22.646  28.592  1.00  0.00     0.135 A 
ATOM     78  F   UNL A   1      42.585  24.542  25.496  1.00  0.00    -0.206 F 
ATOM     79  C   UNL A   1      42.282  22.240  25.840  1.00  0.00     0.059 A 
ATOM     80  C   UNL A   1      42.244  21.355  28.100  1.00  0.00     0.059 A 
ATOM     81  F   UNL A   1      42.480  22.811  29.922  1.00  0.00    -0.206 F 
ATOM     82  C   UNL A   1      42.169  21.165  26.721  1.00  0.00     0.060 A 
BRANCH  82  83
ATOM     83  S   UNL A   1      41.951  19.507  26.036  1.00  0.00     0.124 S 
ATOM     84  O   UNL A   1      42.823  19.554  24.869  1.00  0.00    -0.237 OA
ATOM     85  O   UNL A   1      42.400  18.662  27.137  1.00  0.00    -0.237 OA
ATOM     86  O   UNL A   1      40.520  19.446  25.753  1.00  0.00    -0.744 OA
ENDBRANCH  82  83
ENDBRANCH  50  75
BRANCH  62  87
ATOM     87  C   UNL A   1      48.017  27.132  30.448  1.00  0.00     0.058 A 
ATOM     88  C   UNL A   1      49.040  27.426  29.534  1.00  0.00     0.135 A 
ATOM     89  C   UNL A   1      48.375  26.519  31.660  1.00  0.00     0.135 A 
ATOM     90  F   UNL A   1      48.750  28.005  28.358  1.00  0.00    -0.206 F 
ATOM     91  C   UNL A   1      50.368  27.115  29.806  1.00  0.00     0.059 A 
ATOM     92  C   UNL A   1      49.700  26.227  31.967  1.00  0.00     0.059 A 
ATOM     93  F   UNL A   1      47.436  26.227  32.574  1.00  0.00    -0.206 F 
ATOM     94  C   UNL A   1      50.688  26.522  31.029  1.00  0.00     0.060 A 
BRANCH  94  95
ATOM     95  S   UNL A   1      52.423  26.171  31.386  1.00  0.00     0.124 S 
ATOM     96  O   UNL A   1      52.760  27.255  32.304  1.00  0.00    -0.237 OA
ATOM     97  O   UNL A   1      52.353  24.838  31.978  1.00  0.00    -0.237 OA
ATOM     98  O   UNL A   1      53.062  26.236  30.076  1.00  0.00    -0.744 OA
ENDBRANCH  94  95
ENDBRANCH  62  87
ENDBRANCH  36  37
ENDBRANCH  28  31
ENDBRANCH  26  27
ENDBRANCH  25  26
ENDBRANCH   1  25
TORSDOF 17
ENDMDL
MODEL 3
REMARK VINA RESULT:     -11.6      2.702      3.530
REMARK SMILES Cc1cc(Cl)c2c(c1)C=C(C(=O)NCCCCCCNC(=O)c1ccc(-c3c4nc(c(-c5c(F)cc(S(=O)(=O)[O-])cc5F)c5ccc([nH]5)c(-c5c(F)cc(S(=O)(=O)[O-])cc5F)c5nc(c(-c6c(F)cc(S(=O)(=O)[O-])cc6F)c6ccc3[nH]6)C=C5)C=C4)cc1)[C@@H](C(F)(F)F)O2
REMARK SMILES IDX 17 1 16 2 15 3 14 4 13 5 11 6 12 7 10 9 1 10 2 11 3 12 8 13
REMARK SMILES IDX 4 14 7 15 5 16 6 17 9 18 94 19 89 20 90 21 91 22 92 23 93 24
REMARK SMILES IDX 18 25 19 26 20 27 21 28 22 30 23 31 24 32 88 33 25 34 87 35
REMARK SMILES IDX 26 36 27 37 28 38 81 39 29 40 86 41 80 42 82 43 30 44 85 45
REMARK SMILES IDX 79 46 78 47 31 49 65 50 44 51 64 52 45 53 48 54 63 55 83 56
REMARK SMILES IDX 46 57 47 58 62 60 84 61 49 62 32 63 33 64 42 65 34 66 35 67
REMARK SMILES IDX 41 68 43 69 36 70 37 71 38 72 39 73 40 74 66 75 67 76 76 77
REMARK SMILES IDX 68 78 69 79 75 80 77 81 70 82 71 83 72 84 73 85 74 86 50 87
REMARK SMILES IDX 51 88 60 89 52 90 53 91 59 92 61 93 54 94 55 95 56 96 57 97
REMARK SMILES IDX 58 98
REMARK H PARENT 13 8 20 29 82 48 48 59
REMARK Flexibility Score: inf
ROOT
ATOM      1  C   UNL A   1      34.132  28.394  25.942  1.00  0.00     0.002 C 
ENDROOT
BRANCH   1   2
ATOM      2  C   UNL A   1      33.289  28.857  24.746  1.00  0.00     0.002 C 
BRANCH   2   3
ATOM      3  C   UNL A   1      33.106  27.815  23.641  1.00  0.00     0.021 C 
BRANCH   3   4
ATOM      4  C   UNL A   1      31.673  27.310  23.513  1.00  0.00     0.116 C 
BRANCH   4   5
ATOM      5  N   UNL A   1      31.119  26.933  24.801  1.00  0.00    -0.352 N 
ATOM      6  C   UNL A   1      31.256  25.910  25.676  1.00  0.00     0.251 C 
ATOM      7  O   UNL A   1      30.581  26.002  26.707  1.00  0.00    -0.270 OA
ATOM      8  H   UNL A   1      30.470  27.598  25.124  1.00  0.00     0.163 HD
BRANCH   6   9
ATOM      9  C   UNL A   1      32.139  24.720  25.479  1.00  0.00     0.067 C 
ATOM     10  C   UNL A   1      38.091  23.070  25.948  1.00  0.00     0.044 C 
ATOM     11  C   UNL A   1      36.623  22.884  25.701  1.00  0.00    -0.049 A 
ATOM     12  C   UNL A   1      36.118  21.616  25.395  1.00  0.00     0.028 A 
ATOM     13  C   UNL A   1      35.735  23.961  25.840  1.00  0.00     0.015 A 
ATOM     14  C   UNL A   1      34.750  21.432  25.201  1.00  0.00     0.084 A 
ATOM     15  C   UNL A   1      34.360  23.780  25.644  1.00  0.00     0.019 A 
ATOM     16  Cl  UNL A   1      34.177  19.847  24.827  1.00  0.00    -0.080 Cl
ATOM     17  C   UNL A   1      33.872  22.514  25.314  1.00  0.00     0.146 A 
ATOM     18  C   UNL A   1      33.428  24.886  25.826  1.00  0.00     0.025 C 
ATOM     19  O   UNL A   1      32.539  22.276  25.149  1.00  0.00    -0.474 OA
ATOM     20  C   UNL A   1      31.680  23.415  24.893  1.00  0.00     0.314 C 
BRANCH  20  21
ATOM     21  C   UNL A   1      31.398  23.510  23.383  1.00  0.00     0.429 C 
ATOM     22  F   UNL A   1      31.423  22.281  22.813  1.00  0.00    -0.167 F 
ATOM     23  F   UNL A   1      30.177  24.031  23.114  1.00  0.00    -0.167 F 
ATOM     24  F   UNL A   1      32.303  24.281  22.738  1.00  0.00    -0.167 F 
ENDBRANCH  20  21
ENDBRANCH   6   9
ENDBRANCH   4   5
ENDBRANCH   3   4
ENDBRANCH   2   3
ENDBRANCH   1   2
BRANCH   1  25
ATOM     25  C   UNL A   1      34.035  29.276  27.190  1.00  0.00     0.021 C 
BRANCH  25  26
ATOM     26  C   UNL A   1      35.377  29.780  27.709  1.00  0.00     0.116 C 
BRANCH  26  27
ATOM     27  N   UNL A   1      35.299  30.169  29.107  1.00  0.00    -0.352 N 
ATOM     28  C   UNL A   1      36.252  30.065  30.085  1.00  0.00     0.251 C 
ATOM     29  H   UNL A   1      34.442  30.561  29.390  1.00  0.00     0.163 HD
ATOM     30  O   UNL A   1      35.943  30.220  31.265  1.00  0.00    -0.269 OA
BRANCH  28  31
ATOM     31  C   UNL A   1      37.647  29.755  29.714  1.00  0.00     0.039 A 
ATOM     32  C   UNL A   1      38.533  29.326  30.703  1.00  0.00     0.014 A 
ATOM     33  C   UNL A   1      38.075  29.896  28.390  1.00  0.00     0.014 A 
ATOM     34  C   UNL A   1      39.842  28.992  30.353  1.00  0.00     0.010 A 
ATOM     35  C   UNL A   1      39.358  29.495  28.032  1.00  0.00     0.010 A 
ATOM     36  C   UNL A   1      40.257  29.051  29.012  1.00  0.00    -0.014 A 
BRANCH  36  37
ATOM     37  C   UNL A   1      41.640  28.677  28.624  1.00  0.00     0.031 A 
ATOM     38  C   UNL A   1      42.723  29.722  28.616  1.00  0.00     0.074 A 
ATOM     39  C   UNL A   1      41.908  27.411  28.250  1.00  0.00     0.049 A 
ATOM     40  N   UNL A   1      43.978  29.604  28.271  1.00  0.00    -0.248 NA
ATOM     41  C   UNL A   1      42.342  31.083  29.031  1.00  0.00     0.031 C 
ATOM     42  C   UNL A   1      40.929  26.323  28.187  1.00  0.00     0.029 A 
ATOM     43  N   UNL A   1      43.082  26.823  27.851  1.00  0.00    -0.354 N 
ATOM     44  C   UNL A   1      44.534  30.867  28.427  1.00  0.00     0.074 A 
ATOM     45  C   UNL A   1      43.468  31.753  28.838  1.00  0.00     0.031 C 
ATOM     46  C   UNL A   1      41.549  25.195  27.804  1.00  0.00     0.029 A 
ATOM     47  C   UNL A   1      42.959  25.486  27.556  1.00  0.00     0.049 A 
ATOM     48  H   UNL A   1      43.934  27.314  27.783  1.00  0.00     0.167 HD
ATOM     49  C   UNL A   1      45.823  31.247  28.270  1.00  0.00     0.037 A 
ATOM     50  C   UNL A   1      43.877  24.597  27.130  1.00  0.00     0.037 A 
ATOM     51  C   UNL A   1      46.883  30.352  27.885  1.00  0.00     0.049 A 
ATOM     52  C   UNL A   1      45.300  25.052  26.936  1.00  0.00     0.074 A 
ATOM     53  C   UNL A   1      48.231  30.631  27.743  1.00  0.00     0.029 A 
ATOM     54  N   UNL A   1      46.717  29.008  27.587  1.00  0.00    -0.354 N 
ATOM     55  N   UNL A   1      45.818  26.241  27.138  1.00  0.00    -0.248 NA
ATOM     56  C   UNL A   1      46.262  24.050  26.460  1.00  0.00     0.031 C 
ATOM     57  C   UNL A   1      48.872  29.466  27.311  1.00  0.00     0.029 A 
ATOM     58  C   UNL A   1      47.934  28.448  27.236  1.00  0.00     0.049 A 
ATOM     59  H   UNL A   1      45.861  28.523  27.619  1.00  0.00     0.167 HD
ATOM     60  C   UNL A   1      47.170  26.123  26.835  1.00  0.00     0.074 A 
ATOM     61  C   UNL A   1      47.393  24.743  26.454  1.00  0.00     0.031 C 
ATOM     62  C   UNL A   1      48.139  27.070  26.867  1.00  0.00     0.037 A 
BRANCH  49  63
ATOM     63  C   UNL A   1      46.174  32.685  28.535  1.00  0.00     0.058 A 
ATOM     64  C   UNL A   1      46.583  33.116  29.807  1.00  0.00     0.135 A 
ATOM     65  C   UNL A   1      46.180  33.625  27.492  1.00  0.00     0.135 A 
ATOM     66  F   UNL A   1      46.576  32.263  30.844  1.00  0.00    -0.206 F 
ATOM     67  C   UNL A   1      46.977  34.429  30.038  1.00  0.00     0.059 A 
ATOM     68  C   UNL A   1      46.598  34.937  27.693  1.00  0.00     0.059 A 
ATOM     69  F   UNL A   1      45.793  33.267  26.258  1.00  0.00    -0.206 F 
ATOM     70  C   UNL A   1      46.991  35.330  28.972  1.00  0.00     0.060 A 
BRANCH  70  71
ATOM     71  S   UNL A   1      47.552  37.017  29.284  1.00  0.00     0.124 S 
ATOM     72  O   UNL A   1      47.339  37.642  27.982  1.00  0.00    -0.237 OA
ATOM     73  O   UNL A   1      46.651  37.450  30.348  1.00  0.00    -0.237 OA
ATOM     74  O   UNL A   1      48.947  36.847  29.675  1.00  0.00    -0.744 OA
ENDBRANCH  70  71
ENDBRANCH  49  63
BRANCH  50  75
ATOM     75  C   UNL A   1      43.487  23.182  26.878  1.00  0.00     0.058 A 
ATOM     76  C   UNL A   1      43.215  22.308  27.941  1.00  0.00     0.135 A 
ATOM     77  C   UNL A   1      43.375  22.676  25.574  1.00  0.00     0.135 A 
ATOM     78  F   UNL A   1      43.315  22.742  29.207  1.00  0.00    -0.206 F 
ATOM     79  C   UNL A   1      42.862  20.981  27.722  1.00  0.00     0.059 A 
ATOM     80  C   UNL A   1      42.997  21.360  25.329  1.00  0.00     0.059 A 
ATOM     81  F   UNL A   1      43.610  23.473  24.519  1.00  0.00    -0.206 F 
ATOM     82  C   UNL A   1      42.752  20.517  26.412  1.00  0.00     0.060 A 
BRANCH  82  83
ATOM     83  S   UNL A   1      42.258  18.800  26.142  1.00  0.00     0.124 S 
ATOM     84  O   UNL A   1      40.861  18.953  25.757  1.00  0.00    -0.237 OA
ATOM     85  O   UNL A   1      43.172  18.383  25.083  1.00  0.00    -0.237 OA
ATOM     86  O   UNL A   1      42.490  18.176  27.441  1.00  0.00    -0.744 OA
ENDBRANCH  82  83
ENDBRANCH  50  75
BRANCH  62  87
ATOM     87  C   UNL A   1      49.536  26.654  26.500  1.00  0.00     0.058 A 
ATOM     88  C   UNL A   1      50.401  26.078  27.443  1.00  0.00     0.135 A 
ATOM     89  C   UNL A   1      49.985  26.756  25.173  1.00  0.00     0.135 A 
ATOM     90  F   UNL A   1      50.022  25.964  28.727  1.00  0.00    -0.206 F 
ATOM     91  C   UNL A   1      51.668  25.630  27.087  1.00  0.00     0.059 A 
ATOM     92  C   UNL A   1      51.237  26.287  24.788  1.00  0.00     0.059 A 
ATOM     93  F   UNL A   1      49.192  27.289  24.230  1.00  0.00    -0.206 F 
ATOM     94  C   UNL A   1      52.074  25.732  25.755  1.00  0.00     0.060 A 
BRANCH  94  95
ATOM     95  S   UNL A   1      53.703  25.099  25.301  1.00  0.00     0.124 S 
ATOM     96  O   UNL A   1      53.889  25.689  23.979  1.00  0.00    -0.237 OA
ATOM     97  O   UNL A   1      54.550  25.637  26.361  1.00  0.00    -0.237 OA
ATOM     98  O   UNL A   1      53.525  23.650  25.322  1.00  0.00    -0.744 OA
ENDBRANCH  94  95
ENDBRANCH  62  87
ENDBRANCH  36  37
ENDBRANCH  28  31
ENDBRANCH  26  27
ENDBRANCH  25  26
ENDBRANCH   1  25
TORSDOF 17
ENDMDL
