MODEL 1
REMARK VINA RESULT:     -11.5      0.000      0.000
REMARK SMILES Cc1cc2c(cc1C)/C(=C/C(=O)NCCCCCCNC(=O)c1ccc(-c3c4nc(c(-c5c(F)cc(S(=O)(=O)[O-])cc5F)c5ccc([nH]5)c(-c5c(F)cc(S(=O)(=O)[O-])cc5F)c5nc(c(-c6c(F)cc(S(=O)(=O)[O-])cc6F)c6ccc3[nH]6)C=C5)C=C4)cc1)CO2
REMARK SMILES IDX 18 1 17 2 16 3 15 4 14 5 13 6 11 7 12 8 10 10 1 11 2 12 3 13
REMARK SMILES IDX 7 14 4 15 6 16 8 17 5 18 90 19 9 20 89 21 19 22 20 23 21 24
REMARK SMILES IDX 22 26 23 27 24 28 88 29 25 30 87 31 26 32 27 33 28 34 81 35
REMARK SMILES IDX 29 36 86 37 80 38 82 39 30 40 85 41 79 42 78 43 31 45 65 46
REMARK SMILES IDX 44 47 64 48 45 49 48 50 63 51 83 52 46 53 47 54 62 56 84 57
REMARK SMILES IDX 49 58 32 59 33 60 42 61 34 62 35 63 41 64 43 65 36 66 37 67
REMARK SMILES IDX 38 68 39 69 40 70 66 71 67 72 76 73 68 74 69 75 75 76 77 77
REMARK SMILES IDX 70 78 71 79 72 80 73 81 74 82 50 83 51 84 60 85 52 86 53 87
REMARK SMILES IDX 59 88 61 89 54 90 55 91 56 92 57 93 58 94
REMARK H PARENT 13 9 20 25 82 44 48 55
REMARK Flexibility Score: inf
ROOT
ATOM      1  C   UNL A   1      40.468  22.291  27.247  1.00  0.00     0.021 C 
ENDROOT
BRANCH   1   2
ATOM      2  C   UNL A   1      40.575  20.885  26.651  1.00  0.00     0.002 C 
BRANCH   2   3
ATOM      3  C   UNL A   1      41.972  20.471  26.174  1.00  0.00     0.002 C 
BRANCH   3   4
ATOM      4  C   UNL A   1      42.175  18.971  25.953  1.00  0.00     0.021 C 
BRANCH   4   5
ATOM      5  C   UNL A   1      43.606  18.490  26.159  1.00  0.00     0.116 C 
BRANCH   5   6
ATOM      6  N   UNL A   1      44.331  18.362  24.907  1.00  0.00    -0.353 N 
ATOM      7  C   UNL A   1      45.393  19.115  24.501  1.00  0.00     0.244 C 
ATOM      8  O   UNL A   1      45.993  18.891  23.457  1.00  0.00    -0.270 OA
ATOM      9  H   UNL A   1      44.024  17.659  24.290  1.00  0.00     0.163 HD
BRANCH   7  10
ATOM     10  C   UNL A   1      45.743  20.241  25.381  1.00  0.00     0.079 C 
ATOM     11  C   UNL A   1      45.825  26.791  26.932  1.00  0.00     0.045 C 
ATOM     12  C   UNL A   1      45.644  25.341  26.576  1.00  0.00    -0.044 A 
ATOM     13  C   UNL A   1      45.587  25.013  25.210  1.00  0.00     0.050 A 
ATOM     14  C   UNL A   1      45.451  24.324  27.549  1.00  0.00    -0.047 A 
ATOM     15  C   UNL A   1      45.403  23.696  24.858  1.00  0.00     0.127 A 
ATOM     16  C   UNL A   1      45.419  22.971  27.149  1.00  0.00     0.016 A 
ATOM     17  C   UNL A   1      45.080  24.637  28.977  1.00  0.00     0.044 C 
ATOM     18  C   UNL A   1      45.427  22.680  25.798  1.00  0.00     0.024 A 
ATOM     19  O   UNL A   1      45.129  23.276  23.576  1.00  0.00    -0.488 OA
ATOM     20  C   UNL A   1      45.277  21.452  25.057  1.00  0.00     0.006 C 
ATOM     21  C   UNL A   1      44.656  21.916  23.773  1.00  0.00     0.266 C 
ENDBRANCH   7  10
ENDBRANCH   5   6
ENDBRANCH   4   5
ENDBRANCH   3   4
ENDBRANCH   2   3
ENDBRANCH   1   2
BRANCH   1  22
ATOM     22  C   UNL A   1      41.766  23.089  27.252  1.00  0.00     0.116 C 
BRANCH  22  23
ATOM     23  N   UNL A   1      41.871  23.986  26.113  1.00  0.00    -0.352 N 
ATOM     24  C   UNL A   1      41.725  25.352  26.077  1.00  0.00     0.251 C 
ATOM     25  H   UNL A   1      42.076  23.557  25.251  1.00  0.00     0.163 HD
ATOM     26  O   UNL A   1      41.688  25.940  24.999  1.00  0.00    -0.269 OA
BRANCH  24  27
ATOM     27  C   UNL A   1      41.578  26.103  27.343  1.00  0.00     0.039 A 
ATOM     28  C   UNL A   1      40.473  25.890  28.170  1.00  0.00     0.014 A 
ATOM     29  C   UNL A   1      42.544  27.052  27.692  1.00  0.00     0.014 A 
ATOM     30  C   UNL A   1      40.256  26.729  29.258  1.00  0.00     0.010 A 
ATOM     31  C   UNL A   1      42.363  27.840  28.833  1.00  0.00     0.010 A 
ATOM     32  C   UNL A   1      41.195  27.716  29.600  1.00  0.00    -0.014 A 
BRANCH  32  33
ATOM     33  C   UNL A   1      40.926  28.603  30.763  1.00  0.00     0.031 A 
ATOM     34  C   UNL A   1      41.806  28.561  31.984  1.00  0.00     0.074 A 
ATOM     35  C   UNL A   1      39.920  29.497  30.685  1.00  0.00     0.049 A 
ATOM     36  N   UNL A   1      41.743  29.294  33.068  1.00  0.00    -0.248 NA
ATOM     37  C   UNL A   1      42.895  27.572  31.995  1.00  0.00     0.031 C 
ATOM     38  C   UNL A   1      39.005  29.636  29.550  1.00  0.00     0.029 A 
ATOM     39  N   UNL A   1      39.519  30.478  31.556  1.00  0.00    -0.354 N 
ATOM     40  C   UNL A   1      42.770  28.848  33.891  1.00  0.00     0.074 A 
ATOM     41  C   UNL A   1      43.424  27.760  33.197  1.00  0.00     0.031 C 
ATOM     42  C   UNL A   1      38.192  30.680  29.766  1.00  0.00     0.029 A 
ATOM     43  C   UNL A   1      38.486  31.248  31.078  1.00  0.00     0.049 A 
ATOM     44  H   UNL A   1      39.932  30.618  32.439  1.00  0.00     0.167 HD
ATOM     45  C   UNL A   1      43.144  29.314  35.108  1.00  0.00     0.037 A 
ATOM     46  C   UNL A   1      37.840  32.292  31.633  1.00  0.00     0.037 A 
ATOM     47  C   UNL A   1      42.504  30.411  35.786  1.00  0.00     0.049 A 
ATOM     48  C   UNL A   1      38.249  32.764  32.998  1.00  0.00     0.074 A 
ATOM     49  C   UNL A   1      42.822  30.966  37.014  1.00  0.00     0.029 A 
ATOM     50  N   UNL A   1      41.420  31.124  35.295  1.00  0.00    -0.354 N 
ATOM     51  N   UNL A   1      39.224  32.329  33.760  1.00  0.00    -0.248 NA
ATOM     52  C   UNL A   1      37.463  33.857  33.587  1.00  0.00     0.031 C 
ATOM     53  C   UNL A   1      41.908  31.990  37.282  1.00  0.00     0.029 A 
ATOM     54  C   UNL A   1      41.044  32.100  36.204  1.00  0.00     0.049 A 
ATOM     55  H   UNL A   1      40.981  30.959  34.429  1.00  0.00     0.167 HD
ATOM     56  C   UNL A   1      39.173  33.097  34.916  1.00  0.00     0.074 A 
ATOM     57  C   UNL A   1      38.083  34.038  34.746  1.00  0.00     0.031 C 
ATOM     58  C   UNL A   1      39.954  33.025  36.021  1.00  0.00     0.037 A 
BRANCH  45  59
ATOM     59  C   UNL A   1      44.300  28.637  35.794  1.00  0.00     0.058 A 
ATOM     60  C   UNL A   1      45.617  29.098  35.637  1.00  0.00     0.135 A 
ATOM     61  C   UNL A   1      44.083  27.555  36.661  1.00  0.00     0.135 A 
ATOM     62  F   UNL A   1      45.882  30.120  34.808  1.00  0.00    -0.206 F 
ATOM     63  C   UNL A   1      46.680  28.497  36.303  1.00  0.00     0.059 A 
ATOM     64  C   UNL A   1      45.129  26.951  37.353  1.00  0.00     0.059 A 
ATOM     65  F   UNL A   1      42.843  27.075  36.846  1.00  0.00    -0.206 F 
ATOM     66  C   UNL A   1      46.427  27.424  37.159  1.00  0.00     0.060 A 
BRANCH  66  67
ATOM     67  S   UNL A   1      47.820  26.664  38.021  1.00  0.00     0.124 S 
ATOM     68  O   UNL A   1      47.260  25.366  38.386  1.00  0.00    -0.237 OA
ATOM     69  O   UNL A   1      48.850  26.641  36.988  1.00  0.00    -0.237 OA
ATOM     70  O   UNL A   1      48.070  27.574  39.133  1.00  0.00    -0.744 OA
ENDBRANCH  66  67
ENDBRANCH  45  59
BRANCH  46  71
ATOM     71  C   UNL A   1      36.742  32.958  30.885  1.00  0.00     0.058 A 
ATOM     72  C   UNL A   1      35.404  32.782  31.264  1.00  0.00     0.135 A 
ATOM     73  C   UNL A   1      37.013  33.819  29.810  1.00  0.00     0.135 A 
ATOM     74  F   UNL A   1      35.096  31.964  32.280  1.00  0.00    -0.206 F 
ATOM     75  C   UNL A   1      34.370  33.437  30.602  1.00  0.00     0.059 A 
ATOM     76  C   UNL A   1      35.998  34.503  29.149  1.00  0.00     0.059 A 
ATOM     77  F   UNL A   1      38.280  34.030  29.420  1.00  0.00    -0.206 F 
ATOM     78  C   UNL A   1      34.679  34.302  29.550  1.00  0.00     0.060 A 
BRANCH  78  79
ATOM     79  S   UNL A   1      33.335  35.204  28.748  1.00  0.00     0.124 S 
ATOM     80  O   UNL A   1      34.067  36.244  28.034  1.00  0.00    -0.237 OA
ATOM     81  O   UNL A   1      32.724  34.170  27.920  1.00  0.00    -0.237 OA
ATOM     82  O   UNL A   1      32.521  35.661  29.871  1.00  0.00    -0.744 OA
ENDBRANCH  78  79
ENDBRANCH  46  71
BRANCH  58  83
ATOM     83  C   UNL A   1      39.665  33.987  37.137  1.00  0.00     0.058 A 
ATOM     84  C   UNL A   1      38.889  33.607  38.243  1.00  0.00     0.135 A 
ATOM     85  C   UNL A   1      40.228  35.273  37.137  1.00  0.00     0.135 A 
ATOM     86  F   UNL A   1      38.322  32.392  38.285  1.00  0.00    -0.206 F 
ATOM     87  C   UNL A   1      38.675  34.474  39.310  1.00  0.00     0.059 A 
ATOM     88  C   UNL A   1      40.046  36.148  38.203  1.00  0.00     0.059 A 
ATOM     89  F   UNL A   1      40.984  35.680  36.105  1.00  0.00    -0.206 F 
ATOM     90  C   UNL A   1      39.262  35.741  39.283  1.00  0.00     0.060 A 
BRANCH  90  91
ATOM     91  S   UNL A   1      39.021  36.834  40.699  1.00  0.00     0.124 S 
ATOM     92  O   UNL A   1      38.242  35.985  41.596  1.00  0.00    -0.237 OA
ATOM     93  O   UNL A   1      40.392  37.108  41.119  1.00  0.00    -0.237 OA
ATOM     94  O   UNL A   1      38.304  37.972  40.132  1.00  0.00    -0.744 OA
ENDBRANCH  90  91
ENDBRANCH  58  83
ENDBRANCH  32  33
ENDBRANCH  24  27
ENDBRANCH  22  23
ENDBRANCH   1  22
TORSDOF 16
ENDMDL
MODEL 2
REMARK VINA RESULT:     -11.3      5.847     14.405
REMARK SMILES Cc1cc2c(cc1C)/C(=C/C(=O)NCCCCCCNC(=O)c1ccc(-c3c4nc(c(-c5c(F)cc(S(=O)(=O)[O-])cc5F)c5ccc([nH]5)c(-c5c(F)cc(S(=O)(=O)[O-])cc5F)c5nc(c(-c6c(F)cc(S(=O)(=O)[O-])cc6F)c6ccc3[nH]6)C=C5)C=C4)cc1)CO2
REMARK SMILES IDX 18 1 17 2 16 3 15 4 14 5 13 6 11 7 12 8 10 10 1 11 2 12 3 13
REMARK SMILES IDX 7 14 4 15 6 16 8 17 5 18 90 19 9 20 89 21 19 22 20 23 21 24
REMARK SMILES IDX 22 26 23 27 24 28 88 29 25 30 87 31 26 32 27 33 28 34 81 35
REMARK SMILES IDX 29 36 86 37 80 38 82 39 30 40 85 41 79 42 78 43 31 45 65 46
REMARK SMILES IDX 44 47 64 48 45 49 48 50 63 51 83 52 46 53 47 54 62 56 84 57
REMARK SMILES IDX 49 58 32 59 33 60 42 61 34 62 35 63 41 64 43 65 36 66 37 67
REMARK SMILES IDX 38 68 39 69 40 70 66 71 67 72 76 73 68 74 69 75 75 76 77 77
REMARK SMILES IDX 70 78 71 79 72 80 73 81 74 82 50 83 51 84 60 85 52 86 53 87
REMARK SMILES IDX 59 88 61 89 54 90 55 91 56 92 57 93 58 94
REMARK H PARENT 13 9 20 25 82 44 48 55
REMARK Flexibility Score: inf
ROOT
ATOM      1  C   UNL A   1      35.849  33.756  28.608  1.00  0.00     0.021 C 
ENDROOT
BRANCH   1   2
ATOM      2  C   UNL A   1      34.624  34.209  29.407  1.00  0.00     0.002 C 
BRANCH   2   3
ATOM      3  C   UNL A   1      33.403  34.617  28.575  1.00  0.00     0.002 C 
BRANCH   3   4
ATOM      4  C   UNL A   1      32.922  36.056  28.771  1.00  0.00     0.021 C 
BRANCH   4   5
ATOM      5  C   UNL A   1      33.566  36.783  29.945  1.00  0.00     0.116 C 
BRANCH   5   6
ATOM      6  N   UNL A   1      32.671  36.891  31.083  1.00  0.00    -0.353 N 
ATOM      7  C   UNL A   1      33.017  36.817  32.401  1.00  0.00     0.244 C 
ATOM      8  O   UNL A   1      32.206  36.992  33.301  1.00  0.00    -0.270 OA
ATOM      9  H   UNL A   1      31.718  37.035  30.883  1.00  0.00     0.163 HD
BRANCH   7  10
ATOM     10  C   UNL A   1      34.422  36.469  32.667  1.00  0.00     0.079 C 
ATOM     11  C   UNL A   1      39.276  32.096  34.287  1.00  0.00     0.045 C 
ATOM     12  C   UNL A   1      38.154  32.972  33.802  1.00  0.00    -0.044 A 
ATOM     13  C   UNL A   1      36.862  32.691  34.278  1.00  0.00     0.050 A 
ATOM     14  C   UNL A   1      38.337  33.999  32.838  1.00  0.00    -0.047 A 
ATOM     15  C   UNL A   1      35.815  33.466  33.835  1.00  0.00     0.127 A 
ATOM     16  C   UNL A   1      37.267  34.865  32.528  1.00  0.00     0.016 A 
ATOM     17  C   UNL A   1      39.573  34.086  31.980  1.00  0.00     0.044 C 
ATOM     18  C   UNL A   1      36.021  34.597  33.064  1.00  0.00     0.024 A 
ATOM     19  O   UNL A   1      34.491  33.169  34.064  1.00  0.00    -0.488 OA
ATOM     20  C   UNL A   1      34.717  35.179  32.860  1.00  0.00     0.006 C 
ATOM     21  C   UNL A   1      33.797  34.023  33.114  1.00  0.00     0.266 C 
ENDBRANCH   7  10
ENDBRANCH   5   6
ENDBRANCH   4   5
ENDBRANCH   3   4
ENDBRANCH   2   3
ENDBRANCH   1   2
BRANCH   1  22
ATOM     22  C   UNL A   1      36.916  33.034  29.421  1.00  0.00     0.116 C 
BRANCH  22  23
ATOM     23  N   UNL A   1      36.348  32.197  30.466  1.00  0.00    -0.352 N 
ATOM     24  C   UNL A   1      36.754  30.955  30.889  1.00  0.00     0.251 C 
ATOM     25  H   UNL A   1      35.568  32.573  30.934  1.00  0.00     0.163 HD
ATOM     26  O   UNL A   1      36.064  30.316  31.678  1.00  0.00    -0.269 OA
BRANCH  24  27
ATOM     27  C   UNL A   1      38.011  30.379  30.360  1.00  0.00     0.039 A 
ATOM     28  C   UNL A   1      39.091  30.134  31.211  1.00  0.00     0.014 A 
ATOM     29  C   UNL A   1      38.118  30.108  28.993  1.00  0.00     0.014 A 
ATOM     30  C   UNL A   1      40.320  29.766  30.675  1.00  0.00     0.010 A 
ATOM     31  C   UNL A   1      39.335  29.661  28.467  1.00  0.00     0.010 A 
ATOM     32  C   UNL A   1      40.459  29.530  29.297  1.00  0.00    -0.014 A 
BRANCH  32  33
ATOM     33  C   UNL A   1      41.790  29.150  28.755  1.00  0.00     0.031 A 
ATOM     34  C   UNL A   1      42.934  30.130  28.763  1.00  0.00     0.074 A 
ATOM     35  C   UNL A   1      41.984  27.890  28.317  1.00  0.00     0.049 A 
ATOM     36  N   UNL A   1      44.172  29.953  28.373  1.00  0.00    -0.248 NA
ATOM     37  C   UNL A   1      42.657  31.483  29.270  1.00  0.00     0.031 C 
ATOM     38  C   UNL A   1      40.953  26.850  28.267  1.00  0.00     0.029 A 
ATOM     39  N   UNL A   1      43.113  27.259  27.862  1.00  0.00    -0.354 N 
ATOM     40  C   UNL A   1      44.814  31.168  28.574  1.00  0.00     0.074 A 
ATOM     41  C   UNL A   1      43.825  32.086  29.094  1.00  0.00     0.031 C 
ATOM     42  C   UNL A   1      41.511  25.698  27.869  1.00  0.00     0.029 A 
ATOM     43  C   UNL A   1      42.922  25.928  27.577  1.00  0.00     0.049 A 
ATOM     44  H   UNL A   1      43.979  27.715  27.751  1.00  0.00     0.167 HD
ATOM     45  C   UNL A   1      46.115  31.484  28.362  1.00  0.00     0.037 A 
ATOM     46  C   UNL A   1      43.782  24.995  27.125  1.00  0.00     0.037 A 
ATOM     47  C   UNL A   1      47.101  30.561  27.865  1.00  0.00     0.049 A 
ATOM     48  C   UNL A   1      45.209  25.382  26.861  1.00  0.00     0.074 A 
ATOM     49  C   UNL A   1      48.448  30.784  27.632  1.00  0.00     0.029 A 
ATOM     50  N   UNL A   1      46.853  29.238  27.528  1.00  0.00    -0.354 N 
ATOM     51  N   UNL A   1      45.797  26.536  27.059  1.00  0.00    -0.248 NA
ATOM     52  C   UNL A   1      46.085  24.345  26.298  1.00  0.00     0.031 C 
ATOM     53  C   UNL A   1      49.005  29.607  27.121  1.00  0.00     0.029 A 
ATOM     54  C   UNL A   1      48.015  28.638  27.072  1.00  0.00     0.049 A 
ATOM     55  H   UNL A   1      45.978  28.792  27.602  1.00  0.00     0.167 HD
ATOM     56  C   UNL A   1      47.114  26.366  26.650  1.00  0.00     0.074 A 
ATOM     57  C   UNL A   1      47.241  24.990  26.212  1.00  0.00     0.031 C 
ATOM     58  C   UNL A   1      48.124  27.270  26.634  1.00  0.00     0.037 A 
BRANCH  45  59
ATOM     59  C   UNL A   1      46.553  32.892  28.661  1.00  0.00     0.058 A 
ATOM     60  C   UNL A   1      47.062  33.250  29.919  1.00  0.00     0.135 A 
ATOM     61  C   UNL A   1      46.517  33.880  27.663  1.00  0.00     0.135 A 
ATOM     62  F   UNL A   1      47.105  32.349  30.913  1.00  0.00    -0.206 F 
ATOM     63  C   UNL A   1      47.504  34.542  30.183  1.00  0.00     0.059 A 
ATOM     64  C   UNL A   1      46.973  35.174  27.899  1.00  0.00     0.059 A 
ATOM     65  F   UNL A   1      46.038  33.590  26.443  1.00  0.00    -0.206 F 
ATOM     66  C   UNL A   1      47.456  35.498  29.166  1.00  0.00     0.060 A 
BRANCH  66  67
ATOM     67  S   UNL A   1      48.043  37.167  29.526  1.00  0.00     0.124 S 
ATOM     68  O   UNL A   1      48.409  37.047  30.934  1.00  0.00    -0.237 OA
ATOM     69  O   UNL A   1      49.157  37.313  28.594  1.00  0.00    -0.237 OA
ATOM     70  O   UNL A   1      46.881  38.004  29.249  1.00  0.00    -0.744 OA
ENDBRANCH  66  67
ENDBRANCH  45  59
BRANCH  46  71
ATOM     71  C   UNL A   1      43.307  23.605  26.900  1.00  0.00     0.058 A 
ATOM     72  C   UNL A   1      43.072  23.126  25.605  1.00  0.00     0.135 A 
ATOM     73  C   UNL A   1      43.125  22.718  27.972  1.00  0.00     0.135 A 
ATOM     74  F   UNL A   1      43.225  23.939  24.549  1.00  0.00    -0.206 F 
ATOM     75  C   UNL A   1      42.673  21.813  25.377  1.00  0.00     0.059 A 
ATOM     76  C   UNL A   1      42.750  21.394  27.769  1.00  0.00     0.059 A 
ATOM     77  F   UNL A   1      43.352  23.127  29.230  1.00  0.00    -0.206 F 
ATOM     78  C   UNL A   1      42.522  20.952  26.466  1.00  0.00     0.060 A 
BRANCH  78  79
ATOM     79  S   UNL A   1      42.076  19.230  26.154  1.00  0.00     0.124 S 
ATOM     80  O   UNL A   1      40.638  19.334  25.941  1.00  0.00    -0.237 OA
ATOM     81  O   UNL A   1      42.876  18.916  24.974  1.00  0.00    -0.237 OA
ATOM     82  O   UNL A   1      42.487  18.550  27.379  1.00  0.00    -0.744 OA
ENDBRANCH  78  79
ENDBRANCH  46  71
BRANCH  58  83
ATOM     83  C   UNL A   1      49.460  26.806  26.128  1.00  0.00     0.058 A 
ATOM     84  C   UNL A   1      49.865  27.058  24.808  1.00  0.00     0.135 A 
ATOM     85  C   UNL A   1      50.369  26.170  26.987  1.00  0.00     0.135 A 
ATOM     86  F   UNL A   1      49.027  27.654  23.946  1.00  0.00    -0.206 F 
ATOM     87  C   UNL A   1      51.127  26.688  24.355  1.00  0.00     0.059 A 
ATOM     88  C   UNL A   1      51.645  25.813  26.562  1.00  0.00     0.059 A 
ATOM     89  F   UNL A   1      50.029  25.914  28.261  1.00  0.00    -0.206 F 
ATOM     90  C   UNL A   1      52.012  26.071  25.242  1.00  0.00     0.060 A 
BRANCH  90  91
ATOM     91  S   UNL A   1      53.666  25.648  24.655  1.00  0.00     0.124 S 
ATOM     92  O   UNL A   1      54.506  26.442  25.547  1.00  0.00    -0.237 OA
ATOM     93  O   UNL A   1      53.710  24.204  24.862  1.00  0.00    -0.237 OA
ATOM     94  O   UNL A   1      53.651  26.076  23.260  1.00  0.00    -0.744 OA
ENDBRANCH  90  91
ENDBRANCH  58  83
ENDBRANCH  32  33
ENDBRANCH  24  27
ENDBRANCH  22  23
ENDBRANCH   1  22
TORSDOF 16
ENDMDL
MODEL 3
REMARK VINA RESULT:     -11.2      6.861     13.244
REMARK SMILES Cc1cc2c(cc1C)/C(=C/C(=O)NCCCCCCNC(=O)c1ccc(-c3c4nc(c(-c5c(F)cc(S(=O)(=O)[O-])cc5F)c5ccc([nH]5)c(-c5c(F)cc(S(=O)(=O)[O-])cc5F)c5nc(c(-c6c(F)cc(S(=O)(=O)[O-])cc6F)c6ccc3[nH]6)C=C5)C=C4)cc1)CO2
REMARK SMILES IDX 18 1 17 2 16 3 15 4 14 5 13 6 11 7 12 8 10 10 1 11 2 12 3 13
REMARK SMILES IDX 7 14 4 15 6 16 8 17 5 18 90 19 9 20 89 21 19 22 20 23 21 24
REMARK SMILES IDX 22 26 23 27 24 28 88 29 25 30 87 31 26 32 27 33 28 34 81 35
REMARK SMILES IDX 29 36 86 37 80 38 82 39 30 40 85 41 79 42 78 43 31 45 65 46
REMARK SMILES IDX 44 47 64 48 45 49 48 50 63 51 83 52 46 53 47 54 62 56 84 57
REMARK SMILES IDX 49 58 32 59 33 60 42 61 34 62 35 63 41 64 43 65 36 66 37 67
REMARK SMILES IDX 38 68 39 69 40 70 66 71 67 72 76 73 68 74 69 75 75 76 77 77
REMARK SMILES IDX 70 78 71 79 72 80 73 81 74 82 50 83 51 84 60 85 52 86 53 87
REMARK SMILES IDX 59 88 61 89 54 90 55 91 56 92 57 93 58 94
REMARK H PARENT 13 9 20 25 82 44 48 55
REMARK Flexibility Score: inf
ROOT
ATOM      1  C   UNL A   1      33.684  28.754  27.322  1.00  0.00     0.021 C 
ENDROOT
BRANCH   1   2
ATOM      2  C   UNL A   1      32.823  29.464  26.275  1.00  0.00     0.002 C 
BRANCH   2   3
ATOM      3  C   UNL A   1      31.647  28.650  25.720  1.00  0.00     0.002 C 
BRANCH   3   4
ATOM      4  C   UNL A   1      31.292  27.385  26.504  1.00  0.00     0.021 C 
BRANCH   4   5
ATOM      5  C   UNL A   1      31.238  26.115  25.664  1.00  0.00     0.116 C 
BRANCH   5   6
ATOM      6  N   UNL A   1      30.310  25.137  26.202  1.00  0.00    -0.353 N 
ATOM      7  C   UNL A   1      30.630  24.007  26.897  1.00  0.00     0.244 C 
ATOM      8  O   UNL A   1      29.777  23.272  27.379  1.00  0.00    -0.270 OA
ATOM      9  H   UNL A   1      29.352  25.308  26.052  1.00  0.00     0.163 HD
BRANCH   7  10
ATOM     10  C   UNL A   1      32.068  23.709  26.990  1.00  0.00     0.079 C 
ATOM     11  C   UNL A   1      37.643  20.540  24.943  1.00  0.00     0.045 C 
ATOM     12  C   UNL A   1      36.384  21.304  25.247  1.00  0.00    -0.044 A 
ATOM     13  C   UNL A   1      35.160  20.660  24.997  1.00  0.00     0.050 A 
ATOM     14  C   UNL A   1      36.387  22.653  25.691  1.00  0.00    -0.047 A 
ATOM     15  C   UNL A   1      33.994  21.345  25.250  1.00  0.00     0.127 A 
ATOM     16  C   UNL A   1      35.177  23.264  26.081  1.00  0.00     0.016 A 
ATOM     17  C   UNL A   1      37.606  23.534  25.579  1.00  0.00     0.044 C 
ATOM     18  C   UNL A   1      33.994  22.577  25.880  1.00  0.00     0.024 A 
ATOM     19  O   UNL A   1      32.748  20.907  24.861  1.00  0.00    -0.488 OA
ATOM     20  C   UNL A   1      32.607  22.942  26.037  1.00  0.00     0.006 C 
ATOM     21  C   UNL A   1      31.926  22.098  25.001  1.00  0.00     0.266 C 
ENDBRANCH   7  10
ENDBRANCH   5   6
ENDBRANCH   4   5
ENDBRANCH   3   4
ENDBRANCH   2   3
ENDBRANCH   1   2
BRANCH   1  22
ATOM     22  C   UNL A   1      35.072  29.349  27.524  1.00  0.00     0.116 C 
BRANCH  22  23
ATOM     23  N   UNL A   1      35.170  30.126  28.749  1.00  0.00    -0.352 N 
ATOM     24  C   UNL A   1      36.253  30.291  29.579  1.00  0.00     0.251 C 
ATOM     25  H   UNL A   1      34.351  30.599  29.019  1.00  0.00     0.163 HD
ATOM     26  O   UNL A   1      36.120  30.854  30.662  1.00  0.00    -0.269 OA
BRANCH  24  27
ATOM     27  C   UNL A   1      37.571  29.755  29.173  1.00  0.00     0.039 A 
ATOM     28  C   UNL A   1      38.450  29.237  30.127  1.00  0.00     0.014 A 
ATOM     29  C   UNL A   1      37.942  29.797  27.826  1.00  0.00     0.014 A 
ATOM     30  C   UNL A   1      39.750  28.908  29.758  1.00  0.00     0.010 A 
ATOM     31  C   UNL A   1      39.225  29.389  27.446  1.00  0.00     0.010 A 
ATOM     32  C   UNL A   1      40.154  28.984  28.415  1.00  0.00    -0.014 A 
BRANCH  32  33
ATOM     33  C   UNL A   1      41.555  28.635  28.058  1.00  0.00     0.031 A 
ATOM     34  C   UNL A   1      42.652  29.662  28.146  1.00  0.00     0.074 A 
ATOM     35  C   UNL A   1      41.847  27.364  27.716  1.00  0.00     0.049 A 
ATOM     36  N   UNL A   1      43.934  29.520  27.917  1.00  0.00    -0.248 NA
ATOM     37  C   UNL A   1      42.266  31.026  28.541  1.00  0.00     0.031 C 
ATOM     38  C   UNL A   1      40.869  26.278  27.603  1.00  0.00     0.029 A 
ATOM     39  N   UNL A   1      43.046  26.760  27.435  1.00  0.00    -0.354 N 
ATOM     40  C   UNL A   1      44.502  30.771  28.125  1.00  0.00     0.074 A 
ATOM     41  C   UNL A   1      43.423  31.670  28.471  1.00  0.00     0.031 C 
ATOM     42  C   UNL A   1      41.513  25.133  27.339  1.00  0.00     0.029 A 
ATOM     43  C   UNL A   1      42.940  25.409  27.204  1.00  0.00     0.049 A 
ATOM     44  H   UNL A   1      43.901  27.247  27.403  1.00  0.00     0.167 HD
ATOM     45  C   UNL A   1      45.806  31.132  28.051  1.00  0.00     0.037 A 
ATOM     46  C   UNL A   1      43.882  24.493  26.910  1.00  0.00     0.037 A 
ATOM     47  C   UNL A   1      46.879  30.228  27.727  1.00  0.00     0.049 A 
ATOM     48  C   UNL A   1      45.315  24.927  26.797  1.00  0.00     0.074 A 
ATOM     49  C   UNL A   1      48.234  30.497  27.644  1.00  0.00     0.029 A 
ATOM     50  N   UNL A   1      46.722  28.880  27.438  1.00  0.00    -0.354 N 
ATOM     51  N   UNL A   1      45.832  26.115  26.999  1.00  0.00    -0.248 NA
ATOM     52  C   UNL A   1      46.291  23.903  26.400  1.00  0.00     0.031 C 
ATOM     53  C   UNL A   1      48.892  29.321  27.269  1.00  0.00     0.029 A 
ATOM     54  C   UNL A   1      47.953  28.309  27.157  1.00  0.00     0.049 A 
ATOM     55  H   UNL A   1      45.862  28.401  27.432  1.00  0.00     0.167 HD
ATOM     56  C   UNL A   1      47.194  25.981  26.759  1.00  0.00     0.074 A 
ATOM     57  C   UNL A   1      47.424  24.592  26.417  1.00  0.00     0.031 C 
ATOM     58  C   UNL A   1      48.164  26.926  26.812  1.00  0.00     0.037 A 
BRANCH  45  59
ATOM     59  C   UNL A   1      46.152  32.571  28.321  1.00  0.00     0.058 A 
ATOM     60  C   UNL A   1      46.550  33.002  29.596  1.00  0.00     0.135 A 
ATOM     61  C   UNL A   1      46.140  33.517  27.283  1.00  0.00     0.135 A 
ATOM     62  F   UNL A   1      46.565  32.143  30.627  1.00  0.00    -0.206 F 
ATOM     63  C   UNL A   1      46.909  34.325  29.835  1.00  0.00     0.059 A 
ATOM     64  C   UNL A   1      46.514  34.840  27.495  1.00  0.00     0.059 A 
ATOM     65  F   UNL A   1      45.766  33.156  26.045  1.00  0.00    -0.206 F 
ATOM     66  C   UNL A   1      46.888  35.237  28.779  1.00  0.00     0.060 A 
BRANCH  66  67
ATOM     67  S   UNL A   1      47.366  36.947  29.109  1.00  0.00     0.124 S 
ATOM     68  O   UNL A   1      47.652  36.896  30.539  1.00  0.00    -0.237 OA
ATOM     69  O   UNL A   1      48.524  37.120  28.238  1.00  0.00    -0.237 OA
ATOM     70  O   UNL A   1      46.181  37.710  28.733  1.00  0.00    -0.744 OA
ENDBRANCH  66  67
ENDBRANCH  45  59
BRANCH  46  71
ATOM     71  C   UNL A   1      43.490  23.074  26.709  1.00  0.00     0.058 A 
ATOM     72  C   UNL A   1      43.503  22.498  25.431  1.00  0.00     0.135 A 
ATOM     73  C   UNL A   1      43.139  22.256  27.794  1.00  0.00     0.135 A 
ATOM     74  F   UNL A   1      43.824  23.242  24.363  1.00  0.00    -0.206 F 
ATOM     75  C   UNL A   1      43.184  21.158  25.235  1.00  0.00     0.059 A 
ATOM     76  C   UNL A   1      42.840  20.908  27.626  1.00  0.00     0.059 A 
ATOM     77  F   UNL A   1      43.126  22.759  29.039  1.00  0.00    -0.206 F 
ATOM     78  C   UNL A   1      42.861  20.369  26.341  1.00  0.00     0.060 A 
BRANCH  78  79
ATOM     79  S   UNL A   1      42.521  18.614  26.083  1.00  0.00     0.124 S 
ATOM     80  O   UNL A   1      42.856  18.057  27.389  1.00  0.00    -0.237 OA
ATOM     81  O   UNL A   1      41.103  18.624  25.738  1.00  0.00    -0.237 OA
ATOM     82  O   UNL A   1      43.422  18.255  24.992  1.00  0.00    -0.744 OA
ENDBRANCH  78  79
ENDBRANCH  46  71
BRANCH  58  83
ATOM     83  C   UNL A   1      49.567  26.495  26.495  1.00  0.00     0.058 A 
ATOM     84  C   UNL A   1      50.412  25.981  27.490  1.00  0.00     0.135 A 
ATOM     85  C   UNL A   1      50.045  26.528  25.176  1.00  0.00     0.135 A 
ATOM     86  F   UNL A   1      50.005  25.938  28.767  1.00  0.00    -0.206 F 
ATOM     87  C   UNL A   1      51.690  25.519  27.187  1.00  0.00     0.059 A 
ATOM     88  C   UNL A   1      51.309  26.051  24.847  1.00  0.00     0.059 A 
ATOM     89  F   UNL A   1      49.270  27.005  24.188  1.00  0.00    -0.206 F 
ATOM     90  C   UNL A   1      52.126  25.553  25.862  1.00  0.00     0.060 A 
BRANCH  90  91
ATOM     91  S   UNL A   1      53.765  24.899  25.476  1.00  0.00     0.124 S 
ATOM     92  O   UNL A   1      54.143  25.712  24.325  1.00  0.00    -0.237 OA
ATOM     93  O   UNL A   1      54.503  25.162  26.708  1.00  0.00    -0.237 OA
ATOM     94  O   UNL A   1      53.510  23.490  25.193  1.00  0.00    -0.744 OA
ENDBRANCH  90  91
ENDBRANCH  58  83
ENDBRANCH  32  33
ENDBRANCH  24  27
ENDBRANCH  22  23
ENDBRANCH   1  22
TORSDOF 16
ENDMDL
