MODEL 1
REMARK VINA RESULT:     -10.9      0.000      0.000
REMARK SMILES O=C(NCCCCCCNC(=O)[C@@H]1CSCN1C(=O)c1cccc(Cl)c1)c1ccc(-c2c3nc(c(-c4c(F)cc(S(=O)(=O)[O-])cc4F)c4ccc([nH]4)c(-c4c(F)cc(S(=O)(=O)[O-])cc4F)c4nc(c(-c5c(F)cc(S(=O)(=O)[O-])cc5F)c5ccc2[nH]5)C=C4)C=C3)cc1
REMARK SMILES IDX 6 1 5 2 4 3 3 4 1 5 2 6 27 8 28 9 92 10 29 11 91 12 30 13
REMARK SMILES IDX 31 14 32 15 85 16 33 17 90 18 84 19 86 20 34 21 89 22 83 23
REMARK SMILES IDX 82 24 35 26 69 27 48 28 68 29 49 30 52 31 67 32 87 33 50 34
REMARK SMILES IDX 51 35 66 37 88 38 53 39 36 40 37 41 46 42 38 43 39 44 45 45
REMARK SMILES IDX 47 46 40 47 41 48 42 49 43 50 44 51 70 52 71 53 80 54 72 55
REMARK SMILES IDX 73 56 79 57 81 58 74 59 75 60 76 61 77 62 78 63 54 64 55 65
REMARK SMILES IDX 64 66 56 67 57 68 63 69 65 70 58 71 59 72 60 73 61 74 62 75
REMARK SMILES IDX 7 76 8 77 9 78 10 79 11 80 12 82 13 83 14 84 17 85 15 86
REMARK SMILES IDX 16 87 18 88 19 89 20 90 21 91 26 92 22 93 24 94 23 95 25 96
REMARK H PARENT 3 7 86 25 52 36 10 81
REMARK Flexibility Score: inf
ROOT
ATOM      1  C   UNL A   1      34.635  32.087  28.071  1.00  0.00     0.002 C 
ENDROOT
BRANCH   1   2
ATOM      2  C   UNL A   1      35.216  30.891  27.314  1.00  0.00     0.021 C 
BRANCH   2   3
ATOM      3  C   UNL A   1      35.481  29.664  28.180  1.00  0.00     0.116 C 
BRANCH   3   4
ATOM      4  N   UNL A   1      35.478  29.986  29.598  1.00  0.00    -0.352 N 
ATOM      5  O   UNL A   1      36.249  30.010  31.714  1.00  0.00    -0.269 OA
ATOM      6  C   UNL A   1      36.494  29.900  30.520  1.00  0.00     0.251 C 
ATOM      7  H   UNL A   1      34.619  30.314  29.951  1.00  0.00     0.163 HD
BRANCH   6   8
ATOM      8  C   UNL A   1      37.881  29.660  30.063  1.00  0.00     0.039 A 
ATOM      9  C   UNL A   1      38.247  29.920  28.741  1.00  0.00     0.014 A 
ATOM     10  C   UNL A   1      38.829  29.180  30.971  1.00  0.00     0.014 A 
ATOM     11  C   UNL A   1      39.513  29.558  28.291  1.00  0.00     0.010 A 
ATOM     12  C   UNL A   1      40.128  28.898  30.536  1.00  0.00     0.010 A 
ATOM     13  C   UNL A   1      40.470  29.049  29.184  1.00  0.00    -0.014 A 
BRANCH  13  14
ATOM     14  C   UNL A   1      41.825  28.711  28.677  1.00  0.00     0.031 A 
ATOM     15  C   UNL A   1      42.931  29.732  28.680  1.00  0.00     0.074 A 
ATOM     16  C   UNL A   1      42.065  27.455  28.252  1.00  0.00     0.049 A 
ATOM     17  N   UNL A   1      44.181  29.592  28.317  1.00  0.00    -0.248 NA
ATOM     18  C   UNL A   1      42.591  31.088  29.140  1.00  0.00     0.031 C 
ATOM     19  C   UNL A   1      41.067  26.383  28.189  1.00  0.00     0.029 A 
ATOM     20  N   UNL A   1      43.218  26.857  27.815  1.00  0.00    -0.354 N 
ATOM     21  C   UNL A   1      44.769  30.842  28.477  1.00  0.00     0.074 A 
ATOM     22  C   UNL A   1      43.733  31.735  28.950  1.00  0.00     0.031 C 
ATOM     23  C   UNL A   1      41.663  25.248  27.797  1.00  0.00     0.029 A 
ATOM     24  C   UNL A   1      43.070  25.522  27.525  1.00  0.00     0.049 A 
ATOM     25  H   UNL A   1      44.073  27.338  27.718  1.00  0.00     0.167 HD
ATOM     26  C   UNL A   1      46.056  31.207  28.256  1.00  0.00     0.037 A 
ATOM     27  C   UNL A   1      43.964  24.615  27.086  1.00  0.00     0.037 A 
ATOM     28  C   UNL A   1      47.088  30.304  27.812  1.00  0.00     0.049 A 
ATOM     29  C   UNL A   1      45.385  25.045  26.860  1.00  0.00     0.074 A 
ATOM     30  C   UNL A   1      48.430  30.568  27.598  1.00  0.00     0.029 A 
ATOM     31  N   UNL A   1      46.895  28.963  27.515  1.00  0.00    -0.354 N 
ATOM     32  N   UNL A   1      45.928  26.225  27.045  1.00  0.00    -0.248 NA
ATOM     33  C   UNL A   1      46.315  24.021  26.367  1.00  0.00     0.031 C 
ATOM     34  C   UNL A   1      49.039  29.396  27.135  1.00  0.00     0.029 A 
ATOM     35  C   UNL A   1      48.088  28.390  27.105  1.00  0.00     0.049 A 
ATOM     36  H   UNL A   1      46.035  28.488  27.585  1.00  0.00     0.167 HD
ATOM     37  C   UNL A   1      47.271  26.079  26.717  1.00  0.00     0.074 A 
ATOM     38  C   UNL A   1      47.457  24.693  26.332  1.00  0.00     0.031 C 
ATOM     39  C   UNL A   1      48.259  27.007  26.734  1.00  0.00     0.037 A 
BRANCH  26  40
ATOM     40  C   UNL A   1      46.419  32.653  28.469  1.00  0.00     0.058 A 
ATOM     41  C   UNL A   1      46.955  33.114  29.682  1.00  0.00     0.135 A 
ATOM     42  C   UNL A   1      46.260  33.586  27.430  1.00  0.00     0.135 A 
ATOM     43  F   UNL A   1      47.119  32.270  30.713  1.00  0.00    -0.206 F 
ATOM     44  C   UNL A   1      47.290  34.452  29.869  1.00  0.00     0.059 A 
ATOM     45  C   UNL A   1      46.612  34.924  27.585  1.00  0.00     0.059 A 
ATOM     46  F   UNL A   1      45.755  33.200  26.248  1.00  0.00    -0.206 F 
ATOM     47  C   UNL A   1      47.112  35.350  28.814  1.00  0.00     0.060 A 
BRANCH  47  48
ATOM     48  S   UNL A   1      47.547  37.084  29.072  1.00  0.00     0.124 S 
ATOM     49  O   UNL A   1      47.410  37.205  30.520  1.00  0.00    -0.237 OA
ATOM     50  O   UNL A   1      48.912  37.144  28.559  1.00  0.00    -0.237 OA
ATOM     51  O   UNL A   1      46.553  37.805  28.284  1.00  0.00    -0.744 OA
ENDBRANCH  47  48
ENDBRANCH  26  40
BRANCH  27  52
ATOM     52  C   UNL A   1      43.538  23.211  26.853  1.00  0.00     0.058 A 
ATOM     53  C   UNL A   1      43.403  22.704  25.552  1.00  0.00     0.135 A 
ATOM     54  C   UNL A   1      43.287  22.340  27.923  1.00  0.00     0.135 A 
ATOM     55  F   UNL A   1      43.630  23.501  24.495  1.00  0.00    -0.206 F 
ATOM     56  C   UNL A   1      43.022  21.388  25.319  1.00  0.00     0.059 A 
ATOM     57  C   UNL A   1      42.930  21.013  27.717  1.00  0.00     0.059 A 
ATOM     58  F   UNL A   1      43.421  22.772  29.188  1.00  0.00    -0.206 F 
ATOM     59  C   UNL A   1      42.790  20.548  26.410  1.00  0.00     0.060 A 
BRANCH  59  60
ATOM     60  S   UNL A   1      42.347  18.826  26.100  1.00  0.00     0.124 S 
ATOM     61  O   UNL A   1      43.277  18.473  25.033  1.00  0.00    -0.237 OA
ATOM     62  O   UNL A   1      42.596  18.204  27.396  1.00  0.00    -0.237 OA
ATOM     63  O   UNL A   1      40.942  18.906  25.713  1.00  0.00    -0.744 OA
ENDBRANCH  59  60
ENDBRANCH  27  52
BRANCH  39  64
ATOM     64  C   UNL A   1      49.641  26.541  26.370  1.00  0.00     0.058 A 
ATOM     65  C   UNL A   1      50.492  25.940  27.311  1.00  0.00     0.135 A 
ATOM     66  C   UNL A   1      50.110  26.679  25.054  1.00  0.00     0.135 A 
ATOM     67  F   UNL A   1      50.093  25.792  28.585  1.00  0.00    -0.206 F 
ATOM     68  C   UNL A   1      51.773  25.522  26.967  1.00  0.00     0.059 A 
ATOM     69  C   UNL A   1      51.377  26.244  24.682  1.00  0.00     0.059 A 
ATOM     70  F   UNL A   1      49.331  27.237  24.114  1.00  0.00    -0.206 F 
ATOM     71  C   UNL A   1      52.208  25.681  25.650  1.00  0.00     0.060 A 
BRANCH  71  72
ATOM     72  S   UNL A   1      53.867  25.123  25.209  1.00  0.00     0.124 S 
ATOM     73  O   UNL A   1      54.592  25.348  26.456  1.00  0.00    -0.237 OA
ATOM     74  O   UNL A   1      53.645  23.726  24.849  1.00  0.00    -0.237 OA
ATOM     75  O   UNL A   1      54.235  25.998  24.100  1.00  0.00    -0.744 OA
ENDBRANCH  71  72
ENDBRANCH  39  64
ENDBRANCH  13  14
ENDBRANCH   6   8
ENDBRANCH   3   4
ENDBRANCH   2   3
ENDBRANCH   1   2
BRANCH   1  76
ATOM     76  C   UNL A   1      33.182  32.445  27.726  1.00  0.00     0.002 C 
BRANCH  76  77
ATOM     77  C   UNL A   1      32.823  33.930  27.855  1.00  0.00     0.021 C 
BRANCH  77  78
ATOM     78  C   UNL A   1      34.029  34.826  28.120  1.00  0.00     0.116 C 
BRANCH  78  79
ATOM     79  N   UNL A   1      33.666  36.078  28.736  1.00  0.00    -0.354 N 
ATOM     80  C   UNL A   1      33.372  36.399  30.024  1.00  0.00     0.243 C 
ATOM     81  H   UNL A   1      33.623  36.838  28.110  1.00  0.00     0.163 HD
ATOM     82  O   UNL A   1      32.974  37.561  30.186  1.00  0.00    -0.273 OA
BRANCH  80  83
ATOM     83  C   UNL A   1      33.316  35.367  31.197  1.00  0.00     0.185 C 
ATOM     84  C   UNL A   1      32.520  35.977  32.361  1.00  0.00     0.106 C 
ATOM     85  N   UNL A   1      34.567  34.864  31.788  1.00  0.00    -0.317 N 
ATOM     86  S   UNL A   1      33.762  36.622  33.532  1.00  0.00    -0.138 SA
ATOM     87  C   UNL A   1      35.153  35.789  32.733  1.00  0.00     0.190 C 
BRANCH  85  88
ATOM     88  C   UNL A   1      35.049  33.597  31.494  1.00  0.00     0.255 C 
ATOM     89  O   UNL A   1      34.330  32.606  31.415  1.00  0.00    -0.269 OA
BRANCH  88  90
ATOM     90  C   UNL A   1      36.475  33.448  31.135  1.00  0.00     0.041 A 
ATOM     91  C   UNL A   1      36.932  33.763  29.853  1.00  0.00     0.014 A 
ATOM     92  C   UNL A   1      37.371  33.020  32.120  1.00  0.00     0.034 A 
ATOM     93  C   UNL A   1      38.288  33.604  29.550  1.00  0.00     0.002 A 
ATOM     94  C   UNL A   1      38.716  32.859  31.807  1.00  0.00     0.041 A 
ATOM     95  C   UNL A   1      39.179  33.142  30.524  1.00  0.00     0.020 A 
ATOM     96  Cl  UNL A   1      39.800  32.298  33.018  1.00  0.00    -0.084 Cl
ENDBRANCH  88  90
ENDBRANCH  85  88
ENDBRANCH  80  83
ENDBRANCH  78  79
ENDBRANCH  77  78
ENDBRANCH  76  77
ENDBRANCH   1  76
TORSDOF 18
ENDMDL
MODEL 2
REMARK VINA RESULT:     -10.2      2.974      9.028
REMARK SMILES O=C(NCCCCCCNC(=O)[C@@H]1CSCN1C(=O)c1cccc(Cl)c1)c1ccc(-c2c3nc(c(-c4c(F)cc(S(=O)(=O)[O-])cc4F)c4ccc([nH]4)c(-c4c(F)cc(S(=O)(=O)[O-])cc4F)c4nc(c(-c5c(F)cc(S(=O)(=O)[O-])cc5F)c5ccc2[nH]5)C=C4)C=C3)cc1
REMARK SMILES IDX 6 1 5 2 4 3 3 4 1 5 2 6 27 8 28 9 92 10 29 11 91 12 30 13
REMARK SMILES IDX 31 14 32 15 85 16 33 17 90 18 84 19 86 20 34 21 89 22 83 23
REMARK SMILES IDX 82 24 35 26 69 27 48 28 68 29 49 30 52 31 67 32 87 33 50 34
REMARK SMILES IDX 51 35 66 37 88 38 53 39 36 40 37 41 46 42 38 43 39 44 45 45
REMARK SMILES IDX 47 46 40 47 41 48 42 49 43 50 44 51 70 52 71 53 80 54 72 55
REMARK SMILES IDX 73 56 79 57 81 58 74 59 75 60 76 61 77 62 78 63 54 64 55 65
REMARK SMILES IDX 64 66 56 67 57 68 63 69 65 70 58 71 59 72 60 73 61 74 62 75
REMARK SMILES IDX 7 76 8 77 9 78 10 79 11 80 12 82 13 83 14 84 17 85 15 86
REMARK SMILES IDX 16 87 18 88 19 89 20 90 21 91 26 92 22 93 24 94 23 95 25 96
REMARK H PARENT 3 7 86 25 52 36 10 81
REMARK Flexibility Score: inf
ROOT
ATOM      1  C   UNL A   1      36.411  33.998  28.850  1.00  0.00     0.002 C 
ENDROOT
BRANCH   1   2
ATOM      2  C   UNL A   1      35.514  32.980  28.142  1.00  0.00     0.021 C 
BRANCH   2   3
ATOM      3  C   UNL A   1      34.636  32.155  29.076  1.00  0.00     0.116 C 
BRANCH   3   4
ATOM      4  N   UNL A   1      34.101  30.972  28.419  1.00  0.00    -0.352 N 
ATOM      5  O   UNL A   1      34.160  29.083  27.196  1.00  0.00    -0.269 OA
ATOM      6  C   UNL A   1      34.759  29.881  27.904  1.00  0.00     0.251 C 
ATOM      7  H   UNL A   1      33.120  30.951  28.329  1.00  0.00     0.163 HD
BRANCH   6   8
ATOM      8  C   UNL A   1      36.196  29.684  28.198  1.00  0.00     0.039 A 
ATOM      9  C   UNL A   1      37.163  29.960  27.230  1.00  0.00     0.014 A 
ATOM     10  C   UNL A   1      36.580  29.227  29.462  1.00  0.00     0.014 A 
ATOM     11  C   UNL A   1      38.494  29.638  27.472  1.00  0.00     0.010 A 
ATOM     12  C   UNL A   1      37.931  28.985  29.733  1.00  0.00     0.010 A 
ATOM     13  C   UNL A   1      38.895  29.152  28.727  1.00  0.00    -0.014 A 
BRANCH  13  14
ATOM     14  C   UNL A   1      40.332  28.857  28.964  1.00  0.00     0.031 A 
ATOM     15  C   UNL A   1      40.932  27.540  28.553  1.00  0.00     0.074 A 
ATOM     16  C   UNL A   1      41.107  29.810  29.518  1.00  0.00     0.049 A 
ATOM     17  N   UNL A   1      42.174  27.137  28.644  1.00  0.00    -0.248 NA
ATOM     18  C   UNL A   1      40.022  26.540  27.973  1.00  0.00     0.031 C 
ATOM     19  C   UNL A   1      40.634  31.122  29.971  1.00  0.00     0.029 A 
ATOM     20  N   UNL A   1      42.453  29.840  29.774  1.00  0.00    -0.354 N 
ATOM     21  C   UNL A   1      42.191  25.833  28.161  1.00  0.00     0.074 A 
ATOM     22  C   UNL A   1      40.830  25.504  27.797  1.00  0.00     0.031 C 
ATOM     23  C   UNL A   1      41.680  31.847  30.393  1.00  0.00     0.029 A 
ATOM     24  C   UNL A   1      42.888  31.035  30.297  1.00  0.00     0.049 A 
ATOM     25  H   UNL A   1      43.053  29.078  29.600  1.00  0.00     0.167 HD
ATOM     26  C   UNL A   1      43.247  24.993  28.029  1.00  0.00     0.037 A 
ATOM     27  C   UNL A   1      44.120  31.435  30.663  1.00  0.00     0.037 A 
ATOM     28  C   UNL A   1      44.604  25.340  28.367  1.00  0.00     0.049 A 
ATOM     29  C   UNL A   1      45.274  30.488  30.494  1.00  0.00     0.074 A 
ATOM     30  C   UNL A   1      45.749  24.573  28.231  1.00  0.00     0.029 A 
ATOM     31  N   UNL A   1      45.002  26.555  28.908  1.00  0.00    -0.354 N 
ATOM     32  N   UNL A   1      45.274  29.269  30.008  1.00  0.00    -0.248 NA
ATOM     33  C   UNL A   1      46.593  30.969  30.922  1.00  0.00     0.031 C 
ATOM     34  C   UNL A   1      46.832  25.310  28.724  1.00  0.00     0.029 A 
ATOM     35  C   UNL A   1      46.370  26.553  29.125  1.00  0.00     0.049 A 
ATOM     36  H   UNL A   1      44.398  27.307  29.108  1.00  0.00     0.167 HD
ATOM     37  C   UNL A   1      46.597  28.847  30.046  1.00  0.00     0.074 A 
ATOM     38  C   UNL A   1      47.369  29.945  30.593  1.00  0.00     0.031 C 
ATOM     39  C   UNL A   1      47.125  27.658  29.662  1.00  0.00     0.037 A 
BRANCH  26  40
ATOM     40  C   UNL A   1      42.975  23.604  27.515  1.00  0.00     0.058 A 
ATOM     41  C   UNL A   1      43.224  23.243  26.180  1.00  0.00     0.135 A 
ATOM     42  C   UNL A   1      42.489  22.609  28.379  1.00  0.00     0.135 A 
ATOM     43  F   UNL A   1      43.678  24.155  25.306  1.00  0.00    -0.206 F 
ATOM     44  C   UNL A   1      42.972  21.956  25.715  1.00  0.00     0.059 A 
ATOM     45  C   UNL A   1      42.254  21.308  27.943  1.00  0.00     0.059 A 
ATOM     46  F   UNL A   1      42.236  22.897  29.666  1.00  0.00    -0.206 F 
ATOM     47  C   UNL A   1      42.483  20.996  26.604  1.00  0.00     0.060 A 
BRANCH  47  48
ATOM     48  S   UNL A   1      42.157  19.331  25.985  1.00  0.00     0.124 S 
ATOM     49  O   UNL A   1      42.964  19.310  24.769  1.00  0.00    -0.237 OA
ATOM     50  O   UNL A   1      42.637  18.490  27.077  1.00  0.00    -0.237 OA
ATOM     51  O   UNL A   1      40.713  19.322  25.780  1.00  0.00    -0.744 OA
ENDBRANCH  47  48
ENDBRANCH  26  40
BRANCH  27  52
ATOM     52  C   UNL A   1      44.322  32.804  31.204  1.00  0.00     0.058 A 
ATOM     53  C   UNL A   1      44.474  33.903  30.346  1.00  0.00     0.135 A 
ATOM     54  C   UNL A   1      44.336  33.045  32.586  1.00  0.00     0.135 A 
ATOM     55  F   UNL A   1      44.470  33.722  29.016  1.00  0.00    -0.206 F 
ATOM     56  C   UNL A   1      44.647  35.192  30.838  1.00  0.00     0.059 A 
ATOM     57  C   UNL A   1      44.480  34.327  33.102  1.00  0.00     0.059 A 
ATOM     58  F   UNL A   1      44.175  32.028  33.448  1.00  0.00    -0.206 F 
ATOM     59  C   UNL A   1      44.646  35.395  32.220  1.00  0.00     0.060 A 
BRANCH  59  60
ATOM     60  S   UNL A   1      44.817  37.077  32.850  1.00  0.00     0.124 S 
ATOM     61  O   UNL A   1      43.473  37.339  33.353  1.00  0.00    -0.237 OA
ATOM     62  O   UNL A   1      45.859  36.925  33.860  1.00  0.00    -0.237 OA
ATOM     63  O   UNL A   1      45.209  37.839  31.668  1.00  0.00    -0.744 OA
ENDBRANCH  59  60
ENDBRANCH  27  52
BRANCH  39  64
ATOM     64  C   UNL A   1      48.615  27.503  29.777  1.00  0.00     0.058 A 
ATOM     65  C   UNL A   1      49.482  27.887  28.740  1.00  0.00     0.135 A 
ATOM     66  C   UNL A   1      49.184  26.984  30.949  1.00  0.00     0.135 A 
ATOM     67  F   UNL A   1      48.987  28.382  27.594  1.00  0.00    -0.206 F 
ATOM     68  C   UNL A   1      50.859  27.730  28.851  1.00  0.00     0.059 A 
ATOM     69  C   UNL A   1      50.561  26.843  31.092  1.00  0.00     0.059 A 
ATOM     70  F   UNL A   1      48.401  26.613  31.975  1.00  0.00    -0.206 F 
ATOM     71  C   UNL A   1      51.389  27.203  30.031  1.00  0.00     0.060 A 
BRANCH  71  72
ATOM     72  S   UNL A   1      53.179  27.016  30.172  1.00  0.00     0.124 S 
ATOM     73  O   UNL A   1      53.554  28.268  30.821  1.00  0.00    -0.237 OA
ATOM     74  O   UNL A   1      53.307  25.814  30.991  1.00  0.00    -0.237 OA
ATOM     75  O   UNL A   1      53.615  26.871  28.786  1.00  0.00    -0.744 OA
ENDBRANCH  71  72
ENDBRANCH  39  64
ENDBRANCH  13  14
ENDBRANCH   6   8
ENDBRANCH   3   4
ENDBRANCH   2   3
ENDBRANCH   1   2
BRANCH   1  76
ATOM     76  C   UNL A   1      37.788  33.476  29.285  1.00  0.00     0.002 C 
BRANCH  76  77
ATOM     77  C   UNL A   1      38.686  34.500  29.991  1.00  0.00     0.021 C 
BRANCH  77  78
ATOM     78  C   UNL A   1      38.516  34.514  31.507  1.00  0.00     0.116 C 
BRANCH  78  79
ATOM     79  N   UNL A   1      39.716  34.123  32.203  1.00  0.00    -0.354 N 
ATOM     80  C   UNL A   1      40.045  34.152  33.523  1.00  0.00     0.243 C 
ATOM     81  H   UNL A   1      40.426  33.773  31.618  1.00  0.00     0.163 HD
ATOM     82  O   UNL A   1      41.223  33.856  33.765  1.00  0.00    -0.273 OA
BRANCH  80  83
ATOM     83  C   UNL A   1      39.117  34.713  34.649  1.00  0.00     0.185 C 
ATOM     84  C   UNL A   1      39.839  35.867  35.362  1.00  0.00     0.106 C 
ATOM     85  N   UNL A   1      38.641  33.819  35.717  1.00  0.00    -0.317 N 
ATOM     86  S   UNL A   1      40.555  35.148  36.878  1.00  0.00    -0.138 SA
ATOM     87  C   UNL A   1      39.630  33.600  36.748  1.00  0.00     0.190 C 
BRANCH  85  88
ATOM     88  C   UNL A   1      37.344  33.327  35.724  1.00  0.00     0.255 C 
ATOM     89  O   UNL A   1      36.628  33.331  36.720  1.00  0.00    -0.269 OA
BRANCH  88  90
ATOM     90  C   UNL A   1      36.745  32.890  34.444  1.00  0.00     0.041 A 
ATOM     91  C   UNL A   1      37.133  31.693  33.839  1.00  0.00     0.014 A 
ATOM     92  C   UNL A   1      35.749  33.685  33.868  1.00  0.00     0.034 A 
ATOM     93  C   UNL A   1      36.546  31.316  32.626  1.00  0.00     0.002 A 
ATOM     94  C   UNL A   1      35.178  33.305  32.659  1.00  0.00     0.041 A 
ATOM     95  C   UNL A   1      35.575  32.128  32.031  1.00  0.00     0.020 A 
ATOM     96  Cl  UNL A   1      33.979  34.310  31.943  1.00  0.00    -0.084 Cl
ENDBRANCH  88  90
ENDBRANCH  85  88
ENDBRANCH  80  83
ENDBRANCH  78  79
ENDBRANCH  77  78
ENDBRANCH  76  77
ENDBRANCH   1  76
TORSDOF 18
ENDMDL
MODEL 3
REMARK VINA RESULT:     -10.2      6.551     10.160
REMARK SMILES O=C(NCCCCCCNC(=O)[C@@H]1CSCN1C(=O)c1cccc(Cl)c1)c1ccc(-c2c3nc(c(-c4c(F)cc(S(=O)(=O)[O-])cc4F)c4ccc([nH]4)c(-c4c(F)cc(S(=O)(=O)[O-])cc4F)c4nc(c(-c5c(F)cc(S(=O)(=O)[O-])cc5F)c5ccc2[nH]5)C=C4)C=C3)cc1
REMARK SMILES IDX 6 1 5 2 4 3 3 4 1 5 2 6 27 8 28 9 92 10 29 11 91 12 30 13
REMARK SMILES IDX 31 14 32 15 85 16 33 17 90 18 84 19 86 20 34 21 89 22 83 23
REMARK SMILES IDX 82 24 35 26 69 27 48 28 68 29 49 30 52 31 67 32 87 33 50 34
REMARK SMILES IDX 51 35 66 37 88 38 53 39 36 40 37 41 46 42 38 43 39 44 45 45
REMARK SMILES IDX 47 46 40 47 41 48 42 49 43 50 44 51 70 52 71 53 80 54 72 55
REMARK SMILES IDX 73 56 79 57 81 58 74 59 75 60 76 61 77 62 78 63 54 64 55 65
REMARK SMILES IDX 64 66 56 67 57 68 63 69 65 70 58 71 59 72 60 73 61 74 62 75
REMARK SMILES IDX 7 76 8 77 9 78 10 79 11 80 12 82 13 83 14 84 17 85 15 86
REMARK SMILES IDX 16 87 18 88 19 89 20 90 21 91 26 92 22 93 24 94 23 95 25 96
REMARK H PARENT 3 7 86 25 52 36 10 81
REMARK Flexibility Score: inf
ROOT
ATOM      1  C   UNL A   1      31.975  30.509  26.214  1.00  0.00     0.002 C 
ENDROOT
BRANCH   1   2
ATOM      2  C   UNL A   1      31.716  31.873  26.857  1.00  0.00     0.021 C 
BRANCH   2   3
ATOM      3  C   UNL A   1      32.956  32.540  27.444  1.00  0.00     0.116 C 
BRANCH   3   4
ATOM      4  N   UNL A   1      32.727  33.944  27.747  1.00  0.00    -0.352 N 
ATOM      5  O   UNL A   1      32.815  35.837  28.965  1.00  0.00    -0.269 OA
ATOM      6  C   UNL A   1      33.287  34.734  28.724  1.00  0.00     0.251 C 
ATOM      7  H   UNL A   1      32.073  34.397  27.166  1.00  0.00     0.163 HD
BRANCH   6   8
ATOM      8  C   UNL A   1      34.452  34.238  29.490  1.00  0.00     0.039 A 
ATOM      9  C   UNL A   1      35.752  34.486  29.045  1.00  0.00     0.014 A 
ATOM     10  C   UNL A   1      34.241  33.524  30.673  1.00  0.00     0.014 A 
ATOM     11  C   UNL A   1      36.830  33.896  29.696  1.00  0.00     0.010 A 
ATOM     12  C   UNL A   1      35.333  33.004  31.375  1.00  0.00     0.010 A 
ATOM     13  C   UNL A   1      36.634  33.153  30.871  1.00  0.00    -0.014 A 
BRANCH  13  14
ATOM     14  C   UNL A   1      37.813  32.570  31.564  1.00  0.00     0.031 A 
ATOM     15  C   UNL A   1      38.246  33.074  32.915  1.00  0.00     0.074 A 
ATOM     16  C   UNL A   1      38.467  31.546  30.982  1.00  0.00     0.049 A 
ATOM     17  N   UNL A   1      39.222  32.649  33.677  1.00  0.00    -0.248 NA
ATOM     18  C   UNL A   1      37.497  34.207  33.480  1.00  0.00     0.031 C 
ATOM     19  C   UNL A   1      38.147  30.981  29.668  1.00  0.00     0.029 A 
ATOM     20  N   UNL A   1      39.517  30.782  31.421  1.00  0.00    -0.354 N 
ATOM     21  C   UNL A   1      39.223  33.475  34.795  1.00  0.00     0.074 A 
ATOM     22  C   UNL A   1      38.163  34.442  34.602  1.00  0.00     0.031 C 
ATOM     23  C   UNL A   1      38.942  29.927  29.435  1.00  0.00     0.029 A 
ATOM     24  C   UNL A   1      39.866  29.775  30.553  1.00  0.00     0.049 A 
ATOM     25  H   UNL A   1      39.977  30.939  32.278  1.00  0.00     0.167 HD
ATOM     26  C   UNL A   1      40.029  33.426  35.884  1.00  0.00     0.037 A 
ATOM     27  C   UNL A   1      40.825  28.834  30.641  1.00  0.00     0.037 A 
ATOM     28  C   UNL A   1      41.063  32.442  36.080  1.00  0.00     0.049 A 
ATOM     29  C   UNL A   1      41.696  28.796  31.864  1.00  0.00     0.074 A 
ATOM     30  C   UNL A   1      41.906  32.283  37.167  1.00  0.00     0.029 A 
ATOM     31  N   UNL A   1      41.397  31.448  35.171  1.00  0.00    -0.354 N 
ATOM     32  N   UNL A   1      41.662  29.568  32.924  1.00  0.00    -0.248 NA
ATOM     33  C   UNL A   1      42.735  27.760  31.904  1.00  0.00     0.031 C 
ATOM     34  C   UNL A   1      42.773  31.218  36.898  1.00  0.00     0.029 A 
ATOM     35  C   UNL A   1      42.441  30.682  35.664  1.00  0.00     0.049 A 
ATOM     36  H   UNL A   1      40.954  31.308  34.302  1.00  0.00     0.167 HD
ATOM     37  C   UNL A   1      42.657  29.094  33.770  1.00  0.00     0.074 A 
ATOM     38  C   UNL A   1      43.268  27.962  33.101  1.00  0.00     0.031 C 
ATOM     39  C   UNL A   1      43.031  29.553  34.990  1.00  0.00     0.037 A 
BRANCH  26  40
ATOM     40  C   UNL A   1      39.842  34.482  36.941  1.00  0.00     0.058 A 
ATOM     41  C   UNL A   1      40.532  35.705  36.900  1.00  0.00     0.135 A 
ATOM     42  C   UNL A   1      38.934  34.280  37.994  1.00  0.00     0.135 A 
ATOM     43  F   UNL A   1      41.420  35.949  35.924  1.00  0.00    -0.206 F 
ATOM     44  C   UNL A   1      40.350  36.676  37.881  1.00  0.00     0.059 A 
ATOM     45  C   UNL A   1      38.717  35.247  38.971  1.00  0.00     0.059 A 
ATOM     46  F   UNL A   1      38.246  33.131  38.081  1.00  0.00    -0.206 F 
ATOM     47  C   UNL A   1      39.443  36.436  38.915  1.00  0.00     0.060 A 
BRANCH  47  48
ATOM     48  S   UNL A   1      39.221  37.703  40.182  1.00  0.00     0.124 S 
ATOM     49  O   UNL A   1      38.857  36.894  41.341  1.00  0.00    -0.237 OA
ATOM     50  O   UNL A   1      40.540  38.327  40.236  1.00  0.00    -0.237 OA
ATOM     51  O   UNL A   1      38.157  38.542  39.642  1.00  0.00    -0.744 OA
ENDBRANCH  47  48
ENDBRANCH  26  40
BRANCH  27  52
ATOM     52  C   UNL A   1      40.991  27.844  29.547  1.00  0.00     0.058 A 
ATOM     53  C   UNL A   1      42.078  27.920  28.663  1.00  0.00     0.135 A 
ATOM     54  C   UNL A   1      40.086  26.785  29.381  1.00  0.00     0.135 A 
ATOM     55  F   UNL A   1      42.969  28.918  28.781  1.00  0.00    -0.206 F 
ATOM     56  C   UNL A   1      42.254  26.990  27.645  1.00  0.00     0.059 A 
ATOM     57  C   UNL A   1      40.256  25.827  28.388  1.00  0.00     0.059 A 
ATOM     58  F   UNL A   1      39.040  26.657  30.214  1.00  0.00    -0.206 F 
ATOM     59  C   UNL A   1      41.338  25.944  27.517  1.00  0.00     0.060 A 
BRANCH  59  60
ATOM     60  S   UNL A   1      41.605  24.711  26.226  1.00  0.00     0.124 S 
ATOM     61  O   UNL A   1      41.380  25.499  25.019  1.00  0.00    -0.237 OA
ATOM     62  O   UNL A   1      42.982  24.298  26.473  1.00  0.00    -0.237 OA
ATOM     63  O   UNL A   1      40.594  23.698  26.517  1.00  0.00    -0.744 OA
ENDBRANCH  59  60
ENDBRANCH  27  52
BRANCH  39  64
ATOM     64  C   UNL A   1      44.120  28.799  35.700  1.00  0.00     0.058 A 
ATOM     65  C   UNL A   1      43.838  27.740  36.578  1.00  0.00     0.135 A 
ATOM     66  C   UNL A   1      45.467  29.129  35.481  1.00  0.00     0.135 A 
ATOM     67  F   UNL A   1      42.565  27.391  36.827  1.00  0.00    -0.206 F 
ATOM     68  C   UNL A   1      44.853  27.056  37.238  1.00  0.00     0.059 A 
ATOM     69  C   UNL A   1      46.499  28.440  36.110  1.00  0.00     0.059 A 
ATOM     70  F   UNL A   1      45.791  30.126  34.642  1.00  0.00    -0.206 F 
ATOM     71  C   UNL A   1      46.181  27.416  37.000  1.00  0.00     0.060 A 
BRANCH  71  72
ATOM     72  S   UNL A   1      47.492  26.513  37.851  1.00  0.00     0.124 S 
ATOM     73  O   UNL A   1      46.729  25.739  38.825  1.00  0.00    -0.237 OA
ATOM     74  O   UNL A   1      48.100  25.745  36.769  1.00  0.00    -0.237 OA
ATOM     75  O   UNL A   1      48.328  27.573  38.405  1.00  0.00    -0.744 OA
ENDBRANCH  71  72
ENDBRANCH  39  64
ENDBRANCH  13  14
ENDBRANCH   6   8
ENDBRANCH   3   4
ENDBRANCH   2   3
ENDBRANCH   1   2
BRANCH   1  76
ATOM     76  C   UNL A   1      31.806  29.298  27.143  1.00  0.00     0.002 C 
BRANCH  76  77
ATOM     77  C   UNL A   1      32.934  28.260  27.081  1.00  0.00     0.021 C 
BRANCH  77  78
ATOM     78  C   UNL A   1      32.703  27.172  26.036  1.00  0.00     0.116 C 
BRANCH  78  79
ATOM     79  N   UNL A   1      33.719  26.150  26.066  1.00  0.00    -0.354 N 
ATOM     80  C   UNL A   1      33.886  25.021  25.326  1.00  0.00     0.243 C 
ATOM     81  H   UNL A   1      34.417  26.294  26.745  1.00  0.00     0.163 HD
ATOM     82  O   UNL A   1      34.812  24.291  25.704  1.00  0.00    -0.273 OA
BRANCH  80  83
ATOM     83  C   UNL A   1      32.889  24.536  24.223  1.00  0.00     0.185 C 
ATOM     84  C   UNL A   1      32.257  23.209  24.671  1.00  0.00     0.106 C 
ATOM     85  N   UNL A   1      33.372  24.307  22.852  1.00  0.00    -0.317 N 
ATOM     86  S   UNL A   1      33.195  21.896  23.821  1.00  0.00    -0.138 SA
ATOM     87  C   UNL A   1      34.040  23.034  22.698  1.00  0.00     0.190 C 
BRANCH  85  88
ATOM     88  C   UNL A   1      33.118  25.214  21.834  1.00  0.00     0.255 C 
ATOM     89  O   UNL A   1      33.147  24.916  20.644  1.00  0.00    -0.269 OA
BRANCH  88  90
ATOM     90  C   UNL A   1      32.668  26.575  22.195  1.00  0.00     0.041 A 
ATOM     91  C   UNL A   1      33.585  27.612  22.379  1.00  0.00     0.014 A 
ATOM     92  C   UNL A   1      31.295  26.815  22.311  1.00  0.00     0.034 A 
ATOM     93  C   UNL A   1      33.120  28.885  22.724  1.00  0.00     0.002 A 
ATOM     94  C   UNL A   1      30.843  28.083  22.661  1.00  0.00     0.041 A 
ATOM     95  C   UNL A   1      31.749  29.118  22.875  1.00  0.00     0.020 A 
ATOM     96  Cl  UNL A   1      29.154  28.356  22.834  1.00  0.00    -0.084 Cl
ENDBRANCH  88  90
ENDBRANCH  85  88
ENDBRANCH  80  83
ENDBRANCH  78  79
ENDBRANCH  77  78
ENDBRANCH  76  77
ENDBRANCH   1  76
TORSDOF 18
ENDMDL
