MODEL 1
REMARK VINA RESULT:     -11.4      0.000      0.000
REMARK SMILES CCN(C)S(=O)(=O)N1CC[C@H](Cc2ccc(C(=O)NCCCCCCNC(=O)c3ccc(-c4c5nc(c(-c6c(F)cc(S(=O)(=O)[O-])cc6F)c6ccc([nH]6)c(-c6c(F)cc(S(=O)(=O)[O-])cc6F)c6nc(c(-c7c(F)cc(S(=O)(=O)[O-])cc7F)c7ccc4[nH]7)C=C6)C=C5)cc3)cc2)C1
REMARK SMILES IDX 21 1 20 2 19 3 17 4 18 5 16 7 13 8 14 9 96 10 15 11 95 12
REMARK SMILES IDX 12 13 11 14 8 15 9 16 97 17 10 18 5 19 6 20 7 21 3 22 4 23
REMARK SMILES IDX 2 24 1 25 22 26 23 27 24 28 25 29 26 30 27 31 28 33 29 34
REMARK SMILES IDX 30 35 94 36 31 37 93 38 32 39 33 40 34 41 87 42 35 43 92 44
REMARK SMILES IDX 86 45 88 46 36 47 91 48 85 49 84 50 37 52 71 53 50 54 70 55
REMARK SMILES IDX 51 56 54 57 69 58 89 59 52 60 53 61 68 63 90 64 55 65 38 66
REMARK SMILES IDX 39 67 48 68 40 69 41 70 47 71 49 72 42 73 43 74 44 75 45 76
REMARK SMILES IDX 46 77 72 78 73 79 82 80 74 81 75 82 81 83 83 84 76 85 77 86
REMARK SMILES IDX 78 87 79 88 80 89 56 90 57 91 66 92 58 93 59 94 65 95 67 96
REMARK SMILES IDX 60 97 61 98 62 99 63 100 64 101
REMARK H PARENT 19 6 26 32 88 51 54 62
REMARK Flexibility Score: inf
ROOT
ATOM      1  C   UNL A   1      35.803  21.898  25.740  1.00  0.00     0.021 C 
ENDROOT
BRANCH   1   2
ATOM      2  C   UNL A   1      34.733  21.453  26.738  1.00  0.00     0.116 C 
BRANCH   2   3
ATOM      3  N   UNL A   1      33.952  20.377  26.161  1.00  0.00    -0.352 N 
ATOM      4  C   UNL A   1      32.790  20.370  25.436  1.00  0.00     0.251 C 
ATOM      5  O   UNL A   1      32.327  19.277  25.107  1.00  0.00    -0.269 OA
ATOM      6  H   UNL A   1      34.329  19.481  26.320  1.00  0.00     0.163 HD
BRANCH   4   7
ATOM      7  C   UNL A   1      32.123  21.614  24.966  1.00  0.00     0.039 A 
ATOM      8  C   UNL A   1      31.090  24.029  23.941  1.00  0.00    -0.048 A 
ATOM      9  C   UNL A   1      31.859  23.187  23.131  1.00  0.00     0.004 A 
ATOM     10  C   UNL A   1      30.786  23.621  25.244  1.00  0.00     0.004 A 
ATOM     11  C   UNL A   1      32.375  21.994  23.641  1.00  0.00     0.014 A 
ATOM     12  C   UNL A   1      31.271  22.406  25.739  1.00  0.00     0.014 A 
BRANCH   8  13
ATOM     13  C   UNL A   1      30.567  25.333  23.402  1.00  0.00     0.040 C 
BRANCH  13  14
ATOM     14  C   UNL A   1      31.621  26.442  23.286  1.00  0.00     0.010 C 
ATOM     15  N   UNL A   1      32.227  28.350  24.599  1.00  0.00    -0.189 NA
ATOM     16  C   UNL A   1      32.014  28.805  23.227  1.00  0.00     0.104 C 
ATOM     17  C   UNL A   1      32.071  26.892  24.684  1.00  0.00     0.107 C 
ATOM     18  C   UNL A   1      31.114  27.728  22.633  1.00  0.00     0.022 C 
BRANCH  15  19
ATOM     19  S   UNL A   1      31.952  29.293  25.940  1.00  0.00     0.281 S 
ATOM     20  O   UNL A   1      31.468  28.462  27.015  1.00  0.00    -0.195 OA
ATOM     21  O   UNL A   1      31.200  30.444  25.489  1.00  0.00    -0.195 OA
BRANCH  19  22
ATOM     22  N   UNL A   1      33.528  29.831  26.370  1.00  0.00    -0.192 NA
ATOM     23  C   UNL A   1      34.374  28.778  26.996  1.00  0.00     0.125 C 
BRANCH  22  24
ATOM     24  C   UNL A   1      33.524  31.042  27.259  1.00  0.00     0.100 C 
ATOM     25  C   UNL A   1      34.915  31.435  27.721  1.00  0.00     0.022 C 
ENDBRANCH  22  24
ENDBRANCH  19  22
ENDBRANCH  15  19
ENDBRANCH  13  14
ENDBRANCH   8  13
ENDBRANCH   4   7
ENDBRANCH   2   3
ENDBRANCH   1   2
BRANCH   1  26
ATOM     26  C   UNL A   1      35.889  23.423  25.603  1.00  0.00     0.002 C 
BRANCH  26  27
ATOM     27  C   UNL A   1      37.211  24.029  26.092  1.00  0.00     0.002 C 
BRANCH  27  28
ATOM     28  C   UNL A   1      38.393  23.057  26.093  1.00  0.00     0.021 C 
BRANCH  28  29
ATOM     29  C   UNL A   1      39.571  23.522  26.944  1.00  0.00     0.116 C 
BRANCH  29  30
ATOM     30  N   UNL A   1      40.655  24.024  26.115  1.00  0.00    -0.352 N 
ATOM     31  C   UNL A   1      41.232  25.269  26.109  1.00  0.00     0.251 C 
ATOM     32  H   UNL A   1      41.026  23.383  25.467  1.00  0.00     0.163 HD
ATOM     33  O   UNL A   1      41.944  25.613  25.171  1.00  0.00    -0.269 OA
BRANCH  31  34
ATOM     34  C   UNL A   1      40.985  26.190  27.238  1.00  0.00     0.039 A 
ATOM     35  C   UNL A   1      39.993  25.875  28.168  1.00  0.00     0.014 A 
ATOM     36  C   UNL A   1      41.730  27.366  27.371  1.00  0.00     0.014 A 
ATOM     37  C   UNL A   1      39.782  26.718  29.261  1.00  0.00     0.010 A 
ATOM     38  C   UNL A   1      41.572  28.161  28.502  1.00  0.00     0.010 A 
ATOM     39  C   UNL A   1      40.591  27.850  29.454  1.00  0.00    -0.014 A 
BRANCH  39  40
ATOM     40  C   UNL A   1      40.424  28.720  30.647  1.00  0.00     0.031 A 
ATOM     41  C   UNL A   1      39.373  29.799  30.652  1.00  0.00     0.074 A 
ATOM     42  C   UNL A   1      41.256  28.574  31.697  1.00  0.00     0.049 A 
ATOM     43  N   UNL A   1      39.119  30.695  31.570  1.00  0.00    -0.248 NA
ATOM     44  C   UNL A   1      38.510  29.901  29.463  1.00  0.00     0.031 C 
ATOM     45  C   UNL A   1      42.344  27.596  31.787  1.00  0.00     0.029 A 
ATOM     46  N   UNL A   1      41.329  29.255  32.887  1.00  0.00    -0.354 N 
ATOM     47  C   UNL A   1      38.084  31.474  31.064  1.00  0.00     0.074 A 
ATOM     48  C   UNL A   1      37.786  30.976  29.740  1.00  0.00     0.031 C 
ATOM     49  C   UNL A   1      42.958  27.726  32.974  1.00  0.00     0.029 A 
ATOM     50  C   UNL A   1      42.343  28.824  33.711  1.00  0.00     0.049 A 
ATOM     51  H   UNL A   1      40.712  29.983  33.129  1.00  0.00     0.167 HD
ATOM     52  C   UNL A   1      37.429  32.498  31.660  1.00  0.00     0.037 A 
ATOM     53  C   UNL A   1      42.741  29.273  34.919  1.00  0.00     0.037 A 
ATOM     54  C   UNL A   1      37.709  32.963  32.994  1.00  0.00     0.049 A 
ATOM     55  C   UNL A   1      41.995  30.418  35.553  1.00  0.00     0.074 A 
ATOM     56  C   UNL A   1      37.051  33.946  33.714  1.00  0.00     0.029 A 
ATOM     57  N   UNL A   1      38.728  32.488  33.804  1.00  0.00    -0.354 N 
ATOM     58  N   UNL A   1      40.965  31.088  35.092  1.00  0.00    -0.248 NA
ATOM     59  C   UNL A   1      42.458  30.864  36.873  1.00  0.00     0.031 C 
ATOM     60  C   UNL A   1      37.709  34.106  34.936  1.00  0.00     0.029 A 
ATOM     61  C   UNL A   1      38.735  33.177  35.006  1.00  0.00     0.049 A 
ATOM     62  H   UNL A   1      39.353  31.766  33.564  1.00  0.00     0.167 HD
ATOM     63  C   UNL A   1      40.637  32.008  36.083  1.00  0.00     0.074 A 
ATOM     64  C   UNL A   1      41.566  31.798  37.171  1.00  0.00     0.031 C 
ATOM     65  C   UNL A   1      39.655  32.942  36.091  1.00  0.00     0.037 A 
BRANCH  52  66
ATOM     66  C   UNL A   1      36.338  33.192  30.892  1.00  0.00     0.058 A 
ATOM     67  C   UNL A   1      34.984  33.047  31.236  1.00  0.00     0.135 A 
ATOM     68  C   UNL A   1      36.659  34.091  29.862  1.00  0.00     0.135 A 
ATOM     69  F   UNL A   1      34.619  32.188  32.199  1.00  0.00    -0.206 F 
ATOM     70  C   UNL A   1      33.989  33.768  30.584  1.00  0.00     0.059 A 
ATOM     71  C   UNL A   1      35.682  34.843  29.216  1.00  0.00     0.059 A 
ATOM     72  F   UNL A   1      37.937  34.263  29.489  1.00  0.00    -0.206 F 
ATOM     73  C   UNL A   1      34.349  34.673  29.584  1.00  0.00     0.060 A 
BRANCH  73  74
ATOM     74  S   UNL A   1      33.048  35.644  28.794  1.00  0.00     0.124 S 
ATOM     75  O   UNL A   1      33.829  36.603  28.019  1.00  0.00    -0.237 OA
ATOM     76  O   UNL A   1      32.335  34.634  28.019  1.00  0.00    -0.237 OA
ATOM     77  O   UNL A   1      32.309  36.204  29.921  1.00  0.00    -0.744 OA
ENDBRANCH  73  74
ENDBRANCH  52  66
BRANCH  53  78
ATOM     78  C   UNL A   1      43.903  28.650  35.611  1.00  0.00     0.058 A 
ATOM     79  C   UNL A   1      43.723  27.624  36.552  1.00  0.00     0.135 A 
ATOM     80  C   UNL A   1      45.214  29.095  35.378  1.00  0.00     0.135 A 
ATOM     81  F   UNL A   1      42.491  27.163  36.814  1.00  0.00    -0.206 F 
ATOM     82  C   UNL A   1      44.792  27.093  37.267  1.00  0.00     0.059 A 
ATOM     83  C   UNL A   1      46.303  28.557  36.056  1.00  0.00     0.059 A 
ATOM     84  F   UNL A   1      45.447  30.060  34.474  1.00  0.00    -0.206 F 
ATOM     85  C   UNL A   1      46.079  27.572  37.016  1.00  0.00     0.060 A 
BRANCH  85  86
ATOM     86  S   UNL A   1      47.459  26.881  37.952  1.00  0.00     0.124 S 
ATOM     87  O   UNL A   1      47.682  25.620  37.257  1.00  0.00    -0.237 OA
ATOM     88  O   UNL A   1      48.490  27.900  37.775  1.00  0.00    -0.237 OA
ATOM     89  O   UNL A   1      46.924  26.771  39.306  1.00  0.00    -0.744 OA
ENDBRANCH  85  86
ENDBRANCH  53  78
BRANCH  65  90
ATOM     90  C   UNL A   1      39.496  33.776  37.332  1.00  0.00     0.058 A 
ATOM     91  C   UNL A   1      38.770  33.324  38.445  1.00  0.00     0.135 A 
ATOM     92  C   UNL A   1      40.131  35.026  37.429  1.00  0.00     0.135 A 
ATOM     93  F   UNL A   1      38.139  32.139  38.404  1.00  0.00    -0.206 F 
ATOM     94  C   UNL A   1      38.655  34.093  39.598  1.00  0.00     0.059 A 
ATOM     95  C   UNL A   1      40.058  35.796  38.584  1.00  0.00     0.059 A 
ATOM     96  F   UNL A   1      40.849  35.502  36.399  1.00  0.00    -0.206 F 
ATOM     97  C   UNL A   1      39.306  35.326  39.659  1.00  0.00     0.060 A 
BRANCH  97  98
ATOM     98  S   UNL A   1      39.177  36.296  41.175  1.00  0.00     0.124 S 
ATOM     99  O   UNL A   1      37.985  35.723  41.792  1.00  0.00    -0.237 OA
ATOM    100  O   UNL A   1      40.441  36.000  41.843  1.00  0.00    -0.237 OA
ATOM    101  O   UNL A   1      39.036  37.666  40.692  1.00  0.00    -0.744 OA
ENDBRANCH  97  98
ENDBRANCH  65  90
ENDBRANCH  39  40
ENDBRANCH  31  34
ENDBRANCH  29  30
ENDBRANCH  28  29
ENDBRANCH  27  28
ENDBRANCH  26  27
ENDBRANCH   1  26
TORSDOF 21
ENDMDL
MODEL 2
REMARK VINA RESULT:     -10.9      5.301     12.184
REMARK SMILES CCN(C)S(=O)(=O)N1CC[C@H](Cc2ccc(C(=O)NCCCCCCNC(=O)c3ccc(-c4c5nc(c(-c6c(F)cc(S(=O)(=O)[O-])cc6F)c6ccc([nH]6)c(-c6c(F)cc(S(=O)(=O)[O-])cc6F)c6nc(c(-c7c(F)cc(S(=O)(=O)[O-])cc7F)c7ccc4[nH]7)C=C6)C=C5)cc3)cc2)C1
REMARK SMILES IDX 21 1 20 2 19 3 17 4 18 5 16 7 13 8 14 9 96 10 15 11 95 12
REMARK SMILES IDX 12 13 11 14 8 15 9 16 97 17 10 18 5 19 6 20 7 21 3 22 4 23
REMARK SMILES IDX 2 24 1 25 22 26 23 27 24 28 25 29 26 30 27 31 28 33 29 34
REMARK SMILES IDX 30 35 94 36 31 37 93 38 32 39 33 40 34 41 87 42 35 43 92 44
REMARK SMILES IDX 86 45 88 46 36 47 91 48 85 49 84 50 37 52 71 53 50 54 70 55
REMARK SMILES IDX 51 56 54 57 69 58 89 59 52 60 53 61 68 63 90 64 55 65 38 66
REMARK SMILES IDX 39 67 48 68 40 69 41 70 47 71 49 72 42 73 43 74 44 75 45 76
REMARK SMILES IDX 46 77 72 78 73 79 82 80 74 81 75 82 81 83 83 84 76 85 77 86
REMARK SMILES IDX 78 87 79 88 80 89 56 90 57 91 66 92 58 93 59 94 65 95 67 96
REMARK SMILES IDX 60 97 61 98 62 99 63 100 64 101
REMARK H PARENT 19 6 26 32 88 51 54 62
REMARK Flexibility Score: inf
ROOT
ATOM      1  C   UNL A   1      37.826  32.532  31.804  1.00  0.00     0.021 C 
ENDROOT
BRANCH   1   2
ATOM      2  C   UNL A   1      37.317  32.157  33.197  1.00  0.00     0.116 C 
BRANCH   2   3
ATOM      3  N   UNL A   1      36.925  30.762  33.209  1.00  0.00    -0.352 N 
ATOM      4  C   UNL A   1      37.653  29.603  33.232  1.00  0.00     0.251 C 
ATOM      5  O   UNL A   1      37.036  28.538  33.193  1.00  0.00    -0.269 OA
ATOM      6  H   UNL A   1      35.950  30.621  33.198  1.00  0.00     0.163 HD
BRANCH   4   7
ATOM      7  C   UNL A   1      39.133  29.580  33.385  1.00  0.00     0.039 A 
ATOM      8  C   UNL A   1      41.916  29.265  33.708  1.00  0.00    -0.048 A 
ATOM      9  C   UNL A   1      41.184  28.352  32.941  1.00  0.00     0.004 A 
ATOM     10  C   UNL A   1      41.257  30.371  34.254  1.00  0.00     0.004 A 
ATOM     11  C   UNL A   1      39.806  28.506  32.787  1.00  0.00     0.014 A 
ATOM     12  C   UNL A   1      39.882  30.544  34.064  1.00  0.00     0.014 A 
BRANCH   8  13
ATOM     13  C   UNL A   1      43.396  29.077  33.906  1.00  0.00     0.040 C 
BRANCH  13  14
ATOM     14  C   UNL A   1      43.800  28.660  35.326  1.00  0.00     0.010 C 
ATOM     15  N   UNL A   1      44.699  26.677  36.322  1.00  0.00    -0.189 NA
ATOM     16  C   UNL A   1      43.508  27.053  37.079  1.00  0.00     0.104 C 
ATOM     17  C   UNL A   1      44.972  27.669  35.274  1.00  0.00     0.107 C 
ATOM     18  C   UNL A   1      42.716  27.904  36.094  1.00  0.00     0.022 C 
BRANCH  15  19
ATOM     19  S   UNL A   1      45.221  25.110  36.136  1.00  0.00     0.281 S 
ATOM     20  O   UNL A   1      44.818  24.335  37.283  1.00  0.00    -0.195 OA
ATOM     21  O   UNL A   1      46.611  25.182  35.735  1.00  0.00    -0.195 OA
BRANCH  19  22
ATOM     22  N   UNL A   1      44.313  24.552  34.786  1.00  0.00    -0.192 NA
ATOM     23  C   UNL A   1      43.169  23.673  35.153  1.00  0.00     0.125 C 
BRANCH  22  24
ATOM     24  C   UNL A   1      45.149  23.854  33.751  1.00  0.00     0.100 C 
ATOM     25  C   UNL A   1      45.223  22.355  33.972  1.00  0.00     0.022 C 
ENDBRANCH  22  24
ENDBRANCH  19  22
ENDBRANCH  15  19
ENDBRANCH  13  14
ENDBRANCH   8  13
ENDBRANCH   4   7
ENDBRANCH   2   3
ENDBRANCH   1   2
BRANCH   1  26
ATOM     26  C   UNL A   1      36.754  32.373  30.719  1.00  0.00     0.002 C 
BRANCH  26  27
ATOM     27  C   UNL A   1      35.618  33.400  30.795  1.00  0.00     0.002 C 
BRANCH  27  28
ATOM     28  C   UNL A   1      34.379  33.041  29.971  1.00  0.00     0.021 C 
BRANCH  28  29
ATOM     29  C   UNL A   1      34.696  32.579  28.553  1.00  0.00     0.116 C 
BRANCH  29  30
ATOM     30  N   UNL A   1      34.027  31.325  28.245  1.00  0.00    -0.352 N 
ATOM     31  C   UNL A   1      34.576  30.099  27.968  1.00  0.00     0.251 C 
ATOM     32  H   UNL A   1      33.043  31.361  28.232  1.00  0.00     0.163 HD
ATOM     33  O   UNL A   1      33.888  29.216  27.465  1.00  0.00    -0.269 OA
BRANCH  31  34
ATOM     34  C   UNL A   1      36.000  29.854  28.276  1.00  0.00     0.039 A 
ATOM     35  C   UNL A   1      36.348  29.352  29.531  1.00  0.00     0.014 A 
ATOM     36  C   UNL A   1      36.989  30.127  27.326  1.00  0.00     0.014 A 
ATOM     37  C   UNL A   1      37.687  29.077  29.815  1.00  0.00     0.010 A 
ATOM     38  C   UNL A   1      38.311  29.778  27.583  1.00  0.00     0.010 A 
ATOM     39  C   UNL A   1      38.675  29.257  28.832  1.00  0.00    -0.014 A 
BRANCH  39  40
ATOM     40  C   UNL A   1      40.095  28.907  29.097  1.00  0.00     0.031 A 
ATOM     41  C   UNL A   1      41.027  29.931  29.690  1.00  0.00     0.074 A 
ATOM     42  C   UNL A   1      40.554  27.689  28.747  1.00  0.00     0.049 A 
ATOM     43  N   UNL A   1      42.308  29.835  29.932  1.00  0.00    -0.248 NA
ATOM     44  C   UNL A   1      40.451  31.242  30.033  1.00  0.00     0.031 C 
ATOM     45  C   UNL A   1      39.757  26.631  28.120  1.00  0.00     0.029 A 
ATOM     46  N   UNL A   1      41.806  27.135  28.857  1.00  0.00    -0.354 N 
ATOM     47  C   UNL A   1      42.694  31.071  30.439  1.00  0.00     0.074 A 
ATOM     48  C   UNL A   1      41.522  31.918  30.427  1.00  0.00     0.031 C 
ATOM     49  C   UNL A   1      40.532  25.552  27.923  1.00  0.00     0.029 A 
ATOM     50  C   UNL A   1      41.890  25.854  28.363  1.00  0.00     0.049 A 
ATOM     51  H   UNL A   1      42.572  27.610  29.254  1.00  0.00     0.167 HD
ATOM     52  C   UNL A   1      43.910  31.456  30.891  1.00  0.00     0.037 A 
ATOM     53  C   UNL A   1      42.946  25.021  28.263  1.00  0.00     0.037 A 
ATOM     54  C   UNL A   1      45.062  30.593  30.932  1.00  0.00     0.049 A 
ATOM     55  C   UNL A   1      44.288  25.482  28.771  1.00  0.00     0.074 A 
ATOM     56  C   UNL A   1      46.320  30.867  31.442  1.00  0.00     0.029 A 
ATOM     57  N   UNL A   1      45.102  29.296  30.444  1.00  0.00    -0.354 N 
ATOM     58  N   UNL A   1      44.612  26.627  29.322  1.00  0.00    -0.248 NA
ATOM     59  C   UNL A   1      45.405  24.536  28.651  1.00  0.00     0.031 C 
ATOM     60  C   UNL A   1      47.137  29.758  31.207  1.00  0.00     0.029 A 
ATOM     61  C   UNL A   1      46.372  28.768  30.612  1.00  0.00     0.049 A 
ATOM     62  H   UNL A   1      44.342  28.820  30.038  1.00  0.00     0.167 HD
ATOM     63  C   UNL A   1      45.961  26.523  29.647  1.00  0.00     0.074 A 
ATOM     64  C   UNL A   1      46.386  25.200  29.245  1.00  0.00     0.031 C 
ATOM     65  C   UNL A   1      46.775  27.440  30.226  1.00  0.00     0.037 A 
BRANCH  52  66
ATOM     66  C   UNL A   1      44.074  32.865  31.388  1.00  0.00     0.058 A 
ATOM     67  C   UNL A   1      44.327  33.933  30.513  1.00  0.00     0.135 A 
ATOM     68  C   UNL A   1      43.878  33.165  32.746  1.00  0.00     0.135 A 
ATOM     69  F   UNL A   1      44.542  33.703  29.209  1.00  0.00    -0.206 F 
ATOM     70  C   UNL A   1      44.381  35.247  30.967  1.00  0.00     0.059 A 
ATOM     71  C   UNL A   1      43.899  34.474  33.217  1.00  0.00     0.059 A 
ATOM     72  F   UNL A   1      43.638  32.181  33.628  1.00  0.00    -0.206 F 
ATOM     73  C   UNL A   1      44.153  35.509  32.319  1.00  0.00     0.060 A 
BRANCH  73  74
ATOM     74  S   UNL A   1      44.166  37.226  32.876  1.00  0.00     0.124 S 
ATOM     75  O   UNL A   1      45.544  37.374  33.336  1.00  0.00    -0.237 OA
ATOM     76  O   UNL A   1      43.824  37.950  31.657  1.00  0.00    -0.237 OA
ATOM     77  O   UNL A   1      43.150  37.252  33.924  1.00  0.00    -0.744 OA
ENDBRANCH  73  74
ENDBRANCH  52  66
BRANCH  53  78
ATOM     78  C   UNL A   1      42.789  23.671  27.655  1.00  0.00     0.058 A 
ATOM     79  C   UNL A   1      42.589  22.534  28.453  1.00  0.00     0.135 A 
ATOM     80  C   UNL A   1      42.876  23.483  26.266  1.00  0.00     0.135 A 
ATOM     81  F   UNL A   1      42.500  22.658  29.787  1.00  0.00    -0.206 F 
ATOM     82  C   UNL A   1      42.526  21.257  27.904  1.00  0.00     0.059 A 
ATOM     83  C   UNL A   1      42.783  22.220  25.690  1.00  0.00     0.059 A 
ATOM     84  F   UNL A   1      43.047  24.537  25.453  1.00  0.00    -0.206 F 
ATOM     85  C   UNL A   1      42.631  21.111  26.520  1.00  0.00     0.060 A 
BRANCH  85  86
ATOM     86  S   UNL A   1      42.553  19.450  25.815  1.00  0.00     0.124 S 
ATOM     87  O   UNL A   1      42.853  18.624  26.978  1.00  0.00    -0.237 OA
ATOM     88  O   UNL A   1      41.179  19.390  25.324  1.00  0.00    -0.237 OA
ATOM     89  O   UNL A   1      43.580  19.478  24.778  1.00  0.00    -0.744 OA
ENDBRANCH  85  86
ENDBRANCH  53  78
BRANCH  65  90
ATOM     90  C   UNL A   1      48.194  27.031  30.510  1.00  0.00     0.058 A 
ATOM     91  C   UNL A   1      49.255  27.391  29.666  1.00  0.00     0.135 A 
ATOM     92  C   UNL A   1      48.502  26.314  31.679  1.00  0.00     0.135 A 
ATOM     93  F   UNL A   1      49.016  28.071  28.532  1.00  0.00    -0.206 F 
ATOM     94  C   UNL A   1      50.568  27.031  29.954  1.00  0.00     0.059 A 
ATOM     95  C   UNL A   1      49.810  25.974  32.005  1.00  0.00     0.059 A 
ATOM     96  F   UNL A   1      47.527  25.954  32.529  1.00  0.00    -0.206 F 
ATOM     97  C   UNL A   1      50.835  26.326  31.129  1.00  0.00     0.060 A 
BRANCH  97  98
ATOM     98  S   UNL A   1      52.546  25.896  31.508  1.00  0.00     0.124 S 
ATOM     99  O   UNL A   1      52.387  24.605  32.169  1.00  0.00    -0.237 OA
ATOM    100  O   UNL A   1      53.158  25.859  30.183  1.00  0.00    -0.237 OA
ATOM    101  O   UNL A   1      52.990  26.990  32.366  1.00  0.00    -0.744 OA
ENDBRANCH  97  98
ENDBRANCH  65  90
ENDBRANCH  39  40
ENDBRANCH  31  34
ENDBRANCH  29  30
ENDBRANCH  28  29
ENDBRANCH  27  28
ENDBRANCH  26  27
ENDBRANCH   1  26
TORSDOF 21
ENDMDL
MODEL 3
REMARK VINA RESULT:     -10.8      1.626      2.409
REMARK SMILES CCN(C)S(=O)(=O)N1CC[C@H](Cc2ccc(C(=O)NCCCCCCNC(=O)c3ccc(-c4c5nc(c(-c6c(F)cc(S(=O)(=O)[O-])cc6F)c6ccc([nH]6)c(-c6c(F)cc(S(=O)(=O)[O-])cc6F)c6nc(c(-c7c(F)cc(S(=O)(=O)[O-])cc7F)c7ccc4[nH]7)C=C6)C=C5)cc3)cc2)C1
REMARK SMILES IDX 21 1 20 2 19 3 17 4 18 5 16 7 13 8 14 9 96 10 15 11 95 12
REMARK SMILES IDX 12 13 11 14 8 15 9 16 97 17 10 18 5 19 6 20 7 21 3 22 4 23
REMARK SMILES IDX 2 24 1 25 22 26 23 27 24 28 25 29 26 30 27 31 28 33 29 34
REMARK SMILES IDX 30 35 94 36 31 37 93 38 32 39 33 40 34 41 87 42 35 43 92 44
REMARK SMILES IDX 86 45 88 46 36 47 91 48 85 49 84 50 37 52 71 53 50 54 70 55
REMARK SMILES IDX 51 56 54 57 69 58 89 59 52 60 53 61 68 63 90 64 55 65 38 66
REMARK SMILES IDX 39 67 48 68 40 69 41 70 47 71 49 72 42 73 43 74 44 75 45 76
REMARK SMILES IDX 46 77 72 78 73 79 82 80 74 81 75 82 81 83 83 84 76 85 77 86
REMARK SMILES IDX 78 87 79 88 80 89 56 90 57 91 66 92 58 93 59 94 65 95 67 96
REMARK SMILES IDX 60 97 61 98 62 99 63 100 64 101
REMARK H PARENT 19 6 26 32 88 51 54 62
REMARK Flexibility Score: inf
ROOT
ATOM      1  C   UNL A   1      35.486  22.128  24.380  1.00  0.00     0.021 C 
ENDROOT
BRANCH   1   2
ATOM      2  C   UNL A   1      34.262  21.382  24.917  1.00  0.00     0.116 C 
BRANCH   2   3
ATOM      3  N   UNL A   1      33.427  20.965  23.809  1.00  0.00    -0.352 N 
ATOM      4  C   UNL A   1      32.370  21.564  23.177  1.00  0.00     0.251 C 
ATOM      5  O   UNL A   1      31.815  20.940  22.272  1.00  0.00    -0.269 OA
ATOM      6  H   UNL A   1      33.664  20.083  23.440  1.00  0.00     0.163 HD
BRANCH   4   7
ATOM      7  C   UNL A   1      31.929  22.952  23.479  1.00  0.00     0.039 A 
ATOM      8  C   UNL A   1      31.345  25.664  23.983  1.00  0.00    -0.048 A 
ATOM      9  C   UNL A   1      32.099  25.298  22.862  1.00  0.00     0.004 A 
ATOM     10  C   UNL A   1      30.830  24.660  24.810  1.00  0.00     0.004 A 
ATOM     11  C   UNL A   1      32.392  23.956  22.617  1.00  0.00     0.014 A 
ATOM     12  C   UNL A   1      31.093  23.313  24.538  1.00  0.00     0.014 A 
BRANCH   8  13
ATOM     13  C   UNL A   1      31.062  27.115  24.268  1.00  0.00     0.040 C 
BRANCH  13  14
ATOM     14  C   UNL A   1      30.253  27.831  23.178  1.00  0.00     0.010 C 
ATOM     15  N   UNL A   1      29.094  29.920  23.022  1.00  0.00    -0.189 NA
ATOM     16  C   UNL A   1      28.167  28.867  22.616  1.00  0.00     0.104 C 
ATOM     17  C   UNL A   1      30.418  29.353  23.311  1.00  0.00     0.107 C 
ATOM     18  C   UNL A   1      28.742  27.617  23.272  1.00  0.00     0.022 C 
BRANCH  15  19
ATOM     19  S   UNL A   1      28.623  31.338  23.752  1.00  0.00     0.281 S 
ATOM     20  O   UNL A   1      29.462  31.584  24.899  1.00  0.00    -0.195 OA
ATOM     21  O   UNL A   1      27.182  31.279  23.879  1.00  0.00    -0.195 OA
BRANCH  19  22
ATOM     22  N   UNL A   1      28.998  32.530  22.569  1.00  0.00    -0.192 NA
ATOM     23  C   UNL A   1      29.363  33.853  23.144  1.00  0.00     0.125 C 
BRANCH  22  24
ATOM     24  C   UNL A   1      27.908  32.726  21.553  1.00  0.00     0.100 C 
ATOM     25  C   UNL A   1      28.092  31.857  20.322  1.00  0.00     0.022 C 
ENDBRANCH  22  24
ENDBRANCH  19  22
ENDBRANCH  15  19
ENDBRANCH  13  14
ENDBRANCH   8  13
ENDBRANCH   4   7
ENDBRANCH   2   3
ENDBRANCH   1   2
BRANCH   1  26
ATOM     26  C   UNL A   1      35.416  23.640  24.632  1.00  0.00     0.002 C 
BRANCH  26  27
ATOM     27  C   UNL A   1      36.375  24.145  25.716  1.00  0.00     0.002 C 
BRANCH  27  28
ATOM     28  C   UNL A   1      37.722  23.420  25.761  1.00  0.00     0.021 C 
BRANCH  28  29
ATOM     29  C   UNL A   1      38.706  24.011  26.766  1.00  0.00     0.116 C 
BRANCH  29  30
ATOM     30  N   UNL A   1      40.016  24.209  26.168  1.00  0.00    -0.352 N 
ATOM     31  C   UNL A   1      40.889  25.256  26.329  1.00  0.00     0.251 C 
ATOM     32  H   UNL A   1      40.320  23.494  25.563  1.00  0.00     0.163 HD
ATOM     33  O   UNL A   1      41.825  25.401  25.549  1.00  0.00    -0.269 OA
BRANCH  31  34
ATOM     34  C   UNL A   1      40.689  26.205  27.442  1.00  0.00     0.039 A 
ATOM     35  C   UNL A   1      39.782  25.885  28.454  1.00  0.00     0.014 A 
ATOM     36  C   UNL A   1      41.391  27.414  27.480  1.00  0.00     0.014 A 
ATOM     37  C   UNL A   1      39.617  26.758  29.532  1.00  0.00     0.010 A 
ATOM     38  C   UNL A   1      41.285  28.242  28.593  1.00  0.00     0.010 A 
ATOM     39  C   UNL A   1      40.391  27.927  29.627  1.00  0.00    -0.014 A 
BRANCH  39  40
ATOM     40  C   UNL A   1      40.276  28.831  30.800  1.00  0.00     0.031 A 
ATOM     41  C   UNL A   1      39.241  29.925  30.811  1.00  0.00     0.074 A 
ATOM     42  C   UNL A   1      41.143  28.703  31.824  1.00  0.00     0.049 A 
ATOM     43  N   UNL A   1      39.030  30.849  31.711  1.00  0.00    -0.248 NA
ATOM     44  C   UNL A   1      38.339  30.007  29.649  1.00  0.00     0.031 C 
ATOM     45  C   UNL A   1      42.220  27.713  31.904  1.00  0.00     0.029 A 
ATOM     46  N   UNL A   1      41.266  29.415  32.992  1.00  0.00    -0.354 N 
ATOM     47  C   UNL A   1      37.989  31.629  31.220  1.00  0.00     0.074 A 
ATOM     48  C   UNL A   1      37.639  31.099  29.921  1.00  0.00     0.031 C 
ATOM     49  C   UNL A   1      42.877  27.866  33.065  1.00  0.00     0.029 A 
ATOM     50  C   UNL A   1      42.302  28.992  33.792  1.00  0.00     0.049 A 
ATOM     51  H   UNL A   1      40.667  30.158  33.234  1.00  0.00     0.167 HD
ATOM     52  C   UNL A   1      37.368  32.678  31.809  1.00  0.00     0.037 A 
ATOM     53  C   UNL A   1      42.748  29.469  34.972  1.00  0.00     0.037 A 
ATOM     54  C   UNL A   1      37.701  33.175  33.119  1.00  0.00     0.049 A 
ATOM     55  C   UNL A   1      42.039  30.641  35.600  1.00  0.00     0.074 A 
ATOM     56  C   UNL A   1      37.081  34.187  33.834  1.00  0.00     0.029 A 
ATOM     57  N   UNL A   1      38.740  32.708  33.907  1.00  0.00    -0.354 N 
ATOM     58  N   UNL A   1      41.003  31.312  35.156  1.00  0.00    -0.248 NA
ATOM     59  C   UNL A   1      42.553  31.116  36.891  1.00  0.00     0.031 C 
ATOM     60  C   UNL A   1      37.783  34.370  35.028  1.00  0.00     0.029 A 
ATOM     61  C   UNL A   1      38.799  33.430  35.087  1.00  0.00     0.049 A 
ATOM     62  H   UNL A   1      39.348  31.972  33.665  1.00  0.00     0.167 HD
ATOM     63  C   UNL A   1      40.721  32.264  36.131  1.00  0.00     0.074 A 
ATOM     64  C   UNL A   1      41.684  32.071  37.193  1.00  0.00     0.031 C 
ATOM     65  C   UNL A   1      39.752  33.212  36.147  1.00  0.00     0.037 A 
BRANCH  52  66
ATOM     66  C   UNL A   1      36.261  33.366  31.060  1.00  0.00     0.058 A 
ATOM     67  C   UNL A   1      34.931  33.331  31.509  1.00  0.00     0.135 A 
ATOM     68  C   UNL A   1      36.550  34.152  29.933  1.00  0.00     0.135 A 
ATOM     69  F   UNL A   1      34.595  32.580  32.569  1.00  0.00    -0.206 F 
ATOM     70  C   UNL A   1      33.928  34.050  30.866  1.00  0.00     0.059 A 
ATOM     71  C   UNL A   1      35.569  34.902  29.292  1.00  0.00     0.059 A 
ATOM     72  F   UNL A   1      37.804  34.217  29.458  1.00  0.00    -0.206 F 
ATOM     73  C   UNL A   1      34.259  34.843  29.766  1.00  0.00     0.060 A 
BRANCH  73  74
ATOM     74  S   UNL A   1      32.955  35.816  28.984  1.00  0.00     0.124 S 
ATOM     75  O   UNL A   1      32.373  34.842  28.066  1.00  0.00    -0.237 OA
ATOM     76  O   UNL A   1      32.123  36.190  30.123  1.00  0.00    -0.237 OA
ATOM     77  O   UNL A   1      33.682  36.914  28.354  1.00  0.00    -0.744 OA
ENDBRANCH  73  74
ENDBRANCH  52  66
BRANCH  53  78
ATOM     78  C   UNL A   1      43.924  28.849  35.642  1.00  0.00     0.058 A 
ATOM     79  C   UNL A   1      45.231  29.266  35.347  1.00  0.00     0.135 A 
ATOM     80  C   UNL A   1      43.769  27.799  36.561  1.00  0.00     0.135 A 
ATOM     81  F   UNL A   1      45.436  30.264  34.473  1.00  0.00    -0.206 F 
ATOM     82  C   UNL A   1      46.342  28.637  35.902  1.00  0.00     0.059 A 
ATOM     83  C   UNL A   1      44.863  27.177  37.155  1.00  0.00     0.059 A 
ATOM     84  F   UNL A   1      42.541  27.373  36.897  1.00  0.00    -0.206 F 
ATOM     85  C   UNL A   1      46.146  27.588  36.801  1.00  0.00     0.060 A 
BRANCH  85  86
ATOM     86  S   UNL A   1      47.592  26.775  37.513  1.00  0.00     0.124 S 
ATOM     87  O   UNL A   1      47.031  25.497  37.936  1.00  0.00    -0.237 OA
ATOM     88  O   UNL A   1      48.508  26.727  36.376  1.00  0.00    -0.237 OA
ATOM     89  O   UNL A   1      47.988  27.679  38.589  1.00  0.00    -0.744 OA
ENDBRANCH  85  86
ENDBRANCH  53  78
BRANCH  65  90
ATOM     90  C   UNL A   1      39.647  34.081  37.369  1.00  0.00     0.058 A 
ATOM     91  C   UNL A   1      38.971  33.663  38.525  1.00  0.00     0.135 A 
ATOM     92  C   UNL A   1      40.285  35.333  37.401  1.00  0.00     0.135 A 
ATOM     93  F   UNL A   1      38.339  32.478  38.546  1.00  0.00    -0.206 F 
ATOM     94  C   UNL A   1      38.905  34.465  39.659  1.00  0.00     0.059 A 
ATOM     95  C   UNL A   1      40.262  36.136  38.536  1.00  0.00     0.059 A 
ATOM     96  F   UNL A   1      40.957  35.778  36.328  1.00  0.00    -0.206 F 
ATOM     97  C   UNL A   1      39.559  35.699  39.656  1.00  0.00     0.060 A 
BRANCH  97  98
ATOM     98  S   UNL A   1      39.495  36.713  41.148  1.00  0.00     0.124 S 
ATOM     99  O   UNL A   1      40.914  36.897  41.440  1.00  0.00    -0.237 OA
ATOM    100  O   UNL A   1      38.784  37.901  40.686  1.00  0.00    -0.237 OA
ATOM    101  O   UNL A   1      38.763  35.880  42.096  1.00  0.00    -0.744 OA
ENDBRANCH  97  98
ENDBRANCH  65  90
ENDBRANCH  39  40
ENDBRANCH  31  34
ENDBRANCH  29  30
ENDBRANCH  28  29
ENDBRANCH  27  28
ENDBRANCH  26  27
ENDBRANCH   1  26
TORSDOF 21
ENDMDL
