MODEL 1
REMARK VINA RESULT:     -13.8      0.000      0.000
REMARK SMILES Cc1c(NC(=O)[C@@H]2CC=CC[C@@H]2C(=O)NCCCCCCNC(=O)c2ccc(-c3c4nc(c(-c5c(F)cc(S(=O)(=O)[O-])cc5F)c5ccc([nH]5)c(-c5c(F)cc(S(=O)(=O)[O-])cc5F)c5nc(c(-c6c(F)cc(S(=O)(=O)[O-])cc6F)c6ccc3[nH]6)C=C5)C=C4)cc2)cccc1C(=O)N1CCOCC1
REMARK SMILES IDX 18 1 17 2 16 3 15 4 13 5 14 6 12 8 7 9 8 10 9 11 11 12 10 13
REMARK SMILES IDX 5 14 4 15 6 17 3 18 1 19 2 20 94 21 91 22 93 23 92 24 95 25
REMARK SMILES IDX 96 26 97 27 98 28 102 29 99 30 101 31 100 32 19 33 20 34
REMARK SMILES IDX 21 35 22 36 23 37 24 39 25 40 26 41 90 42 27 43 89 44 28 45
REMARK SMILES IDX 29 46 30 47 83 48 31 49 88 50 82 51 84 52 32 53 87 54 81 55
REMARK SMILES IDX 80 56 33 58 67 59 46 60 66 61 47 62 50 63 65 64 85 65 48 66
REMARK SMILES IDX 49 67 64 69 86 70 51 71 34 72 35 73 44 74 36 75 37 76 43 77
REMARK SMILES IDX 45 78 38 79 39 80 40 81 41 82 42 83 68 84 69 85 78 86 70 87
REMARK SMILES IDX 71 88 77 89 79 90 72 91 73 92 74 93 75 94 76 95 52 96 53 97
REMARK SMILES IDX 62 98 54 99 55 100 61 101 63 102 56 103 57 104 58 105 59 106
REMARK SMILES IDX 60 107
REMARK H PARENT 15 7 4 16 22 38 84 57 50 68
REMARK Flexibility Score: inf
ROOT
ATOM      1  C   UNL A   1      35.410  23.409  26.459  1.00  0.00     0.002 C 
ENDROOT
BRANCH   1   2
ATOM      2  C   UNL A   1      33.903  23.562  26.694  1.00  0.00     0.021 C 
BRANCH   2   3
ATOM      3  C   UNL A   1      33.294  24.885  26.227  1.00  0.00     0.116 C 
BRANCH   3   4
ATOM      4  N   UNL A   1      31.864  24.941  26.445  1.00  0.00    -0.356 N 
ATOM      5  C   UNL A   1      30.889  25.870  26.329  1.00  0.00     0.224 C 
ATOM      6  O   UNL A   1      29.748  25.404  26.501  1.00  0.00    -0.275 OA
ATOM      7  H   UNL A   1      31.508  24.079  26.761  1.00  0.00     0.163 HD
BRANCH   5   8
ATOM      8  C   UNL A   1      31.013  27.362  25.938  1.00  0.00     0.095 C 
ATOM      9  C   UNL A   1      31.932  27.872  24.801  1.00  0.00     0.095 C 
ATOM     10  C   UNL A   1      33.390  27.487  25.096  1.00  0.00     0.041 C 
ATOM     11  C   UNL A   1      33.786  27.874  26.496  1.00  0.00    -0.030 C 
ATOM     12  C   UNL A   1      31.406  28.154  27.220  1.00  0.00     0.041 C 
ATOM     13  C   UNL A   1      32.895  28.202  27.443  1.00  0.00    -0.030 C 
BRANCH   9  14
ATOM     14  C   UNL A   1      31.335  27.552  23.438  1.00  0.00     0.228 C 
ATOM     15  N   UNL A   1      31.502  26.382  22.775  1.00  0.00    -0.326 N 
ATOM     16  H   UNL A   1      30.838  26.274  22.056  1.00  0.00     0.169 HD
ATOM     17  O   UNL A   1      30.617  28.376  22.856  1.00  0.00    -0.274 OA
BRANCH  15  18
ATOM     18  C   UNL A   1      32.374  25.282  22.846  1.00  0.00     0.044 A 
ATOM     19  C   UNL A   1      30.301  23.847  23.004  1.00  0.00     0.047 C 
ATOM     20  C   UNL A   1      31.792  23.983  22.809  1.00  0.00    -0.015 A 
ATOM     21  C   UNL A   1      32.629  22.850  22.677  1.00  0.00     0.045 A 
ATOM     22  C   UNL A   1      33.763  25.419  22.863  1.00  0.00     0.026 A 
ATOM     23  C   UNL A   1      34.022  23.022  22.720  1.00  0.00     0.014 A 
ATOM     24  C   UNL A   1      34.583  24.292  22.833  1.00  0.00     0.003 A 
BRANCH  21  25
ATOM     25  C   UNL A   1      32.152  21.433  22.681  1.00  0.00     0.254 C 
ATOM     26  O   UNL A   1      31.692  20.994  21.627  1.00  0.00    -0.269 OA
ATOM     27  N   UNL A   1      32.263  20.629  23.810  1.00  0.00    -0.334 N 
ATOM     28  C   UNL A   1      32.146  21.062  25.205  1.00  0.00     0.148 C 
ATOM     29  C   UNL A   1      32.167  19.179  23.624  1.00  0.00     0.148 C 
ATOM     30  C   UNL A   1      33.047  20.226  26.133  1.00  0.00     0.181 C 
ATOM     31  C   UNL A   1      33.136  18.461  24.566  1.00  0.00     0.181 C 
ATOM     32  O   UNL A   1      32.864  18.816  25.933  1.00  0.00    -0.378 OA
ENDBRANCH  21  25
ENDBRANCH  15  18
ENDBRANCH   9  14
ENDBRANCH   5   8
ENDBRANCH   3   4
ENDBRANCH   2   3
ENDBRANCH   1   2
BRANCH   1  33
ATOM     33  C   UNL A   1      35.857  22.207  25.611  1.00  0.00     0.002 C 
BRANCH  33  34
ATOM     34  C   UNL A   1      37.275  22.267  25.039  1.00  0.00     0.021 C 
BRANCH  34  35
ATOM     35  C   UNL A   1      38.152  23.354  25.644  1.00  0.00     0.116 C 
BRANCH  35  36
ATOM     36  N   UNL A   1      39.160  22.855  26.561  1.00  0.00    -0.352 N 
ATOM     37  C   UNL A   1      40.097  23.568  27.289  1.00  0.00     0.251 C 
ATOM     38  H   UNL A   1      39.180  21.878  26.681  1.00  0.00     0.163 HD
ATOM     39  O   UNL A   1      41.060  22.999  27.777  1.00  0.00    -0.269 OA
BRANCH  37  40
ATOM     40  C   UNL A   1      39.859  25.010  27.541  1.00  0.00     0.039 A 
ATOM     41  C   UNL A   1      40.401  25.931  26.634  1.00  0.00     0.014 A 
ATOM     42  C   UNL A   1      39.278  25.454  28.724  1.00  0.00     0.014 A 
ATOM     43  C   UNL A   1      40.520  27.277  26.991  1.00  0.00     0.010 A 
ATOM     44  C   UNL A   1      39.469  26.765  29.111  1.00  0.00     0.010 A 
ATOM     45  C   UNL A   1      40.122  27.675  28.263  1.00  0.00    -0.014 A 
BRANCH  45  46
ATOM     46  C   UNL A   1      40.357  28.987  28.863  1.00  0.00     0.031 A 
ATOM     47  C   UNL A   1      39.283  30.013  28.850  1.00  0.00     0.074 A 
ATOM     48  C   UNL A   1      41.454  29.196  29.623  1.00  0.00     0.049 A 
ATOM     49  N   UNL A   1      39.388  31.202  29.341  1.00  0.00    -0.248 NA
ATOM     50  C   UNL A   1      37.999  29.783  28.197  1.00  0.00     0.031 C 
ATOM     51  C   UNL A   1      41.586  30.154  30.717  1.00  0.00     0.029 A 
ATOM     52  N   UNL A   1      42.742  28.712  29.446  1.00  0.00    -0.354 N 
ATOM     53  C   UNL A   1      38.149  31.802  29.304  1.00  0.00     0.074 A 
ATOM     54  C   UNL A   1      37.349  30.912  28.498  1.00  0.00     0.031 C 
ATOM     55  C   UNL A   1      42.885  30.347  30.982  1.00  0.00     0.029 A 
ATOM     56  C   UNL A   1      43.642  29.670  29.945  1.00  0.00     0.049 A 
ATOM     57  H   UNL A   1      42.984  27.848  29.039  1.00  0.00     0.167 HD
ATOM     58  C   UNL A   1      37.943  32.934  30.043  1.00  0.00     0.037 A 
ATOM     59  C   UNL A   1      44.542  30.295  29.122  1.00  0.00     0.037 A 
ATOM     60  C   UNL A   1      39.215  33.464  30.544  1.00  0.00     0.049 A 
ATOM     61  C   UNL A   1      44.356  31.793  28.977  1.00  0.00     0.074 A 
ATOM     62  C   UNL A   1      39.885  33.437  31.756  1.00  0.00     0.029 A 
ATOM     63  N   UNL A   1      40.110  33.978  29.625  1.00  0.00    -0.354 N 
ATOM     64  N   UNL A   1      43.422  32.485  29.568  1.00  0.00    -0.248 NA
ATOM     65  C   UNL A   1      45.165  32.619  28.074  1.00  0.00     0.031 C 
ATOM     66  C   UNL A   1      41.216  33.901  31.533  1.00  0.00     0.029 A 
ATOM     67  C   UNL A   1      41.345  34.217  30.193  1.00  0.00     0.049 A 
ATOM     68  H   UNL A   1      39.893  34.152  28.680  1.00  0.00     0.167 HD
ATOM     69  C   UNL A   1      43.411  33.755  29.058  1.00  0.00     0.074 A 
ATOM     70  C   UNL A   1      44.551  33.812  28.166  1.00  0.00     0.031 C 
ATOM     71  C   UNL A   1      42.428  34.655  29.334  1.00  0.00     0.037 A 
BRANCH  58  72
ATOM     72  C   UNL A   1      36.602  33.527  30.457  1.00  0.00     0.058 A 
ATOM     73  C   UNL A   1      35.706  34.009  29.471  1.00  0.00     0.135 A 
ATOM     74  C   UNL A   1      36.160  33.746  31.779  1.00  0.00     0.135 A 
ATOM     75  F   UNL A   1      35.947  33.841  28.162  1.00  0.00    -0.206 F 
ATOM     76  C   UNL A   1      34.530  34.707  29.770  1.00  0.00     0.059 A 
ATOM     77  C   UNL A   1      34.992  34.439  32.103  1.00  0.00     0.059 A 
ATOM     78  F   UNL A   1      36.826  33.305  32.845  1.00  0.00    -0.206 F 
ATOM     79  C   UNL A   1      34.193  34.941  31.094  1.00  0.00     0.060 A 
BRANCH  79  80
ATOM     80  S   UNL A   1      32.727  35.910  31.482  1.00  0.00     0.124 S 
ATOM     81  O   UNL A   1      32.128  36.089  30.164  1.00  0.00    -0.237 OA
ATOM     82  O   UNL A   1      32.006  35.030  32.396  1.00  0.00    -0.237 OA
ATOM     83  O   UNL A   1      33.271  37.123  32.088  1.00  0.00    -0.744 OA
ENDBRANCH  79  80
ENDBRANCH  58  72
BRANCH  59  84
ATOM     84  C   UNL A   1      45.037  29.399  28.043  1.00  0.00     0.058 A 
ATOM     85  C   UNL A   1      45.983  28.420  28.404  1.00  0.00     0.135 A 
ATOM     86  C   UNL A   1      44.263  29.179  26.895  1.00  0.00     0.135 A 
ATOM     87  F   UNL A   1      46.762  28.602  29.483  1.00  0.00    -0.206 F 
ATOM     88  C   UNL A   1      46.009  27.183  27.777  1.00  0.00     0.059 A 
ATOM     89  C   UNL A   1      44.285  27.949  26.244  1.00  0.00     0.059 A 
ATOM     90  F   UNL A   1      43.361  30.090  26.502  1.00  0.00    -0.206 F 
ATOM     91  C   UNL A   1      45.098  26.935  26.752  1.00  0.00     0.060 A 
BRANCH  91  92
ATOM     92  S   UNL A   1      44.827  25.213  26.273  1.00  0.00     0.124 S 
ATOM     93  O   UNL A   1      46.161  24.800  25.853  1.00  0.00    -0.237 OA
ATOM     94  O   UNL A   1      44.350  24.641  27.529  1.00  0.00    -0.237 OA
ATOM     95  O   UNL A   1      43.830  25.313  25.212  1.00  0.00    -0.744 OA
ENDBRANCH  91  92
ENDBRANCH  59  84
BRANCH  71  96
ATOM     96  C   UNL A   1      42.416  36.032  28.755  1.00  0.00     0.058 A 
ATOM     97  C   UNL A   1      41.847  36.293  27.500  1.00  0.00     0.135 A 
ATOM     98  C   UNL A   1      43.096  37.095  29.380  1.00  0.00     0.135 A 
ATOM     99  F   UNL A   1      41.185  35.328  26.840  1.00  0.00    -0.206 F 
ATOM    100  C   UNL A   1      41.956  37.541  26.890  1.00  0.00     0.059 A 
ATOM    101  C   UNL A   1      43.249  38.338  28.775  1.00  0.00     0.059 A 
ATOM    102  F   UNL A   1      43.619  36.949  30.609  1.00  0.00    -0.206 F 
ATOM    103  C   UNL A   1      42.668  38.555  27.530  1.00  0.00     0.060 A 
BRANCH 103 104
ATOM    104  S   UNL A   1      42.870  40.152  26.715  1.00  0.00     0.124 S 
ATOM    105  O   UNL A   1      41.619  40.302  25.979  1.00  0.00    -0.237 OA
ATOM    106  O   UNL A   1      43.038  41.043  27.859  1.00  0.00    -0.237 OA
ATOM    107  O   UNL A   1      44.058  39.957  25.888  1.00  0.00    -0.744 OA
ENDBRANCH 103 104
ENDBRANCH  71  96
ENDBRANCH  45  46
ENDBRANCH  37  40
ENDBRANCH  35  36
ENDBRANCH  34  35
ENDBRANCH  33  34
ENDBRANCH   1  33
TORSDOF 19
ENDMDL
MODEL 2
REMARK VINA RESULT:     -13.8      1.145      3.616
REMARK SMILES Cc1c(NC(=O)[C@@H]2CC=CC[C@@H]2C(=O)NCCCCCCNC(=O)c2ccc(-c3c4nc(c(-c5c(F)cc(S(=O)(=O)[O-])cc5F)c5ccc([nH]5)c(-c5c(F)cc(S(=O)(=O)[O-])cc5F)c5nc(c(-c6c(F)cc(S(=O)(=O)[O-])cc6F)c6ccc3[nH]6)C=C5)C=C4)cc2)cccc1C(=O)N1CCOCC1
REMARK SMILES IDX 18 1 17 2 16 3 15 4 13 5 14 6 12 8 7 9 8 10 9 11 11 12 10 13
REMARK SMILES IDX 5 14 4 15 6 17 3 18 1 19 2 20 94 21 91 22 93 23 92 24 95 25
REMARK SMILES IDX 96 26 97 27 98 28 102 29 99 30 101 31 100 32 19 33 20 34
REMARK SMILES IDX 21 35 22 36 23 37 24 39 25 40 26 41 90 42 27 43 89 44 28 45
REMARK SMILES IDX 29 46 30 47 83 48 31 49 88 50 82 51 84 52 32 53 87 54 81 55
REMARK SMILES IDX 80 56 33 58 67 59 46 60 66 61 47 62 50 63 65 64 85 65 48 66
REMARK SMILES IDX 49 67 64 69 86 70 51 71 34 72 35 73 44 74 36 75 37 76 43 77
REMARK SMILES IDX 45 78 38 79 39 80 40 81 41 82 42 83 68 84 69 85 78 86 70 87
REMARK SMILES IDX 71 88 77 89 79 90 72 91 73 92 74 93 75 94 76 95 52 96 53 97
REMARK SMILES IDX 62 98 54 99 55 100 61 101 63 102 56 103 57 104 58 105 59 106
REMARK SMILES IDX 60 107
REMARK H PARENT 15 7 4 16 22 38 84 57 50 68
REMARK Flexibility Score: inf
ROOT
ATOM      1  C   UNL A   1      35.563  23.481  23.297  1.00  0.00     0.002 C 
ENDROOT
BRANCH   1   2
ATOM      2  C   UNL A   1      34.396  22.857  22.524  1.00  0.00     0.021 C 
BRANCH   2   3
ATOM      3  C   UNL A   1      33.170  22.494  23.364  1.00  0.00     0.116 C 
BRANCH   3   4
ATOM      4  N   UNL A   1      33.386  21.313  24.174  1.00  0.00    -0.356 N 
ATOM      5  C   UNL A   1      33.206  20.962  25.466  1.00  0.00     0.224 C 
ATOM      6  O   UNL A   1      33.413  19.754  25.677  1.00  0.00    -0.275 OA
ATOM      7  H   UNL A   1      33.763  20.572  23.646  1.00  0.00     0.163 HD
BRANCH   5   8
ATOM      8  C   UNL A   1      32.709  21.832  26.646  1.00  0.00     0.095 C 
ATOM      9  C   UNL A   1      32.105  23.246  26.467  1.00  0.00     0.095 C 
ATOM     10  C   UNL A   1      33.127  24.169  25.787  1.00  0.00     0.041 C 
ATOM     11  C   UNL A   1      34.467  24.099  26.470  1.00  0.00    -0.030 C 
ATOM     12  C   UNL A   1      33.886  21.973  27.656  1.00  0.00     0.041 C 
ATOM     13  C   UNL A   1      34.798  23.127  27.333  1.00  0.00    -0.030 C 
BRANCH   9  14
ATOM     14  C   UNL A   1      30.688  23.164  25.915  1.00  0.00     0.228 C 
ATOM     15  N   UNL A   1      30.250  23.812  24.809  1.00  0.00    -0.326 N 
ATOM     16  H   UNL A   1      29.405  23.430  24.475  1.00  0.00     0.169 HD
ATOM     17  O   UNL A   1      29.839  22.449  26.465  1.00  0.00    -0.274 OA
BRANCH  15  18
ATOM     18  C   UNL A   1      30.685  24.885  24.012  1.00  0.00     0.044 A 
ATOM     19  C   UNL A   1      30.012  26.381  25.933  1.00  0.00     0.047 C 
ATOM     20  C   UNL A   1      30.716  26.175  24.614  1.00  0.00    -0.015 A 
ATOM     21  C   UNL A   1      31.330  27.247  23.925  1.00  0.00     0.045 A 
ATOM     22  C   UNL A   1      31.156  24.715  22.710  1.00  0.00     0.026 A 
ATOM     23  C   UNL A   1      31.773  27.048  22.607  1.00  0.00     0.014 A 
ATOM     24  C   UNL A   1      31.669  25.799  21.999  1.00  0.00     0.003 A 
BRANCH  21  25
ATOM     25  C   UNL A   1      31.382  28.658  24.418  1.00  0.00     0.254 C 
ATOM     26  O   UNL A   1      30.457  29.400  24.089  1.00  0.00    -0.269 OA
ATOM     27  N   UNL A   1      32.405  29.104  25.247  1.00  0.00    -0.334 N 
ATOM     28  C   UNL A   1      33.805  28.671  25.218  1.00  0.00     0.148 C 
ATOM     29  C   UNL A   1      32.176  30.335  26.007  1.00  0.00     0.148 C 
ATOM     30  C   UNL A   1      34.433  28.695  26.623  1.00  0.00     0.181 C 
ATOM     31  C   UNL A   1      32.807  30.224  27.396  1.00  0.00     0.181 C 
ATOM     32  O   UNL A   1      34.215  29.948  27.288  1.00  0.00    -0.378 OA
ENDBRANCH  21  25
ENDBRANCH  15  18
ENDBRANCH   9  14
ENDBRANCH   5   8
ENDBRANCH   3   4
ENDBRANCH   2   3
ENDBRANCH   1   2
BRANCH   1  33
ATOM     33  C   UNL A   1      36.844  22.637  23.410  1.00  0.00     0.002 C 
BRANCH  33  34
ATOM     34  C   UNL A   1      37.223  22.159  24.814  1.00  0.00     0.021 C 
BRANCH  34  35
ATOM     35  C   UNL A   1      37.894  23.218  25.678  1.00  0.00     0.116 C 
BRANCH  35  36
ATOM     36  N   UNL A   1      38.952  22.702  26.526  1.00  0.00    -0.352 N 
ATOM     37  C   UNL A   1      39.955  23.398  27.179  1.00  0.00     0.251 C 
ATOM     38  H   UNL A   1      38.957  21.726  26.655  1.00  0.00     0.163 HD
ATOM     39  O   UNL A   1      40.937  22.810  27.604  1.00  0.00    -0.269 OA
BRANCH  37  40
ATOM     40  C   UNL A   1      39.771  24.848  27.431  1.00  0.00     0.039 A 
ATOM     41  C   UNL A   1      40.360  25.750  26.535  1.00  0.00     0.014 A 
ATOM     42  C   UNL A   1      39.191  25.311  28.609  1.00  0.00     0.014 A 
ATOM     43  C   UNL A   1      40.527  27.089  26.898  1.00  0.00     0.010 A 
ATOM     44  C   UNL A   1      39.427  26.613  29.002  1.00  0.00     0.010 A 
ATOM     45  C   UNL A   1      40.127  27.499  28.166  1.00  0.00    -0.014 A 
BRANCH  45  46
ATOM     46  C   UNL A   1      40.405  28.799  28.773  1.00  0.00     0.031 A 
ATOM     47  C   UNL A   1      39.365  29.860  28.764  1.00  0.00     0.074 A 
ATOM     48  C   UNL A   1      41.507  28.967  29.535  1.00  0.00     0.049 A 
ATOM     49  N   UNL A   1      39.510  31.042  29.262  1.00  0.00    -0.248 NA
ATOM     50  C   UNL A   1      38.076  29.677  28.109  1.00  0.00     0.031 C 
ATOM     51  C   UNL A   1      41.670  29.915  30.635  1.00  0.00     0.029 A 
ATOM     52  N   UNL A   1      42.779  28.443  29.356  1.00  0.00    -0.354 N 
ATOM     53  C   UNL A   1      38.291  31.684  29.227  1.00  0.00     0.074 A 
ATOM     54  C   UNL A   1      37.463  30.825  28.415  1.00  0.00     0.031 C 
ATOM     55  C   UNL A   1      42.974  30.063  30.901  1.00  0.00     0.029 A 
ATOM     56  C   UNL A   1      43.709  29.367  29.862  1.00  0.00     0.049 A 
ATOM     57  H   UNL A   1      42.992  27.573  28.946  1.00  0.00     0.167 HD
ATOM     58  C   UNL A   1      38.122  32.817  29.971  1.00  0.00     0.037 A 
ATOM     59  C   UNL A   1      44.631  29.967  29.043  1.00  0.00     0.037 A 
ATOM     60  C   UNL A   1      39.411  33.302  30.477  1.00  0.00     0.049 A 
ATOM     61  C   UNL A   1      44.495  31.471  28.906  1.00  0.00     0.074 A 
ATOM     62  C   UNL A   1      40.078  33.247  31.689  1.00  0.00     0.029 A 
ATOM     63  N   UNL A   1      40.323  33.792  29.561  1.00  0.00    -0.354 N 
ATOM     64  N   UNL A   1      43.584  32.190  29.500  1.00  0.00    -0.248 NA
ATOM     65  C   UNL A   1      45.332  32.274  28.008  1.00  0.00     0.031 C 
ATOM     66  C   UNL A   1      41.424  33.668  31.470  1.00  0.00     0.029 A 
ATOM     67  C   UNL A   1      41.564  33.987  30.132  1.00  0.00     0.049 A 
ATOM     68  H   UNL A   1      40.112  33.977  28.617  1.00  0.00     0.167 HD
ATOM     69  C   UNL A   1      43.615  33.462  28.997  1.00  0.00     0.074 A 
ATOM     70  C   UNL A   1      44.758  33.486  28.106  1.00  0.00     0.031 C 
ATOM     71  C   UNL A   1      42.663  34.393  29.276  1.00  0.00     0.037 A 
BRANCH  58  72
ATOM     72  C   UNL A   1      36.801  33.453  30.388  1.00  0.00     0.058 A 
ATOM     73  C   UNL A   1      35.894  33.910  29.400  1.00  0.00     0.135 A 
ATOM     74  C   UNL A   1      36.391  33.735  31.708  1.00  0.00     0.135 A 
ATOM     75  F   UNL A   1      36.104  33.684  28.095  1.00  0.00    -0.206 F 
ATOM     76  C   UNL A   1      34.736  34.642  29.694  1.00  0.00     0.059 A 
ATOM     77  C   UNL A   1      35.243  34.463  32.027  1.00  0.00     0.059 A 
ATOM     78  F   UNL A   1      37.071  33.327  32.778  1.00  0.00    -0.206 F 
ATOM     79  C   UNL A   1      34.432  34.937  31.014  1.00  0.00     0.060 A 
BRANCH  79  80
ATOM     80  S   UNL A   1      32.992  35.949  31.391  1.00  0.00     0.124 S 
ATOM     81  O   UNL A   1      32.512  36.296  30.057  1.00  0.00    -0.237 OA
ATOM     82  O   UNL A   1      32.154  35.027  32.151  1.00  0.00    -0.237 OA
ATOM     83  O   UNL A   1      33.548  37.061  32.159  1.00  0.00    -0.744 OA
ENDBRANCH  79  80
ENDBRANCH  58  72
BRANCH  59  84
ATOM     84  C   UNL A   1      45.097  29.060  27.960  1.00  0.00     0.058 A 
ATOM     85  C   UNL A   1      46.051  28.084  28.304  1.00  0.00     0.135 A 
ATOM     86  C   UNL A   1      44.293  28.830  26.834  1.00  0.00     0.135 A 
ATOM     87  F   UNL A   1      46.859  28.275  29.361  1.00  0.00    -0.206 F 
ATOM     88  C   UNL A   1      46.061  26.841  27.688  1.00  0.00     0.059 A 
ATOM     89  C   UNL A   1      44.297  27.594  26.194  1.00  0.00     0.059 A 
ATOM     90  F   UNL A   1      43.381  29.738  26.457  1.00  0.00    -0.206 F 
ATOM     91  C   UNL A   1      45.123  26.584  26.690  1.00  0.00     0.060 A 
BRANCH  91  92
ATOM     92  S   UNL A   1      44.839  24.858  26.234  1.00  0.00     0.124 S 
ATOM     93  O   UNL A   1      44.743  24.938  24.782  1.00  0.00    -0.237 OA
ATOM     94  O   UNL A   1      46.046  24.224  26.758  1.00  0.00    -0.237 OA
ATOM     95  O   UNL A   1      43.602  24.526  26.934  1.00  0.00    -0.744 OA
ENDBRANCH  91  92
ENDBRANCH  59  84
BRANCH  71  96
ATOM     96  C   UNL A   1      42.697  35.773  28.705  1.00  0.00     0.058 A 
ATOM     97  C   UNL A   1      43.127  36.869  29.467  1.00  0.00     0.135 A 
ATOM     98  C   UNL A   1      42.168  36.050  27.430  1.00  0.00     0.135 A 
ATOM     99  F   UNL A   1      43.640  36.684  30.695  1.00  0.00    -0.206 F 
ATOM    100  C   UNL A   1      43.028  38.176  28.993  1.00  0.00     0.059 A 
ATOM    101  C   UNL A   1      42.025  37.348  26.951  1.00  0.00     0.059 A 
ATOM    102  F   UNL A   1      41.788  35.055  26.611  1.00  0.00    -0.206 F 
ATOM    103  C   UNL A   1      42.466  38.407  27.737  1.00  0.00     0.060 A 
BRANCH 103 104
ATOM    104  S   UNL A   1      42.273  40.101  27.146  1.00  0.00     0.124 S 
ATOM    105  O   UNL A   1      43.427  40.272  26.268  1.00  0.00    -0.237 OA
ATOM    106  O   UNL A   1      40.978  40.029  26.478  1.00  0.00    -0.237 OA
ATOM    107  O   UNL A   1      42.307  40.889  28.375  1.00  0.00    -0.744 OA
ENDBRANCH 103 104
ENDBRANCH  71  96
ENDBRANCH  45  46
ENDBRANCH  37  40
ENDBRANCH  35  36
ENDBRANCH  34  35
ENDBRANCH  33  34
ENDBRANCH   1  33
TORSDOF 19
ENDMDL
MODEL 3
REMARK VINA RESULT:     -13.4      1.597      4.017
REMARK SMILES Cc1c(NC(=O)[C@@H]2CC=CC[C@@H]2C(=O)NCCCCCCNC(=O)c2ccc(-c3c4nc(c(-c5c(F)cc(S(=O)(=O)[O-])cc5F)c5ccc([nH]5)c(-c5c(F)cc(S(=O)(=O)[O-])cc5F)c5nc(c(-c6c(F)cc(S(=O)(=O)[O-])cc6F)c6ccc3[nH]6)C=C5)C=C4)cc2)cccc1C(=O)N1CCOCC1
REMARK SMILES IDX 18 1 17 2 16 3 15 4 13 5 14 6 12 8 7 9 8 10 9 11 11 12 10 13
REMARK SMILES IDX 5 14 4 15 6 17 3 18 1 19 2 20 94 21 91 22 93 23 92 24 95 25
REMARK SMILES IDX 96 26 97 27 98 28 102 29 99 30 101 31 100 32 19 33 20 34
REMARK SMILES IDX 21 35 22 36 23 37 24 39 25 40 26 41 90 42 27 43 89 44 28 45
REMARK SMILES IDX 29 46 30 47 83 48 31 49 88 50 82 51 84 52 32 53 87 54 81 55
REMARK SMILES IDX 80 56 33 58 67 59 46 60 66 61 47 62 50 63 65 64 85 65 48 66
REMARK SMILES IDX 49 67 64 69 86 70 51 71 34 72 35 73 44 74 36 75 37 76 43 77
REMARK SMILES IDX 45 78 38 79 39 80 40 81 41 82 42 83 68 84 69 85 78 86 70 87
REMARK SMILES IDX 71 88 77 89 79 90 72 91 73 92 74 93 75 94 76 95 52 96 53 97
REMARK SMILES IDX 62 98 54 99 55 100 61 101 63 102 56 103 57 104 58 105 59 106
REMARK SMILES IDX 60 107
REMARK H PARENT 15 7 4 16 22 38 84 57 50 68
REMARK Flexibility Score: inf
ROOT
ATOM      1  C   UNL A   1      35.317  19.966  24.648  1.00  0.00     0.002 C 
ENDROOT
BRANCH   1   2
ATOM      2  C   UNL A   1      33.909  19.908  25.251  1.00  0.00     0.021 C 
BRANCH   2   3
ATOM      3  C   UNL A   1      32.839  20.705  24.503  1.00  0.00     0.116 C 
BRANCH   3   4
ATOM      4  N   UNL A   1      31.673  20.967  25.321  1.00  0.00    -0.356 N 
ATOM      5  C   UNL A   1      31.025  22.057  25.787  1.00  0.00     0.224 C 
ATOM      6  O   UNL A   1      29.953  21.782  26.355  1.00  0.00    -0.275 OA
ATOM      7  H   UNL A   1      31.238  20.133  25.614  1.00  0.00     0.163 HD
BRANCH   5   8
ATOM      8  C   UNL A   1      31.402  23.550  25.628  1.00  0.00     0.095 C 
ATOM      9  C   UNL A   1      32.407  24.067  24.570  1.00  0.00     0.095 C 
ATOM     10  C   UNL A   1      33.777  23.404  24.782  1.00  0.00     0.041 C 
ATOM     11  C   UNL A   1      34.214  23.500  26.220  1.00  0.00    -0.030 C 
ATOM     12  C   UNL A   1      31.906  24.059  27.011  1.00  0.00     0.041 C 
ATOM     13  C   UNL A   1      33.379  23.823  27.218  1.00  0.00    -0.030 C 
BRANCH   9  14
ATOM     14  C   UNL A   1      31.782  24.064  23.182  1.00  0.00     0.228 C 
ATOM     15  N   UNL A   1      31.839  25.096  22.305  1.00  0.00    -0.326 N 
ATOM     16  H   UNL A   1      31.612  24.808  21.391  1.00  0.00     0.169 HD
ATOM     17  O   UNL A   1      31.184  23.064  22.763  1.00  0.00    -0.274 OA
BRANCH  15  18
ATOM     18  C   UNL A   1      32.138  26.468  22.358  1.00  0.00     0.044 A 
ATOM     19  C   UNL A   1      29.853  26.767  23.393  1.00  0.00     0.047 C 
ATOM     20  C   UNL A   1      31.216  27.312  23.041  1.00  0.00    -0.015 A 
ATOM     21  C   UNL A   1      31.565  28.659  23.295  1.00  0.00     0.045 A 
ATOM     22  C   UNL A   1      33.323  27.003  21.851  1.00  0.00     0.026 A 
ATOM     23  C   UNL A   1      32.754  29.171  22.750  1.00  0.00     0.014 A 
ATOM     24  C   UNL A   1      33.614  28.356  22.019  1.00  0.00     0.003 A 
BRANCH  21  25
ATOM     25  C   UNL A   1      30.670  29.662  23.949  1.00  0.00     0.254 C 
ATOM     26  O   UNL A   1      30.889  29.919  25.133  1.00  0.00    -0.269 OA
ATOM     27  N   UNL A   1      29.662  30.312  23.244  1.00  0.00    -0.334 N 
ATOM     28  C   UNL A   1      28.855  29.750  22.158  1.00  0.00     0.148 C 
ATOM     29  C   UNL A   1      29.118  31.545  23.817  1.00  0.00     0.148 C 
ATOM     30  C   UNL A   1      28.462  30.827  21.131  1.00  0.00     0.181 C 
ATOM     31  C   UNL A   1      28.809  32.551  22.707  1.00  0.00     0.181 C 
ATOM     32  O   UNL A   1      27.889  31.984  21.758  1.00  0.00    -0.378 OA
ENDBRANCH  21  25
ENDBRANCH  15  18
ENDBRANCH   9  14
ENDBRANCH   5   8
ENDBRANCH   3   4
ENDBRANCH   2   3
ENDBRANCH   1   2
BRANCH   1  33
ATOM     33  C   UNL A   1      36.370  20.766  25.432  1.00  0.00     0.002 C 
BRANCH  33  34
ATOM     34  C   UNL A   1      37.113  21.857  24.657  1.00  0.00     0.021 C 
BRANCH  34  35
ATOM     35  C   UNL A   1      37.799  22.895  25.533  1.00  0.00     0.116 C 
BRANCH  35  36
ATOM     36  N   UNL A   1      38.873  22.360  26.349  1.00  0.00    -0.352 N 
ATOM     37  C   UNL A   1      39.906  23.038  26.973  1.00  0.00     0.251 C 
ATOM     38  H   UNL A   1      38.866  21.384  26.475  1.00  0.00     0.163 HD
ATOM     39  O   UNL A   1      40.890  22.433  27.368  1.00  0.00    -0.269 OA
BRANCH  37  40
ATOM     40  C   UNL A   1      39.753  24.490  27.234  1.00  0.00     0.039 A 
ATOM     41  C   UNL A   1      40.401  25.383  26.371  1.00  0.00     0.014 A 
ATOM     42  C   UNL A   1      39.142  24.958  28.394  1.00  0.00     0.014 A 
ATOM     43  C   UNL A   1      40.591  26.713  26.754  1.00  0.00     0.010 A 
ATOM     44  C   UNL A   1      39.399  26.249  28.810  1.00  0.00     0.010 A 
ATOM     45  C   UNL A   1      40.155  27.122  28.011  1.00  0.00    -0.014 A 
BRANCH  45  46
ATOM     46  C   UNL A   1      40.446  28.408  28.642  1.00  0.00     0.031 A 
ATOM     47  C   UNL A   1      39.415  29.478  28.656  1.00  0.00     0.074 A 
ATOM     48  C   UNL A   1      41.551  28.552  29.404  1.00  0.00     0.049 A 
ATOM     49  N   UNL A   1      39.571  30.649  29.176  1.00  0.00    -0.248 NA
ATOM     50  C   UNL A   1      38.122  29.318  28.001  1.00  0.00     0.031 C 
ATOM     51  C   UNL A   1      41.725  29.477  30.521  1.00  0.00     0.029 A 
ATOM     52  N   UNL A   1      42.817  28.020  29.212  1.00  0.00    -0.354 N 
ATOM     53  C   UNL A   1      38.358  31.302  29.156  1.00  0.00     0.074 A 
ATOM     54  C   UNL A   1      37.521  30.466  28.331  1.00  0.00     0.031 C 
ATOM     55  C   UNL A   1      43.031  29.608  30.787  1.00  0.00     0.029 A 
ATOM     56  C   UNL A   1      43.758  28.926  29.732  1.00  0.00     0.049 A 
ATOM     57  H   UNL A   1      43.022  27.156  28.784  1.00  0.00     0.167 HD
ATOM     58  C   UNL A   1      38.201  32.422  29.923  1.00  0.00     0.037 A 
ATOM     59  C   UNL A   1      44.682  29.533  28.923  1.00  0.00     0.037 A 
ATOM     60  C   UNL A   1      39.495  32.886  30.435  1.00  0.00     0.049 A 
ATOM     61  C   UNL A   1      44.559  31.041  28.815  1.00  0.00     0.074 A 
ATOM     62  C   UNL A   1      40.165  32.801  31.643  1.00  0.00     0.029 A 
ATOM     63  N   UNL A   1      40.409  33.385  29.526  1.00  0.00    -0.354 N 
ATOM     64  N   UNL A   1      43.656  31.756  29.425  1.00  0.00    -0.248 NA
ATOM     65  C   UNL A   1      45.401  31.854  27.931  1.00  0.00     0.031 C 
ATOM     66  C   UNL A   1      41.514  33.215  31.429  1.00  0.00     0.029 A 
ATOM     67  C   UNL A   1      41.653  33.558  30.097  1.00  0.00     0.049 A 
ATOM     68  H   UNL A   1      40.198  33.590  28.586  1.00  0.00     0.167 HD
ATOM     69  C   UNL A   1      43.697  33.037  28.946  1.00  0.00     0.074 A 
ATOM     70  C   UNL A   1      44.838  33.069  28.053  1.00  0.00     0.031 C 
ATOM     71  C   UNL A   1      42.754  33.971  29.246  1.00  0.00     0.037 A 
BRANCH  58  72
ATOM     72  C   UNL A   1      36.886  33.061  30.355  1.00  0.00     0.058 A 
ATOM     73  C   UNL A   1      36.032  33.645  29.388  1.00  0.00     0.135 A 
ATOM     74  C   UNL A   1      36.437  33.227  31.682  1.00  0.00     0.135 A 
ATOM     75  F   UNL A   1      36.284  33.540  28.075  1.00  0.00    -0.206 F 
ATOM     76  C   UNL A   1      34.889  34.386  29.713  1.00  0.00     0.059 A 
ATOM     77  C   UNL A   1      35.302  33.961  32.032  1.00  0.00     0.059 A 
ATOM     78  F   UNL A   1      37.063  32.691  32.729  1.00  0.00    -0.206 F 
ATOM     79  C   UNL A   1      34.545  34.561  31.044  1.00  0.00     0.060 A 
BRANCH  79  80
ATOM     80  S   UNL A   1      33.126  35.583  31.470  1.00  0.00     0.124 S 
ATOM     81  O   UNL A   1      32.610  34.901  32.653  1.00  0.00    -0.237 OA
ATOM     82  O   UNL A   1      33.739  36.886  31.703  1.00  0.00    -0.237 OA
ATOM     83  O   UNL A   1      32.277  35.498  30.285  1.00  0.00    -0.744 OA
ENDBRANCH  79  80
ENDBRANCH  58  72
BRANCH  59  84
ATOM     84  C   UNL A   1      45.138  28.643  27.821  1.00  0.00     0.058 A 
ATOM     85  C   UNL A   1      46.127  27.691  28.131  1.00  0.00     0.135 A 
ATOM     86  C   UNL A   1      44.305  28.398  26.719  1.00  0.00     0.135 A 
ATOM     87  F   UNL A   1      46.961  27.897  29.164  1.00  0.00    -0.206 F 
ATOM     88  C   UNL A   1      46.149  26.451  27.508  1.00  0.00     0.059 A 
ATOM     89  C   UNL A   1      44.321  27.165  26.073  1.00  0.00     0.059 A 
ATOM     90  F   UNL A   1      43.360  29.284  26.375  1.00  0.00    -0.206 F 
ATOM     91  C   UNL A   1      45.187  26.174  26.538  1.00  0.00     0.060 A 
BRANCH  91  92
ATOM     92  S   UNL A   1      44.933  24.444  26.082  1.00  0.00     0.124 S 
ATOM     93  O   UNL A   1      43.641  24.155  26.692  1.00  0.00    -0.237 OA
ATOM     94  O   UNL A   1      44.943  24.530  24.624  1.00  0.00    -0.237 OA
ATOM     95  O   UNL A   1      46.081  23.768  26.678  1.00  0.00    -0.744 OA
ENDBRANCH  91  92
ENDBRANCH  59  84
BRANCH  71  96
ATOM     96  C   UNL A   1      42.798  35.361  28.701  1.00  0.00     0.058 A 
ATOM     97  C   UNL A   1      43.050  36.464  29.531  1.00  0.00     0.135 A 
ATOM     98  C   UNL A   1      42.451  35.635  27.364  1.00  0.00     0.135 A 
ATOM     99  F   UNL A   1      43.384  36.283  30.820  1.00  0.00    -0.206 F 
ATOM    100  C   UNL A   1      42.953  37.773  29.061  1.00  0.00     0.059 A 
ATOM    101  C   UNL A   1      42.312  36.933  26.884  1.00  0.00     0.059 A 
ATOM    102  F   UNL A   1      42.252  34.638  26.487  1.00  0.00    -0.206 F 
ATOM    103  C   UNL A   1      42.573  37.998  27.738  1.00  0.00     0.060 A 
BRANCH 103 104
ATOM    104  S   UNL A   1      42.380  39.690  27.144  1.00  0.00     0.124 S 
ATOM    105  O   UNL A   1      43.629  39.927  26.426  1.00  0.00    -0.237 OA
ATOM    106  O   UNL A   1      41.188  39.571  26.311  1.00  0.00    -0.237 OA
ATOM    107  O   UNL A   1      42.216  40.460  28.374  1.00  0.00    -0.744 OA
ENDBRANCH 103 104
ENDBRANCH  71  96
ENDBRANCH  45  46
ENDBRANCH  37  40
ENDBRANCH  35  36
ENDBRANCH  34  35
ENDBRANCH  33  34
ENDBRANCH   1  33
TORSDOF 19
ENDMDL
