MODEL 1
REMARK VINA RESULT:     -12.8      0.000      0.000
REMARK SMILES COc1cc2c(CC(=O)NCCCCCCNC(=O)c3ccc(-c4c5nc(c(-c6c(F)cc(S(=O)(=O)[O-])cc6F)c6ccc([nH]6)c(-c6c(F)cc(S(=O)(=O)[O-])cc6F)c6nc(c(-c7c(F)cc(S(=O)(=O)[O-])cc7F)c7ccc4[nH]7)C=C6)C=C5)cc3)c(C)n(C(=O)c3ccc(Cl)cc3)c2cc1Cl
REMARK SMILES IDX 13 1 12 2 11 3 10 4 8 5 9 6 7 8 6 9 3 10 4 11 100 12 5 13
REMARK SMILES IDX 99 14 101 15 98 16 86 17 88 18 87 19 2 20 1 21 89 22 90 23
REMARK SMILES IDX 91 24 92 25 97 26 93 27 96 28 94 29 95 30 14 31 15 32 16 33
REMARK SMILES IDX 17 34 18 35 19 37 20 38 21 39 85 40 22 41 84 42 23 43 24 44
REMARK SMILES IDX 25 45 78 46 26 47 83 48 77 49 79 50 27 51 82 52 76 53 75 54
REMARK SMILES IDX 28 56 62 57 41 58 61 59 42 60 45 61 60 62 80 63 43 64 44 65
REMARK SMILES IDX 59 67 81 68 46 69 29 70 30 71 39 72 31 73 32 74 38 75 40 76
REMARK SMILES IDX 33 77 34 78 35 79 36 80 37 81 63 82 64 83 73 84 65 85 66 86
REMARK SMILES IDX 72 87 74 88 67 89 68 90 69 91 70 92 71 93 47 94 48 95 57 96
REMARK SMILES IDX 49 97 50 98 56 99 58 100 51 101 52 102 53 103 54 104 55 105
REMARK H PARENT 10 7 17 36 79 55 45 66
REMARK Flexibility Score: inf
ROOT
ATOM      1  C   UNL A   1      31.492  28.605  25.071  1.00  0.00     0.002 C 
ENDROOT
BRANCH   1   2
ATOM      2  C   UNL A   1      30.890  27.529  24.159  1.00  0.00     0.021 C 
BRANCH   2   3
ATOM      3  C   UNL A   1      30.510  26.243  24.895  1.00  0.00     0.116 C 
BRANCH   3   4
ATOM      4  N   UNL A   1      30.283  25.154  23.964  1.00  0.00    -0.356 N 
ATOM      5  C   UNL A   1      30.695  23.855  24.052  1.00  0.00     0.224 C 
ATOM      6  O   UNL A   1      30.466  23.096  23.107  1.00  0.00    -0.275 OA
ATOM      7  H   UNL A   1      29.762  25.382  23.161  1.00  0.00     0.163 HD
BRANCH   5   8
ATOM      8  C   UNL A   1      31.375  23.353  25.316  1.00  0.00     0.138 C 
BRANCH   8   9
ATOM      9  C   UNL A   1      32.738  22.757  25.084  1.00  0.00    -0.009 A 
ATOM     10  C   UNL A   1      32.848  18.941  24.740  1.00  0.00     0.138 A 
ATOM     11  C   UNL A   1      32.253  20.201  24.894  1.00  0.00     0.058 A 
ATOM     12  C   UNL A   1      34.228  18.845  24.608  1.00  0.00     0.085 A 
ATOM     13  C   UNL A   1      33.042  21.376  24.914  1.00  0.00     0.008 A 
ATOM     14  C   UNL A   1      35.027  19.991  24.677  1.00  0.00     0.051 A 
ATOM     15  Cl  UNL A   1      35.043  17.357  24.271  1.00  0.00    -0.080 Cl
ATOM     16  C   UNL A   1      34.429  21.265  24.767  1.00  0.00     0.058 A 
ATOM     17  C   UNL A   1      33.946  23.448  25.068  1.00  0.00     0.028 A 
ATOM     18  N   UNL A   1      34.960  22.564  24.685  1.00  0.00    -0.280 N 
ATOM     19  C   UNL A   1      34.167  24.903  25.347  1.00  0.00     0.065 C 
BRANCH  10  20
ATOM     20  O   UNL A   1      31.989  17.876  24.656  1.00  0.00    -0.495 OA
ATOM     21  C   UNL A   1      32.229  16.893  25.663  1.00  0.00     0.278 C 
ENDBRANCH  10  20
BRANCH  18  22
ATOM     22  C   UNL A   1      36.278  22.919  24.270  1.00  0.00     0.262 C 
ATOM     23  O   UNL A   1      36.447  23.388  23.144  1.00  0.00    -0.268 OA
BRANCH  22  24
ATOM     24  C   UNL A   1      37.491  22.770  25.090  1.00  0.00     0.040 A 
ATOM     25  C   UNL A   1      38.197  21.562  25.111  1.00  0.00     0.015 A 
ATOM     26  C   UNL A   1      37.878  23.844  25.900  1.00  0.00     0.015 A 
ATOM     27  C   UNL A   1      39.246  21.401  26.021  1.00  0.00     0.021 A 
ATOM     28  C   UNL A   1      38.934  23.680  26.798  1.00  0.00     0.021 A 
ATOM     29  C   UNL A   1      39.598  22.454  26.869  1.00  0.00     0.041 A 
ATOM     30  Cl  UNL A   1      40.845  22.231  28.034  1.00  0.00    -0.084 Cl
ENDBRANCH  22  24
ENDBRANCH  18  22
ENDBRANCH   8   9
ENDBRANCH   5   8
ENDBRANCH   3   4
ENDBRANCH   2   3
ENDBRANCH   1   2
BRANCH   1  31
ATOM     31  C   UNL A   1      31.686  28.182  26.532  1.00  0.00     0.002 C 
BRANCH  31  32
ATOM     32  C   UNL A   1      33.018  28.601  27.168  1.00  0.00     0.021 C 
BRANCH  32  33
ATOM     33  C   UNL A   1      33.692  29.800  26.498  1.00  0.00     0.116 C 
BRANCH  33  34
ATOM     34  N   UNL A   1      33.652  31.007  27.298  1.00  0.00    -0.352 N 
ATOM     35  C   UNL A   1      34.532  31.646  28.127  1.00  0.00     0.251 C 
ATOM     36  H   UNL A   1      32.790  31.477  27.229  1.00  0.00     0.163 HD
ATOM     37  O   UNL A   1      34.145  32.723  28.590  1.00  0.00    -0.269 OA
BRANCH  35  38
ATOM     38  C   UNL A   1      35.875  31.132  28.527  1.00  0.00     0.039 A 
ATOM     39  C   UNL A   1      37.002  31.913  28.780  1.00  0.00     0.014 A 
ATOM     40  C   UNL A   1      36.004  29.732  28.610  1.00  0.00     0.014 A 
ATOM     41  C   UNL A   1      38.236  31.317  29.035  1.00  0.00     0.010 A 
ATOM     42  C   UNL A   1      37.230  29.131  28.886  1.00  0.00     0.010 A 
ATOM     43  C   UNL A   1      38.358  29.926  29.059  1.00  0.00    -0.014 A 
BRANCH  43  44
ATOM     44  C   UNL A   1      39.691  29.373  29.291  1.00  0.00     0.031 A 
ATOM     45  C   UNL A   1      40.070  29.111  30.711  1.00  0.00     0.074 A 
ATOM     46  C   UNL A   1      40.545  29.040  28.304  1.00  0.00     0.049 A 
ATOM     47  N   UNL A   1      41.001  29.676  31.410  1.00  0.00    -0.248 NA
ATOM     48  C   UNL A   1      39.261  28.146  31.467  1.00  0.00     0.031 C 
ATOM     49  C   UNL A   1      40.285  28.956  26.866  1.00  0.00     0.029 A 
ATOM     50  N   UNL A   1      41.835  28.610  28.414  1.00  0.00    -0.354 N 
ATOM     51  C   UNL A   1      41.022  29.023  32.642  1.00  0.00     0.074 A 
ATOM     52  C   UNL A   1      39.857  28.174  32.660  1.00  0.00     0.031 C 
ATOM     53  C   UNL A   1      41.305  28.299  26.271  1.00  0.00     0.029 A 
ATOM     54  C   UNL A   1      42.341  28.041  27.257  1.00  0.00     0.049 A 
ATOM     55  H   UNL A   1      42.360  28.698  29.243  1.00  0.00     0.167 HD
ATOM     56  C   UNL A   1      42.083  29.107  33.495  1.00  0.00     0.037 A 
ATOM     57  C   UNL A   1      43.496  27.343  27.136  1.00  0.00     0.037 A 
ATOM     58  C   UNL A   1      42.954  30.200  33.153  1.00  0.00     0.049 A 
ATOM     59  C   UNL A   1      44.387  27.753  28.253  1.00  0.00     0.074 A 
ATOM     60  C   UNL A   1      42.811  31.571  33.061  1.00  0.00     0.029 A 
ATOM     61  N   UNL A   1      44.151  29.914  32.541  1.00  0.00    -0.354 N 
ATOM     62  N   UNL A   1      44.916  28.942  28.370  1.00  0.00    -0.248 NA
ATOM     63  C   UNL A   1      44.374  26.959  29.472  1.00  0.00     0.031 C 
ATOM     64  C   UNL A   1      43.661  31.961  31.986  1.00  0.00     0.029 A 
ATOM     65  C   UNL A   1      44.289  30.808  31.512  1.00  0.00     0.049 A 
ATOM     66  H   UNL A   1      44.786  29.205  32.793  1.00  0.00     0.167 HD
ATOM     67  C   UNL A   1      44.919  29.200  29.733  1.00  0.00     0.074 A 
ATOM     68  C   UNL A   1      44.676  27.907  30.364  1.00  0.00     0.031 C 
ATOM     69  C   UNL A   1      44.846  30.474  30.219  1.00  0.00     0.037 A 
BRANCH  56  70
ATOM     70  C   UNL A   1      42.520  28.027  34.460  1.00  0.00     0.058 A 
ATOM     71  C   UNL A   1      42.557  28.311  35.845  1.00  0.00     0.135 A 
ATOM     72  C   UNL A   1      43.191  26.851  34.064  1.00  0.00     0.135 A 
ATOM     73  F   UNL A   1      41.936  29.393  36.340  1.00  0.00    -0.206 F 
ATOM     74  C   UNL A   1      43.305  27.551  36.745  1.00  0.00     0.059 A 
ATOM     75  C   UNL A   1      43.897  26.048  34.954  1.00  0.00     0.059 A 
ATOM     76  F   UNL A   1      43.280  26.482  32.781  1.00  0.00    -0.206 F 
ATOM     77  C   UNL A   1      43.999  26.439  36.281  1.00  0.00     0.060 A 
BRANCH  77  78
ATOM     78  S   UNL A   1      45.116  25.568  37.395  1.00  0.00     0.124 S 
ATOM     79  O   UNL A   1      44.583  25.955  38.695  1.00  0.00    -0.237 OA
ATOM     80  O   UNL A   1      44.910  24.175  37.007  1.00  0.00    -0.237 OA
ATOM     81  O   UNL A   1      46.424  26.120  37.057  1.00  0.00    -0.744 OA
ENDBRANCH  77  78
ENDBRANCH  56  70
BRANCH  57  82
ATOM     82  C   UNL A   1      43.720  26.129  26.309  1.00  0.00     0.058 A 
ATOM     83  C   UNL A   1      44.899  25.952  25.565  1.00  0.00     0.135 A 
ATOM     84  C   UNL A   1      42.888  24.997  26.431  1.00  0.00     0.135 A 
ATOM     85  F   UNL A   1      45.767  26.965  25.426  1.00  0.00    -0.206 F 
ATOM     86  C   UNL A   1      45.247  24.718  25.004  1.00  0.00     0.059 A 
ATOM     87  C   UNL A   1      43.203  23.764  25.866  1.00  0.00     0.059 A 
ATOM     88  F   UNL A   1      41.778  25.025  27.183  1.00  0.00    -0.206 F 
ATOM     89  C   UNL A   1      44.397  23.624  25.172  1.00  0.00     0.060 A 
BRANCH  89  90
ATOM     90  S   UNL A   1      44.909  21.995  24.580  1.00  0.00     0.124 S 
ATOM     91  O   UNL A   1      44.066  21.107  25.374  1.00  0.00    -0.237 OA
ATOM     92  O   UNL A   1      44.593  22.072  23.158  1.00  0.00    -0.237 OA
ATOM     93  O   UNL A   1      46.334  21.950  24.898  1.00  0.00    -0.744 OA
ENDBRANCH  89  90
ENDBRANCH  57  82
BRANCH  69  94
ATOM     94  C   UNL A   1      45.073  31.626  29.276  1.00  0.00     0.058 A 
ATOM     95  C   UNL A   1      46.339  32.168  28.995  1.00  0.00     0.135 A 
ATOM     96  C   UNL A   1      43.998  32.066  28.487  1.00  0.00     0.135 A 
ATOM     97  F   UNL A   1      47.434  31.724  29.628  1.00  0.00    -0.206 F 
ATOM     98  C   UNL A   1      46.524  33.122  27.995  1.00  0.00     0.059 A 
ATOM     99  C   UNL A   1      44.165  32.995  27.463  1.00  0.00     0.059 A 
ATOM    100  F   UNL A   1      42.774  31.539  28.663  1.00  0.00    -0.206 F 
ATOM    101  C   UNL A   1      45.431  33.524  27.226  1.00  0.00     0.060 A 
BRANCH 101 102
ATOM    102  S   UNL A   1      45.702  34.667  25.855  1.00  0.00     0.124 S 
ATOM    103  O   UNL A   1      45.649  35.965  26.519  1.00  0.00    -0.237 OA
ATOM    104  O   UNL A   1      47.015  34.262  25.359  1.00  0.00    -0.237 OA
ATOM    105  O   UNL A   1      44.592  34.383  24.948  1.00  0.00    -0.744 OA
ENDBRANCH 101 102
ENDBRANCH  69  94
ENDBRANCH  43  44
ENDBRANCH  35  38
ENDBRANCH  33  34
ENDBRANCH  32  33
ENDBRANCH  31  32
ENDBRANCH   1  31
TORSDOF 20
ENDMDL
MODEL 2
REMARK VINA RESULT:     -11.8      1.747      3.278
REMARK SMILES COc1cc2c(CC(=O)NCCCCCCNC(=O)c3ccc(-c4c5nc(c(-c6c(F)cc(S(=O)(=O)[O-])cc6F)c6ccc([nH]6)c(-c6c(F)cc(S(=O)(=O)[O-])cc6F)c6nc(c(-c7c(F)cc(S(=O)(=O)[O-])cc7F)c7ccc4[nH]7)C=C6)C=C5)cc3)c(C)n(C(=O)c3ccc(Cl)cc3)c2cc1Cl
REMARK SMILES IDX 13 1 12 2 11 3 10 4 8 5 9 6 7 8 6 9 3 10 4 11 100 12 5 13
REMARK SMILES IDX 99 14 101 15 98 16 86 17 88 18 87 19 2 20 1 21 89 22 90 23
REMARK SMILES IDX 91 24 92 25 97 26 93 27 96 28 94 29 95 30 14 31 15 32 16 33
REMARK SMILES IDX 17 34 18 35 19 37 20 38 21 39 85 40 22 41 84 42 23 43 24 44
REMARK SMILES IDX 25 45 78 46 26 47 83 48 77 49 79 50 27 51 82 52 76 53 75 54
REMARK SMILES IDX 28 56 62 57 41 58 61 59 42 60 45 61 60 62 80 63 43 64 44 65
REMARK SMILES IDX 59 67 81 68 46 69 29 70 30 71 39 72 31 73 32 74 38 75 40 76
REMARK SMILES IDX 33 77 34 78 35 79 36 80 37 81 63 82 64 83 73 84 65 85 66 86
REMARK SMILES IDX 72 87 74 88 67 89 68 90 69 91 70 92 71 93 47 94 48 95 57 96
REMARK SMILES IDX 49 97 50 98 56 99 58 100 51 101 52 102 53 103 54 104 55 105
REMARK H PARENT 10 7 17 36 79 55 45 66
REMARK Flexibility Score: inf
ROOT
ATOM      1  C   UNL A   1      32.357  29.219  24.632  1.00  0.00     0.002 C 
ENDROOT
BRANCH   1   2
ATOM      2  C   UNL A   1      33.605  28.483  24.129  1.00  0.00     0.021 C 
BRANCH   2   3
ATOM      3  C   UNL A   1      33.762  28.511  22.607  1.00  0.00     0.116 C 
BRANCH   3   4
ATOM      4  N   UNL A   1      32.863  27.565  21.971  1.00  0.00    -0.356 N 
ATOM      5  C   UNL A   1      33.009  26.216  21.821  1.00  0.00     0.224 C 
ATOM      6  O   UNL A   1      32.161  25.598  21.172  1.00  0.00    -0.275 OA
ATOM      7  H   UNL A   1      32.037  27.948  21.597  1.00  0.00     0.163 HD
BRANCH   5   8
ATOM      8  C   UNL A   1      34.169  25.494  22.489  1.00  0.00     0.138 C 
BRANCH   8   9
ATOM      9  C   UNL A   1      33.761  24.612  23.639  1.00  0.00    -0.009 A 
ATOM     10  C   UNL A   1      30.312  25.337  25.147  1.00  0.00     0.138 A 
ATOM     11  C   UNL A   1      31.381  25.487  24.252  1.00  0.00     0.058 A 
ATOM     12  C   UNL A   1      30.386  24.380  26.152  1.00  0.00     0.085 A 
ATOM     13  C   UNL A   1      32.533  24.672  24.359  1.00  0.00     0.008 A 
ATOM     14  C   UNL A   1      31.538  23.602  26.303  1.00  0.00     0.051 A 
ATOM     15  Cl  UNL A   1      29.069  24.021  27.213  1.00  0.00    -0.080 Cl
ATOM     16  C   UNL A   1      32.588  23.704  25.367  1.00  0.00     0.058 A 
ATOM     17  C   UNL A   1      34.543  23.634  24.244  1.00  0.00     0.028 A 
ATOM     18  N   UNL A   1      33.759  22.948  25.177  1.00  0.00    -0.280 N 
ATOM     19  C   UNL A   1      35.971  23.294  23.942  1.00  0.00     0.065 C 
BRANCH  10  20
ATOM     20  O   UNL A   1      29.214  26.122  24.909  1.00  0.00    -0.495 OA
ATOM     21  C   UNL A   1      29.318  26.864  23.693  1.00  0.00     0.278 C 
ENDBRANCH  10  20
BRANCH  18  22
ATOM     22  C   UNL A   1      34.080  21.706  25.800  1.00  0.00     0.262 C 
ATOM     23  O   UNL A   1      34.475  21.703  26.966  1.00  0.00    -0.268 OA
BRANCH  22  24
ATOM     24  C   UNL A   1      33.980  20.387  25.155  1.00  0.00     0.040 A 
ATOM     25  C   UNL A   1      32.731  19.817  24.880  1.00  0.00     0.015 A 
ATOM     26  C   UNL A   1      35.164  19.689  24.889  1.00  0.00     0.015 A 
ATOM     27  C   UNL A   1      32.671  18.499  24.417  1.00  0.00     0.021 A 
ATOM     28  C   UNL A   1      35.095  18.378  24.417  1.00  0.00     0.021 A 
ATOM     29  C   UNL A   1      33.851  17.782  24.203  1.00  0.00     0.041 A 
ATOM     30  Cl  UNL A   1      33.772  16.139  23.699  1.00  0.00    -0.084 Cl
ENDBRANCH  22  24
ENDBRANCH  18  22
ENDBRANCH   8   9
ENDBRANCH   5   8
ENDBRANCH   3   4
ENDBRANCH   2   3
ENDBRANCH   1   2
BRANCH   1  31
ATOM     31  C   UNL A   1      31.770  28.681  25.941  1.00  0.00     0.002 C 
BRANCH  31  32
ATOM     32  C   UNL A   1      32.091  29.502  27.196  1.00  0.00     0.021 C 
BRANCH  32  33
ATOM     33  C   UNL A   1      33.557  29.922  27.321  1.00  0.00     0.116 C 
BRANCH  33  34
ATOM     34  N   UNL A   1      33.732  31.242  27.892  1.00  0.00    -0.352 N 
ATOM     35  C   UNL A   1      34.760  31.898  28.510  1.00  0.00     0.251 C 
ATOM     36  H   UNL A   1      32.921  31.795  27.818  1.00  0.00     0.163 HD
ATOM     37  O   UNL A   1      34.541  33.077  28.806  1.00  0.00    -0.269 OA
BRANCH  35  38
ATOM     38  C   UNL A   1      36.078  31.299  28.872  1.00  0.00     0.039 A 
ATOM     39  C   UNL A   1      37.216  32.007  29.256  1.00  0.00     0.014 A 
ATOM     40  C   UNL A   1      36.170  29.897  28.770  1.00  0.00     0.014 A 
ATOM     41  C   UNL A   1      38.427  31.348  29.461  1.00  0.00     0.010 A 
ATOM     42  C   UNL A   1      37.373  29.230  28.994  1.00  0.00     0.010 A 
ATOM     43  C   UNL A   1      38.514  29.964  29.301  1.00  0.00    -0.014 A 
BRANCH  43  44
ATOM     44  C   UNL A   1      39.826  29.348  29.492  1.00  0.00     0.031 A 
ATOM     45  C   UNL A   1      40.280  29.161  30.901  1.00  0.00     0.074 A 
ATOM     46  C   UNL A   1      40.595  28.896  28.482  1.00  0.00     0.049 A 
ATOM     47  N   UNL A   1      41.286  29.714  31.499  1.00  0.00    -0.248 NA
ATOM     48  C   UNL A   1      39.469  28.301  31.772  1.00  0.00     0.031 C 
ATOM     49  C   UNL A   1      40.237  28.730  27.071  1.00  0.00     0.029 A 
ATOM     50  N   UNL A   1      41.862  28.397  28.544  1.00  0.00    -0.354 N 
ATOM     51  C   UNL A   1      41.349  29.146  32.772  1.00  0.00     0.074 A 
ATOM     52  C   UNL A   1      40.142  28.373  32.922  1.00  0.00     0.031 C 
ATOM     53  C   UNL A   1      41.178  27.973  26.464  1.00  0.00     0.029 A 
ATOM     54  C   UNL A   1      42.259  27.720  27.402  1.00  0.00     0.049 A 
ATOM     55  H   UNL A   1      42.444  28.509  29.330  1.00  0.00     0.167 HD
ATOM     56  C   UNL A   1      42.466  29.224  33.551  1.00  0.00     0.037 A 
ATOM     57  C   UNL A   1      43.363  26.947  27.262  1.00  0.00     0.037 A 
ATOM     58  C   UNL A   1      43.374  30.236  33.079  1.00  0.00     0.049 A 
ATOM     59  C   UNL A   1      44.346  27.377  28.290  1.00  0.00     0.074 A 
ATOM     60  C   UNL A   1      43.303  31.603  32.897  1.00  0.00     0.029 A 
ATOM     61  N   UNL A   1      44.511  29.836  32.418  1.00  0.00    -0.354 N 
ATOM     62  N   UNL A   1      44.948  28.536  28.289  1.00  0.00    -0.248 NA
ATOM     63  C   UNL A   1      44.367  26.670  29.562  1.00  0.00     0.031 C 
ATOM     64  C   UNL A   1      44.103  31.866  31.748  1.00  0.00     0.029 A 
ATOM     65  C   UNL A   1      44.632  30.647  31.321  1.00  0.00     0.049 A 
ATOM     66  H   UNL A   1      45.119  29.108  32.682  1.00  0.00     0.167 HD
ATOM     67  C   UNL A   1      45.054  28.886  29.627  1.00  0.00     0.074 A 
ATOM     68  C   UNL A   1      44.779  27.656  30.363  1.00  0.00     0.031 C 
ATOM     69  C   UNL A   1      45.084  30.193  30.024  1.00  0.00     0.037 A 
BRANCH  56  70
ATOM     70  C   UNL A   1      42.902  28.187  34.563  1.00  0.00     0.058 A 
ATOM     71  C   UNL A   1      43.141  28.583  35.900  1.00  0.00     0.135 A 
ATOM     72  C   UNL A   1      43.391  26.911  34.213  1.00  0.00     0.135 A 
ATOM     73  F   UNL A   1      42.704  29.769  36.352  1.00  0.00    -0.206 F 
ATOM     74  C   UNL A   1      43.911  27.821  36.780  1.00  0.00     0.059 A 
ATOM     75  C   UNL A   1      44.113  26.111  35.093  1.00  0.00     0.059 A 
ATOM     76  F   UNL A   1      43.281  26.424  32.971  1.00  0.00    -0.206 F 
ATOM     77  C   UNL A   1      44.420  26.600  36.353  1.00  0.00     0.060 A 
BRANCH  77  78
ATOM     78  S   UNL A   1      45.568  25.704  37.414  1.00  0.00     0.124 S 
ATOM     79  O   UNL A   1      46.490  26.765  37.800  1.00  0.00    -0.237 OA
ATOM     80  O   UNL A   1      44.687  25.207  38.467  1.00  0.00    -0.237 OA
ATOM     81  O   UNL A   1      46.115  24.682  36.528  1.00  0.00    -0.744 OA
ENDBRANCH  77  78
ENDBRANCH  56  70
BRANCH  57  82
ATOM     82  C   UNL A   1      43.464  25.668  26.512  1.00  0.00     0.058 A 
ATOM     83  C   UNL A   1      44.359  25.511  25.441  1.00  0.00     0.135 A 
ATOM     84  C   UNL A   1      42.861  24.487  26.995  1.00  0.00     0.135 A 
ATOM     85  F   UNL A   1      45.005  26.575  24.940  1.00  0.00    -0.206 F 
ATOM     86  C   UNL A   1      44.663  24.255  24.902  1.00  0.00     0.059 A 
ATOM     87  C   UNL A   1      43.133  23.229  26.463  1.00  0.00     0.059 A 
ATOM     88  F   UNL A   1      42.052  24.504  28.064  1.00  0.00    -0.206 F 
ATOM     89  C   UNL A   1      44.054  23.116  25.431  1.00  0.00     0.060 A 
BRANCH  89  90
ATOM     90  S   UNL A   1      44.552  21.482  24.844  1.00  0.00     0.124 S 
ATOM     91  O   UNL A   1      44.578  21.675  23.399  1.00  0.00    -0.237 OA
ATOM     92  O   UNL A   1      45.849  21.306  25.488  1.00  0.00    -0.237 OA
ATOM     93  O   UNL A   1      43.491  20.605  25.336  1.00  0.00    -0.744 OA
ENDBRANCH  89  90
ENDBRANCH  57  82
BRANCH  69  94
ATOM     94  C   UNL A   1      45.315  31.261  28.989  1.00  0.00     0.058 A 
ATOM     95  C   UNL A   1      44.304  31.774  28.157  1.00  0.00     0.135 A 
ATOM     96  C   UNL A   1      46.554  31.921  28.973  1.00  0.00     0.135 A 
ATOM     97  F   UNL A   1      43.062  31.271  28.192  1.00  0.00    -0.206 F 
ATOM     98  C   UNL A   1      44.523  32.875  27.328  1.00  0.00     0.059 A 
ATOM     99  C   UNL A   1      46.786  33.039  28.176  1.00  0.00     0.059 A 
ATOM    100  F   UNL A   1      47.541  31.519  29.792  1.00  0.00    -0.206 F 
ATOM    101  C   UNL A   1      45.766  33.508  27.350  1.00  0.00     0.060 A 
BRANCH 101 102
ATOM    102  S   UNL A   1      46.001  35.004  26.367  1.00  0.00     0.124 S 
ATOM    103  O   UNL A   1      46.005  34.481  25.005  1.00  0.00    -0.237 OA
ATOM    104  O   UNL A   1      44.840  35.810  26.734  1.00  0.00    -0.237 OA
ATOM    105  O   UNL A   1      47.281  35.527  26.839  1.00  0.00    -0.744 OA
ENDBRANCH 101 102
ENDBRANCH  69  94
ENDBRANCH  43  44
ENDBRANCH  35  38
ENDBRANCH  33  34
ENDBRANCH  32  33
ENDBRANCH  31  32
ENDBRANCH   1  31
TORSDOF 20
ENDMDL
MODEL 3
REMARK VINA RESULT:     -11.5      3.112      9.425
REMARK SMILES COc1cc2c(CC(=O)NCCCCCCNC(=O)c3ccc(-c4c5nc(c(-c6c(F)cc(S(=O)(=O)[O-])cc6F)c6ccc([nH]6)c(-c6c(F)cc(S(=O)(=O)[O-])cc6F)c6nc(c(-c7c(F)cc(S(=O)(=O)[O-])cc7F)c7ccc4[nH]7)C=C6)C=C5)cc3)c(C)n(C(=O)c3ccc(Cl)cc3)c2cc1Cl
REMARK SMILES IDX 13 1 12 2 11 3 10 4 8 5 9 6 7 8 6 9 3 10 4 11 100 12 5 13
REMARK SMILES IDX 99 14 101 15 98 16 86 17 88 18 87 19 2 20 1 21 89 22 90 23
REMARK SMILES IDX 91 24 92 25 97 26 93 27 96 28 94 29 95 30 14 31 15 32 16 33
REMARK SMILES IDX 17 34 18 35 19 37 20 38 21 39 85 40 22 41 84 42 23 43 24 44
REMARK SMILES IDX 25 45 78 46 26 47 83 48 77 49 79 50 27 51 82 52 76 53 75 54
REMARK SMILES IDX 28 56 62 57 41 58 61 59 42 60 45 61 60 62 80 63 43 64 44 65
REMARK SMILES IDX 59 67 81 68 46 69 29 70 30 71 39 72 31 73 32 74 38 75 40 76
REMARK SMILES IDX 33 77 34 78 35 79 36 80 37 81 63 82 64 83 73 84 65 85 66 86
REMARK SMILES IDX 72 87 74 88 67 89 68 90 69 91 70 92 71 93 47 94 48 95 57 96
REMARK SMILES IDX 49 97 50 98 56 99 58 100 51 101 52 102 53 103 54 104 55 105
REMARK H PARENT 10 7 17 36 79 55 45 66
REMARK Flexibility Score: inf
ROOT
ATOM      1  C   UNL A   1      40.332  25.019  27.310  1.00  0.00     0.002 C 
ENDROOT
BRANCH   1   2
ATOM      2  C   UNL A   1      38.870  24.559  27.262  1.00  0.00     0.021 C 
BRANCH   2   3
ATOM      3  C   UNL A   1      38.694  23.126  26.756  1.00  0.00     0.116 C 
BRANCH   3   4
ATOM      4  N   UNL A   1      38.239  23.109  25.378  1.00  0.00    -0.356 N 
ATOM      5  C   UNL A   1      37.072  23.592  24.857  1.00  0.00     0.224 C 
ATOM      6  O   UNL A   1      36.837  23.406  23.661  1.00  0.00    -0.275 OA
ATOM      7  H   UNL A   1      38.854  22.694  24.731  1.00  0.00     0.163 HD
BRANCH   5   8
ATOM      8  C   UNL A   1      36.117  24.387  25.733  1.00  0.00     0.138 C 
BRANCH   8   9
ATOM      9  C   UNL A   1      34.671  23.997  25.573  1.00  0.00    -0.009 A 
ATOM     10  C   UNL A   1      32.377  26.686  24.091  1.00  0.00     0.138 A 
ATOM     11  C   UNL A   1      33.588  26.123  24.520  1.00  0.00     0.058 A 
ATOM     12  C   UNL A   1      31.205  25.947  24.183  1.00  0.00     0.085 A 
ATOM     13  C   UNL A   1      33.628  24.808  25.041  1.00  0.00     0.008 A 
ATOM     14  C   UNL A   1      31.219  24.665  24.743  1.00  0.00     0.051 A 
ATOM     15  Cl  UNL A   1      29.690  26.495  23.553  1.00  0.00    -0.080 Cl
ATOM     16  C   UNL A   1      32.442  24.070  25.115  1.00  0.00     0.058 A 
ATOM     17  C   UNL A   1      34.092  22.801  25.986  1.00  0.00     0.028 A 
ATOM     18  N   UNL A   1      32.768  22.768  25.535  1.00  0.00    -0.280 N 
ATOM     19  C   UNL A   1      34.747  21.682  26.736  1.00  0.00     0.065 C 
BRANCH  10  20
ATOM     20  O   UNL A   1      32.460  27.935  23.532  1.00  0.00    -0.495 OA
ATOM     21  C   UNL A   1      33.294  28.821  24.279  1.00  0.00     0.278 C 
ENDBRANCH  10  20
BRANCH  18  22
ATOM     22  C   UNL A   1      31.919  21.623  25.490  1.00  0.00     0.262 C 
ATOM     23  O   UNL A   1      30.788  21.694  25.973  1.00  0.00    -0.268 OA
BRANCH  22  24
ATOM     24  C   UNL A   1      32.284  20.323  24.904  1.00  0.00     0.040 A 
ATOM     25  C   UNL A   1      32.636  19.242  25.721  1.00  0.00     0.015 A 
ATOM     26  C   UNL A   1      32.336  20.218  23.509  1.00  0.00     0.015 A 
ATOM     27  C   UNL A   1      33.132  18.076  25.132  1.00  0.00     0.021 A 
ATOM     28  C   UNL A   1      32.822  19.046  22.928  1.00  0.00     0.021 A 
ATOM     29  C   UNL A   1      33.237  17.990  23.741  1.00  0.00     0.041 A 
ATOM     30  Cl  UNL A   1      33.911  16.580  23.022  1.00  0.00    -0.084 Cl
ENDBRANCH  22  24
ENDBRANCH  18  22
ENDBRANCH   8   9
ENDBRANCH   5   8
ENDBRANCH   3   4
ENDBRANCH   2   3
ENDBRANCH   1   2
BRANCH   1  31
ATOM     31  C   UNL A   1      41.253  24.160  28.184  1.00  0.00     0.002 C 
BRANCH  31  32
ATOM     32  C   UNL A   1      42.248  23.275  27.422  1.00  0.00     0.021 C 
BRANCH  32  33
ATOM     33  C   UNL A   1      42.049  23.256  25.905  1.00  0.00     0.116 C 
BRANCH  33  34
ATOM     34  N   UNL A   1      43.213  23.695  25.164  1.00  0.00    -0.352 N 
ATOM     35  C   UNL A   1      43.991  24.820  25.166  1.00  0.00     0.251 C 
ATOM     36  H   UNL A   1      43.515  23.029  24.506  1.00  0.00     0.163 HD
ATOM     37  O   UNL A   1      44.969  24.794  24.412  1.00  0.00    -0.269 OA
BRANCH  35  38
ATOM     38  C   UNL A   1      43.731  26.052  25.965  1.00  0.00     0.039 A 
ATOM     39  C   UNL A   1      44.289  26.350  27.208  1.00  0.00     0.014 A 
ATOM     40  C   UNL A   1      42.806  26.964  25.417  1.00  0.00     0.014 A 
ATOM     41  C   UNL A   1      43.885  27.479  27.916  1.00  0.00     0.010 A 
ATOM     42  C   UNL A   1      42.414  28.106  26.111  1.00  0.00     0.010 A 
ATOM     43  C   UNL A   1      42.925  28.343  27.383  1.00  0.00    -0.014 A 
BRANCH  43  44
ATOM     44  C   UNL A   1      42.521  29.484  28.201  1.00  0.00     0.031 A 
ATOM     45  C   UNL A   1      43.513  30.589  28.349  1.00  0.00     0.074 A 
ATOM     46  C   UNL A   1      41.301  29.609  28.760  1.00  0.00     0.049 A 
ATOM     47  N   UNL A   1      44.114  30.988  29.424  1.00  0.00    -0.248 NA
ATOM     48  C   UNL A   1      43.942  31.290  27.132  1.00  0.00     0.031 C 
ATOM     49  C   UNL A   1      40.105  28.797  28.525  1.00  0.00     0.029 A 
ATOM     50  N   UNL A   1      40.858  30.579  29.611  1.00  0.00    -0.354 N 
ATOM     51  C   UNL A   1      44.867  32.105  29.063  1.00  0.00     0.074 A 
ATOM     52  C   UNL A   1      44.813  32.173  27.624  1.00  0.00     0.031 C 
ATOM     53  C   UNL A   1      39.031  29.435  29.040  1.00  0.00     0.029 A 
ATOM     54  C   UNL A   1      39.480  30.619  29.753  1.00  0.00     0.049 A 
ATOM     55  H   UNL A   1      41.464  31.195  30.083  1.00  0.00     0.167 HD
ATOM     56  C   UNL A   1      45.350  32.988  29.984  1.00  0.00     0.037 A 
ATOM     57  C   UNL A   1      38.757  31.596  30.351  1.00  0.00     0.037 A 
ATOM     58  C   UNL A   1      45.316  32.441  31.315  1.00  0.00     0.049 A 
ATOM     59  C   UNL A   1      39.656  32.305  31.299  1.00  0.00     0.074 A 
ATOM     60  C   UNL A   1      45.889  31.349  31.937  1.00  0.00     0.029 A 
ATOM     61  N   UNL A   1      44.346  32.888  32.180  1.00  0.00    -0.354 N 
ATOM     62  N   UNL A   1      40.146  31.767  32.384  1.00  0.00    -0.248 NA
ATOM     63  C   UNL A   1      40.343  33.500  30.834  1.00  0.00     0.031 C 
ATOM     64  C   UNL A   1      44.920  30.910  32.884  1.00  0.00     0.029 A 
ATOM     65  C   UNL A   1      43.831  31.780  32.799  1.00  0.00     0.049 A 
ATOM     66  H   UNL A   1      44.074  33.823  32.325  1.00  0.00     0.167 HD
ATOM     67  C   UNL A   1      41.424  32.295  32.497  1.00  0.00     0.074 A 
ATOM     68  C   UNL A   1      41.448  33.431  31.581  1.00  0.00     0.031 C 
ATOM     69  C   UNL A   1      42.430  31.606  33.114  1.00  0.00     0.037 A 
BRANCH  56  70
ATOM     70  C   UNL A   1      45.573  34.466  29.749  1.00  0.00     0.058 A 
ATOM     71  C   UNL A   1      46.839  35.028  30.032  1.00  0.00     0.135 A 
ATOM     72  C   UNL A   1      44.527  35.393  29.561  1.00  0.00     0.135 A 
ATOM     73  F   UNL A   1      47.914  34.243  30.209  1.00  0.00    -0.206 F 
ATOM     74  C   UNL A   1      47.023  36.397  30.232  1.00  0.00     0.059 A 
ATOM     75  C   UNL A   1      44.700  36.767  29.702  1.00  0.00     0.059 A 
ATOM     76  F   UNL A   1      43.266  35.006  29.334  1.00  0.00    -0.206 F 
ATOM     77  C   UNL A   1      45.937  37.254  30.097  1.00  0.00     0.060 A 
BRANCH  77  78
ATOM     78  S   UNL A   1      46.123  38.991  30.540  1.00  0.00     0.124 S 
ATOM     79  O   UNL A   1      47.248  38.932  31.465  1.00  0.00    -0.237 OA
ATOM     80  O   UNL A   1      46.390  39.610  29.244  1.00  0.00    -0.237 OA
ATOM     81  O   UNL A   1      44.832  39.326  31.133  1.00  0.00    -0.744 OA
ENDBRANCH  77  78
ENDBRANCH  56  70
BRANCH  57  82
ATOM     82  C   UNL A   1      37.447  32.135  29.900  1.00  0.00     0.058 A 
ATOM     83  C   UNL A   1      36.250  31.805  30.556  1.00  0.00     0.135 A 
ATOM     84  C   UNL A   1      37.372  33.192  28.968  1.00  0.00     0.135 A 
ATOM     85  F   UNL A   1      36.234  30.836  31.485  1.00  0.00    -0.206 F 
ATOM     86  C   UNL A   1      35.057  32.500  30.325  1.00  0.00     0.059 A 
ATOM     87  C   UNL A   1      36.194  33.886  28.707  1.00  0.00     0.059 A 
ATOM     88  F   UNL A   1      38.467  33.647  28.341  1.00  0.00    -0.206 F 
ATOM     89  C   UNL A   1      35.043  33.551  29.407  1.00  0.00     0.060 A 
BRANCH  89  90
ATOM     90  S   UNL A   1      33.549  34.549  29.214  1.00  0.00     0.124 S 
ATOM     91  O   UNL A   1      34.088  35.804  28.702  1.00  0.00    -0.237 OA
ATOM     92  O   UNL A   1      32.770  33.756  28.270  1.00  0.00    -0.237 OA
ATOM     93  O   UNL A   1      33.004  34.612  30.568  1.00  0.00    -0.744 OA
ENDBRANCH  89  90
ENDBRANCH  57  82
BRANCH  69  94
ATOM     94  C   UNL A   1      42.081  30.401  33.946  1.00  0.00     0.058 A 
ATOM     95  C   UNL A   1      41.898  29.112  33.416  1.00  0.00     0.135 A 
ATOM     96  C   UNL A   1      42.123  30.519  35.344  1.00  0.00     0.135 A 
ATOM     97  F   UNL A   1      41.952  28.896  32.094  1.00  0.00    -0.206 F 
ATOM     98  C   UNL A   1      41.737  27.996  34.237  1.00  0.00     0.059 A 
ATOM     99  C   UNL A   1      41.995  29.414  36.183  1.00  0.00     0.059 A 
ATOM    100  F   UNL A   1      42.359  31.714  35.912  1.00  0.00    -0.206 F 
ATOM    101  C   UNL A   1      41.797  28.155  35.622  1.00  0.00     0.060 A 
BRANCH 101 102
ATOM    102  S   UNL A   1      41.711  26.689  36.674  1.00  0.00     0.124 S 
ATOM    103  O   UNL A   1      40.480  26.918  37.422  1.00  0.00    -0.237 OA
ATOM    104  O   UNL A   1      41.669  25.602  35.699  1.00  0.00    -0.237 OA
ATOM    105  O   UNL A   1      42.942  26.759  37.459  1.00  0.00    -0.744 OA
ENDBRANCH 101 102
ENDBRANCH  69  94
ENDBRANCH  43  44
ENDBRANCH  35  38
ENDBRANCH  33  34
ENDBRANCH  32  33
ENDBRANCH  31  32
ENDBRANCH   1  31
TORSDOF 20
ENDMDL
