MODEL 1
REMARK VINA RESULT:     -12.4      0.000      0.000
REMARK SMILES CCSc1ccc(-c2cc(Cl)cc3c2O[C@H](C(F)(F)F)C(C(=O)NCCCCCCNC(=O)c2ccc(-c4c5nc(c(-c6c(F)cc(S(=O)(=O)[O-])cc6F)c6ccc([nH]6)c(-c6c(F)cc(S(=O)(=O)[O-])cc6F)c6nc(c(-c7c(F)cc(S(=O)(=O)[O-])cc7F)c7ccc4[nH]7)C=C6)C=C5)cc2)=C3)cc1
REMARK SMILES IDX 27 1 26 2 25 3 24 4 22 5 23 6 21 8 8 9 9 10 14 11 10 12
REMARK SMILES IDX 13 13 15 14 11 15 12 16 100 17 16 18 7 19 4 20 5 21 102 22
REMARK SMILES IDX 6 23 101 24 3 25 2 26 1 27 17 28 18 29 19 30 20 31 28 32
REMARK SMILES IDX 29 33 30 34 31 35 32 36 33 38 34 39 35 40 99 41 36 42 98 43
REMARK SMILES IDX 37 44 38 45 39 46 92 47 40 48 97 49 91 50 93 51 41 52 96 53
REMARK SMILES IDX 90 54 89 55 42 57 76 58 55 59 75 60 56 61 59 62 74 63 94 64
REMARK SMILES IDX 57 65 58 66 73 68 95 69 60 70 43 71 44 72 53 73 45 74 46 75
REMARK SMILES IDX 52 76 54 77 47 78 48 79 49 80 50 81 51 82 77 83 78 84 87 85
REMARK SMILES IDX 79 86 80 87 86 88 88 89 81 90 82 91 83 92 84 93 85 94 61 95
REMARK SMILES IDX 62 96 71 97 63 98 64 99 70 100 72 101 65 102 66 103 67 104
REMARK SMILES IDX 68 105 69 106
REMARK H PARENT 24 7 31 37 93 56 59 67
REMARK Flexibility Score: inf
ROOT
ATOM      1  C   UNL A   1      37.755  21.366  24.990  1.00  0.00     0.002 C 
ENDROOT
BRANCH   1   2
ATOM      2  C   UNL A   1      36.244  21.558  24.777  1.00  0.00     0.021 C 
BRANCH   2   3
ATOM      3  C   UNL A   1      35.419  21.668  26.069  1.00  0.00     0.116 C 
BRANCH   3   4
ATOM      4  N   UNL A   1      35.011  23.044  26.274  1.00  0.00    -0.352 N 
ATOM      5  C   UNL A   1      34.383  23.818  25.355  1.00  0.00     0.251 C 
ATOM      6  O   UNL A   1      34.808  24.939  25.104  1.00  0.00    -0.270 OA
ATOM      7  H   UNL A   1      35.205  23.448  27.149  1.00  0.00     0.163 HD
BRANCH   5   8
ATOM      8  C   UNL A   1      33.082  23.302  24.834  1.00  0.00     0.067 C 
ATOM      9  C   UNL A   1      31.180  26.856  24.286  1.00  0.00     0.026 A 
ATOM     10  C   UNL A   1      31.475  27.631  25.439  1.00  0.00     0.033 A 
ATOM     11  C   UNL A   1      31.489  25.484  24.369  1.00  0.00     0.135 A 
ATOM     12  C   UNL A   1      31.840  27.058  26.656  1.00  0.00     0.042 A 
ATOM     13  C   UNL A   1      31.739  24.911  25.644  1.00  0.00     0.019 A 
ATOM     14  O   UNL A   1      31.635  24.655  23.260  1.00  0.00    -0.475 OA
ATOM     15  Cl  UNL A   1      32.181  28.067  28.005  1.00  0.00    -0.084 Cl
ATOM     16  C   UNL A   1      31.889  25.686  26.788  1.00  0.00     0.032 A 
ATOM     17  C   UNL A   1      32.067  23.471  25.704  1.00  0.00     0.025 C 
ATOM     18  C   UNL A   1      32.767  23.674  23.394  1.00  0.00     0.314 C 
BRANCH   9  19
ATOM     19  C   UNL A   1      30.323  27.556  23.282  1.00  0.00    -0.015 A 
ATOM     20  C   UNL A   1      28.725  29.699  22.242  1.00  0.00     0.007 A 
ATOM     21  C   UNL A   1      30.079  29.607  21.927  1.00  0.00     0.015 A 
ATOM     22  C   UNL A   1      28.152  28.644  22.964  1.00  0.00     0.015 A 
ATOM     23  C   UNL A   1      30.860  28.544  22.424  1.00  0.00     0.010 A 
ATOM     24  C   UNL A   1      28.934  27.588  23.471  1.00  0.00     0.010 A 
BRANCH  20  25
ATOM     25  S   UNL A   1      27.650  31.024  21.696  1.00  0.00    -0.126 SA
BRANCH  25  26
ATOM     26  C   UNL A   1      28.703  32.526  21.673  1.00  0.00     0.071 C 
ATOM     27  C   UNL A   1      28.538  33.387  22.917  1.00  0.00     0.016 C 
ENDBRANCH  25  26
ENDBRANCH  20  25
ENDBRANCH   9  19
BRANCH  18  28
ATOM     28  C   UNL A   1      32.505  22.358  22.622  1.00  0.00     0.429 C 
ATOM     29  F   UNL A   1      31.199  22.014  22.606  1.00  0.00    -0.167 F 
ATOM     30  F   UNL A   1      32.925  22.450  21.337  1.00  0.00    -0.167 F 
ATOM     31  F   UNL A   1      33.175  21.302  23.159  1.00  0.00    -0.167 F 
ENDBRANCH  18  28
ENDBRANCH   5   8
ENDBRANCH   3   4
ENDBRANCH   2   3
ENDBRANCH   1   2
BRANCH   1  32
ATOM     32  C   UNL A   1      38.431  22.457  25.823  1.00  0.00     0.002 C 
BRANCH  32  33
ATOM     33  C   UNL A   1      39.666  21.990  26.593  1.00  0.00     0.021 C 
BRANCH  33  34
ATOM     34  C   UNL A   1      40.518  23.117  27.165  1.00  0.00     0.116 C 
BRANCH  34  35
ATOM     35  N   UNL A   1      41.271  23.815  26.136  1.00  0.00    -0.352 N 
ATOM     36  C   UNL A   1      41.605  25.141  26.066  1.00  0.00     0.251 C 
ATOM     37  H   UNL A   1      41.583  23.258  25.388  1.00  0.00     0.163 HD
ATOM     38  O   UNL A   1      42.090  25.593  25.026  1.00  0.00    -0.269 OA
BRANCH  36  39
ATOM     39  C   UNL A   1      41.370  26.028  27.223  1.00  0.00     0.039 A 
ATOM     40  C   UNL A   1      42.275  27.063  27.474  1.00  0.00     0.014 A 
ATOM     41  C   UNL A   1      40.275  25.833  28.072  1.00  0.00     0.014 A 
ATOM     42  C   UNL A   1      42.064  27.917  28.557  1.00  0.00     0.010 A 
ATOM     43  C   UNL A   1      40.020  26.738  29.099  1.00  0.00     0.010 A 
ATOM     44  C   UNL A   1      40.925  27.774  29.368  1.00  0.00    -0.014 A 
BRANCH  44  45
ATOM     45  C   UNL A   1      40.698  28.678  30.524  1.00  0.00     0.031 A 
ATOM     46  C   UNL A   1      41.533  28.537  31.770  1.00  0.00     0.074 A 
ATOM     47  C   UNL A   1      39.725  29.608  30.463  1.00  0.00     0.049 A 
ATOM     48  N   UNL A   1      41.483  29.226  32.880  1.00  0.00    -0.248 NA
ATOM     49  C   UNL A   1      42.539  27.461  31.779  1.00  0.00     0.031 C 
ATOM     50  C   UNL A   1      38.812  29.804  29.334  1.00  0.00     0.029 A 
ATOM     51  N   UNL A   1      39.340  30.563  31.369  1.00  0.00    -0.354 N 
ATOM     52  C   UNL A   1      42.444  28.668  33.717  1.00  0.00     0.074 A 
ATOM     53  C   UNL A   1      43.010  27.538  33.014  1.00  0.00     0.031 C 
ATOM     54  C   UNL A   1      37.996  30.834  29.602  1.00  0.00     0.029 A 
ATOM     55  C   UNL A   1      38.300  31.351  30.933  1.00  0.00     0.049 A 
ATOM     56  H   UNL A   1      39.767  30.675  32.248  1.00  0.00     0.167 HD
ATOM     57  C   UNL A   1      42.841  29.078  34.945  1.00  0.00     0.037 A 
ATOM     58  C   UNL A   1      37.664  32.373  31.538  1.00  0.00     0.037 A 
ATOM     59  C   UNL A   1      42.283  30.215  35.631  1.00  0.00     0.049 A 
ATOM     60  C   UNL A   1      38.125  32.816  32.900  1.00  0.00     0.074 A 
ATOM     61  C   UNL A   1      42.642  30.741  36.859  1.00  0.00     0.029 A 
ATOM     62  N   UNL A   1      41.246  31.000  35.148  1.00  0.00    -0.354 N 
ATOM     63  N   UNL A   1      39.079  32.316  33.652  1.00  0.00    -0.248 NA
ATOM     64  C   UNL A   1      37.438  33.971  33.490  1.00  0.00     0.031 C 
ATOM     65  C   UNL A   1      41.790  31.814  37.141  1.00  0.00     0.029 A 
ATOM     66  C   UNL A   1      40.941  31.997  36.061  1.00  0.00     0.049 A 
ATOM     67  H   UNL A   1      40.794  30.869  34.283  1.00  0.00     0.167 HD
ATOM     68  C   UNL A   1      39.126  33.114  34.789  1.00  0.00     0.074 A 
ATOM     69  C   UNL A   1      38.115  34.139  34.618  1.00  0.00     0.031 C 
ATOM     70  C   UNL A   1      39.933  33.011  35.875  1.00  0.00     0.037 A 
BRANCH  57  71
ATOM     71  C   UNL A   1      43.937  28.295  35.621  1.00  0.00     0.058 A 
ATOM     72  C   UNL A   1      43.653  27.222  36.483  1.00  0.00     0.135 A 
ATOM     73  C   UNL A   1      45.287  28.603  35.388  1.00  0.00     0.135 A 
ATOM     74  F   UNL A   1      42.381  26.891  36.757  1.00  0.00    -0.206 F 
ATOM     75  C   UNL A   1      44.665  26.507  37.116  1.00  0.00     0.059 A 
ATOM     76  C   UNL A   1      46.316  27.880  35.983  1.00  0.00     0.059 A 
ATOM     77  F   UNL A   1      45.617  29.618  34.575  1.00  0.00    -0.206 F 
ATOM     78  C   UNL A   1      45.994  26.844  36.859  1.00  0.00     0.060 A 
BRANCH  78  79
ATOM     79  S   UNL A   1      47.295  25.905  37.688  1.00  0.00     0.124 S 
ATOM     80  O   UNL A   1      48.497  26.554  37.170  1.00  0.00    -0.237 OA
ATOM     81  O   UNL A   1      47.003  26.144  39.097  1.00  0.00    -0.237 OA
ATOM     82  O   UNL A   1      47.074  24.538  37.227  1.00  0.00    -0.744 OA
ENDBRANCH  78  79
ENDBRANCH  57  71
BRANCH  58  83
ATOM     83  C   UNL A   1      36.542  33.062  30.844  1.00  0.00     0.058 A 
ATOM     84  C   UNL A   1      35.210  32.853  31.231  1.00  0.00     0.135 A 
ATOM     85  C   UNL A   1      36.782  33.958  29.791  1.00  0.00     0.135 A 
ATOM     86  F   UNL A   1      34.926  32.003  32.230  1.00  0.00    -0.206 F 
ATOM     87  C   UNL A   1      34.154  33.492  30.588  1.00  0.00     0.059 A 
ATOM     88  C   UNL A   1      35.747  34.632  29.152  1.00  0.00     0.059 A 
ATOM     89  F   UNL A   1      38.039  34.207  29.394  1.00  0.00    -0.206 F 
ATOM     90  C   UNL A   1      34.433  34.384  29.551  1.00  0.00     0.060 A 
BRANCH  90  91
ATOM     91  S   UNL A   1      33.060  35.247  28.757  1.00  0.00     0.124 S 
ATOM     92  O   UNL A   1      33.758  36.304  28.033  1.00  0.00    -0.237 OA
ATOM     93  O   UNL A   1      32.470  34.194  27.937  1.00  0.00    -0.237 OA
ATOM     94  O   UNL A   1      32.244  35.686  29.885  1.00  0.00    -0.744 OA
ENDBRANCH  90  91
ENDBRANCH  58  83
BRANCH  70  95
ATOM     95  C   UNL A   1      39.786  34.061  36.946  1.00  0.00     0.058 A 
ATOM     96  C   UNL A   1      40.412  35.313  36.850  1.00  0.00     0.135 A 
ATOM     97  C   UNL A   1      38.979  33.816  38.069  1.00  0.00     0.135 A 
ATOM     98  F   UNL A   1      41.196  35.599  35.798  1.00  0.00    -0.206 F 
ATOM     99  C   UNL A   1      40.275  36.272  37.849  1.00  0.00     0.059 A 
ATOM    100  C   UNL A   1      38.800  34.772  39.063  1.00  0.00     0.059 A 
ATOM    101  F   UNL A   1      38.346  32.640  38.205  1.00  0.00    -0.206 F 
ATOM    102  C   UNL A   1      39.468  35.991  38.953  1.00  0.00     0.060 A 
BRANCH 102 103
ATOM    103  S   UNL A   1      39.292  37.247  40.237  1.00  0.00     0.124 S 
ATOM    104  O   UNL A   1      40.684  37.602  40.494  1.00  0.00    -0.237 OA
ATOM    105  O   UNL A   1      38.489  38.266  39.569  1.00  0.00    -0.237 OA
ATOM    106  O   UNL A   1      38.617  36.535  41.319  1.00  0.00    -0.744 OA
ENDBRANCH 102 103
ENDBRANCH  70  95
ENDBRANCH  44  45
ENDBRANCH  36  39
ENDBRANCH  34  35
ENDBRANCH  33  34
ENDBRANCH  32  33
ENDBRANCH   1  32
TORSDOF 20
ENDMDL
MODEL 2
REMARK VINA RESULT:     -12.2      1.600      2.408
REMARK SMILES CCSc1ccc(-c2cc(Cl)cc3c2O[C@H](C(F)(F)F)C(C(=O)NCCCCCCNC(=O)c2ccc(-c4c5nc(c(-c6c(F)cc(S(=O)(=O)[O-])cc6F)c6ccc([nH]6)c(-c6c(F)cc(S(=O)(=O)[O-])cc6F)c6nc(c(-c7c(F)cc(S(=O)(=O)[O-])cc7F)c7ccc4[nH]7)C=C6)C=C5)cc2)=C3)cc1
REMARK SMILES IDX 27 1 26 2 25 3 24 4 22 5 23 6 21 8 8 9 9 10 14 11 10 12
REMARK SMILES IDX 13 13 15 14 11 15 12 16 100 17 16 18 7 19 4 20 5 21 102 22
REMARK SMILES IDX 6 23 101 24 3 25 2 26 1 27 17 28 18 29 19 30 20 31 28 32
REMARK SMILES IDX 29 33 30 34 31 35 32 36 33 38 34 39 35 40 99 41 36 42 98 43
REMARK SMILES IDX 37 44 38 45 39 46 92 47 40 48 97 49 91 50 93 51 41 52 96 53
REMARK SMILES IDX 90 54 89 55 42 57 76 58 55 59 75 60 56 61 59 62 74 63 94 64
REMARK SMILES IDX 57 65 58 66 73 68 95 69 60 70 43 71 44 72 53 73 45 74 46 75
REMARK SMILES IDX 52 76 54 77 47 78 48 79 49 80 50 81 51 82 77 83 78 84 87 85
REMARK SMILES IDX 79 86 80 87 86 88 88 89 81 90 82 91 83 92 84 93 85 94 61 95
REMARK SMILES IDX 62 96 71 97 63 98 64 99 70 100 72 101 65 102 66 103 67 104
REMARK SMILES IDX 68 105 69 106
REMARK H PARENT 24 7 31 37 93 56 59 67
REMARK Flexibility Score: inf
ROOT
ATOM      1  C   UNL A   1      36.008  21.469  25.807  1.00  0.00     0.002 C 
ENDROOT
BRANCH   1   2
ATOM      2  C   UNL A   1      35.577  20.284  24.926  1.00  0.00     0.021 C 
BRANCH   2   3
ATOM      3  C   UNL A   1      34.072  20.218  24.625  1.00  0.00     0.116 C 
BRANCH   3   4
ATOM      4  N   UNL A   1      33.754  21.103  23.521  1.00  0.00    -0.352 N 
ATOM      5  C   UNL A   1      32.929  22.176  23.592  1.00  0.00     0.251 C 
ATOM      6  O   UNL A   1      32.033  22.316  22.768  1.00  0.00    -0.270 OA
ATOM      7  H   UNL A   1      34.171  20.909  22.652  1.00  0.00     0.163 HD
BRANCH   5   8
ATOM      8  C   UNL A   1      33.293  23.227  24.587  1.00  0.00     0.067 C 
ATOM      9  C   UNL A   1      31.144  26.317  23.044  1.00  0.00     0.026 A 
ATOM     10  C   UNL A   1      31.344  26.259  21.640  1.00  0.00     0.033 A 
ATOM     11  C   UNL A   1      32.011  25.526  23.824  1.00  0.00     0.135 A 
ATOM     12  C   UNL A   1      32.456  25.646  21.063  1.00  0.00     0.042 A 
ATOM     13  C   UNL A   1      33.196  25.016  23.232  1.00  0.00     0.019 A 
ATOM     14  O   UNL A   1      31.745  25.150  25.138  1.00  0.00    -0.475 OA
ATOM     15  Cl  UNL A   1      32.625  25.621  19.354  1.00  0.00    -0.084 Cl
ATOM     16  C   UNL A   1      33.434  25.095  21.864  1.00  0.00     0.032 A 
ATOM     17  C   UNL A   1      34.087  24.185  24.069  1.00  0.00     0.025 C 
ATOM     18  C   UNL A   1      32.145  23.734  25.446  1.00  0.00     0.314 C 
BRANCH   9  19
ATOM     19  C   UNL A   1      30.242  27.423  23.488  1.00  0.00    -0.015 A 
ATOM     20  C   UNL A   1      28.524  29.695  23.157  1.00  0.00     0.007 A 
ATOM     21  C   UNL A   1      27.992  28.410  23.233  1.00  0.00     0.015 A 
ATOM     22  C   UNL A   1      29.900  29.845  23.381  1.00  0.00     0.015 A 
ATOM     23  C   UNL A   1      28.836  27.295  23.415  1.00  0.00     0.010 A 
ATOM     24  C   UNL A   1      30.744  28.731  23.550  1.00  0.00     0.010 A 
BRANCH  20  25
ATOM     25  S   UNL A   1      27.551  31.176  22.892  1.00  0.00    -0.126 SA
BRANCH  25  26
ATOM     26  C   UNL A   1      28.577  32.244  21.808  1.00  0.00     0.071 C 
ATOM     27  C   UNL A   1      28.012  32.381  20.402  1.00  0.00     0.016 C 
ENDBRANCH  25  26
ENDBRANCH  20  25
ENDBRANCH   9  19
BRANCH  18  28
ATOM     28  C   UNL A   1      32.553  23.542  26.927  1.00  0.00     0.429 C 
ATOM     29  F   UNL A   1      31.904  24.384  27.760  1.00  0.00    -0.167 F 
ATOM     30  F   UNL A   1      32.308  22.276  27.343  1.00  0.00    -0.167 F 
ATOM     31  F   UNL A   1      33.883  23.750  27.127  1.00  0.00    -0.167 F 
ENDBRANCH  18  28
ENDBRANCH   5   8
ENDBRANCH   3   4
ENDBRANCH   2   3
ENDBRANCH   1   2
BRANCH   1  32
ATOM     32  C   UNL A   1      37.363  22.080  25.445  1.00  0.00     0.002 C 
BRANCH  32  33
ATOM     33  C   UNL A   1      37.430  23.600  25.591  1.00  0.00     0.021 C 
BRANCH  33  34
ATOM     34  C   UNL A   1      38.423  24.091  26.637  1.00  0.00     0.116 C 
BRANCH  34  35
ATOM     35  N   UNL A   1      39.790  24.092  26.141  1.00  0.00    -0.352 N 
ATOM     36  C   UNL A   1      40.823  24.930  26.467  1.00  0.00     0.251 C 
ATOM     37  H   UNL A   1      40.001  23.396  25.479  1.00  0.00     0.163 HD
ATOM     38  O   UNL A   1      41.865  24.899  25.808  1.00  0.00    -0.269 OA
BRANCH  36  39
ATOM     39  C   UNL A   1      40.682  25.878  27.592  1.00  0.00     0.039 A 
ATOM     40  C   UNL A   1      41.551  26.969  27.665  1.00  0.00     0.014 A 
ATOM     41  C   UNL A   1      39.712  25.685  28.581  1.00  0.00     0.014 A 
ATOM     42  C   UNL A   1      41.427  27.880  28.715  1.00  0.00     0.010 A 
ATOM     43  C   UNL A   1      39.535  26.641  29.577  1.00  0.00     0.010 A 
ATOM     44  C   UNL A   1      40.406  27.736  29.670  1.00  0.00    -0.014 A 
BRANCH  44  45
ATOM     45  C   UNL A   1      40.272  28.700  30.791  1.00  0.00     0.031 A 
ATOM     46  C   UNL A   1      41.136  28.559  32.017  1.00  0.00     0.074 A 
ATOM     47  C   UNL A   1      39.358  29.687  30.717  1.00  0.00     0.049 A 
ATOM     48  N   UNL A   1      41.164  29.296  33.097  1.00  0.00    -0.248 NA
ATOM     49  C   UNL A   1      42.072  27.422  32.046  1.00  0.00     0.031 C 
ATOM     50  C   UNL A   1      38.425  29.893  29.606  1.00  0.00     0.029 A 
ATOM     51  N   UNL A   1      39.063  30.703  31.590  1.00  0.00    -0.354 N 
ATOM     52  C   UNL A   1      42.113  28.714  33.930  1.00  0.00     0.074 A 
ATOM     53  C   UNL A   1      42.585  27.521  33.262  1.00  0.00     0.031 C 
ATOM     54  C   UNL A   1      37.684  30.984  29.852  1.00  0.00     0.029 A 
ATOM     55  C   UNL A   1      38.061  31.536  31.149  1.00  0.00     0.049 A 
ATOM     56  H   UNL A   1      39.523  30.824  32.451  1.00  0.00     0.167 HD
ATOM     57  C   UNL A   1      42.574  29.149  35.127  1.00  0.00     0.037 A 
ATOM     58  C   UNL A   1      37.510  32.622  31.726  1.00  0.00     0.037 A 
ATOM     59  C   UNL A   1      42.110  30.347  35.777  1.00  0.00     0.049 A 
ATOM     60  C   UNL A   1      38.040  33.091  33.053  1.00  0.00     0.074 A 
ATOM     61  C   UNL A   1      42.539  30.901  36.970  1.00  0.00     0.029 A 
ATOM     62  N   UNL A   1      41.110  31.177  35.290  1.00  0.00    -0.354 N 
ATOM     63  N   UNL A   1      38.984  32.564  33.799  1.00  0.00    -0.248 NA
ATOM     64  C   UNL A   1      37.446  34.313  33.611  1.00  0.00     0.031 C 
ATOM     65  C   UNL A   1      41.766  32.038  37.229  1.00  0.00     0.029 A 
ATOM     66  C   UNL A   1      40.897  32.229  36.167  1.00  0.00     0.049 A 
ATOM     67  H   UNL A   1      40.623  31.038  34.445  1.00  0.00     0.167 HD
ATOM     68  C   UNL A   1      39.116  33.405  34.898  1.00  0.00     0.074 A 
ATOM     69  C   UNL A   1      38.167  34.484  34.711  1.00  0.00     0.031 C 
ATOM     70  C   UNL A   1      39.949  33.297  35.964  1.00  0.00     0.037 A 
BRANCH  57  71
ATOM     71  C   UNL A   1      43.639  28.327  35.806  1.00  0.00     0.058 A 
ATOM     72  C   UNL A   1      45.006  28.557  35.576  1.00  0.00     0.135 A 
ATOM     73  C   UNL A   1      43.292  27.315  36.714  1.00  0.00     0.135 A 
ATOM     74  F   UNL A   1      45.399  29.501  34.705  1.00  0.00    -0.206 F 
ATOM     75  C   UNL A   1      45.989  27.789  36.194  1.00  0.00     0.059 A 
ATOM     76  C   UNL A   1      44.259  26.558  37.370  1.00  0.00     0.059 A 
ATOM     77  F   UNL A   1      42.003  27.051  36.973  1.00  0.00    -0.206 F 
ATOM     78  C   UNL A   1      45.605  26.792  37.090  1.00  0.00     0.060 A 
BRANCH  78  79
ATOM     79  S   UNL A   1      46.893  25.806  37.885  1.00  0.00     0.124 S 
ATOM     80  O   UNL A   1      46.097  24.839  38.635  1.00  0.00    -0.237 OA
ATOM     81  O   UNL A   1      47.626  25.273  36.742  1.00  0.00    -0.237 OA
ATOM     82  O   UNL A   1      47.618  26.782  38.692  1.00  0.00    -0.744 OA
ENDBRANCH  78  79
ENDBRANCH  57  71
BRANCH  58  83
ATOM     83  C   UNL A   1      36.412  33.351  31.035  1.00  0.00     0.058 A 
ATOM     84  C   UNL A   1      36.654  34.098  29.872  1.00  0.00     0.135 A 
ATOM     85  C   UNL A   1      35.094  33.300  31.515  1.00  0.00     0.135 A 
ATOM     86  F   UNL A   1      37.897  34.182  29.375  1.00  0.00    -0.206 F 
ATOM     87  C   UNL A   1      35.633  34.783  29.220  1.00  0.00     0.059 A 
ATOM     88  C   UNL A   1      34.052  33.952  30.865  1.00  0.00     0.059 A 
ATOM     89  F   UNL A   1      34.806  32.584  32.613  1.00  0.00    -0.206 F 
ATOM     90  C   UNL A   1      34.333  34.701  29.723  1.00  0.00     0.060 A 
BRANCH  90  91
ATOM     91  S   UNL A   1      33.007  35.552  28.840  1.00  0.00     0.124 S 
ATOM     92  O   UNL A   1      33.751  36.561  28.095  1.00  0.00    -0.237 OA
ATOM     93  O   UNL A   1      32.425  34.472  28.049  1.00  0.00    -0.237 OA
ATOM     94  O   UNL A   1      32.160  36.058  29.916  1.00  0.00    -0.744 OA
ENDBRANCH  90  91
ENDBRANCH  58  83
BRANCH  70  95
ATOM     95  C   UNL A   1      39.902  34.398  36.991  1.00  0.00     0.058 A 
ATOM     96  C   UNL A   1      40.570  35.618  36.804  1.00  0.00     0.135 A 
ATOM     97  C   UNL A   1      39.148  34.237  38.166  1.00  0.00     0.135 A 
ATOM     98  F   UNL A   1      41.307  35.824  35.700  1.00  0.00    -0.206 F 
ATOM     99  C   UNL A   1      40.526  36.625  37.763  1.00  0.00     0.059 A 
ATOM    100  C   UNL A   1      39.062  35.243  39.122  1.00  0.00     0.059 A 
ATOM    101  F   UNL A   1      38.478  33.095  38.389  1.00  0.00    -0.206 F 
ATOM    102  C   UNL A   1      39.769  36.427  38.920  1.00  0.00     0.060 A 
BRANCH 102 103
ATOM    103  S   UNL A   1      39.713  37.745  40.152  1.00  0.00     0.124 S 
ATOM    104  O   UNL A   1      39.424  36.995  41.371  1.00  0.00    -0.237 OA
ATOM    105  O   UNL A   1      41.052  38.316  40.060  1.00  0.00    -0.237 OA
ATOM    106  O   UNL A   1      38.635  38.608  39.677  1.00  0.00    -0.744 OA
ENDBRANCH 102 103
ENDBRANCH  70  95
ENDBRANCH  44  45
ENDBRANCH  36  39
ENDBRANCH  34  35
ENDBRANCH  33  34
ENDBRANCH  32  33
ENDBRANCH   1  32
TORSDOF 20
ENDMDL
MODEL 3
REMARK VINA RESULT:     -12.0      1.647      8.133
REMARK SMILES CCSc1ccc(-c2cc(Cl)cc3c2O[C@H](C(F)(F)F)C(C(=O)NCCCCCCNC(=O)c2ccc(-c4c5nc(c(-c6c(F)cc(S(=O)(=O)[O-])cc6F)c6ccc([nH]6)c(-c6c(F)cc(S(=O)(=O)[O-])cc6F)c6nc(c(-c7c(F)cc(S(=O)(=O)[O-])cc7F)c7ccc4[nH]7)C=C6)C=C5)cc2)=C3)cc1
REMARK SMILES IDX 27 1 26 2 25 3 24 4 22 5 23 6 21 8 8 9 9 10 14 11 10 12
REMARK SMILES IDX 13 13 15 14 11 15 12 16 100 17 16 18 7 19 4 20 5 21 102 22
REMARK SMILES IDX 6 23 101 24 3 25 2 26 1 27 17 28 18 29 19 30 20 31 28 32
REMARK SMILES IDX 29 33 30 34 31 35 32 36 33 38 34 39 35 40 99 41 36 42 98 43
REMARK SMILES IDX 37 44 38 45 39 46 92 47 40 48 97 49 91 50 93 51 41 52 96 53
REMARK SMILES IDX 90 54 89 55 42 57 76 58 55 59 75 60 56 61 59 62 74 63 94 64
REMARK SMILES IDX 57 65 58 66 73 68 95 69 60 70 43 71 44 72 53 73 45 74 46 75
REMARK SMILES IDX 52 76 54 77 47 78 48 79 49 80 50 81 51 82 77 83 78 84 87 85
REMARK SMILES IDX 79 86 80 87 86 88 88 89 81 90 82 91 83 92 84 93 85 94 61 95
REMARK SMILES IDX 62 96 71 97 63 98 64 99 70 100 72 101 65 102 66 103 67 104
REMARK SMILES IDX 68 105 69 106
REMARK H PARENT 24 7 31 37 93 56 59 67
REMARK Flexibility Score: inf
ROOT
ATOM      1  C   UNL A   1      36.027  21.482  25.841  1.00  0.00     0.002 C 
ENDROOT
BRANCH   1   2
ATOM      2  C   UNL A   1      35.670  20.331  24.885  1.00  0.00     0.021 C 
BRANCH   2   3
ATOM      3  C   UNL A   1      34.170  20.178  24.592  1.00  0.00     0.116 C 
BRANCH   3   4
ATOM      4  N   UNL A   1      33.794  21.053  23.498  1.00  0.00    -0.352 N 
ATOM      5  C   UNL A   1      32.954  22.112  23.597  1.00  0.00     0.251 C 
ATOM      6  O   UNL A   1      32.024  22.233  22.809  1.00  0.00    -0.270 OA
ATOM      7  H   UNL A   1      34.180  20.862  22.613  1.00  0.00     0.163 HD
BRANCH   5   8
ATOM      8  C   UNL A   1      33.339  23.173  24.574  1.00  0.00     0.067 C 
ATOM      9  C   UNL A   1      31.164  26.250  23.039  1.00  0.00     0.026 A 
ATOM     10  C   UNL A   1      31.337  26.177  21.632  1.00  0.00     0.033 A 
ATOM     11  C   UNL A   1      32.046  25.466  23.811  1.00  0.00     0.135 A 
ATOM     12  C   UNL A   1      32.436  25.555  21.041  1.00  0.00     0.042 A 
ATOM     13  C   UNL A   1      33.218  24.948  23.201  1.00  0.00     0.019 A 
ATOM     14  O   UNL A   1      31.805  25.105  25.134  1.00  0.00    -0.475 OA
ATOM     15  Cl  UNL A   1      32.571  25.512  19.329  1.00  0.00    -0.084 Cl
ATOM     16  C   UNL A   1      33.429  25.011  21.828  1.00  0.00     0.032 A 
ATOM     17  C   UNL A   1      34.124  24.124  24.029  1.00  0.00     0.025 C 
ATOM     18  C   UNL A   1      32.210  23.692  25.449  1.00  0.00     0.314 C 
BRANCH   9  19
ATOM     19  C   UNL A   1      30.273  27.362  23.489  1.00  0.00    -0.015 A 
ATOM     20  C   UNL A   1      28.619  29.683  23.175  1.00  0.00     0.007 A 
ATOM     21  C   UNL A   1      28.056  28.409  23.193  1.00  0.00     0.015 A 
ATOM     22  C   UNL A   1      29.989  29.794  23.450  1.00  0.00     0.015 A 
ATOM     23  C   UNL A   1      28.868  27.269  23.366  1.00  0.00     0.010 A 
ATOM     24  C   UNL A   1      30.802  28.655  23.610  1.00  0.00     0.010 A 
BRANCH  20  25
ATOM     25  S   UNL A   1      27.688  31.194  22.926  1.00  0.00    -0.126 SA
BRANCH  25  26
ATOM     26  C   UNL A   1      28.908  32.420  22.311  1.00  0.00     0.071 C 
ATOM     27  C   UNL A   1      28.986  33.666  23.180  1.00  0.00     0.016 C 
ENDBRANCH  25  26
ENDBRANCH  20  25
ENDBRANCH   9  19
BRANCH  18  28
ATOM     28  C   UNL A   1      32.647  23.515  26.924  1.00  0.00     0.429 C 
ATOM     29  F   UNL A   1      32.601  22.227  27.330  1.00  0.00    -0.167 F 
ATOM     30  F   UNL A   1      33.909  23.967  27.119  1.00  0.00    -0.167 F 
ATOM     31  F   UNL A   1      31.861  24.217  27.783  1.00  0.00    -0.167 F 
ENDBRANCH  18  28
ENDBRANCH   5   8
ENDBRANCH   3   4
ENDBRANCH   2   3
ENDBRANCH   1   2
BRANCH   1  32
ATOM     32  C   UNL A   1      37.290  22.261  25.467  1.00  0.00     0.002 C 
BRANCH  32  33
ATOM     33  C   UNL A   1      37.240  23.749  25.815  1.00  0.00     0.021 C 
BRANCH  33  34
ATOM     34  C   UNL A   1      38.371  24.224  26.719  1.00  0.00     0.116 C 
BRANCH  34  35
ATOM     35  N   UNL A   1      39.620  24.396  25.994  1.00  0.00    -0.352 N 
ATOM     36  C   UNL A   1      40.585  25.353  26.159  1.00  0.00     0.251 C 
ATOM     37  H   UNL A   1      39.795  23.734  25.288  1.00  0.00     0.163 HD
ATOM     38  O   UNL A   1      41.492  25.454  25.330  1.00  0.00    -0.269 OA
BRANCH  36  39
ATOM     39  C   UNL A   1      40.530  26.271  27.316  1.00  0.00     0.039 A 
ATOM     40  C   UNL A   1      39.804  25.886  28.446  1.00  0.00     0.014 A 
ATOM     41  C   UNL A   1      41.172  27.513  27.284  1.00  0.00     0.014 A 
ATOM     42  C   UNL A   1      39.748  26.735  29.552  1.00  0.00     0.010 A 
ATOM     43  C   UNL A   1      41.187  28.318  28.419  1.00  0.00     0.010 A 
ATOM     44  C   UNL A   1      40.454  27.950  29.556  1.00  0.00    -0.014 A 
BRANCH  44  45
ATOM     45  C   UNL A   1      40.395  28.859  30.729  1.00  0.00     0.031 A 
ATOM     46  C   UNL A   1      39.387  29.978  30.769  1.00  0.00     0.074 A 
ATOM     47  C   UNL A   1      41.263  28.693  31.746  1.00  0.00     0.049 A 
ATOM     48  N   UNL A   1      39.184  30.874  31.700  1.00  0.00    -0.248 NA
ATOM     49  C   UNL A   1      38.510  30.126  29.595  1.00  0.00     0.031 C 
ATOM     50  C   UNL A   1      42.322  27.683  31.798  1.00  0.00     0.029 A 
ATOM     51  N   UNL A   1      41.394  29.371  32.932  1.00  0.00    -0.354 N 
ATOM     52  C   UNL A   1      38.162  31.690  31.225  1.00  0.00     0.074 A 
ATOM     53  C   UNL A   1      37.838  31.228  29.893  1.00  0.00     0.031 C 
ATOM     54  C   UNL A   1      42.973  27.786  32.967  1.00  0.00     0.029 A 
ATOM     55  C   UNL A   1      42.404  28.890  33.733  1.00  0.00     0.049 A 
ATOM     56  H   UNL A   1      40.820  30.128  33.186  1.00  0.00     0.167 HD
ATOM     57  C   UNL A   1      37.529  32.710  31.852  1.00  0.00     0.037 A 
ATOM     58  C   UNL A   1      42.823  29.295  34.948  1.00  0.00     0.037 A 
ATOM     59  C   UNL A   1      37.847  33.152  33.184  1.00  0.00     0.049 A 
ATOM     60  C   UNL A   1      42.102  30.426  35.629  1.00  0.00     0.074 A 
ATOM     61  C   UNL A   1      37.241  34.148  33.929  1.00  0.00     0.029 A 
ATOM     62  N   UNL A   1      38.862  32.628  33.972  1.00  0.00    -0.354 N 
ATOM     63  N   UNL A   1      41.096  31.147  35.191  1.00  0.00    -0.248 NA
ATOM     64  C   UNL A   1      42.560  30.790  36.976  1.00  0.00     0.031 C 
ATOM     65  C   UNL A   1      37.919  34.259  35.147  1.00  0.00     0.029 A 
ATOM     66  C   UNL A   1      38.909  33.291  35.189  1.00  0.00     0.049 A 
ATOM     67  H   UNL A   1      39.461  31.892  33.707  1.00  0.00     0.167 HD
ATOM     68  C   UNL A   1      40.781  32.029  36.220  1.00  0.00     0.074 A 
ATOM     69  C   UNL A   1      41.695  31.739  37.307  1.00  0.00     0.031 C 
ATOM     70  C   UNL A   1      39.823  32.988  36.262  1.00  0.00     0.037 A 
BRANCH  57  71
ATOM     71  C   UNL A   1      36.425  33.411  31.104  1.00  0.00     0.058 A 
ATOM     72  C   UNL A   1      36.692  34.238  29.999  1.00  0.00     0.135 A 
ATOM     73  C   UNL A   1      35.083  33.236  31.477  1.00  0.00     0.135 A 
ATOM     74  F   UNL A   1      37.957  34.457  29.606  1.00  0.00    -0.206 F 
ATOM     75  C   UNL A   1      35.673  34.895  29.317  1.00  0.00     0.059 A 
ATOM     76  C   UNL A   1      34.045  33.855  30.786  1.00  0.00     0.059 A 
ATOM     77  F   UNL A   1      34.769  32.457  32.523  1.00  0.00    -0.206 F 
ATOM     78  C   UNL A   1      34.352  34.697  29.718  1.00  0.00     0.060 A 
BRANCH  78  79
ATOM     79  S   UNL A   1      33.042  35.555  28.819  1.00  0.00     0.124 S 
ATOM     80  O   UNL A   1      32.263  36.124  29.915  1.00  0.00    -0.237 OA
ATOM     81  O   UNL A   1      33.792  36.510  28.011  1.00  0.00    -0.237 OA
ATOM     82  O   UNL A   1      32.385  34.486  28.073  1.00  0.00    -0.744 OA
ENDBRANCH  78  79
ENDBRANCH  57  71
BRANCH  58  83
ATOM     83  C   UNL A   1      43.965  28.604  35.605  1.00  0.00     0.058 A 
ATOM     84  C   UNL A   1      45.290  29.000  35.367  1.00  0.00     0.135 A 
ATOM     85  C   UNL A   1      43.753  27.545  36.501  1.00  0.00     0.135 A 
ATOM     86  F   UNL A   1      45.547  30.005  34.515  1.00  0.00    -0.206 F 
ATOM     87  C   UNL A   1      46.364  28.360  35.976  1.00  0.00     0.059 A 
ATOM     88  C   UNL A   1      44.808  26.908  37.146  1.00  0.00     0.059 A 
ATOM     89  F   UNL A   1      42.505  27.139  36.779  1.00  0.00    -0.206 F 
ATOM     90  C   UNL A   1      46.113  27.316  36.869  1.00  0.00     0.060 A 
BRANCH  90  91
ATOM     91  S   UNL A   1      47.511  26.526  37.694  1.00  0.00     0.124 S 
ATOM     92  O   UNL A   1      47.039  25.152  37.820  1.00  0.00    -0.237 OA
ATOM     93  O   UNL A   1      48.593  26.745  36.739  1.00  0.00    -0.237 OA
ATOM     94  O   UNL A   1      47.627  27.271  38.944  1.00  0.00    -0.744 OA
ENDBRANCH  90  91
ENDBRANCH  58  83
BRANCH  70  95
ATOM     95  C   UNL A   1      39.683  33.768  37.544  1.00  0.00     0.058 A 
ATOM     96  C   UNL A   1      40.415  34.941  37.784  1.00  0.00     0.135 A 
ATOM     97  C   UNL A   1      38.777  33.348  38.531  1.00  0.00     0.135 A 
ATOM     98  F   UNL A   1      41.297  35.386  36.874  1.00  0.00    -0.206 F 
ATOM     99  C   UNL A   1      40.283  35.649  38.974  1.00  0.00     0.059 A 
ATOM    100  C   UNL A   1      38.603  34.058  39.714  1.00  0.00     0.059 A 
ATOM    101  F   UNL A   1      38.040  32.240  38.348  1.00  0.00    -0.206 F 
ATOM    102  C   UNL A   1      39.375  35.198  39.935  1.00  0.00     0.060 A 
BRANCH 102 103
ATOM    103  S   UNL A   1      39.206  36.130  41.471  1.00  0.00     0.124 S 
ATOM    104  O   UNL A   1      39.153  37.502  40.977  1.00  0.00    -0.237 OA
ATOM    105  O   UNL A   1      37.961  35.605  42.020  1.00  0.00    -0.237 OA
ATOM    106  O   UNL A   1      40.411  35.779  42.216  1.00  0.00    -0.744 OA
ENDBRANCH 102 103
ENDBRANCH  70  95
ENDBRANCH  44  45
ENDBRANCH  36  39
ENDBRANCH  34  35
ENDBRANCH  33  34
ENDBRANCH  32  33
ENDBRANCH   1  32
TORSDOF 20
ENDMDL
