MODEL 1
REMARK VINA RESULT:     -12.0      0.000      0.000
REMARK SMILES O=C(NCCCCCCNC(=O)[C@H]1C=C[C@@H](NC(=O)c2cn3ccccc3n2)C1)c1ccc(-c2c3nc(c(-c4c(F)cc(S(=O)(=O)[O-])cc4F)c4ccc([nH]4)c(-c4c(F)cc(S(=O)(=O)[O-])cc4F)c4nc(c(-c5c(F)cc(S(=O)(=O)[O-])cc5F)c5ccc2[nH]5)C=C4)C=C3)cc1
REMARK SMILES IDX 6 1 5 2 4 3 3 4 1 5 2 6 30 8 31 9 95 10 32 11 94 12 33 13
REMARK SMILES IDX 34 14 35 15 88 16 36 17 93 18 87 19 89 20 37 21 92 22 86 23
REMARK SMILES IDX 85 24 38 26 72 27 51 28 71 29 52 30 55 31 70 32 90 33 53 34
REMARK SMILES IDX 54 35 69 37 91 38 56 39 39 40 40 41 49 42 41 43 42 44 48 45
REMARK SMILES IDX 50 46 43 47 44 48 45 49 46 50 47 51 73 52 74 53 83 54 75 55
REMARK SMILES IDX 76 56 82 57 84 58 77 59 78 60 79 61 80 62 81 63 57 64 58 65
REMARK SMILES IDX 67 66 59 67 60 68 66 69 68 70 61 71 62 72 63 73 64 74 65 75
REMARK SMILES IDX 7 76 8 77 9 78 10 79 11 80 12 82 13 83 14 84 29 85 15 86
REMARK SMILES IDX 16 87 17 88 18 89 19 91 20 92 21 93 28 94 22 95 27 96 23 97
REMARK SMILES IDX 26 98 24 99 25 100
REMARK H PARENT 3 7 89 25 55 36 10 81 17 90
REMARK Flexibility Score: inf
ROOT
ATOM      1  C   UNL A   1      34.982  32.937  28.516  1.00  0.00     0.002 C 
ENDROOT
BRANCH   1   2
ATOM      2  C   UNL A   1      36.456  33.341  28.583  1.00  0.00     0.021 C 
BRANCH   2   3
ATOM      3  C   UNL A   1      37.102  33.146  29.949  1.00  0.00     0.116 C 
BRANCH   3   4
ATOM      4  N   UNL A   1      36.422  32.132  30.741  1.00  0.00    -0.352 N 
ATOM      5  O   UNL A   1      35.942  30.047  31.455  1.00  0.00    -0.269 OA
ATOM      6  C   UNL A   1      36.731  30.802  30.895  1.00  0.00     0.251 C 
ATOM      7  H   UNL A   1      35.630  32.443  31.237  1.00  0.00     0.163 HD
BRANCH   6   8
ATOM      8  C   UNL A   1      38.008  30.283  30.359  1.00  0.00     0.039 A 
ATOM      9  C   UNL A   1      39.059  29.961  31.220  1.00  0.00     0.014 A 
ATOM     10  C   UNL A   1      38.161  30.131  28.978  1.00  0.00     0.014 A 
ATOM     11  C   UNL A   1      40.306  29.639  30.697  1.00  0.00     0.010 A 
ATOM     12  C   UNL A   1      39.394  29.722  28.458  1.00  0.00     0.010 A 
ATOM     13  C   UNL A   1      40.489  29.514  29.310  1.00  0.00    -0.014 A 
BRANCH  13  14
ATOM     14  C   UNL A   1      41.829  29.136  28.789  1.00  0.00     0.031 A 
ATOM     15  C   UNL A   1      42.970  30.118  28.790  1.00  0.00     0.074 A 
ATOM     16  C   UNL A   1      42.023  27.875  28.353  1.00  0.00     0.049 A 
ATOM     17  N   UNL A   1      44.213  29.935  28.424  1.00  0.00    -0.248 NA
ATOM     18  C   UNL A   1      42.680  31.484  29.254  1.00  0.00     0.031 C 
ATOM     19  C   UNL A   1      40.989  26.839  28.288  1.00  0.00     0.029 A 
ATOM     20  N   UNL A   1      43.155  27.241  27.910  1.00  0.00    -0.354 N 
ATOM     21  C   UNL A   1      44.847  31.162  28.585  1.00  0.00     0.074 A 
ATOM     22  C   UNL A   1      43.844  32.090  29.064  1.00  0.00     0.031 C 
ATOM     23  C   UNL A   1      41.544  25.686  27.887  1.00  0.00     0.029 A 
ATOM     24  C   UNL A   1      42.959  25.912  27.614  1.00  0.00     0.049 A 
ATOM     25  H   UNL A   1      44.024  27.693  27.814  1.00  0.00     0.167 HD
ATOM     26  C   UNL A   1      46.145  31.483  28.361  1.00  0.00     0.037 A 
ATOM     27  C   UNL A   1      43.820  24.977  27.170  1.00  0.00     0.037 A 
ATOM     28  C   UNL A   1      47.144  30.547  27.911  1.00  0.00     0.049 A 
ATOM     29  C   UNL A   1      45.256  25.356  26.944  1.00  0.00     0.074 A 
ATOM     30  C   UNL A   1      48.493  30.765  27.693  1.00  0.00     0.029 A 
ATOM     31  N   UNL A   1      46.903  29.214  27.609  1.00  0.00    -0.354 N 
ATOM     32  N   UNL A   1      45.841  26.515  27.134  1.00  0.00    -0.248 NA
ATOM     33  C   UNL A   1      46.148  24.302  26.446  1.00  0.00     0.031 C 
ATOM     34  C   UNL A   1      49.061  29.574  27.225  1.00  0.00     0.029 A 
ATOM     35  C   UNL A   1      48.076  28.601  27.193  1.00  0.00     0.049 A 
ATOM     36  H   UNL A   1      46.028  28.768  27.679  1.00  0.00     0.167 HD
ATOM     37  C   UNL A   1      47.176  26.322  26.800  1.00  0.00     0.074 A 
ATOM     38  C   UNL A   1      47.314  24.934  26.409  1.00  0.00     0.031 C 
ATOM     39  C   UNL A   1      48.196  27.216  26.815  1.00  0.00     0.037 A 
BRANCH  26  40
ATOM     40  C   UNL A   1      46.560  32.913  28.579  1.00  0.00     0.058 A 
ATOM     41  C   UNL A   1      47.050  33.364  29.814  1.00  0.00     0.135 A 
ATOM     42  C   UNL A   1      46.502  33.837  27.522  1.00  0.00     0.135 A 
ATOM     43  F   UNL A   1      47.114  32.527  30.862  1.00  0.00    -0.206 F 
ATOM     44  C   UNL A   1      47.444  34.686  30.002  1.00  0.00     0.059 A 
ATOM     45  C   UNL A   1      46.913  35.158  27.681  1.00  0.00     0.059 A 
ATOM     46  F   UNL A   1      46.044  33.459  26.319  1.00  0.00    -0.206 F 
ATOM     47  C   UNL A   1      47.368  35.577  28.930  1.00  0.00     0.060 A 
BRANCH  47  48
ATOM     48  S   UNL A   1      47.877  37.290  29.187  1.00  0.00     0.124 S 
ATOM     49  O   UNL A   1      48.815  37.483  28.086  1.00  0.00    -0.237 OA
ATOM     50  O   UNL A   1      46.613  38.014  29.078  1.00  0.00    -0.237 OA
ATOM     51  O   UNL A   1      48.469  37.272  30.521  1.00  0.00    -0.744 OA
ENDBRANCH  47  48
ENDBRANCH  26  40
BRANCH  27  52
ATOM     52  C   UNL A   1      43.345  23.592  26.929  1.00  0.00     0.058 A 
ATOM     53  C   UNL A   1      43.170  23.105  25.626  1.00  0.00     0.135 A 
ATOM     54  C   UNL A   1      43.085  22.717  27.995  1.00  0.00     0.135 A 
ATOM     55  F   UNL A   1      43.405  23.905  24.574  1.00  0.00    -0.206 F 
ATOM     56  C   UNL A   1      42.742  21.804  25.385  1.00  0.00     0.059 A 
ATOM     57  C   UNL A   1      42.681  21.403  27.781  1.00  0.00     0.059 A 
ATOM     58  F   UNL A   1      43.256  23.130  29.261  1.00  0.00    -0.206 F 
ATOM     59  C   UNL A   1      42.503  20.960  26.472  1.00  0.00     0.060 A 
BRANCH  59  60
ATOM     60  S   UNL A   1      42.002  19.255  26.152  1.00  0.00     0.124 S 
ATOM     61  O   UNL A   1      40.563  19.401  25.971  1.00  0.00    -0.237 OA
ATOM     62  O   UNL A   1      42.767  18.928  24.953  1.00  0.00    -0.237 OA
ATOM     63  O   UNL A   1      42.420  18.552  27.362  1.00  0.00    -0.744 OA
ENDBRANCH  59  60
ENDBRANCH  27  52
BRANCH  39  64
ATOM     64  C   UNL A   1      49.557  26.705  26.435  1.00  0.00     0.058 A 
ATOM     65  C   UNL A   1      50.366  26.008  27.347  1.00  0.00     0.135 A 
ATOM     66  C   UNL A   1      50.049  26.898  25.134  1.00  0.00     0.135 A 
ATOM     67  F   UNL A   1      49.945  25.804  28.605  1.00  0.00    -0.206 F 
ATOM     68  C   UNL A   1      51.630  25.550  26.991  1.00  0.00     0.059 A 
ATOM     69  C   UNL A   1      51.300  26.427  24.750  1.00  0.00     0.059 A 
ATOM     70  F   UNL A   1      49.311  27.550  24.223  1.00  0.00    -0.206 F 
ATOM     71  C   UNL A   1      52.090  25.768  25.691  1.00  0.00     0.060 A 
BRANCH  71  72
ATOM     72  S   UNL A   1      53.729  25.162  25.235  1.00  0.00     0.124 S 
ATOM     73  O   UNL A   1      53.576  23.725  25.440  1.00  0.00    -0.237 OA
ATOM     74  O   UNL A   1      53.851  25.595  23.847  1.00  0.00    -0.237 OA
ATOM     75  O   UNL A   1      54.614  25.841  26.177  1.00  0.00    -0.744 OA
ENDBRANCH  71  72
ENDBRANCH  39  64
ENDBRANCH  13  14
ENDBRANCH   6   8
ENDBRANCH   3   4
ENDBRANCH   2   3
ENDBRANCH   1   2
BRANCH   1  76
ATOM     76  C   UNL A   1      34.700  31.625  27.774  1.00  0.00     0.002 C 
BRANCH  76  77
ATOM     77  C   UNL A   1      33.220  31.355  27.465  1.00  0.00     0.021 C 
BRANCH  77  78
ATOM     78  C   UNL A   1      32.995  30.149  26.554  1.00  0.00     0.116 C 
BRANCH  78  79
ATOM     79  N   UNL A   1      31.867  30.385  25.672  1.00  0.00    -0.356 N 
ATOM     80  C   UNL A   1      31.177  29.536  24.864  1.00  0.00     0.227 C 
ATOM     81  H   UNL A   1      31.547  31.315  25.657  1.00  0.00     0.163 HD
ATOM     82  O   UNL A   1      30.357  30.034  24.086  1.00  0.00    -0.274 OA
BRANCH  80  83
ATOM     83  C   UNL A   1      31.312  28.015  24.960  1.00  0.00     0.103 C 
ATOM     84  C   UNL A   1      30.102  27.188  24.646  1.00  0.00    -0.016 C 
ATOM     85  C   UNL A   1      32.368  27.493  23.978  1.00  0.00     0.047 C 
ATOM     86  C   UNL A   1      30.410  26.157  23.846  1.00  0.00    -0.006 C 
ATOM     87  C   UNL A   1      31.868  26.117  23.529  1.00  0.00     0.106 C 
BRANCH  87  88
ATOM     88  N   UNL A   1      32.046  25.914  22.112  1.00  0.00    -0.344 N 
ATOM     89  C   UNL A   1      32.852  24.986  21.489  1.00  0.00     0.271 C 
ATOM     90  H   UNL A   1      31.531  26.508  21.519  1.00  0.00     0.164 HD
ATOM     91  O   UNL A   1      33.103  25.122  20.294  1.00  0.00    -0.267 OA
BRANCH  89  92
ATOM     92  C   UNL A   1      33.370  23.880  22.291  1.00  0.00     0.147 A 
ATOM     93  C   UNL A   1      32.670  22.752  22.685  1.00  0.00     0.127 A 
ATOM     94  N   UNL A   1      34.662  23.833  22.787  1.00  0.00    -0.223 NA
ATOM     95  N   UNL A   1      33.515  22.053  23.500  1.00  0.00    -0.306 N 
ATOM     96  C   UNL A   1      34.726  22.733  23.506  1.00  0.00     0.137 A 
ATOM     97  C   UNL A   1      33.272  20.900  24.242  1.00  0.00     0.093 A 
ATOM     98  C   UNL A   1      35.779  22.172  24.282  1.00  0.00     0.048 A 
ATOM     99  C   UNL A   1      34.258  20.394  25.004  1.00  0.00     0.018 A 
ATOM    100  C   UNL A   1      35.555  21.056  25.004  1.00  0.00     0.005 A 
ENDBRANCH  89  92
ENDBRANCH  87  88
ENDBRANCH  80  83
ENDBRANCH  78  79
ENDBRANCH  77  78
ENDBRANCH  76  77
ENDBRANCH   1  76
TORSDOF 18
ENDMDL
MODEL 2
REMARK VINA RESULT:     -11.9      0.942      1.484
REMARK SMILES O=C(NCCCCCCNC(=O)[C@H]1C=C[C@@H](NC(=O)c2cn3ccccc3n2)C1)c1ccc(-c2c3nc(c(-c4c(F)cc(S(=O)(=O)[O-])cc4F)c4ccc([nH]4)c(-c4c(F)cc(S(=O)(=O)[O-])cc4F)c4nc(c(-c5c(F)cc(S(=O)(=O)[O-])cc5F)c5ccc2[nH]5)C=C4)C=C3)cc1
REMARK SMILES IDX 6 1 5 2 4 3 3 4 1 5 2 6 30 8 31 9 95 10 32 11 94 12 33 13
REMARK SMILES IDX 34 14 35 15 88 16 36 17 93 18 87 19 89 20 37 21 92 22 86 23
REMARK SMILES IDX 85 24 38 26 72 27 51 28 71 29 52 30 55 31 70 32 90 33 53 34
REMARK SMILES IDX 54 35 69 37 91 38 56 39 39 40 40 41 49 42 41 43 42 44 48 45
REMARK SMILES IDX 50 46 43 47 44 48 45 49 46 50 47 51 73 52 74 53 83 54 75 55
REMARK SMILES IDX 76 56 82 57 84 58 77 59 78 60 79 61 80 62 81 63 57 64 58 65
REMARK SMILES IDX 67 66 59 67 60 68 66 69 68 70 61 71 62 72 63 73 64 74 65 75
REMARK SMILES IDX 7 76 8 77 9 78 10 79 11 80 12 82 13 83 14 84 29 85 15 86
REMARK SMILES IDX 16 87 17 88 18 89 19 91 20 92 21 93 28 94 22 95 27 96 23 97
REMARK SMILES IDX 26 98 24 99 25 100
REMARK H PARENT 3 7 89 25 55 36 10 81 17 90
REMARK Flexibility Score: inf
ROOT
ATOM      1  C   UNL A   1      37.142  33.528  29.334  1.00  0.00     0.002 C 
ENDROOT
BRANCH   1   2
ATOM      2  C   UNL A   1      37.309  33.985  30.784  1.00  0.00     0.021 C 
BRANCH   2   3
ATOM      3  C   UNL A   1      37.861  32.919  31.722  1.00  0.00     0.116 C 
BRANCH   3   4
ATOM      4  N   UNL A   1      36.926  31.823  31.924  1.00  0.00    -0.352 N 
ATOM      5  O   UNL A   1      36.037  29.777  31.588  1.00  0.00    -0.269 OA
ATOM      6  C   UNL A   1      37.006  30.523  31.484  1.00  0.00     0.251 C 
ATOM      7  H   UNL A   1      36.123  32.043  32.450  1.00  0.00     0.163 HD
BRANCH   6   8
ATOM      8  C   UNL A   1      38.258  30.039  30.862  1.00  0.00     0.039 A 
ATOM      9  C   UNL A   1      39.275  29.495  31.649  1.00  0.00     0.014 A 
ATOM     10  C   UNL A   1      38.422  30.145  29.478  1.00  0.00     0.014 A 
ATOM     11  C   UNL A   1      40.508  29.204  31.078  1.00  0.00     0.010 A 
ATOM     12  C   UNL A   1      39.636  29.769  28.893  1.00  0.00     0.010 A 
ATOM     13  C   UNL A   1      40.703  29.335  29.693  1.00  0.00    -0.014 A 
BRANCH  13  14
ATOM     14  C   UNL A   1      42.027  28.983  29.113  1.00  0.00     0.031 A 
ATOM     15  C   UNL A   1      43.165  29.968  29.115  1.00  0.00     0.074 A 
ATOM     16  C   UNL A   1      42.209  27.741  28.623  1.00  0.00     0.049 A 
ATOM     17  N   UNL A   1      44.395  29.804  28.701  1.00  0.00    -0.248 NA
ATOM     18  C   UNL A   1      42.887  31.314  29.642  1.00  0.00     0.031 C 
ATOM     19  C   UNL A   1      41.176  26.704  28.551  1.00  0.00     0.029 A 
ATOM     20  N   UNL A   1      43.327  27.128  28.118  1.00  0.00    -0.354 N 
ATOM     21  C   UNL A   1      45.031  31.026  28.889  1.00  0.00     0.074 A 
ATOM     22  C   UNL A   1      44.043  31.931  29.437  1.00  0.00     0.031 C 
ATOM     23  C   UNL A   1      41.720  25.570  28.087  1.00  0.00     0.029 A 
ATOM     24  C   UNL A   1      43.125  25.811  27.777  1.00  0.00     0.049 A 
ATOM     25  H   UNL A   1      44.191  27.587  28.010  1.00  0.00     0.167 HD
ATOM     26  C   UNL A   1      46.320  31.361  28.635  1.00  0.00     0.037 A 
ATOM     27  C   UNL A   1      43.973  24.898  27.267  1.00  0.00     0.037 A 
ATOM     28  C   UNL A   1      47.306  30.446  28.116  1.00  0.00     0.049 A 
ATOM     29  C   UNL A   1      45.400  25.291  27.009  1.00  0.00     0.074 A 
ATOM     30  C   UNL A   1      48.647  30.678  27.862  1.00  0.00     0.029 A 
ATOM     31  N   UNL A   1      47.058  29.125  27.770  1.00  0.00    -0.354 N 
ATOM     32  N   UNL A   1      45.988  26.443  27.225  1.00  0.00    -0.248 NA
ATOM     33  C   UNL A   1      46.277  24.259  26.442  1.00  0.00     0.031 C 
ATOM     34  C   UNL A   1      49.202  29.508  27.329  1.00  0.00     0.029 A 
ATOM     35  C   UNL A   1      48.218  28.534  27.292  1.00  0.00     0.049 A 
ATOM     36  H   UNL A   1      46.187  28.674  27.851  1.00  0.00     0.167 HD
ATOM     37  C   UNL A   1      47.312  26.269  26.839  1.00  0.00     0.074 A 
ATOM     38  C   UNL A   1      47.439  24.897  26.391  1.00  0.00     0.031 C 
ATOM     39  C   UNL A   1      48.329  27.165  26.856  1.00  0.00     0.037 A 
BRANCH  26  40
ATOM     40  C   UNL A   1      46.739  32.782  28.895  1.00  0.00     0.058 A 
ATOM     41  C   UNL A   1      47.261  33.189  30.132  1.00  0.00     0.135 A 
ATOM     42  C   UNL A   1      46.652  33.745  27.874  1.00  0.00     0.135 A 
ATOM     43  F   UNL A   1      47.354  32.314  31.146  1.00  0.00    -0.206 F 
ATOM     44  C   UNL A   1      47.658  34.504  30.359  1.00  0.00     0.059 A 
ATOM     45  C   UNL A   1      47.065  35.060  28.072  1.00  0.00     0.059 A 
ATOM     46  F   UNL A   1      46.163  33.411  26.671  1.00  0.00    -0.206 F 
ATOM     47  C   UNL A   1      47.552  35.434  29.323  1.00  0.00     0.060 A 
BRANCH  47  48
ATOM     48  S   UNL A   1      48.065  37.138  29.630  1.00  0.00     0.124 S 
ATOM     49  O   UNL A   1      49.463  37.099  29.214  1.00  0.00    -0.237 OA
ATOM     50  O   UNL A   1      47.167  37.897  28.766  1.00  0.00    -0.237 OA
ATOM     51  O   UNL A   1      47.841  37.306  31.062  1.00  0.00    -0.744 OA
ENDBRANCH  47  48
ENDBRANCH  26  40
BRANCH  27  52
ATOM     52  C   UNL A   1      43.493  23.521  26.988  1.00  0.00     0.058 A 
ATOM     53  C   UNL A   1      43.220  23.104  25.678  1.00  0.00     0.135 A 
ATOM     54  C   UNL A   1      43.328  22.585  28.022  1.00  0.00     0.135 A 
ATOM     55  F   UNL A   1      43.361  23.963  24.657  1.00  0.00    -0.206 F 
ATOM     56  C   UNL A   1      42.786  21.812  25.401  1.00  0.00     0.059 A 
ATOM     57  C   UNL A   1      42.921  21.280  27.768  1.00  0.00     0.059 A 
ATOM     58  F   UNL A   1      43.596  22.932  29.291  1.00  0.00    -0.206 F 
ATOM     59  C   UNL A   1      42.643  20.907  26.454  1.00  0.00     0.060 A 
BRANCH  59  60
ATOM     60  S   UNL A   1      42.134  19.214  26.080  1.00  0.00     0.124 S 
ATOM     61  O   UNL A   1      42.929  18.926  24.893  1.00  0.00    -0.237 OA
ATOM     62  O   UNL A   1      42.518  18.501  27.295  1.00  0.00    -0.237 OA
ATOM     63  O   UNL A   1      40.695  19.338  25.865  1.00  0.00    -0.744 OA
ENDBRANCH  59  60
ENDBRANCH  27  52
BRANCH  39  64
ATOM     64  C   UNL A   1      49.679  26.674  26.412  1.00  0.00     0.058 A 
ATOM     65  C   UNL A   1      50.116  26.812  25.085  1.00  0.00     0.135 A 
ATOM     66  C   UNL A   1      50.552  26.074  27.333  1.00  0.00     0.135 A 
ATOM     67  F   UNL A   1      49.315  27.371  24.164  1.00  0.00    -0.206 F 
ATOM     68  C   UNL A   1      51.361  26.343  24.680  1.00  0.00     0.059 A 
ATOM     69  C   UNL A   1      51.811  25.620  26.955  1.00  0.00     0.059 A 
ATOM     70  F   UNL A   1      50.184  25.927  28.616  1.00  0.00    -0.206 F 
ATOM     71  C   UNL A   1      52.200  25.744  25.622  1.00  0.00     0.060 A 
BRANCH  71  72
ATOM     72  S   UNL A   1      53.818  25.145  25.089  1.00  0.00     0.124 S 
ATOM     73  O   UNL A   1      53.532  23.743  24.806  1.00  0.00    -0.237 OA
ATOM     74  O   UNL A   1      54.097  25.982  23.926  1.00  0.00    -0.237 OA
ATOM     75  O   UNL A   1      54.668  25.392  26.249  1.00  0.00    -0.744 OA
ENDBRANCH  71  72
ENDBRANCH  39  64
ENDBRANCH  13  14
ENDBRANCH   6   8
ENDBRANCH   3   4
ENDBRANCH   2   3
ENDBRANCH   1   2
BRANCH   1  76
ATOM     76  C   UNL A   1      35.743  33.013  28.971  1.00  0.00     0.002 C 
BRANCH  76  77
ATOM     77  C   UNL A   1      35.699  32.008  27.810  1.00  0.00     0.021 C 
BRANCH  77  78
ATOM     78  C   UNL A   1      35.016  30.689  28.169  1.00  0.00     0.116 C 
BRANCH  78  79
ATOM     79  N   UNL A   1      33.613  30.730  27.801  1.00  0.00    -0.356 N 
ATOM     80  C   UNL A   1      32.843  29.835  27.126  1.00  0.00     0.227 C 
ATOM     81  H   UNL A   1      33.137  31.542  28.090  1.00  0.00     0.163 HD
ATOM     82  O   UNL A   1      31.707  30.195  26.801  1.00  0.00    -0.274 OA
BRANCH  80  83
ATOM     83  C   UNL A   1      33.296  28.400  26.853  1.00  0.00     0.103 C 
ATOM     84  C   UNL A   1      32.239  27.342  26.760  1.00  0.00    -0.016 C 
ATOM     85  C   UNL A   1      34.024  28.298  25.507  1.00  0.00     0.047 C 
ATOM     86  C   UNL A   1      32.443  26.539  25.707  1.00  0.00    -0.006 C 
ATOM     87  C   UNL A   1      33.678  26.913  24.955  1.00  0.00     0.106 C 
BRANCH  87  88
ATOM     88  N   UNL A   1      33.387  26.952  23.542  1.00  0.00    -0.344 N 
ATOM     89  C   UNL A   1      33.616  25.966  22.608  1.00  0.00     0.271 C 
ATOM     90  H   UNL A   1      32.977  27.781  23.205  1.00  0.00     0.164 HD
ATOM     91  O   UNL A   1      33.570  26.254  21.415  1.00  0.00    -0.267 OA
BRANCH  89  92
ATOM     92  C   UNL A   1      33.905  24.618  23.091  1.00  0.00     0.147 A 
ATOM     93  C   UNL A   1      32.985  23.602  23.291  1.00  0.00     0.127 A 
ATOM     94  N   UNL A   1      35.173  24.183  23.439  1.00  0.00    -0.223 NA
ATOM     95  N   UNL A   1      33.685  22.567  23.846  1.00  0.00    -0.306 N 
ATOM     96  C   UNL A   1      35.018  22.956  23.886  1.00  0.00     0.137 A 
ATOM     97  C   UNL A   1      33.219  21.348  24.334  1.00  0.00     0.093 A 
ATOM     98  C   UNL A   1      35.949  22.018  24.415  1.00  0.00     0.048 A 
ATOM     99  C   UNL A   1      34.097  20.480  24.866  1.00  0.00     0.018 A 
ATOM    100  C   UNL A   1      35.509  20.835  24.889  1.00  0.00     0.005 A 
ENDBRANCH  89  92
ENDBRANCH  87  88
ENDBRANCH  80  83
ENDBRANCH  78  79
ENDBRANCH  77  78
ENDBRANCH  76  77
ENDBRANCH   1  76
TORSDOF 18
ENDMDL
MODEL 3
REMARK VINA RESULT:     -11.8      1.498      2.528
REMARK SMILES O=C(NCCCCCCNC(=O)[C@H]1C=C[C@@H](NC(=O)c2cn3ccccc3n2)C1)c1ccc(-c2c3nc(c(-c4c(F)cc(S(=O)(=O)[O-])cc4F)c4ccc([nH]4)c(-c4c(F)cc(S(=O)(=O)[O-])cc4F)c4nc(c(-c5c(F)cc(S(=O)(=O)[O-])cc5F)c5ccc2[nH]5)C=C4)C=C3)cc1
REMARK SMILES IDX 6 1 5 2 4 3 3 4 1 5 2 6 30 8 31 9 95 10 32 11 94 12 33 13
REMARK SMILES IDX 34 14 35 15 88 16 36 17 93 18 87 19 89 20 37 21 92 22 86 23
REMARK SMILES IDX 85 24 38 26 72 27 51 28 71 29 52 30 55 31 70 32 90 33 53 34
REMARK SMILES IDX 54 35 69 37 91 38 56 39 39 40 40 41 49 42 41 43 42 44 48 45
REMARK SMILES IDX 50 46 43 47 44 48 45 49 46 50 47 51 73 52 74 53 83 54 75 55
REMARK SMILES IDX 76 56 82 57 84 58 77 59 78 60 79 61 80 62 81 63 57 64 58 65
REMARK SMILES IDX 67 66 59 67 60 68 66 69 68 70 61 71 62 72 63 73 64 74 65 75
REMARK SMILES IDX 7 76 8 77 9 78 10 79 11 80 12 82 13 83 14 84 29 85 15 86
REMARK SMILES IDX 16 87 17 88 18 89 19 91 20 92 21 93 28 94 22 95 27 96 23 97
REMARK SMILES IDX 26 98 24 99 25 100
REMARK H PARENT 3 7 89 25 55 36 10 81 17 90
REMARK Flexibility Score: inf
ROOT
ATOM      1  C   UNL A   1      34.510  29.215  26.929  1.00  0.00     0.002 C 
ENDROOT
BRANCH   1   2
ATOM      2  C   UNL A   1      34.443  30.658  27.433  1.00  0.00     0.021 C 
BRANCH   2   3
ATOM      3  C   UNL A   1      35.650  31.095  28.254  1.00  0.00     0.116 C 
BRANCH   3   4
ATOM      4  N   UNL A   1      35.527  30.725  29.656  1.00  0.00    -0.352 N 
ATOM      5  O   UNL A   1      36.105  29.700  31.580  1.00  0.00    -0.269 OA
ATOM      6  C   UNL A   1      36.442  30.103  30.472  1.00  0.00     0.251 C 
ATOM      7  H   UNL A   1      34.667  30.952  30.080  1.00  0.00     0.163 HD
BRANCH   6   8
ATOM      8  C   UNL A   1      37.827  29.902  29.994  1.00  0.00     0.039 A 
ATOM      9  C   UNL A   1      38.108  29.883  28.626  1.00  0.00     0.014 A 
ATOM     10  C   UNL A   1      38.854  29.716  30.923  1.00  0.00     0.014 A 
ATOM     11  C   UNL A   1      39.377  29.524  28.188  1.00  0.00     0.010 A 
ATOM     12  C   UNL A   1      40.151  29.440  30.478  1.00  0.00     0.010 A 
ATOM     13  C   UNL A   1      40.415  29.301  29.108  1.00  0.00    -0.014 A 
BRANCH  13  14
ATOM     14  C   UNL A   1      41.768  28.950  28.600  1.00  0.00     0.031 A 
ATOM     15  C   UNL A   1      42.885  29.960  28.598  1.00  0.00     0.074 A 
ATOM     16  C   UNL A   1      41.996  27.689  28.181  1.00  0.00     0.049 A 
ATOM     17  N   UNL A   1      44.134  29.803  28.243  1.00  0.00    -0.248 NA
ATOM     18  C   UNL A   1      42.558  31.324  29.044  1.00  0.00     0.031 C 
ATOM     19  C   UNL A   1      40.988  26.627  28.120  1.00  0.00     0.029 A 
ATOM     20  N   UNL A   1      43.147  27.078  27.754  1.00  0.00    -0.354 N 
ATOM     21  C   UNL A   1      44.737  31.047  28.394  1.00  0.00     0.074 A 
ATOM     22  C   UNL A   1      43.708  31.956  28.855  1.00  0.00     0.031 C 
ATOM     23  C   UNL A   1      41.575  25.484  27.738  1.00  0.00     0.029 A 
ATOM     24  C   UNL A   1      42.986  25.741  27.472  1.00  0.00     0.049 A 
ATOM     25  H   UNL A   1      44.005  27.550  27.658  1.00  0.00     0.167 HD
ATOM     26  C   UNL A   1      46.028  31.397  28.175  1.00  0.00     0.037 A 
ATOM     27  C   UNL A   1      43.873  24.823  27.045  1.00  0.00     0.037 A 
ATOM     28  C   UNL A   1      47.053  30.481  27.743  1.00  0.00     0.049 A 
ATOM     29  C   UNL A   1      45.301  25.235  26.824  1.00  0.00     0.074 A 
ATOM     30  C   UNL A   1      48.399  30.730  27.533  1.00  0.00     0.029 A 
ATOM     31  N   UNL A   1      46.847  29.139  27.455  1.00  0.00    -0.354 N 
ATOM     32  N   UNL A   1      45.855  26.409  27.005  1.00  0.00    -0.248 NA
ATOM     33  C   UNL A   1      46.222  24.196  26.346  1.00  0.00     0.031 C 
ATOM     34  C   UNL A   1      48.999  29.547  27.083  1.00  0.00     0.029 A 
ATOM     35  C   UNL A   1      48.038  28.551  27.055  1.00  0.00     0.049 A 
ATOM     36  H   UNL A   1      45.983  28.672  27.524  1.00  0.00     0.167 HD
ATOM     37  C   UNL A   1      47.197  26.246  26.682  1.00  0.00     0.074 A 
ATOM     38  C   UNL A   1      47.372  24.857  26.309  1.00  0.00     0.031 C 
ATOM     39  C   UNL A   1      48.195  27.164  26.694  1.00  0.00     0.037 A 
BRANCH  26  40
ATOM     40  C   UNL A   1      46.407  32.839  28.379  1.00  0.00     0.058 A 
ATOM     41  C   UNL A   1      46.275  33.794  27.359  1.00  0.00     0.135 A 
ATOM     42  C   UNL A   1      46.872  33.280  29.630  1.00  0.00     0.135 A 
ATOM     43  F   UNL A   1      45.848  33.425  26.141  1.00  0.00    -0.206 F 
ATOM     44  C   UNL A   1      46.617  35.128  27.561  1.00  0.00     0.059 A 
ATOM     45  C   UNL A   1      47.197  34.614  29.861  1.00  0.00     0.059 A 
ATOM     46  F   UNL A   1      47.015  32.411  30.642  1.00  0.00    -0.206 F 
ATOM     47  C   UNL A   1      47.081  35.528  28.816  1.00  0.00     0.060 A 
BRANCH  47  48
ATOM     48  S   UNL A   1      47.525  37.261  29.065  1.00  0.00     0.124 S 
ATOM     49  O   UNL A   1      46.886  37.891  27.914  1.00  0.00    -0.237 OA
ATOM     50  O   UNL A   1      46.925  37.555  30.363  1.00  0.00    -0.237 OA
ATOM     51  O   UNL A   1      48.983  37.244  29.042  1.00  0.00    -0.744 OA
ENDBRANCH  47  48
ENDBRANCH  26  40
BRANCH  27  52
ATOM     52  C   UNL A   1      43.433  23.424  26.817  1.00  0.00     0.058 A 
ATOM     53  C   UNL A   1      43.327  22.903  25.520  1.00  0.00     0.135 A 
ATOM     54  C   UNL A   1      43.140  22.569  27.892  1.00  0.00     0.135 A 
ATOM     55  F   UNL A   1      43.594  23.681  24.460  1.00  0.00    -0.206 F 
ATOM     56  C   UNL A   1      42.933  21.588  25.293  1.00  0.00     0.059 A 
ATOM     57  C   UNL A   1      42.770  21.244  27.693  1.00  0.00     0.059 A 
ATOM     58  F   UNL A   1      43.247  23.016  29.153  1.00  0.00    -0.206 F 
ATOM     59  C   UNL A   1      42.659  20.766  26.387  1.00  0.00     0.060 A 
BRANCH  59  60
ATOM     60  S   UNL A   1      42.204  19.045  26.087  1.00  0.00     0.124 S 
ATOM     61  O   UNL A   1      43.048  18.713  24.946  1.00  0.00    -0.237 OA
ATOM     62  O   UNL A   1      42.559  18.406  27.351  1.00  0.00    -0.237 OA
ATOM     63  O   UNL A   1      40.771  19.121  25.815  1.00  0.00    -0.744 OA
ENDBRANCH  59  60
ENDBRANCH  27  52
BRANCH  39  64
ATOM     64  C   UNL A   1      49.571  26.682  26.330  1.00  0.00     0.058 A 
ATOM     65  C   UNL A   1      50.096  26.849  25.039  1.00  0.00     0.135 A 
ATOM     66  C   UNL A   1      50.382  26.062  27.295  1.00  0.00     0.135 A 
ATOM     67  F   UNL A   1      49.358  27.429  24.080  1.00  0.00    -0.206 F 
ATOM     68  C   UNL A   1      51.365  26.388  24.708  1.00  0.00     0.059 A 
ATOM     69  C   UNL A   1      51.664  25.616  26.992  1.00  0.00     0.059 A 
ATOM     70  F   UNL A   1      49.930  25.887  28.546  1.00  0.00    -0.206 F 
ATOM     71  C   UNL A   1      52.141  25.768  25.690  1.00  0.00     0.060 A 
BRANCH  71  72
ATOM     72  S   UNL A   1      53.791  25.181  25.254  1.00  0.00     0.124 S 
ATOM     73  O   UNL A   1      53.625  23.735  25.364  1.00  0.00    -0.237 OA
ATOM     74  O   UNL A   1      53.961  25.697  23.900  1.00  0.00    -0.237 OA
ATOM     75  O   UNL A   1      54.646  25.795  26.265  1.00  0.00    -0.744 OA
ENDBRANCH  71  72
ENDBRANCH  39  64
ENDBRANCH  13  14
ENDBRANCH   6   8
ENDBRANCH   3   4
ENDBRANCH   2   3
ENDBRANCH   1   2
BRANCH   1  76
ATOM     76  C   UNL A   1      33.699  28.933  25.658  1.00  0.00     0.002 C 
BRANCH  76  77
ATOM     77  C   UNL A   1      32.258  28.455  25.897  1.00  0.00     0.021 C 
BRANCH  77  78
ATOM     78  C   UNL A   1      32.151  27.326  26.922  1.00  0.00     0.116 C 
BRANCH  78  79
ATOM     79  N   UNL A   1      30.837  26.714  26.864  1.00  0.00    -0.356 N 
ATOM     80  C   UNL A   1      30.466  25.421  26.666  1.00  0.00     0.227 C 
ATOM     81  H   UNL A   1      30.087  27.339  26.990  1.00  0.00     0.163 HD
ATOM     82  O   UNL A   1      29.263  25.195  26.496  1.00  0.00    -0.274 OA
BRANCH  80  83
ATOM     83  C   UNL A   1      31.456  24.258  26.747  1.00  0.00     0.103 C 
ATOM     84  C   UNL A   1      30.941  22.882  26.450  1.00  0.00    -0.016 C 
ATOM     85  C   UNL A   1      32.600  24.437  25.740  1.00  0.00     0.047 C 
ATOM     86  C   UNL A   1      31.771  22.215  25.637  1.00  0.00    -0.006 C 
ATOM     87  C   UNL A   1      32.978  23.023  25.291  1.00  0.00     0.106 C 
BRANCH  87  88
ATOM     88  N   UNL A   1      33.211  22.953  23.868  1.00  0.00    -0.344 N 
ATOM     89  C   UNL A   1      34.408  23.111  23.203  1.00  0.00     0.271 C 
ATOM     90  H   UNL A   1      32.423  22.772  23.306  1.00  0.00     0.164 HD
ATOM     91  O   UNL A   1      34.393  23.297  21.989  1.00  0.00    -0.267 OA
BRANCH  89  92
ATOM     92  C   UNL A   1      35.640  23.048  23.985  1.00  0.00     0.147 A 
ATOM     93  C   UNL A   1      36.500  21.966  24.079  1.00  0.00     0.127 A 
ATOM     94  N   UNL A   1      36.104  24.090  24.770  1.00  0.00    -0.223 NA
ATOM     95  N   UNL A   1      37.450  22.321  24.995  1.00  0.00    -0.306 N 
ATOM     96  C   UNL A   1      37.185  23.634  25.363  1.00  0.00     0.137 A 
ATOM     97  C   UNL A   1      38.486  21.560  25.531  1.00  0.00     0.093 A 
ATOM     98  C   UNL A   1      38.069  24.231  26.306  1.00  0.00     0.048 A 
ATOM     99  C   UNL A   1      39.295  22.116  26.449  1.00  0.00     0.018 A 
ATOM    100  C   UNL A   1      39.076  23.504  26.831  1.00  0.00     0.005 A 
ENDBRANCH  89  92
ENDBRANCH  87  88
ENDBRANCH  80  83
ENDBRANCH  78  79
ENDBRANCH  77  78
ENDBRANCH  76  77
ENDBRANCH   1  76
TORSDOF 18
ENDMDL
