MODEL 1
REMARK VINA RESULT:     -11.8      0.000      0.000
REMARK SMILES O=C(NCCCCCCNC(=O)c1cnc(Nc2ccccc2)nc1)c1ccc(-c2c3nc(c(-c4c(F)cc(S(=O)(=O)[O-])cc4F)c4ccc([nH]4)c(-c4c(F)cc(S(=O)(=O)[O-])cc4F)c4nc(c(-c5c(F)cc(S(=O)(=O)[O-])cc5F)c5ccc2[nH]5)C=C4)C=C3)cc1
REMARK SMILES IDX 6 1 5 2 4 3 3 4 1 5 2 6 26 8 27 9 91 10 28 11 90 12 29 13
REMARK SMILES IDX 30 14 31 15 84 16 32 17 89 18 83 19 85 20 33 21 88 22 82 23
REMARK SMILES IDX 81 24 34 26 68 27 47 28 67 29 48 30 51 31 66 32 86 33 49 34
REMARK SMILES IDX 50 35 65 37 87 38 52 39 35 40 36 41 45 42 37 43 38 44 44 45
REMARK SMILES IDX 46 46 39 47 40 48 41 49 42 50 43 51 69 52 70 53 79 54 71 55
REMARK SMILES IDX 72 56 78 57 80 58 73 59 74 60 75 61 76 62 77 63 53 64 54 65
REMARK SMILES IDX 63 66 55 67 56 68 62 69 64 70 57 71 58 72 59 73 60 74 61 75
REMARK SMILES IDX 7 76 8 77 9 78 10 79 11 80 12 82 13 83 14 84 25 85 15 86
REMARK SMILES IDX 24 87 16 88 17 89 18 91 19 92 23 93 20 94 22 95 21 96
REMARK H PARENT 3 7 85 25 51 36 10 81 17 90
REMARK Flexibility Score: inf
ROOT
ATOM      1  C   UNL A   1      36.316  22.729  25.789  1.00  0.00     0.002 C 
ENDROOT
BRANCH   1   2
ATOM      2  C   UNL A   1      37.463  23.687  25.468  1.00  0.00     0.021 C 
BRANCH   2   3
ATOM      3  C   UNL A   1      38.467  23.891  26.596  1.00  0.00     0.116 C 
BRANCH   3   4
ATOM      4  N   UNL A   1      39.840  23.961  26.120  1.00  0.00    -0.352 N 
ATOM      5  O   UNL A   1      41.881  24.867  25.807  1.00  0.00    -0.269 OA
ATOM      6  C   UNL A   1      40.822  24.873  26.428  1.00  0.00     0.251 C 
ATOM      7  H   UNL A   1      40.103  23.255  25.485  1.00  0.00     0.163 HD
BRANCH   6   8
ATOM      8  C   UNL A   1      40.584  25.877  27.487  1.00  0.00     0.039 A 
ATOM      9  C   UNL A   1      41.307  27.071  27.511  1.00  0.00     0.014 A 
ATOM     10  C   UNL A   1      39.634  25.612  28.478  1.00  0.00     0.014 A 
ATOM     11  C   UNL A   1      41.200  27.921  28.607  1.00  0.00     0.010 A 
ATOM     12  C   UNL A   1      39.463  26.514  29.533  1.00  0.00     0.010 A 
ATOM     13  C   UNL A   1      40.274  27.656  29.629  1.00  0.00    -0.014 A 
BRANCH  13  14
ATOM     14  C   UNL A   1      40.153  28.604  30.768  1.00  0.00     0.031 A 
ATOM     15  C   UNL A   1      41.064  28.507  31.963  1.00  0.00     0.074 A 
ATOM     16  C   UNL A   1      39.226  29.581  30.705  1.00  0.00     0.049 A 
ATOM     17  N   UNL A   1      41.114  29.269  33.026  1.00  0.00    -0.248 NA
ATOM     18  C   UNL A   1      42.040  27.407  31.972  1.00  0.00     0.031 C 
ATOM     19  C   UNL A   1      38.280  29.772  29.602  1.00  0.00     0.029 A 
ATOM     20  N   UNL A   1      38.937  30.604  31.569  1.00  0.00    -0.354 N 
ATOM     21  C   UNL A   1      42.103  28.730  33.840  1.00  0.00     0.074 A 
ATOM     22  C   UNL A   1      42.611  27.558  33.159  1.00  0.00     0.031 C 
ATOM     23  C   UNL A   1      37.555  30.876  29.830  1.00  0.00     0.029 A 
ATOM     24  C   UNL A   1      37.937  31.435  31.122  1.00  0.00     0.049 A 
ATOM     25  H   UNL A   1      39.402  30.734  32.427  1.00  0.00     0.167 HD
ATOM     26  C   UNL A   1      42.549  29.174  35.041  1.00  0.00     0.037 A 
ATOM     27  C   UNL A   1      37.378  32.520  31.690  1.00  0.00     0.037 A 
ATOM     28  C   UNL A   1      42.046  30.352  35.704  1.00  0.00     0.049 A 
ATOM     29  C   UNL A   1      37.879  32.982  33.028  1.00  0.00     0.074 A 
ATOM     30  C   UNL A   1      42.461  30.909  36.902  1.00  0.00     0.029 A 
ATOM     31  N   UNL A   1      41.012  31.149  35.233  1.00  0.00    -0.354 N 
ATOM     32  N   UNL A   1      38.840  32.480  33.767  1.00  0.00    -0.248 NA
ATOM     33  C   UNL A   1      37.221  34.158  33.610  1.00  0.00     0.031 C 
ATOM     34  C   UNL A   1      41.645  32.011  37.180  1.00  0.00     0.029 A 
ATOM     35  C   UNL A   1      40.760  32.179  36.126  1.00  0.00     0.049 A 
ATOM     36  H   UNL A   1      40.528  31.005  34.387  1.00  0.00     0.167 HD
ATOM     37  C   UNL A   1      38.923  33.298  34.887  1.00  0.00     0.074 A 
ATOM     38  C   UNL A   1      37.919  34.330  34.724  1.00  0.00     0.031 C 
ATOM     39  C   UNL A   1      39.760  33.205  35.951  1.00  0.00     0.037 A 
BRANCH  26  40
ATOM     40  C   UNL A   1      43.615  28.365  35.734  1.00  0.00     0.058 A 
ATOM     41  C   UNL A   1      44.984  28.591  35.515  1.00  0.00     0.135 A 
ATOM     42  C   UNL A   1      43.261  27.358  36.647  1.00  0.00     0.135 A 
ATOM     43  F   UNL A   1      45.384  29.532  34.644  1.00  0.00    -0.206 F 
ATOM     44  C   UNL A   1      45.960  27.821  36.143  1.00  0.00     0.059 A 
ATOM     45  C   UNL A   1      44.219  26.596  37.310  1.00  0.00     0.059 A 
ATOM     46  F   UNL A   1      41.968  27.102  36.902  1.00  0.00    -0.206 F 
ATOM     47  C   UNL A   1      45.567  26.822  37.034  1.00  0.00     0.060 A 
BRANCH  47  48
ATOM     48  S   UNL A   1      46.843  25.814  37.820  1.00  0.00     0.124 S 
ATOM     49  O   UNL A   1      46.045  24.992  38.726  1.00  0.00    -0.237 OA
ATOM     50  O   UNL A   1      47.433  25.113  36.684  1.00  0.00    -0.237 OA
ATOM     51  O   UNL A   1      47.706  26.798  38.464  1.00  0.00    -0.744 OA
ENDBRANCH  47  48
ENDBRANCH  26  40
BRANCH  27  52
ATOM     52  C   UNL A   1      36.300  33.250  30.976  1.00  0.00     0.058 A 
ATOM     53  C   UNL A   1      34.970  33.179  31.415  1.00  0.00     0.135 A 
ATOM     54  C   UNL A   1      36.581  34.065  29.868  1.00  0.00     0.135 A 
ATOM     55  F   UNL A   1      34.651  32.410  32.468  1.00  0.00    -0.206 F 
ATOM     56  C   UNL A   1      33.955  33.886  30.778  1.00  0.00     0.059 A 
ATOM     57  C   UNL A   1      35.588  34.803  29.233  1.00  0.00     0.059 A 
ATOM     58  F   UNL A   1      37.842  34.181  29.421  1.00  0.00    -0.206 F 
ATOM     59  C   UNL A   1      34.276  34.700  29.691  1.00  0.00     0.060 A 
BRANCH  59  60
ATOM     60  S   UNL A   1      32.960  35.663  28.915  1.00  0.00     0.124 S 
ATOM     61  O   UNL A   1      32.151  36.036  30.069  1.00  0.00    -0.237 OA
ATOM     62  O   UNL A   1      33.707  36.745  28.281  1.00  0.00    -0.237 OA
ATOM     63  O   UNL A   1      32.346  34.712  27.994  1.00  0.00    -0.744 OA
ENDBRANCH  59  60
ENDBRANCH  27  52
BRANCH  39  64
ATOM     64  C   UNL A   1      39.660  34.278  37.000  1.00  0.00     0.058 A 
ATOM     65  C   UNL A   1      38.970  34.079  38.205  1.00  0.00     0.135 A 
ATOM     66  C   UNL A   1      40.293  35.517  36.804  1.00  0.00     0.135 A 
ATOM     67  F   UNL A   1      38.340  32.916  38.440  1.00  0.00    -0.206 F 
ATOM     68  C   UNL A   1      38.883  35.081  39.167  1.00  0.00     0.059 A 
ATOM     69  C   UNL A   1      40.245  36.522  37.764  1.00  0.00     0.059 A 
ATOM     70  F   UNL A   1      40.975  35.757  35.673  1.00  0.00    -0.206 F 
ATOM     71  C   UNL A   1      39.523  36.300  38.937  1.00  0.00     0.060 A 
BRANCH  71  72
ATOM     72  S   UNL A   1      39.421  37.587  40.198  1.00  0.00     0.124 S 
ATOM     73  O   UNL A   1      40.764  38.154  40.149  1.00  0.00    -0.237 OA
ATOM     74  O   UNL A   1      38.353  38.441  39.688  1.00  0.00    -0.237 OA
ATOM     75  O   UNL A   1      39.096  36.847  41.413  1.00  0.00    -0.744 OA
ENDBRANCH  71  72
ENDBRANCH  39  64
ENDBRANCH  13  14
ENDBRANCH   6   8
ENDBRANCH   3   4
ENDBRANCH   2   3
ENDBRANCH   1   2
BRANCH   1  76
ATOM     76  C   UNL A   1      34.976  23.395  26.114  1.00  0.00     0.002 C 
BRANCH  76  77
ATOM     77  C   UNL A   1      33.914  22.475  26.723  1.00  0.00     0.021 C 
BRANCH  77  78
ATOM     78  C   UNL A   1      32.761  22.119  25.787  1.00  0.00     0.116 C 
BRANCH  78  79
ATOM     79  N   UNL A   1      31.470  22.230  26.456  1.00  0.00    -0.352 N 
ATOM     80  C   UNL A   1      30.616  23.302  26.499  1.00  0.00     0.254 C 
ATOM     81  H   UNL A   1      31.173  21.427  26.943  1.00  0.00     0.163 HD
ATOM     82  O   UNL A   1      29.668  23.330  27.277  1.00  0.00    -0.269 OA
BRANCH  80  83
ATOM     83  C   UNL A   1      30.846  24.430  25.606  1.00  0.00     0.076 A 
ATOM     84  C   UNL A   1      31.251  25.655  26.067  1.00  0.00     0.130 A 
ATOM     85  C   UNL A   1      30.664  24.332  24.249  1.00  0.00     0.130 A 
ATOM     86  N   UNL A   1      31.388  26.727  25.266  1.00  0.00    -0.221 NA
ATOM     87  N   UNL A   1      30.769  25.390  23.411  1.00  0.00    -0.221 NA
ATOM     88  C   UNL A   1      31.111  26.573  23.959  1.00  0.00     0.227 A 
BRANCH  88  89
ATOM     89  N   UNL A   1      31.058  27.681  23.120  1.00  0.00    -0.324 N 
ATOM     90  H   UNL A   1      31.904  27.900  22.665  1.00  0.00     0.170 HD
BRANCH  89  91
ATOM     91  C   UNL A   1      29.989  28.533  22.824  1.00  0.00     0.041 A 
ATOM     92  C   UNL A   1      30.224  29.703  22.090  1.00  0.00     0.026 A 
ATOM     93  C   UNL A   1      28.663  28.206  23.134  1.00  0.00     0.026 A 
ATOM     94  C   UNL A   1      29.165  30.520  21.682  1.00  0.00     0.002 A 
ATOM     95  C   UNL A   1      27.603  29.027  22.743  1.00  0.00     0.002 A 
ATOM     96  C   UNL A   1      27.854  30.182  22.011  1.00  0.00     0.000 A 
ENDBRANCH  89  91
ENDBRANCH  88  89
ENDBRANCH  80  83
ENDBRANCH  78  79
ENDBRANCH  77  78
ENDBRANCH  76  77
ENDBRANCH   1  76
TORSDOF 18
ENDMDL
MODEL 2
REMARK VINA RESULT:     -11.7      2.047      2.966
REMARK SMILES O=C(NCCCCCCNC(=O)c1cnc(Nc2ccccc2)nc1)c1ccc(-c2c3nc(c(-c4c(F)cc(S(=O)(=O)[O-])cc4F)c4ccc([nH]4)c(-c4c(F)cc(S(=O)(=O)[O-])cc4F)c4nc(c(-c5c(F)cc(S(=O)(=O)[O-])cc5F)c5ccc2[nH]5)C=C4)C=C3)cc1
REMARK SMILES IDX 6 1 5 2 4 3 3 4 1 5 2 6 26 8 27 9 91 10 28 11 90 12 29 13
REMARK SMILES IDX 30 14 31 15 84 16 32 17 89 18 83 19 85 20 33 21 88 22 82 23
REMARK SMILES IDX 81 24 34 26 68 27 47 28 67 29 48 30 51 31 66 32 86 33 49 34
REMARK SMILES IDX 50 35 65 37 87 38 52 39 35 40 36 41 45 42 37 43 38 44 44 45
REMARK SMILES IDX 46 46 39 47 40 48 41 49 42 50 43 51 69 52 70 53 79 54 71 55
REMARK SMILES IDX 72 56 78 57 80 58 73 59 74 60 75 61 76 62 77 63 53 64 54 65
REMARK SMILES IDX 63 66 55 67 56 68 62 69 64 70 57 71 58 72 59 73 60 74 61 75
REMARK SMILES IDX 7 76 8 77 9 78 10 79 11 80 12 82 13 83 14 84 25 85 15 86
REMARK SMILES IDX 24 87 16 88 17 89 18 91 19 92 23 93 20 94 22 95 21 96
REMARK H PARENT 3 7 85 25 51 36 10 81 17 90
REMARK Flexibility Score: inf
ROOT
ATOM      1  C   UNL A   1      38.680  22.612  26.223  1.00  0.00     0.002 C 
ENDROOT
BRANCH   1   2
ATOM      2  C   UNL A   1      39.973  22.115  26.869  1.00  0.00     0.021 C 
BRANCH   2   3
ATOM      3  C   UNL A   1      40.985  23.204  27.206  1.00  0.00     0.116 C 
BRANCH   3   4
ATOM      4  N   UNL A   1      41.274  24.072  26.075  1.00  0.00    -0.352 N 
ATOM      5  O   UNL A   1      41.426  26.014  24.939  1.00  0.00    -0.269 OA
ATOM      6  C   UNL A   1      41.320  25.445  26.022  1.00  0.00     0.251 C 
ATOM      7  H   UNL A   1      41.462  23.610  25.226  1.00  0.00     0.163 HD
BRANCH   6   8
ATOM      8  C   UNL A   1      41.210  26.231  27.269  1.00  0.00     0.039 A 
ATOM      9  C   UNL A   1      40.115  26.066  28.120  1.00  0.00     0.014 A 
ATOM     10  C   UNL A   1      42.209  27.157  27.584  1.00  0.00     0.014 A 
ATOM     11  C   UNL A   1      39.936  26.934  29.192  1.00  0.00     0.010 A 
ATOM     12  C   UNL A   1      42.071  27.967  28.716  1.00  0.00     0.010 A 
ATOM     13  C   UNL A   1      40.914  27.892  29.506  1.00  0.00    -0.014 A 
BRANCH  13  14
ATOM     14  C   UNL A   1      40.715  28.778  30.683  1.00  0.00     0.031 A 
ATOM     15  C   UNL A   1      41.603  28.675  31.895  1.00  0.00     0.074 A 
ATOM     16  C   UNL A   1      39.737  29.705  30.641  1.00  0.00     0.049 A 
ATOM     17  N   UNL A   1      41.586  29.389  32.992  1.00  0.00    -0.248 NA
ATOM     18  C   UNL A   1      42.638  27.631  31.880  1.00  0.00     0.031 C 
ATOM     19  C   UNL A   1      38.808  29.895  29.524  1.00  0.00     0.029 A 
ATOM     20  N   UNL A   1      39.373  30.670  31.542  1.00  0.00    -0.354 N 
ATOM     21  C   UNL A   1      42.585  28.868  33.806  1.00  0.00     0.074 A 
ATOM     22  C   UNL A   1      43.172  27.758  33.086  1.00  0.00     0.031 C 
ATOM     23  C   UNL A   1      38.018  30.946  29.783  1.00  0.00     0.029 A 
ATOM     24  C   UNL A   1      38.339  31.465  31.107  1.00  0.00     0.049 A 
ATOM     25  H   UNL A   1      39.810  30.785  32.417  1.00  0.00     0.167 HD
ATOM     26  C   UNL A   1      42.978  29.280  35.037  1.00  0.00     0.037 A 
ATOM     27  C   UNL A   1      37.708  32.491  31.709  1.00  0.00     0.037 A 
ATOM     28  C   UNL A   1      42.396  30.397  35.739  1.00  0.00     0.049 A 
ATOM     29  C   UNL A   1      38.152  32.917  33.079  1.00  0.00     0.074 A 
ATOM     30  C   UNL A   1      42.752  30.920  36.971  1.00  0.00     0.029 A 
ATOM     31  N   UNL A   1      41.330  31.157  35.278  1.00  0.00    -0.354 N 
ATOM     32  N   UNL A   1      39.122  32.435  33.819  1.00  0.00    -0.248 NA
ATOM     33  C   UNL A   1      37.417  34.027  33.697  1.00  0.00     0.031 C 
ATOM     34  C   UNL A   1      41.870  31.962  37.277  1.00  0.00     0.029 A 
ATOM     35  C   UNL A   1      41.001  32.130  36.210  1.00  0.00     0.049 A 
ATOM     36  H   UNL A   1      40.875  31.026  34.415  1.00  0.00     0.167 HD
ATOM     37  C   UNL A   1      39.134  33.204  34.976  1.00  0.00     0.074 A 
ATOM     38  C   UNL A   1      38.078  34.186  34.834  1.00  0.00     0.031 C 
ATOM     39  C   UNL A   1      39.950  33.107  36.055  1.00  0.00     0.037 A 
BRANCH  26  40
ATOM     40  C   UNL A   1      44.072  28.499  35.719  1.00  0.00     0.058 A 
ATOM     41  C   UNL A   1      43.796  27.423  36.578  1.00  0.00     0.135 A 
ATOM     42  C   UNL A   1      45.420  28.821  35.495  1.00  0.00     0.135 A 
ATOM     43  F   UNL A   1      42.525  27.075  36.840  1.00  0.00    -0.206 F 
ATOM     44  C   UNL A   1      44.813  26.723  37.222  1.00  0.00     0.059 A 
ATOM     45  C   UNL A   1      46.456  28.117  36.103  1.00  0.00     0.059 A 
ATOM     46  F   UNL A   1      45.746  29.836  34.678  1.00  0.00    -0.206 F 
ATOM     47  C   UNL A   1      46.141  27.082  36.982  1.00  0.00     0.060 A 
BRANCH  47  48
ATOM     48  S   UNL A   1      47.448  26.184  37.844  1.00  0.00     0.124 S 
ATOM     49  O   UNL A   1      48.371  27.265  38.177  1.00  0.00    -0.237 OA
ATOM     50  O   UNL A   1      46.733  25.594  38.971  1.00  0.00    -0.237 OA
ATOM     51  O   UNL A   1      47.927  25.236  36.843  1.00  0.00    -0.744 OA
ENDBRANCH  47  48
ENDBRANCH  26  40
BRANCH  27  52
ATOM     52  C   UNL A   1      36.607  33.193  31.002  1.00  0.00     0.058 A 
ATOM     53  C   UNL A   1      35.269  32.995  31.375  1.00  0.00     0.135 A 
ATOM     54  C   UNL A   1      36.870  34.107  29.969  1.00  0.00     0.135 A 
ATOM     55  F   UNL A   1      34.968  32.129  32.354  1.00  0.00    -0.206 F 
ATOM     56  C   UNL A   1      34.231  33.673  30.745  1.00  0.00     0.059 A 
ATOM     57  C   UNL A   1      35.851  34.817  29.344  1.00  0.00     0.059 A 
ATOM     58  F   UNL A   1      38.135  34.345  29.588  1.00  0.00    -0.206 F 
ATOM     59  C   UNL A   1      34.533  34.587  29.734  1.00  0.00     0.060 A 
BRANCH  59  60
ATOM     60  S   UNL A   1      33.181  35.509  28.971  1.00  0.00     0.124 S 
ATOM     61  O   UNL A   1      32.489  34.459  28.235  1.00  0.00    -0.237 OA
ATOM     62  O   UNL A   1      32.480  36.043  30.134  1.00  0.00    -0.237 OA
ATOM     63  O   UNL A   1      33.872  36.503  28.155  1.00  0.00    -0.744 OA
ENDBRANCH  59  60
ENDBRANCH  27  52
BRANCH  39  64
ATOM     64  C   UNL A   1      39.767  34.123  37.149  1.00  0.00     0.058 A 
ATOM     65  C   UNL A   1      40.322  35.410  37.070  1.00  0.00     0.135 A 
ATOM     66  C   UNL A   1      38.998  33.810  38.282  1.00  0.00     0.135 A 
ATOM     67  F   UNL A   1      41.072  35.759  36.012  1.00  0.00    -0.206 F 
ATOM     68  C   UNL A   1      40.147  36.340  38.090  1.00  0.00     0.059 A 
ATOM     69  C   UNL A   1      38.785  34.734  39.300  1.00  0.00     0.059 A 
ATOM     70  F   UNL A   1      38.437  32.596  38.404  1.00  0.00    -0.206 F 
ATOM     71  C   UNL A   1      39.378  35.992  39.202  1.00  0.00     0.060 A 
BRANCH  71  72
ATOM     72  S   UNL A   1      39.142  37.212  40.510  1.00  0.00     0.124 S 
ATOM     73  O   UNL A   1      38.605  36.388  41.587  1.00  0.00    -0.237 OA
ATOM     74  O   UNL A   1      40.495  37.718  40.715  1.00  0.00    -0.237 OA
ATOM     75  O   UNL A   1      38.206  38.165  39.922  1.00  0.00    -0.744 OA
ENDBRANCH  71  72
ENDBRANCH  39  64
ENDBRANCH  13  14
ENDBRANCH   6   8
ENDBRANCH   3   4
ENDBRANCH   2   3
ENDBRANCH   1   2
BRANCH   1  76
ATOM     76  C   UNL A   1      37.800  21.526  25.597  1.00  0.00     0.002 C 
BRANCH  76  77
ATOM     77  C   UNL A   1      37.260  21.842  24.198  1.00  0.00     0.021 C 
BRANCH  77  78
ATOM     78  C   UNL A   1      36.420  23.114  24.107  1.00  0.00     0.116 C 
BRANCH  78  79
ATOM     79  N   UNL A   1      35.279  22.943  23.216  1.00  0.00    -0.352 N 
ATOM     80  C   UNL A   1      34.039  23.522  23.290  1.00  0.00     0.254 C 
ATOM     81  H   UNL A   1      35.418  22.327  22.460  1.00  0.00     0.163 HD
ATOM     82  O   UNL A   1      33.107  23.123  22.600  1.00  0.00    -0.269 OA
BRANCH  80  83
ATOM     83  C   UNL A   1      33.826  24.631  24.213  1.00  0.00     0.076 A 
ATOM     84  C   UNL A   1      33.407  24.436  25.502  1.00  0.00     0.130 A 
ATOM     85  C   UNL A   1      34.028  25.936  23.840  1.00  0.00     0.130 A 
ATOM     86  N   UNL A   1      33.127  25.452  26.339  1.00  0.00    -0.221 NA
ATOM     87  N   UNL A   1      33.738  26.987  24.642  1.00  0.00    -0.221 NA
ATOM     88  C   UNL A   1      33.270  26.706  25.874  1.00  0.00     0.227 A 
BRANCH  88  89
ATOM     89  N   UNL A   1      32.825  27.786  26.628  1.00  0.00    -0.324 N 
ATOM     90  H   UNL A   1      31.912  27.697  26.985  1.00  0.00     0.170 HD
BRANCH  89  91
ATOM     91  C   UNL A   1      33.475  28.980  26.957  1.00  0.00     0.041 A 
ATOM     92  C   UNL A   1      32.736  30.167  27.039  1.00  0.00     0.026 A 
ATOM     93  C   UNL A   1      34.827  29.020  27.323  1.00  0.00     0.026 A 
ATOM     94  C   UNL A   1      33.330  31.356  27.472  1.00  0.00     0.002 A 
ATOM     95  C   UNL A   1      35.430  30.209  27.741  1.00  0.00     0.002 A 
ATOM     96  C   UNL A   1      34.679  31.376  27.821  1.00  0.00     0.000 A 
ENDBRANCH  89  91
ENDBRANCH  88  89
ENDBRANCH  80  83
ENDBRANCH  78  79
ENDBRANCH  77  78
ENDBRANCH  76  77
ENDBRANCH   1  76
TORSDOF 18
ENDMDL
MODEL 3
REMARK VINA RESULT:     -11.7      6.792     12.445
REMARK SMILES O=C(NCCCCCCNC(=O)c1cnc(Nc2ccccc2)nc1)c1ccc(-c2c3nc(c(-c4c(F)cc(S(=O)(=O)[O-])cc4F)c4ccc([nH]4)c(-c4c(F)cc(S(=O)(=O)[O-])cc4F)c4nc(c(-c5c(F)cc(S(=O)(=O)[O-])cc5F)c5ccc2[nH]5)C=C4)C=C3)cc1
REMARK SMILES IDX 6 1 5 2 4 3 3 4 1 5 2 6 26 8 27 9 91 10 28 11 90 12 29 13
REMARK SMILES IDX 30 14 31 15 84 16 32 17 89 18 83 19 85 20 33 21 88 22 82 23
REMARK SMILES IDX 81 24 34 26 68 27 47 28 67 29 48 30 51 31 66 32 86 33 49 34
REMARK SMILES IDX 50 35 65 37 87 38 52 39 35 40 36 41 45 42 37 43 38 44 44 45
REMARK SMILES IDX 46 46 39 47 40 48 41 49 42 50 43 51 69 52 70 53 79 54 71 55
REMARK SMILES IDX 72 56 78 57 80 58 73 59 74 60 75 61 76 62 77 63 53 64 54 65
REMARK SMILES IDX 63 66 55 67 56 68 62 69 64 70 57 71 58 72 59 73 60 74 61 75
REMARK SMILES IDX 7 76 8 77 9 78 10 79 11 80 12 82 13 83 14 84 25 85 15 86
REMARK SMILES IDX 24 87 16 88 17 89 18 91 19 92 23 93 20 94 22 95 21 96
REMARK H PARENT 3 7 85 25 51 36 10 81 17 90
REMARK Flexibility Score: inf
ROOT
ATOM      1  C   UNL A   1      33.177  29.220  26.852  1.00  0.00     0.002 C 
ENDROOT
BRANCH   1   2
ATOM      2  C   UNL A   1      34.641  28.881  27.133  1.00  0.00     0.021 C 
BRANCH   2   3
ATOM      3  C   UNL A   1      35.470  30.027  27.698  1.00  0.00     0.116 C 
BRANCH   3   4
ATOM      4  N   UNL A   1      35.352  30.147  29.143  1.00  0.00    -0.352 N 
ATOM      5  O   UNL A   1      35.990  29.955  31.297  1.00  0.00    -0.269 OA
ATOM      6  C   UNL A   1      36.310  29.965  30.112  1.00  0.00     0.251 C 
ATOM      7  H   UNL A   1      34.458  30.392  29.474  1.00  0.00     0.163 HD
BRANCH   6   8
ATOM      8  C   UNL A   1      37.720  29.752  29.719  1.00  0.00     0.039 A 
ATOM      9  C   UNL A   1      38.121  29.918  28.391  1.00  0.00     0.014 A 
ATOM     10  C   UNL A   1      38.649  29.365  30.688  1.00  0.00     0.014 A 
ATOM     11  C   UNL A   1      39.403  29.543  28.006  1.00  0.00     0.010 A 
ATOM     12  C   UNL A   1      39.964  29.076  30.312  1.00  0.00     0.010 A 
ATOM     13  C   UNL A   1      40.343  29.122  28.961  1.00  0.00    -0.014 A 
BRANCH  13  14
ATOM     14  C   UNL A   1      41.719  28.767  28.525  1.00  0.00     0.031 A 
ATOM     15  C   UNL A   1      42.829  29.784  28.542  1.00  0.00     0.074 A 
ATOM     16  C   UNL A   1      41.971  27.502  28.134  1.00  0.00     0.049 A 
ATOM     17  N   UNL A   1      44.089  29.634  28.224  1.00  0.00    -0.248 NA
ATOM     18  C   UNL A   1      42.479  31.149  28.964  1.00  0.00     0.031 C 
ATOM     19  C   UNL A   1      40.974  26.429  28.067  1.00  0.00     0.029 A 
ATOM     20  N   UNL A   1      43.135  26.896  27.742  1.00  0.00    -0.354 N 
ATOM     21  C   UNL A   1      44.678  30.884  28.380  1.00  0.00     0.074 A 
ATOM     22  C   UNL A   1      43.628  31.789  28.797  1.00  0.00     0.031 C 
ATOM     23  C   UNL A   1      41.579  25.288  27.710  1.00  0.00     0.029 A 
ATOM     24  C   UNL A   1      42.991  25.557  27.463  1.00  0.00     0.049 A 
ATOM     25  H   UNL A   1      43.993  27.372  27.667  1.00  0.00     0.167 HD
ATOM     26  C   UNL A   1      45.973  31.241  28.197  1.00  0.00     0.037 A 
ATOM     27  C   UNL A   1      43.890  24.647  27.042  1.00  0.00     0.037 A 
ATOM     28  C   UNL A   1      47.014  30.328  27.796  1.00  0.00     0.049 A 
ATOM     29  C   UNL A   1      45.314  25.072  26.832  1.00  0.00     0.074 A 
ATOM     30  C   UNL A   1      48.365  30.583  27.624  1.00  0.00     0.029 A 
ATOM     31  N   UNL A   1      46.822  28.987  27.493  1.00  0.00    -0.354 N 
ATOM     32  N   UNL A   1      45.859  26.251  27.018  1.00  0.00    -0.248 NA
ATOM     33  C   UNL A   1      46.247  24.045  26.354  1.00  0.00     0.031 C 
ATOM     34  C   UNL A   1      48.978  29.410  27.170  1.00  0.00     0.029 A 
ATOM     35  C   UNL A   1      48.023  28.408  27.115  1.00  0.00     0.049 A 
ATOM     36  H   UNL A   1      45.958  28.516  27.541  1.00  0.00     0.167 HD
ATOM     37  C   UNL A   1      47.206  26.099  26.711  1.00  0.00     0.074 A 
ATOM     38  C   UNL A   1      47.392  24.712  26.332  1.00  0.00     0.031 C 
ATOM     39  C   UNL A   1      48.198  27.023  26.745  1.00  0.00     0.037 A 
BRANCH  26  40
ATOM     40  C   UNL A   1      46.333  32.691  28.398  1.00  0.00     0.058 A 
ATOM     41  C   UNL A   1      46.833  33.174  29.619  1.00  0.00     0.135 A 
ATOM     42  C   UNL A   1      46.193  33.610  27.345  1.00  0.00     0.135 A 
ATOM     43  F   UNL A   1      46.979  32.345  30.665  1.00  0.00    -0.206 F 
ATOM     44  C   UNL A   1      47.141  34.520  29.800  1.00  0.00     0.059 A 
ATOM     45  C   UNL A   1      46.522  34.955  27.494  1.00  0.00     0.059 A 
ATOM     46  F   UNL A   1      45.726  33.205  26.153  1.00  0.00    -0.206 F 
ATOM     47  C   UNL A   1      46.975  35.404  28.733  1.00  0.00     0.060 A 
BRANCH  47  48
ATOM     48  S   UNL A   1      47.352  37.151  28.991  1.00  0.00     0.124 S 
ATOM     49  O   UNL A   1      46.118  37.625  29.610  1.00  0.00    -0.237 OA
ATOM     50  O   UNL A   1      48.518  37.094  29.867  1.00  0.00    -0.237 OA
ATOM     51  O   UNL A   1      47.607  37.647  27.642  1.00  0.00    -0.744 OA
ENDBRANCH  47  48
ENDBRANCH  26  40
BRANCH  27  52
ATOM     52  C   UNL A   1      43.463  23.242  26.819  1.00  0.00     0.058 A 
ATOM     53  C   UNL A   1      43.404  22.704  25.525  1.00  0.00     0.135 A 
ATOM     54  C   UNL A   1      43.146  22.397  27.895  1.00  0.00     0.135 A 
ATOM     55  F   UNL A   1      43.694  23.474  24.466  1.00  0.00    -0.206 F 
ATOM     56  C   UNL A   1      43.041  21.380  25.304  1.00  0.00     0.059 A 
ATOM     57  C   UNL A   1      42.807  21.062  27.700  1.00  0.00     0.059 A 
ATOM     58  F   UNL A   1      43.205  22.860  29.154  1.00  0.00    -0.206 F 
ATOM     59  C   UNL A   1      42.750  20.565  26.400  1.00  0.00     0.060 A 
BRANCH  59  60
ATOM     60  S   UNL A   1      42.345  18.831  26.103  1.00  0.00     0.124 S 
ATOM     61  O   UNL A   1      43.251  18.501  25.009  1.00  0.00    -0.237 OA
ATOM     62  O   UNL A   1      42.650  18.221  27.393  1.00  0.00    -0.237 OA
ATOM     63  O   UNL A   1      40.927  18.872  25.758  1.00  0.00    -0.744 OA
ENDBRANCH  59  60
ENDBRANCH  27  52
BRANCH  39  64
ATOM     64  C   UNL A   1      49.587  26.554  26.412  1.00  0.00     0.058 A 
ATOM     65  C   UNL A   1      50.399  25.904  27.353  1.00  0.00     0.135 A 
ATOM     66  C   UNL A   1      50.101  26.733  25.116  1.00  0.00     0.135 A 
ATOM     67  F   UNL A   1      49.960  25.713  28.608  1.00  0.00    -0.206 F 
ATOM     68  C   UNL A   1      51.684  25.476  27.033  1.00  0.00     0.059 A 
ATOM     69  C   UNL A   1      51.371  26.287  24.765  1.00  0.00     0.059 A 
ATOM     70  F   UNL A   1      49.363  27.341  24.174  1.00  0.00    -0.206 F 
ATOM     71  C   UNL A   1      52.161  25.673  25.736  1.00  0.00     0.060 A 
BRANCH  71  72
ATOM     72  S   UNL A   1      53.822  25.099  25.325  1.00  0.00     0.124 S 
ATOM     73  O   UNL A   1      54.614  25.701  26.391  1.00  0.00    -0.237 OA
ATOM     74  O   UNL A   1      53.675  23.648  25.386  1.00  0.00    -0.237 OA
ATOM     75  O   UNL A   1      54.049  25.643  23.989  1.00  0.00    -0.744 OA
ENDBRANCH  71  72
ENDBRANCH  39  64
ENDBRANCH  13  14
ENDBRANCH   6   8
ENDBRANCH   3   4
ENDBRANCH   2   3
ENDBRANCH   1   2
BRANCH   1  76
ATOM     76  C   UNL A   1      32.424  28.209  25.982  1.00  0.00     0.002 C 
BRANCH  76  77
ATOM     77  C   UNL A   1      31.654  27.128  26.746  1.00  0.00     0.021 C 
BRANCH  77  78
ATOM     78  C   UNL A   1      30.648  26.342  25.907  1.00  0.00     0.116 C 
BRANCH  78  79
ATOM     79  N   UNL A   1      30.087  25.221  26.651  1.00  0.00    -0.352 N 
ATOM     80  C   UNL A   1      30.554  23.936  26.747  1.00  0.00     0.254 C 
ATOM     81  H   UNL A   1      29.261  25.413  27.151  1.00  0.00     0.163 HD
ATOM     82  O   UNL A   1      29.867  23.042  27.230  1.00  0.00    -0.269 OA
BRANCH  80  83
ATOM     83  C   UNL A   1      31.893  23.628  26.260  1.00  0.00     0.076 A 
ATOM     84  C   UNL A   1      32.234  23.748  24.939  1.00  0.00     0.130 A 
ATOM     85  C   UNL A   1      32.890  23.193  27.097  1.00  0.00     0.130 A 
ATOM     86  N   UNL A   1      33.439  23.390  24.461  1.00  0.00    -0.221 NA
ATOM     87  N   UNL A   1      34.108  22.802  26.656  1.00  0.00    -0.221 NA
ATOM     88  C   UNL A   1      34.337  22.894  25.331  1.00  0.00     0.227 A 
BRANCH  88  89
ATOM     89  N   UNL A   1      35.526  22.341  24.869  1.00  0.00    -0.324 N 
ATOM     90  H   UNL A   1      35.433  21.735  24.099  1.00  0.00     0.170 HD
BRANCH  89  91
ATOM     91  C   UNL A   1      36.835  22.514  25.331  1.00  0.00     0.041 A 
ATOM     92  C   UNL A   1      37.233  23.763  25.824  1.00  0.00     0.026 A 
ATOM     93  C   UNL A   1      37.742  21.450  25.427  1.00  0.00     0.026 A 
ATOM     94  C   UNL A   1      38.497  23.942  26.394  1.00  0.00     0.002 A 
ATOM     95  C   UNL A   1      39.012  21.627  25.980  1.00  0.00     0.002 A 
ATOM     96  C   UNL A   1      39.387  22.873  26.470  1.00  0.00     0.000 A 
ENDBRANCH  89  91
ENDBRANCH  88  89
ENDBRANCH  80  83
ENDBRANCH  78  79
ENDBRANCH  77  78
ENDBRANCH  76  77
ENDBRANCH   1  76
TORSDOF 18
ENDMDL
