MODEL 1
REMARK VINA RESULT:      -9.0      0.000      0.000
REMARK SMILES N#CCC[NH+]1CCN(c2cc(C(=O)NCCCCCCNC(=O)c3ccc(-c4c5nc(c(-c6c(F)cc(S(=O)(=O)[O-])cc6F)c6ccc([nH]6)c(-c6c(F)cc(S(=O)(=O)[O-])cc6F)c6nc(c(-c7c(F)cc(S(=O)(=O)[O-])cc7F)c7ccc4[nH]7)C=C6)C=C5)cc3)c3cc(NS(=O)(=O)c4ccccc4Cl)ccc3n2)CC1
REMARK SMILES IDX 17 1 16 2 15 3 14 4 12 5 13 6 11 8 9 9 10 10 107 11 106 12
REMARK SMILES IDX 90 13 105 14 91 15 104 16 92 17 8 18 5 19 6 20 109 21 7 23
REMARK SMILES IDX 108 24 4 25 3 26 2 27 1 28 93 29 94 31 95 32 96 33 97 34
REMARK SMILES IDX 98 35 102 36 99 37 101 38 103 39 100 40 18 41 19 42 20 43
REMARK SMILES IDX 21 44 22 45 23 47 24 48 25 49 89 50 26 51 88 52 27 53 28 54
REMARK SMILES IDX 29 55 82 56 30 57 87 58 81 59 83 60 31 61 86 62 80 63 79 64
REMARK SMILES IDX 32 66 66 67 45 68 65 69 46 70 49 71 64 72 84 73 47 74 48 75
REMARK SMILES IDX 63 77 85 78 50 79 33 80 34 81 43 82 35 83 36 84 42 85 44 86
REMARK SMILES IDX 37 87 38 88 39 89 40 90 41 91 67 92 68 93 77 94 69 95 70 96
REMARK SMILES IDX 76 97 78 98 71 99 72 100 73 101 74 102 75 103 51 104 52 105
REMARK SMILES IDX 61 106 53 107 54 108 60 109 62 110 55 111 56 112 57 113
REMARK SMILES IDX 58 114 59 115
REMARK H PARENT 14 7 5 22 93 30 21 46 83 65 49 76
REMARK Flexibility Score: inf
ROOT
ATOM      1  C   UNL A   1      46.939  25.013  28.034  1.00  0.00     0.002 C 
ENDROOT
BRANCH   1   2
ATOM      2  C   UNL A   1      45.937  25.906  28.819  1.00  0.00     0.021 C 
BRANCH   2   3
ATOM      3  C   UNL A   1      44.409  25.906  28.415  1.00  0.00     0.116 C 
BRANCH   3   4
ATOM      4  N   UNL A   1      43.828  27.252  28.187  1.00  0.00    -0.352 N 
ATOM      5  C   UNL A   1      42.941  27.751  27.255  1.00  0.00     0.252 C 
ATOM      6  O   UNL A   1      43.396  28.508  26.392  1.00  0.00    -0.269 OA
ATOM      7  H   UNL A   1      44.140  27.927  28.833  1.00  0.00     0.163 HD
BRANCH   5   8
ATOM      8  C   UNL A   1      41.450  27.758  27.470  1.00  0.00     0.052 A 
ATOM      9  C   UNL A   1      39.635  28.572  28.847  1.00  0.00     0.130 A 
ATOM     10  C   UNL A   1      40.943  28.685  28.371  1.00  0.00     0.061 A 
ATOM     11  N   UNL A   1      38.934  27.429  28.677  1.00  0.00    -0.231 NA
ATOM     12  C   UNL A   1      39.482  26.452  27.916  1.00  0.00     0.074 A 
ATOM     13  C   UNL A   1      40.628  26.686  27.150  1.00  0.00     0.015 A 
ATOM     14  C   UNL A   1      39.067  25.117  27.946  1.00  0.00     0.031 A 
ATOM     15  C   UNL A   1      41.067  25.715  26.294  1.00  0.00     0.038 A 
ATOM     16  C   UNL A   1      39.974  24.109  27.536  1.00  0.00     0.029 A 
ATOM     17  C   UNL A   1      41.134  24.506  26.893  1.00  0.00     0.050 A 
BRANCH   9  18
ATOM     18  N   UNL A   1      39.037  29.678  29.422  1.00  0.00    -0.345 N 
ATOM     19  N   UNL A   1      38.000  32.071  30.714  1.00  0.00    -0.331 N 
ATOM     20  C   UNL A   1      39.260  31.454  31.155  1.00  0.00     0.284 C 
ATOM     21  C   UNL A   1      37.935  31.914  29.243  1.00  0.00     0.284 C 
ATOM     22  H   UNL A   1      38.044  33.050  30.997  1.00  0.00     0.348 HD
ATOM     23  C   UNL A   1      39.403  29.967  30.809  1.00  0.00     0.179 C 
ATOM     24  C   UNL A   1      38.002  30.452  28.735  1.00  0.00     0.179 C 
BRANCH  19  25
ATOM     25  C   UNL A   1      36.746  31.720  31.415  1.00  0.00     0.277 C 
BRANCH  25  26
ATOM     26  C   UNL A   1      36.443  32.061  32.898  1.00  0.00     0.181 C 
BRANCH  26  27
ATOM     27  C   UNL A   1      36.794  33.516  33.164  1.00  0.00     0.068 C 
ATOM     28  N   UNL A   1      37.085  34.723  33.384  1.00  0.00    -0.198 NA
ENDBRANCH  26  27
ENDBRANCH  25  26
ENDBRANCH  19  25
ENDBRANCH   9  18
BRANCH  17  29
ATOM     29  N   UNL A   1      42.428  23.863  26.813  1.00  0.00    -0.280 N 
ATOM     30  H   UNL A   1      43.252  24.385  26.946  1.00  0.00     0.180 HD
BRANCH  29  31
ATOM     31  S   UNL A   1      42.505  22.201  26.486  1.00  0.00     0.263 S 
ATOM     32  O   UNL A   1      42.245  21.509  27.732  1.00  0.00    -0.201 OA
ATOM     33  O   UNL A   1      41.523  22.126  25.411  1.00  0.00    -0.201 OA
BRANCH  31  34
ATOM     34  C   UNL A   1      43.912  21.277  25.774  1.00  0.00     0.106 A 
ATOM     35  C   UNL A   1      43.450  19.944  25.581  1.00  0.00     0.024 A 
ATOM     36  C   UNL A   1      45.251  21.465  25.393  1.00  0.00     0.061 A 
ATOM     37  C   UNL A   1      44.234  18.887  25.107  1.00  0.00     0.002 A 
ATOM     38  C   UNL A   1      46.061  20.368  24.974  1.00  0.00     0.022 A 
ATOM     39  Cl  UNL A   1      46.209  22.846  25.116  1.00  0.00    -0.083 Cl
ATOM     40  C   UNL A   1      45.564  19.092  24.827  1.00  0.00     0.002 A 
ENDBRANCH  31  34
ENDBRANCH  29  31
ENDBRANCH  17  29
ENDBRANCH   5   8
ENDBRANCH   3   4
ENDBRANCH   2   3
ENDBRANCH   1   2
BRANCH   1  41
ATOM     41  C   UNL A   1      48.462  25.275  28.201  1.00  0.00     0.002 C 
BRANCH  41  42
ATOM     42  C   UNL A   1      49.379  25.186  26.985  1.00  0.00     0.021 C 
BRANCH  42  43
ATOM     43  C   UNL A   1      48.863  25.875  25.742  1.00  0.00     0.116 C 
BRANCH  43  44
ATOM     44  N   UNL A   1      49.753  26.901  25.223  1.00  0.00    -0.352 N 
ATOM     45  C   UNL A   1      49.773  28.230  25.594  1.00  0.00     0.251 C 
ATOM     46  H   UNL A   1      50.404  26.621  24.541  1.00  0.00     0.163 HD
ATOM     47  O   UNL A   1      50.468  29.044  25.001  1.00  0.00    -0.269 OA
BRANCH  45  48
ATOM     48  C   UNL A   1      48.908  28.651  26.719  1.00  0.00     0.039 A 
ATOM     49  C   UNL A   1      49.482  29.169  27.881  1.00  0.00     0.014 A 
ATOM     50  C   UNL A   1      47.517  28.580  26.585  1.00  0.00     0.014 A 
ATOM     51  C   UNL A   1      48.652  29.632  28.905  1.00  0.00     0.010 A 
ATOM     52  C   UNL A   1      46.698  29.137  27.557  1.00  0.00     0.010 A 
ATOM     53  C   UNL A   1      47.255  29.620  28.748  1.00  0.00    -0.014 A 
BRANCH  53  54
ATOM     54  C   UNL A   1      46.355  29.980  29.870  1.00  0.00     0.031 A 
ATOM     55  C   UNL A   1      45.596  31.282  29.804  1.00  0.00     0.074 A 
ATOM     56  C   UNL A   1      46.240  29.170  30.938  1.00  0.00     0.049 A 
ATOM     57  N   UNL A   1      44.762  31.798  30.667  1.00  0.00    -0.248 NA
ATOM     58  C   UNL A   1      45.841  32.137  28.630  1.00  0.00     0.031 C 
ATOM     59  C   UNL A   1      46.983  27.924  31.145  1.00  0.00     0.029 A 
ATOM     60  N   UNL A   1      45.447  29.271  32.051  1.00  0.00    -0.354 N 
ATOM     61  C   UNL A   1      44.404  33.039  30.149  1.00  0.00     0.074 A 
ATOM     62  C   UNL A   1      45.172  33.235  28.942  1.00  0.00     0.031 C 
ATOM     63  C   UNL A   1      46.580  27.358  32.295  1.00  0.00     0.029 A 
ATOM     64  C   UNL A   1      45.562  28.204  32.911  1.00  0.00     0.049 A 
ATOM     65  H   UNL A   1      44.851  30.036  32.220  1.00  0.00     0.167 HD
ATOM     66  C   UNL A   1      43.484  33.918  30.609  1.00  0.00     0.037 A 
ATOM     67  C   UNL A   1      44.897  27.934  34.050  1.00  0.00     0.037 A 
ATOM     68  C   UNL A   1      42.678  33.683  31.776  1.00  0.00     0.049 A 
ATOM     69  C   UNL A   1      43.824  28.888  34.506  1.00  0.00     0.074 A 
ATOM     70  C   UNL A   1      41.667  34.465  32.299  1.00  0.00     0.029 A 
ATOM     71  N   UNL A   1      42.787  32.565  32.590  1.00  0.00    -0.354 N 
ATOM     72  N   UNL A   1      43.449  30.024  33.966  1.00  0.00    -0.248 NA
ATOM     73  C   UNL A   1      43.072  28.513  35.710  1.00  0.00     0.031 C 
ATOM     74  C   UNL A   1      41.177  33.830  33.447  1.00  0.00     0.029 A 
ATOM     75  C   UNL A   1      41.862  32.637  33.616  1.00  0.00     0.049 A 
ATOM     76  H   UNL A   1      43.428  31.829  32.457  1.00  0.00     0.167 HD
ATOM     77  C   UNL A   1      42.401  30.491  34.753  1.00  0.00     0.074 A 
ATOM     78  C   UNL A   1      42.192  29.502  35.792  1.00  0.00     0.031 C 
ATOM     79  C   UNL A   1      41.678  31.633  34.633  1.00  0.00     0.037 A 
BRANCH  66  80
ATOM     80  C   UNL A   1      43.291  35.189  29.829  1.00  0.00     0.058 A 
ATOM     81  C   UNL A   1      42.210  35.354  28.946  1.00  0.00     0.135 A 
ATOM     82  C   UNL A   1      44.199  36.253  29.956  1.00  0.00     0.135 A 
ATOM     83  F   UNL A   1      41.324  34.361  28.769  1.00  0.00    -0.206 F 
ATOM     84  C   UNL A   1      42.057  36.510  28.189  1.00  0.00     0.059 A 
ATOM     85  C   UNL A   1      44.048  37.431  29.229  1.00  0.00     0.059 A 
ATOM     86  F   UNL A   1      45.252  36.148  30.781  1.00  0.00    -0.206 F 
ATOM     87  C   UNL A   1      42.985  37.542  28.333  1.00  0.00     0.060 A 
BRANCH  87  88
ATOM     88  S   UNL A   1      42.778  39.034  27.339  1.00  0.00     0.124 S 
ATOM     89  O   UNL A   1      42.671  40.060  28.372  1.00  0.00    -0.237 OA
ATOM     90  O   UNL A   1      44.005  39.058  26.550  1.00  0.00    -0.237 OA
ATOM     91  O   UNL A   1      41.557  38.772  26.586  1.00  0.00    -0.744 OA
ENDBRANCH  87  88
ENDBRANCH  66  80
BRANCH  67  92
ATOM     92  C   UNL A   1      45.178  26.679  34.799  1.00  0.00     0.058 A 
ATOM     93  C   UNL A   1      44.607  25.460  34.403  1.00  0.00     0.135 A 
ATOM     94  C   UNL A   1      46.030  26.669  35.914  1.00  0.00     0.135 A 
ATOM     95  F   UNL A   1      43.783  25.418  33.345  1.00  0.00    -0.206 F 
ATOM     96  C   UNL A   1      44.854  24.279  35.095  1.00  0.00     0.059 A 
ATOM     97  C   UNL A   1      46.310  25.497  36.609  1.00  0.00     0.059 A 
ATOM     98  F   UNL A   1      46.617  27.805  36.322  1.00  0.00    -0.206 F 
ATOM     99  C   UNL A   1      45.709  24.307  36.199  1.00  0.00     0.060 A 
BRANCH  99 100
ATOM    100  S   UNL A   1      46.060  22.760  37.063  1.00  0.00     0.124 S 
ATOM    101  O   UNL A   1      45.372  21.789  36.221  1.00  0.00    -0.237 OA
ATOM    102  O   UNL A   1      47.519  22.715  37.031  1.00  0.00    -0.237 OA
ATOM    103  O   UNL A   1      45.478  22.978  38.385  1.00  0.00    -0.744 OA
ENDBRANCH  99 100
ENDBRANCH  67  92
BRANCH  79 104
ATOM    104  C   UNL A   1      40.586  31.856  35.639  1.00  0.00     0.058 A 
ATOM    105  C   UNL A   1      39.298  31.332  35.449  1.00  0.00     0.135 A 
ATOM    106  C   UNL A   1      40.841  32.575  36.818  1.00  0.00     0.135 A 
ATOM    107  F   UNL A   1      39.007  30.639  34.337  1.00  0.00    -0.206 F 
ATOM    108  C   UNL A   1      38.287  31.545  36.379  1.00  0.00     0.059 A 
ATOM    109  C   UNL A   1      39.851  32.777  37.773  1.00  0.00     0.059 A 
ATOM    110  F   UNL A   1      42.061  33.081  37.051  1.00  0.00    -0.206 F 
ATOM    111  C   UNL A   1      38.572  32.274  37.535  1.00  0.00     0.060 A 
BRANCH 111 112
ATOM    112  S   UNL A   1      37.254  32.542  38.739  1.00  0.00     0.124 S 
ATOM    113  O   UNL A   1      37.098  31.206  39.302  1.00  0.00    -0.237 OA
ATOM    114  O   UNL A   1      37.839  33.541  39.629  1.00  0.00    -0.237 OA
ATOM    115  O   UNL A   1      36.142  33.015  37.921  1.00  0.00    -0.744 OA
ENDBRANCH 111 112
ENDBRANCH  79 104
ENDBRANCH  53  54
ENDBRANCH  45  48
ENDBRANCH  43  44
ENDBRANCH  42  43
ENDBRANCH  41  42
ENDBRANCH   1  41
TORSDOF 23
ENDMDL
MODEL 2
REMARK VINA RESULT:      -8.9      3.989     12.600
REMARK SMILES N#CCC[NH+]1CCN(c2cc(C(=O)NCCCCCCNC(=O)c3ccc(-c4c5nc(c(-c6c(F)cc(S(=O)(=O)[O-])cc6F)c6ccc([nH]6)c(-c6c(F)cc(S(=O)(=O)[O-])cc6F)c6nc(c(-c7c(F)cc(S(=O)(=O)[O-])cc7F)c7ccc4[nH]7)C=C6)C=C5)cc3)c3cc(NS(=O)(=O)c4ccccc4Cl)ccc3n2)CC1
REMARK SMILES IDX 17 1 16 2 15 3 14 4 12 5 13 6 11 8 9 9 10 10 107 11 106 12
REMARK SMILES IDX 90 13 105 14 91 15 104 16 92 17 8 18 5 19 6 20 109 21 7 23
REMARK SMILES IDX 108 24 4 25 3 26 2 27 1 28 93 29 94 31 95 32 96 33 97 34
REMARK SMILES IDX 98 35 102 36 99 37 101 38 103 39 100 40 18 41 19 42 20 43
REMARK SMILES IDX 21 44 22 45 23 47 24 48 25 49 89 50 26 51 88 52 27 53 28 54
REMARK SMILES IDX 29 55 82 56 30 57 87 58 81 59 83 60 31 61 86 62 80 63 79 64
REMARK SMILES IDX 32 66 66 67 45 68 65 69 46 70 49 71 64 72 84 73 47 74 48 75
REMARK SMILES IDX 63 77 85 78 50 79 33 80 34 81 43 82 35 83 36 84 42 85 44 86
REMARK SMILES IDX 37 87 38 88 39 89 40 90 41 91 67 92 68 93 77 94 69 95 70 96
REMARK SMILES IDX 76 97 78 98 71 99 72 100 73 101 74 102 75 103 51 104 52 105
REMARK SMILES IDX 61 106 53 107 54 108 60 109 62 110 55 111 56 112 57 113
REMARK SMILES IDX 58 114 59 115
REMARK H PARENT 14 7 5 22 93 30 21 46 83 65 49 76
REMARK Flexibility Score: inf
ROOT
ATOM      1  C   UNL A   1      36.305  34.348  31.936  1.00  0.00     0.002 C 
ENDROOT
BRANCH   1   2
ATOM      2  C   UNL A   1      37.579  34.070  31.088  1.00  0.00     0.021 C 
BRANCH   2   3
ATOM      3  C   UNL A   1      38.979  34.609  31.582  1.00  0.00     0.116 C 
BRANCH   3   4
ATOM      4  N   UNL A   1      39.552  33.879  32.740  1.00  0.00    -0.352 N 
ATOM      5  C   UNL A   1      40.619  34.130  33.579  1.00  0.00     0.252 C 
ATOM      6  O   UNL A   1      41.615  33.410  33.454  1.00  0.00    -0.269 OA
ATOM      7  H   UNL A   1      39.072  33.047  32.952  1.00  0.00     0.163 HD
BRANCH   5   8
ATOM      8  C   UNL A   1      40.485  34.919  34.855  1.00  0.00     0.052 A 
ATOM      9  C   UNL A   1      41.659  35.895  36.731  1.00  0.00     0.130 A 
ATOM     10  C   UNL A   1      41.652  35.414  35.420  1.00  0.00     0.061 A 
ATOM     11  N   UNL A   1      40.630  35.636  37.568  1.00  0.00    -0.231 NA
ATOM     12  C   UNL A   1      39.536  35.017  37.061  1.00  0.00     0.074 A 
ATOM     13  C   UNL A   1      39.373  34.846  35.684  1.00  0.00     0.015 A 
ATOM     14  C   UNL A   1      38.577  34.369  37.845  1.00  0.00     0.031 A 
ATOM     15  C   UNL A   1      38.195  34.340  35.211  1.00  0.00     0.038 A 
ATOM     16  C   UNL A   1      37.782  33.356  37.253  1.00  0.00     0.029 A 
ATOM     17  C   UNL A   1      37.819  33.227  35.876  1.00  0.00     0.050 A 
BRANCH   9  18
ATOM     18  N   UNL A   1      42.697  36.714  37.135  1.00  0.00    -0.345 N 
ATOM     19  N   UNL A   1      44.856  38.559  37.775  1.00  0.00    -0.331 N 
ATOM     20  C   UNL A   1      44.444  38.323  36.383  1.00  0.00     0.284 C 
ATOM     21  C   UNL A   1      43.627  38.513  38.601  1.00  0.00     0.284 C 
ATOM     22  H   UNL A   1      45.298  39.478  37.793  1.00  0.00     0.348 HD
ATOM     23  C   UNL A   1      43.735  36.985  36.141  1.00  0.00     0.179 C 
ATOM     24  C   UNL A   1      42.827  37.189  38.514  1.00  0.00     0.179 C 
BRANCH  19  25
ATOM     25  C   UNL A   1      45.986  37.785  38.330  1.00  0.00     0.277 C 
BRANCH  25  26
ATOM     26  C   UNL A   1      47.424  37.788  37.746  1.00  0.00     0.181 C 
BRANCH  26  27
ATOM     27  C   UNL A   1      47.599  36.589  36.828  1.00  0.00     0.068 C 
ATOM     28  N   UNL A   1      47.745  35.595  36.067  1.00  0.00    -0.198 NA
ENDBRANCH  26  27
ENDBRANCH  25  26
ENDBRANCH  19  25
ENDBRANCH   9  18
BRANCH  17  29
ATOM     29  N   UNL A   1      37.583  32.073  35.036  1.00  0.00    -0.280 N 
ATOM     30  H   UNL A   1      36.870  32.088  34.357  1.00  0.00     0.180 HD
BRANCH  29  31
ATOM     31  S   UNL A   1      38.548  30.693  35.237  1.00  0.00     0.263 S 
ATOM     32  O   UNL A   1      38.265  30.163  36.555  1.00  0.00    -0.201 OA
ATOM     33  O   UNL A   1      38.132  29.939  34.061  1.00  0.00    -0.201 OA
BRANCH  31  34
ATOM     34  C   UNL A   1      40.370  30.591  35.123  1.00  0.00     0.106 A 
ATOM     35  C   UNL A   1      40.876  31.327  36.231  1.00  0.00     0.024 A 
ATOM     36  C   UNL A   1      41.376  30.048  34.306  1.00  0.00     0.061 A 
ATOM     37  C   UNL A   1      42.232  31.552  36.489  1.00  0.00     0.002 A 
ATOM     38  C   UNL A   1      42.753  30.338  34.538  1.00  0.00     0.022 A 
ATOM     39  Cl  UNL A   1      41.379  28.871  33.074  1.00  0.00    -0.083 Cl
ATOM     40  C   UNL A   1      43.184  31.078  35.618  1.00  0.00     0.002 A 
ENDBRANCH  31  34
ENDBRANCH  29  31
ENDBRANCH  17  29
ENDBRANCH   5   8
ENDBRANCH   3   4
ENDBRANCH   2   3
ENDBRANCH   1   2
BRANCH   1  41
ATOM     41  C   UNL A   1      34.965  33.683  31.512  1.00  0.00     0.002 C 
BRANCH  41  42
ATOM     42  C   UNL A   1      34.982  32.300  30.869  1.00  0.00     0.021 C 
BRANCH  42  43
ATOM     43  C   UNL A   1      35.018  32.297  29.358  1.00  0.00     0.116 C 
BRANCH  43  44
ATOM     44  N   UNL A   1      34.274  31.205  28.751  1.00  0.00    -0.352 N 
ATOM     45  C   UNL A   1      34.804  30.039  28.238  1.00  0.00     0.251 C 
ATOM     46  H   UNL A   1      33.296  31.307  28.701  1.00  0.00     0.163 HD
ATOM     47  O   UNL A   1      34.107  29.241  27.626  1.00  0.00    -0.269 OA
BRANCH  45  48
ATOM     48  C   UNL A   1      36.251  29.791  28.428  1.00  0.00     0.039 A 
ATOM     49  C   UNL A   1      36.714  29.281  29.641  1.00  0.00     0.014 A 
ATOM     50  C   UNL A   1      37.136  30.017  27.369  1.00  0.00     0.014 A 
ATOM     51  C   UNL A   1      38.071  28.980  29.782  1.00  0.00     0.010 A 
ATOM     52  C   UNL A   1      38.461  29.619  27.475  1.00  0.00     0.010 A 
ATOM     53  C   UNL A   1      38.952  29.146  28.699  1.00  0.00    -0.014 A 
BRANCH  53  54
ATOM     54  C   UNL A   1      40.414  28.962  28.866  1.00  0.00     0.031 A 
ATOM     55  C   UNL A   1      41.027  27.636  28.493  1.00  0.00     0.074 A 
ATOM     56  C   UNL A   1      41.173  29.955  29.367  1.00  0.00     0.049 A 
ATOM     57  N   UNL A   1      42.274  27.252  28.559  1.00  0.00    -0.248 NA
ATOM     58  C   UNL A   1      40.107  26.585  28.023  1.00  0.00     0.031 C 
ATOM     59  C   UNL A   1      40.678  31.252  29.832  1.00  0.00     0.029 A 
ATOM     60  N   UNL A   1      42.528  30.028  29.561  1.00  0.00    -0.354 N 
ATOM     61  C   UNL A   1      42.280  25.920  28.161  1.00  0.00     0.074 A 
ATOM     62  C   UNL A   1      40.907  25.535  27.935  1.00  0.00     0.031 C 
ATOM     63  C   UNL A   1      41.720  32.007  30.220  1.00  0.00     0.029 A 
ATOM     64  C   UNL A   1      42.952  31.244  30.043  1.00  0.00     0.049 A 
ATOM     65  H   UNL A   1      43.140  29.280  29.372  1.00  0.00     0.167 HD
ATOM     66  C   UNL A   1      43.337  25.099  27.954  1.00  0.00     0.037 A 
ATOM     67  C   UNL A   1      44.198  31.693  30.285  1.00  0.00     0.037 A 
ATOM     68  C   UNL A   1      44.703  25.512  28.119  1.00  0.00     0.049 A 
ATOM     69  C   UNL A   1      45.364  30.790  29.979  1.00  0.00     0.074 A 
ATOM     70  C   UNL A   1      45.858  24.794  27.873  1.00  0.00     0.029 A 
ATOM     71  N   UNL A   1      45.095  26.768  28.558  1.00  0.00    -0.354 N 
ATOM     72  N   UNL A   1      45.356  29.555  29.536  1.00  0.00    -0.248 NA
ATOM     73  C   UNL A   1      46.707  31.350  30.183  1.00  0.00     0.031 C 
ATOM     74  C   UNL A   1      46.951  25.612  28.186  1.00  0.00     0.029 A 
ATOM     75  C   UNL A   1      46.475  26.848  28.594  1.00  0.00     0.049 A 
ATOM     76  H   UNL A   1      44.480  27.496  28.807  1.00  0.00     0.167 HD
ATOM     77  C   UNL A   1      46.691  29.195  29.388  1.00  0.00     0.074 A 
ATOM     78  C   UNL A   1      47.477  30.352  29.771  1.00  0.00     0.031 C 
ATOM     79  C   UNL A   1      47.225  28.016  28.978  1.00  0.00     0.037 A 
BRANCH  66  80
ATOM     80  C   UNL A   1      43.045  23.695  27.503  1.00  0.00     0.058 A 
ATOM     81  C   UNL A   1      42.995  23.354  26.140  1.00  0.00     0.135 A 
ATOM     82  C   UNL A   1      42.803  22.677  28.439  1.00  0.00     0.135 A 
ATOM     83  F   UNL A   1      43.196  24.293  25.202  1.00  0.00    -0.206 F 
ATOM     84  C   UNL A   1      42.678  22.067  25.722  1.00  0.00     0.059 A 
ATOM     85  C   UNL A   1      42.512  21.374  28.042  1.00  0.00     0.059 A 
ATOM     86  F   UNL A   1      42.832  22.946  29.754  1.00  0.00    -0.206 F 
ATOM     87  C   UNL A   1      42.433  21.084  26.681  1.00  0.00     0.060 A 
BRANCH  87  88
ATOM     88  S   UNL A   1      42.015  19.419  26.123  1.00  0.00     0.124 S 
ATOM     89  O   UNL A   1      42.836  19.301  24.921  1.00  0.00    -0.237 OA
ATOM     90  O   UNL A   1      42.429  18.595  27.254  1.00  0.00    -0.237 OA
ATOM     91  O   UNL A   1      40.576  19.489  25.896  1.00  0.00    -0.744 OA
ENDBRANCH  87  88
ENDBRANCH  66  80
BRANCH  67  92
ATOM     92  C   UNL A   1      44.409  33.079  30.782  1.00  0.00     0.058 A 
ATOM     93  C   UNL A   1      44.664  33.328  32.139  1.00  0.00     0.135 A 
ATOM     94  C   UNL A   1      44.373  34.180  29.913  1.00  0.00     0.135 A 
ATOM     95  F   UNL A   1      44.706  32.308  33.011  1.00  0.00    -0.206 F 
ATOM     96  C   UNL A   1      44.858  34.618  32.622  1.00  0.00     0.059 A 
ATOM     97  C   UNL A   1      44.585  35.478  30.367  1.00  0.00     0.059 A 
ATOM     98  F   UNL A   1      44.151  33.995  28.602  1.00  0.00    -0.206 F 
ATOM     99  C   UNL A   1      44.817  35.689  31.726  1.00  0.00     0.060 A 
BRANCH  99 100
ATOM    100  S   UNL A   1      45.116  37.356  32.354  1.00  0.00     0.124 S 
ATOM    101  O   UNL A   1      46.077  37.102  33.421  1.00  0.00    -0.237 OA
ATOM    102  O   UNL A   1      45.636  38.040  31.174  1.00  0.00    -0.237 OA
ATOM    103  O   UNL A   1      43.791  37.791  32.787  1.00  0.00    -0.744 OA
ENDBRANCH  99 100
ENDBRANCH  67  92
BRANCH  79 104
ATOM    104  C   UNL A   1      48.722  27.935  28.905  1.00  0.00     0.058 A 
ATOM    105  C   UNL A   1      49.420  28.305  27.744  1.00  0.00     0.135 A 
ATOM    106  C   UNL A   1      49.466  27.513  30.017  1.00  0.00     0.135 A 
ATOM    107  F   UNL A   1      48.751  28.715  26.655  1.00  0.00    -0.206 F 
ATOM    108  C   UNL A   1      50.806  28.223  27.677  1.00  0.00     0.059 A 
ATOM    109  C   UNL A   1      50.855  27.448  29.980  1.00  0.00     0.059 A 
ATOM    110  F   UNL A   1      48.845  27.164  31.154  1.00  0.00    -0.206 F 
ATOM    111  C   UNL A   1      51.513  27.788  28.799  1.00  0.00     0.060 A 
BRANCH 111 112
ATOM    112  S   UNL A   1      53.313  27.689  28.704  1.00  0.00     0.124 S 
ATOM    113  O   UNL A   1      53.706  28.974  29.269  1.00  0.00    -0.237 OA
ATOM    114  O   UNL A   1      53.608  26.518  29.527  1.00  0.00    -0.237 OA
ATOM    115  O   UNL A   1      53.567  27.523  27.277  1.00  0.00    -0.744 OA
ENDBRANCH 111 112
ENDBRANCH  79 104
ENDBRANCH  53  54
ENDBRANCH  45  48
ENDBRANCH  43  44
ENDBRANCH  42  43
ENDBRANCH  41  42
ENDBRANCH   1  41
TORSDOF 23
ENDMDL
MODEL 3
REMARK VINA RESULT:      -8.9      0.929      7.591
REMARK SMILES N#CCC[NH+]1CCN(c2cc(C(=O)NCCCCCCNC(=O)c3ccc(-c4c5nc(c(-c6c(F)cc(S(=O)(=O)[O-])cc6F)c6ccc([nH]6)c(-c6c(F)cc(S(=O)(=O)[O-])cc6F)c6nc(c(-c7c(F)cc(S(=O)(=O)[O-])cc7F)c7ccc4[nH]7)C=C6)C=C5)cc3)c3cc(NS(=O)(=O)c4ccccc4Cl)ccc3n2)CC1
REMARK SMILES IDX 17 1 16 2 15 3 14 4 12 5 13 6 11 8 9 9 10 10 107 11 106 12
REMARK SMILES IDX 90 13 105 14 91 15 104 16 92 17 8 18 5 19 6 20 109 21 7 23
REMARK SMILES IDX 108 24 4 25 3 26 2 27 1 28 93 29 94 31 95 32 96 33 97 34
REMARK SMILES IDX 98 35 102 36 99 37 101 38 103 39 100 40 18 41 19 42 20 43
REMARK SMILES IDX 21 44 22 45 23 47 24 48 25 49 89 50 26 51 88 52 27 53 28 54
REMARK SMILES IDX 29 55 82 56 30 57 87 58 81 59 83 60 31 61 86 62 80 63 79 64
REMARK SMILES IDX 32 66 66 67 45 68 65 69 46 70 49 71 64 72 84 73 47 74 48 75
REMARK SMILES IDX 63 77 85 78 50 79 33 80 34 81 43 82 35 83 36 84 42 85 44 86
REMARK SMILES IDX 37 87 38 88 39 89 40 90 41 91 67 92 68 93 77 94 69 95 70 96
REMARK SMILES IDX 76 97 78 98 71 99 72 100 73 101 74 102 75 103 51 104 52 105
REMARK SMILES IDX 61 106 53 107 54 108 60 109 62 110 55 111 56 112 57 113
REMARK SMILES IDX 58 114 59 115
REMARK H PARENT 14 7 5 22 93 30 21 46 83 65 49 76
REMARK Flexibility Score: inf
ROOT
ATOM      1  C   UNL A   1      47.318  25.121  27.311  1.00  0.00     0.002 C 
ENDROOT
BRANCH   1   2
ATOM      2  C   UNL A   1      46.161  25.953  27.934  1.00  0.00     0.021 C 
BRANCH   2   3
ATOM      3  C   UNL A   1      44.744  25.966  27.234  1.00  0.00     0.116 C 
BRANCH   3   4
ATOM      4  N   UNL A   1      44.123  27.308  27.117  1.00  0.00    -0.352 N 
ATOM      5  C   UNL A   1      43.080  27.803  26.359  1.00  0.00     0.252 C 
ATOM      6  O   UNL A   1      43.370  28.566  25.432  1.00  0.00    -0.269 OA
ATOM      7  H   UNL A   1      44.538  27.984  27.701  1.00  0.00     0.163 HD
BRANCH   5   8
ATOM      8  C   UNL A   1      41.651  27.796  26.835  1.00  0.00     0.052 A 
ATOM      9  C   UNL A   1      40.097  28.613  28.500  1.00  0.00     0.130 A 
ATOM     10  C   UNL A   1      41.299  28.733  27.798  1.00  0.00     0.061 A 
ATOM     11  N   UNL A   1      39.393  27.460  28.473  1.00  0.00    -0.231 NA
ATOM     12  C   UNL A   1      39.812  26.476  27.642  1.00  0.00     0.074 A 
ATOM     13  C   UNL A   1      40.801  26.710  26.682  1.00  0.00     0.015 A 
ATOM     14  C   UNL A   1      39.427  25.137  27.765  1.00  0.00     0.031 A 
ATOM     15  C   UNL A   1      41.094  25.729  25.777  1.00  0.00     0.038 A 
ATOM     16  C   UNL A   1      40.261  24.133  27.215  1.00  0.00     0.029 A 
ATOM     17  C   UNL A   1      41.283  24.531  26.371  1.00  0.00     0.050 A 
BRANCH   9  18
ATOM     18  N   UNL A   1      39.595  29.723  29.155  1.00  0.00    -0.345 N 
ATOM     19  N   UNL A   1      38.340  31.925  30.584  1.00  0.00    -0.331 N 
ATOM     20  C   UNL A   1      37.538  30.831  30.019  1.00  0.00     0.284 C 
ATOM     21  C   UNL A   1      39.603  31.326  31.072  1.00  0.00     0.284 C 
ATOM     22  H   UNL A   1      37.786  32.327  31.341  1.00  0.00     0.348 HD
ATOM     23  C   UNL A   1      38.206  30.076  28.862  1.00  0.00     0.179 C 
ATOM     24  C   UNL A   1      40.432  30.577  29.999  1.00  0.00     0.179 C 
BRANCH  19  25
ATOM     25  C   UNL A   1      38.524  33.162  29.796  1.00  0.00     0.277 C 
BRANCH  25  26
ATOM     26  C   UNL A   1      38.649  34.583  30.408  1.00  0.00     0.181 C 
BRANCH  26  27
ATOM     27  C   UNL A   1      38.198  34.550  31.859  1.00  0.00     0.068 C 
ATOM     28  N   UNL A   1      37.823  34.523  33.062  1.00  0.00    -0.198 NA
ENDBRANCH  26  27
ENDBRANCH  25  26
ENDBRANCH  19  25
ENDBRANCH   9  18
BRANCH  17  29
ATOM     29  N   UNL A   1      42.552  23.902  26.073  1.00  0.00    -0.280 N 
ATOM     30  H   UNL A   1      43.323  24.446  25.793  1.00  0.00     0.180 HD
BRANCH  29  31
ATOM     31  S   UNL A   1      42.690  22.218  26.211  1.00  0.00     0.263 S 
ATOM     32  O   UNL A   1      42.623  21.898  27.622  1.00  0.00    -0.201 OA
ATOM     33  O   UNL A   1      41.592  21.818  25.338  1.00  0.00    -0.201 OA
BRANCH  31  34
ATOM     34  C   UNL A   1      44.055  21.165  25.603  1.00  0.00     0.106 A 
ATOM     35  C   UNL A   1      43.584  19.824  25.685  1.00  0.00     0.024 A 
ATOM     36  C   UNL A   1      45.370  21.267  25.119  1.00  0.00     0.061 A 
ATOM     37  C   UNL A   1      44.341  18.691  25.370  1.00  0.00     0.002 A 
ATOM     38  C   UNL A   1      46.156  20.104  24.864  1.00  0.00     0.022 A 
ATOM     39  Cl  UNL A   1      46.309  22.565  24.539  1.00  0.00    -0.083 Cl
ATOM     40  C   UNL A   1      45.652  18.828  24.982  1.00  0.00     0.002 A 
ENDBRANCH  31  34
ENDBRANCH  29  31
ENDBRANCH  17  29
ENDBRANCH   5   8
ENDBRANCH   3   4
ENDBRANCH   2   3
ENDBRANCH   1   2
BRANCH   1  41
ATOM     41  C   UNL A   1      48.757  25.310  27.869  1.00  0.00     0.002 C 
BRANCH  41  42
ATOM     42  C   UNL A   1      49.940  25.339  26.906  1.00  0.00     0.021 C 
BRANCH  42  43
ATOM     43  C   UNL A   1      49.648  25.946  25.552  1.00  0.00     0.116 C 
BRANCH  43  44
ATOM     44  N   UNL A   1      50.574  26.999  25.165  1.00  0.00    -0.352 N 
ATOM     45  C   UNL A   1      50.509  28.325  25.539  1.00  0.00     0.251 C 
ATOM     46  H   UNL A   1      51.320  26.739  24.578  1.00  0.00     0.163 HD
ATOM     47  O   UNL A   1      51.258  29.160  25.051  1.00  0.00    -0.269 OA
BRANCH  45  48
ATOM     48  C   UNL A   1      49.486  28.716  26.535  1.00  0.00     0.039 A 
ATOM     49  C   UNL A   1      49.881  29.178  27.792  1.00  0.00     0.014 A 
ATOM     50  C   UNL A   1      48.131  28.675  26.188  1.00  0.00     0.014 A 
ATOM     51  C   UNL A   1      48.909  29.615  28.695  1.00  0.00     0.010 A 
ATOM     52  C   UNL A   1      47.179  29.208  27.045  1.00  0.00     0.010 A 
ATOM     53  C   UNL A   1      47.553  29.634  28.326  1.00  0.00    -0.014 A 
BRANCH  53  54
ATOM     54  C   UNL A   1      46.495  29.965  29.311  1.00  0.00     0.031 A 
ATOM     55  C   UNL A   1      46.184  28.973  30.404  1.00  0.00     0.074 A 
ATOM     56  C   UNL A   1      45.809  31.119  29.214  1.00  0.00     0.049 A 
ATOM     57  N   UNL A   1      45.302  29.049  31.365  1.00  0.00    -0.248 NA
ATOM     58  C   UNL A   1      46.935  27.705  30.387  1.00  0.00     0.031 C 
ATOM     59  C   UNL A   1      45.973  32.118  28.156  1.00  0.00     0.029 A 
ATOM     60  N   UNL A   1      44.840  31.649  30.024  1.00  0.00    -0.354 N 
ATOM     61  C   UNL A   1      45.382  27.839  32.046  1.00  0.00     0.074 A 
ATOM     62  C   UNL A   1      46.336  27.014  31.343  1.00  0.00     0.031 C 
ATOM     63  C   UNL A   1      45.159  33.159  28.405  1.00  0.00     0.029 A 
ATOM     64  C   UNL A   1      44.411  32.895  29.630  1.00  0.00     0.049 A 
ATOM     65  H   UNL A   1      44.483  31.182  30.814  1.00  0.00     0.167 HD
ATOM     66  C   UNL A   1      44.754  27.462  33.185  1.00  0.00     0.037 A 
ATOM     67  C   UNL A   1      43.534  33.734  30.214  1.00  0.00     0.037 A 
ATOM     68  C   UNL A   1      43.857  28.316  33.913  1.00  0.00     0.049 A 
ATOM     69  C   UNL A   1      42.902  33.327  31.519  1.00  0.00     0.074 A 
ATOM     70  C   UNL A   1      43.216  28.072  35.114  1.00  0.00     0.029 A 
ATOM     71  N   UNL A   1      43.488  29.591  33.511  1.00  0.00    -0.354 N 
ATOM     72  N   UNL A   1      43.042  32.206  32.188  1.00  0.00    -0.248 NA
ATOM     73  C   UNL A   1      42.014  34.305  32.159  1.00  0.00     0.031 C 
ATOM     74  C   UNL A   1      42.441  29.195  35.426  1.00  0.00     0.029 A 
ATOM     75  C   UNL A   1      42.627  30.149  34.438  1.00  0.00     0.049 A 
ATOM     76  H   UNL A   1      43.797  30.034  32.687  1.00  0.00     0.167 HD
ATOM     77  C   UNL A   1      42.275  32.352  33.339  1.00  0.00     0.074 A 
ATOM     78  C   UNL A   1      41.691  33.678  33.282  1.00  0.00     0.031 C 
ATOM     79  C   UNL A   1      42.066  31.473  34.351  1.00  0.00     0.037 A 
BRANCH  66  80
ATOM     80  C   UNL A   1      45.046  26.084  33.712  1.00  0.00     0.058 A 
ATOM     81  C   UNL A   1      44.361  24.953  33.235  1.00  0.00     0.135 A 
ATOM     82  C   UNL A   1      46.013  25.889  34.711  1.00  0.00     0.135 A 
ATOM     83  F   UNL A   1      43.411  25.085  32.297  1.00  0.00    -0.206 F 
ATOM     84  C   UNL A   1      44.597  23.686  33.756  1.00  0.00     0.059 A 
ATOM     85  C   UNL A   1      46.286  24.624  35.226  1.00  0.00     0.059 A 
ATOM     86  F   UNL A   1      46.694  26.934  35.207  1.00  0.00    -0.206 F 
ATOM     87  C   UNL A   1      45.558  23.532  34.756  1.00  0.00     0.060 A 
BRANCH  87  88
ATOM     88  S   UNL A   1      45.848  21.881  35.427  1.00  0.00     0.124 S 
ATOM     89  O   UNL A   1      44.822  21.103  34.739  1.00  0.00    -0.237 OA
ATOM     90  O   UNL A   1      47.223  21.614  35.020  1.00  0.00    -0.237 OA
ATOM     91  O   UNL A   1      45.645  22.059  36.861  1.00  0.00    -0.744 OA
ENDBRANCH  87  88
ENDBRANCH  66  80
BRANCH  67  92
ATOM     92  C   UNL A   1      43.254  35.063  29.606  1.00  0.00     0.058 A 
ATOM     93  C   UNL A   1      42.145  35.253  28.767  1.00  0.00     0.135 A 
ATOM     94  C   UNL A   1      44.078  36.170  29.859  1.00  0.00     0.135 A 
ATOM     95  F   UNL A   1      41.329  34.224  28.493  1.00  0.00    -0.206 F 
ATOM     96  C   UNL A   1      41.872  36.487  28.186  1.00  0.00     0.059 A 
ATOM     97  C   UNL A   1      43.813  37.419  29.307  1.00  0.00     0.059 A 
ATOM     98  F   UNL A   1      45.141  36.046  30.669  1.00  0.00    -0.206 F 
ATOM     99  C   UNL A   1      42.713  37.566  28.463  1.00  0.00     0.060 A 
BRANCH  99 100
ATOM    100  S   UNL A   1      42.324  39.176  27.741  1.00  0.00     0.124 S 
ATOM    101  O   UNL A   1      43.653  39.752  27.572  1.00  0.00    -0.237 OA
ATOM    102  O   UNL A   1      41.629  38.802  26.513  1.00  0.00    -0.237 OA
ATOM    103  O   UNL A   1      41.486  39.804  28.758  1.00  0.00    -0.744 OA
ENDBRANCH  99 100
ENDBRANCH  67  92
BRANCH  79 104
ATOM    104  C   UNL A   1      41.189  31.930  35.480  1.00  0.00     0.058 A 
ATOM    105  C   UNL A   1      39.810  31.667  35.489  1.00  0.00     0.135 A 
ATOM    106  C   UNL A   1      41.739  32.610  36.578  1.00  0.00     0.135 A 
ATOM    107  F   UNL A   1      39.238  31.020  34.461  1.00  0.00    -0.206 F 
ATOM    108  C   UNL A   1      38.998  32.098  36.533  1.00  0.00     0.059 A 
ATOM    109  C   UNL A   1      40.950  33.026  37.644  1.00  0.00     0.059 A 
ATOM    110  F   UNL A   1      43.054  32.870  36.622  1.00  0.00    -0.206 F 
ATOM    111  C   UNL A   1      39.578  32.781  37.603  1.00  0.00     0.060 A 
BRANCH 111 112
ATOM    112  S   UNL A   1      38.517  33.332  38.956  1.00  0.00     0.124 S 
ATOM    113  O   UNL A   1      39.069  34.651  39.241  1.00  0.00    -0.237 OA
ATOM    114  O   UNL A   1      37.192  33.318  38.343  1.00  0.00    -0.237 OA
ATOM    115  O   UNL A   1      38.734  32.322  39.987  1.00  0.00    -0.744 OA
ENDBRANCH 111 112
ENDBRANCH  79 104
ENDBRANCH  53  54
ENDBRANCH  45  48
ENDBRANCH  43  44
ENDBRANCH  42  43
ENDBRANCH  41  42
ENDBRANCH   1  41
TORSDOF 23
ENDMDL
