MODEL 1
REMARK VINA RESULT:     -11.5      0.000      0.000
REMARK SMILES Cc1cc(C)c2c(OCCCC(=O)NCCCCCCNC(=O)c3ccc(-c4c5nc(c(-c6c(F)cc(S(=O)(=O)[O-])cc6F)c6ccc([nH]6)c(-c6c(F)cc(S(=O)(=O)[O-])cc6F)c6nc(c(-c7c(F)cc(S(=O)(=O)[O-])cc7F)c7ccc4[nH]7)C=C6)C=C5)cc3)nsc2n1
REMARK SMILES IDX 17 1 16 2 15 3 14 4 12 5 13 6 11 8 10 9 9 10 8 11 7 12 1 13
REMARK SMILES IDX 2 14 3 15 93 16 4 17 92 18 5 19 6 20 91 21 90 22 18 23 19 24
REMARK SMILES IDX 20 25 21 26 22 27 23 29 24 30 25 31 89 32 26 33 88 34 27 35
REMARK SMILES IDX 28 36 29 37 82 38 30 39 87 40 81 41 83 42 31 43 86 44 80 45
REMARK SMILES IDX 79 46 32 48 66 49 45 50 65 51 46 52 49 53 64 54 84 55 47 56
REMARK SMILES IDX 48 57 63 59 85 60 50 61 33 62 34 63 43 64 35 65 36 66 42 67
REMARK SMILES IDX 44 68 37 69 38 70 39 71 40 72 41 73 67 74 68 75 77 76 69 77
REMARK SMILES IDX 70 78 76 79 78 80 71 81 72 82 73 83 74 84 75 85 51 86 52 87
REMARK SMILES IDX 61 88 53 89 54 90 60 91 62 92 55 93 56 94 57 95 58 96 59 97
REMARK H PARENT 14 7 21 28 83 47 49 58
REMARK Flexibility Score: inf
ROOT
ATOM      1  C   UNL A   1      37.411  23.380  25.455  1.00  0.00     0.002 C 
ENDROOT
BRANCH   1   2
ATOM      2  C   UNL A   1      36.142  22.508  25.556  1.00  0.00     0.021 C 
BRANCH   2   3
ATOM      3  C   UNL A   1      36.342  20.977  25.298  1.00  0.00     0.116 C 
BRANCH   3   4
ATOM      4  N   UNL A   1      35.052  20.163  25.099  1.00  0.00    -0.356 N 
ATOM      5  C   UNL A   1      33.763  20.017  24.662  1.00  0.00     0.220 C 
ATOM      6  O   UNL A   1      33.438  18.812  24.783  1.00  0.00    -0.275 OA
ATOM      7  H   UNL A   1      35.267  19.285  25.490  1.00  0.00     0.163 HD
BRANCH   5   8
ATOM      8  C   UNL A   1      32.654  20.920  23.880  1.00  0.00     0.103 C 
BRANCH   8   9
ATOM      9  C   UNL A   1      32.632  22.376  23.199  1.00  0.00     0.051 C 
BRANCH   9  10
ATOM     10  C   UNL A   1      33.737  23.243  22.455  1.00  0.00     0.232 C 
BRANCH  10  11
ATOM     11  O   UNL A   1      34.029  24.617  22.759  1.00  0.00    -0.477 OA
BRANCH  11  12
ATOM     12  C   UNL A   1      33.074  25.523  23.098  1.00  0.00     0.235 A 
ATOM     13  C   UNL A   1      33.833  29.726  26.476  1.00  0.00     0.067 C 
ATOM     14  C   UNL A   1      33.294  28.499  25.790  1.00  0.00     0.039 A 
ATOM     15  C   UNL A   1      33.617  27.245  26.301  1.00  0.00     0.027 A 
ATOM     16  N   UNL A   1      32.533  28.663  24.687  1.00  0.00    -0.240 NA
ATOM     17  C   UNL A   1      33.300  26.068  25.595  1.00  0.00    -0.034 A 
ATOM     18  C   UNL A   1      32.416  27.528  23.965  1.00  0.00     0.147 A 
ATOM     19  C   UNL A   1      33.359  24.659  26.052  1.00  0.00     0.045 C 
ATOM     20  C   UNL A   1      32.929  26.283  24.282  1.00  0.00     0.078 A 
ATOM     21  S   UNL A   1      31.582  27.357  22.492  1.00  0.00    -0.012 S 
ATOM     22  N   UNL A   1      32.279  25.886  22.090  1.00  0.00    -0.153 NA
ENDBRANCH  11  12
ENDBRANCH  10  11
ENDBRANCH   9  10
ENDBRANCH   8   9
ENDBRANCH   5   8
ENDBRANCH   3   4
ENDBRANCH   2   3
ENDBRANCH   1   2
BRANCH   1  23
ATOM     23  C   UNL A   1      38.582  23.116  26.427  1.00  0.00     0.002 C 
BRANCH  23  24
ATOM     24  C   UNL A   1      39.509  21.909  26.189  1.00  0.00     0.021 C 
BRANCH  24  25
ATOM     25  C   UNL A   1      40.784  21.867  27.022  1.00  0.00     0.116 C 
BRANCH  25  26
ATOM     26  N   UNL A   1      42.009  22.073  26.252  1.00  0.00    -0.352 N 
ATOM     27  C   UNL A   1      42.648  23.257  25.903  1.00  0.00     0.251 C 
ATOM     28  H   UNL A   1      42.447  21.250  25.934  1.00  0.00     0.163 HD
ATOM     29  O   UNL A   1      43.473  23.265  25.014  1.00  0.00    -0.269 OA
BRANCH  27  30
ATOM     30  C   UNL A   1      42.302  24.504  26.623  1.00  0.00     0.039 A 
ATOM     31  C   UNL A   1      42.857  24.802  27.870  1.00  0.00     0.014 A 
ATOM     32  C   UNL A   1      41.394  25.380  26.039  1.00  0.00     0.014 A 
ATOM     33  C   UNL A   1      42.531  26.017  28.472  1.00  0.00     0.010 A 
ATOM     34  C   UNL A   1      41.240  26.650  26.523  1.00  0.00     0.010 A 
ATOM     35  C   UNL A   1      41.735  26.945  27.779  1.00  0.00    -0.014 A 
BRANCH  35  36
ATOM     36  C   UNL A   1      41.447  28.258  28.332  1.00  0.00     0.031 A 
ATOM     37  C   UNL A   1      42.484  29.276  28.047  1.00  0.00     0.074 A 
ATOM     38  C   UNL A   1      40.288  28.589  28.940  1.00  0.00     0.049 A 
ATOM     39  N   UNL A   1      43.407  29.680  28.853  1.00  0.00    -0.248 NA
ATOM     40  C   UNL A   1      42.634  29.766  26.671  1.00  0.00     0.031 C 
ATOM     41  C   UNL A   1      39.041  27.823  29.068  1.00  0.00     0.029 A 
ATOM     42  N   UNL A   1      39.978  29.760  29.553  1.00  0.00    -0.354 N 
ATOM     43  C   UNL A   1      44.117  30.653  28.163  1.00  0.00     0.074 A 
ATOM     44  C   UNL A   1      43.731  30.521  26.781  1.00  0.00     0.031 C 
ATOM     45  C   UNL A   1      38.058  28.625  29.538  1.00  0.00     0.029 A 
ATOM     46  C   UNL A   1      38.645  29.895  29.919  1.00  0.00     0.049 A 
ATOM     47  H   UNL A   1      40.647  30.462  29.725  1.00  0.00     0.167 HD
ATOM     48  C   UNL A   1      44.788  31.629  28.835  1.00  0.00     0.037 A 
ATOM     49  C   UNL A   1      38.077  30.972  30.519  1.00  0.00     0.037 A 
ATOM     50  C   UNL A   1      44.919  31.295  30.235  1.00  0.00     0.049 A 
ATOM     51  C   UNL A   1      39.179  31.697  31.207  1.00  0.00     0.074 A 
ATOM     52  C   UNL A   1      45.509  30.258  30.932  1.00  0.00     0.029 A 
ATOM     53  N   UNL A   1      44.030  31.873  31.113  1.00  0.00    -0.354 N 
ATOM     54  N   UNL A   1      39.846  31.206  32.217  1.00  0.00    -0.248 NA
ATOM     55  C   UNL A   1      39.851  32.759  30.473  1.00  0.00     0.031 C 
ATOM     56  C   UNL A   1      44.606  29.965  31.996  1.00  0.00     0.029 A 
ATOM     57  C   UNL A   1      43.553  30.880  31.934  1.00  0.00     0.049 A 
ATOM     58  H   UNL A   1      43.782  32.824  31.146  1.00  0.00     0.167 HD
ATOM     59  C   UNL A   1      41.163  31.583  31.992  1.00  0.00     0.074 A 
ATOM     60  C   UNL A   1      41.089  32.605  30.949  1.00  0.00     0.031 C 
ATOM     61  C   UNL A   1      42.209  30.846  32.474  1.00  0.00     0.037 A 
BRANCH  48  62
ATOM     62  C   UNL A   1      45.003  33.032  28.322  1.00  0.00     0.058 A 
ATOM     63  C   UNL A   1      46.320  33.486  28.101  1.00  0.00     0.135 A 
ATOM     64  C   UNL A   1      44.004  34.030  28.307  1.00  0.00     0.135 A 
ATOM     65  F   UNL A   1      47.350  32.625  28.092  1.00  0.00    -0.206 F 
ATOM     66  C   UNL A   1      46.629  34.839  27.962  1.00  0.00     0.059 A 
ATOM     67  C   UNL A   1      44.284  35.377  28.115  1.00  0.00     0.059 A 
ATOM     68  F   UNL A   1      42.720  33.765  28.576  1.00  0.00    -0.206 F 
ATOM     69  C   UNL A   1      45.603  35.778  27.988  1.00  0.00     0.060 A 
BRANCH  69  70
ATOM     70  S   UNL A   1      46.009  37.530  27.928  1.00  0.00     0.124 S 
ATOM     71  O   UNL A   1      45.071  38.078  28.901  1.00  0.00    -0.237 OA
ATOM     72  O   UNL A   1      47.414  37.526  28.325  1.00  0.00    -0.237 OA
ATOM     73  O   UNL A   1      45.757  37.887  26.536  1.00  0.00    -0.744 OA
ENDBRANCH  69  70
ENDBRANCH  48  62
BRANCH  49  74
ATOM     74  C   UNL A   1      36.767  31.603  30.210  1.00  0.00     0.058 A 
ATOM     75  C   UNL A   1      36.015  32.233  31.218  1.00  0.00     0.135 A 
ATOM     76  C   UNL A   1      36.375  31.872  28.883  1.00  0.00     0.135 A 
ATOM     77  F   UNL A   1      36.324  32.042  32.509  1.00  0.00    -0.206 F 
ATOM     78  C   UNL A   1      34.982  33.132  30.929  1.00  0.00     0.059 A 
ATOM     79  C   UNL A   1      35.345  32.761  28.570  1.00  0.00     0.059 A 
ATOM     80  F   UNL A   1      37.046  31.351  27.845  1.00  0.00    -0.206 F 
ATOM     81  C   UNL A   1      34.672  33.410  29.598  1.00  0.00     0.060 A 
BRANCH  81  82
ATOM     82  S   UNL A   1      33.469  34.709  29.220  1.00  0.00     0.124 S 
ATOM     83  O   UNL A   1      32.569  34.026  28.298  1.00  0.00    -0.237 OA
ATOM     84  O   UNL A   1      32.923  35.012  30.538  1.00  0.00    -0.237 OA
ATOM     85  O   UNL A   1      34.285  35.765  28.628  1.00  0.00    -0.744 OA
ENDBRANCH  81  82
ENDBRANCH  49  74
BRANCH  61  86
ATOM     86  C   UNL A   1      41.918  29.769  33.492  1.00  0.00     0.058 A 
ATOM     87  C   UNL A   1      41.606  28.432  33.177  1.00  0.00     0.135 A 
ATOM     88  C   UNL A   1      42.128  30.070  34.847  1.00  0.00     0.135 A 
ATOM     89  F   UNL A   1      41.478  28.035  31.905  1.00  0.00    -0.206 F 
ATOM     90  C   UNL A   1      41.483  27.451  34.166  1.00  0.00     0.059 A 
ATOM     91  C   UNL A   1      42.040  29.103  35.845  1.00  0.00     0.059 A 
ATOM     92  F   UNL A   1      42.483  31.314  35.209  1.00  0.00    -0.206 F 
ATOM     93  C   UNL A   1      41.708  27.796  35.499  1.00  0.00     0.060 A 
BRANCH  93  94
ATOM     94  S   UNL A   1      41.629  26.510  36.767  1.00  0.00     0.124 S 
ATOM     95  O   UNL A   1      40.419  26.870  37.497  1.00  0.00    -0.237 OA
ATOM     96  O   UNL A   1      41.550  25.287  35.974  1.00  0.00    -0.237 OA
ATOM     97  O   UNL A   1      42.878  26.683  37.507  1.00  0.00    -0.744 OA
ENDBRANCH  93  94
ENDBRANCH  61  86
ENDBRANCH  35  36
ENDBRANCH  27  30
ENDBRANCH  25  26
ENDBRANCH  24  25
ENDBRANCH  23  24
ENDBRANCH   1  23
TORSDOF 20
ENDMDL
MODEL 2
REMARK VINA RESULT:     -11.1      2.122      2.906
REMARK SMILES Cc1cc(C)c2c(OCCCC(=O)NCCCCCCNC(=O)c3ccc(-c4c5nc(c(-c6c(F)cc(S(=O)(=O)[O-])cc6F)c6ccc([nH]6)c(-c6c(F)cc(S(=O)(=O)[O-])cc6F)c6nc(c(-c7c(F)cc(S(=O)(=O)[O-])cc7F)c7ccc4[nH]7)C=C6)C=C5)cc3)nsc2n1
REMARK SMILES IDX 17 1 16 2 15 3 14 4 12 5 13 6 11 8 10 9 9 10 8 11 7 12 1 13
REMARK SMILES IDX 2 14 3 15 93 16 4 17 92 18 5 19 6 20 91 21 90 22 18 23 19 24
REMARK SMILES IDX 20 25 21 26 22 27 23 29 24 30 25 31 89 32 26 33 88 34 27 35
REMARK SMILES IDX 28 36 29 37 82 38 30 39 87 40 81 41 83 42 31 43 86 44 80 45
REMARK SMILES IDX 79 46 32 48 66 49 45 50 65 51 46 52 49 53 64 54 84 55 47 56
REMARK SMILES IDX 48 57 63 59 85 60 50 61 33 62 34 63 43 64 35 65 36 66 42 67
REMARK SMILES IDX 44 68 37 69 38 70 39 71 40 72 41 73 67 74 68 75 77 76 69 77
REMARK SMILES IDX 70 78 76 79 78 80 71 81 72 82 73 83 74 84 75 85 51 86 52 87
REMARK SMILES IDX 61 88 53 89 54 90 60 91 62 92 55 93 56 94 57 95 58 96 59 97
REMARK H PARENT 14 7 21 28 83 47 49 58
REMARK Flexibility Score: inf
ROOT
ATOM      1  C   UNL A   1      39.648  22.512  26.722  1.00  0.00     0.002 C 
ENDROOT
BRANCH   1   2
ATOM      2  C   UNL A   1      38.423  22.256  25.819  1.00  0.00     0.021 C 
BRANCH   2   3
ATOM      3  C   UNL A   1      37.213  23.229  26.015  1.00  0.00     0.116 C 
BRANCH   3   4
ATOM      4  N   UNL A   1      35.885  22.566  26.418  1.00  0.00    -0.356 N 
ATOM      5  C   UNL A   1      34.732  21.885  26.133  1.00  0.00     0.220 C 
ATOM      6  O   UNL A   1      34.180  21.572  27.214  1.00  0.00    -0.275 OA
ATOM      7  H   UNL A   1      35.842  22.702  27.392  1.00  0.00     0.163 HD
BRANCH   5   8
ATOM      8  C   UNL A   1      34.020  21.232  24.820  1.00  0.00     0.103 C 
BRANCH   8   9
ATOM      9  C   UNL A   1      33.257  21.802  23.525  1.00  0.00     0.051 C 
BRANCH   9  10
ATOM     10  C   UNL A   1      33.565  22.994  22.520  1.00  0.00     0.232 C 
BRANCH  10  11
ATOM     11  O   UNL A   1      34.290  24.185  22.873  1.00  0.00    -0.477 OA
BRANCH  11  12
ATOM     12  C   UNL A   1      33.715  25.415  22.929  1.00  0.00     0.235 A 
ATOM     13  C   UNL A   1      34.407  28.989  26.978  1.00  0.00     0.067 C 
ATOM     14  C   UNL A   1      33.813  28.086  25.930  1.00  0.00     0.039 A 
ATOM     15  C   UNL A   1      33.360  26.825  26.306  1.00  0.00     0.027 A 
ATOM     16  N   UNL A   1      33.764  28.529  24.656  1.00  0.00    -0.240 NA
ATOM     17  C   UNL A   1      32.974  25.873  25.342  1.00  0.00    -0.034 A 
ATOM     18  C   UNL A   1      33.563  27.531  23.768  1.00  0.00     0.147 A 
ATOM     19  C   UNL A   1      32.274  24.580  25.532  1.00  0.00     0.045 C 
ATOM     20  C   UNL A   1      33.353  26.193  24.054  1.00  0.00     0.078 A 
ATOM     21  S   UNL A   1      33.494  27.691  22.076  1.00  0.00    -0.012 S 
ATOM     22  N   UNL A   1      33.672  26.054  21.759  1.00  0.00    -0.153 NA
ENDBRANCH  11  12
ENDBRANCH  10  11
ENDBRANCH   9  10
ENDBRANCH   8   9
ENDBRANCH   5   8
ENDBRANCH   3   4
ENDBRANCH   2   3
ENDBRANCH   1   2
BRANCH   1  23
ATOM     23  C   UNL A   1      40.481  21.308  27.215  1.00  0.00     0.002 C 
BRANCH  23  24
ATOM     24  C   UNL A   1      41.009  20.281  26.196  1.00  0.00     0.021 C 
BRANCH  24  25
ATOM     25  C   UNL A   1      42.318  19.590  26.555  1.00  0.00     0.116 C 
BRANCH  25  26
ATOM     26  N   UNL A   1      43.398  19.817  25.597  1.00  0.00    -0.352 N 
ATOM     27  C   UNL A   1      43.912  21.013  25.109  1.00  0.00     0.251 C 
ATOM     28  H   UNL A   1      43.826  19.003  25.247  1.00  0.00     0.163 HD
ATOM     29  O   UNL A   1      44.589  21.019  24.103  1.00  0.00    -0.269 OA
BRANCH  27  30
ATOM     30  C   UNL A   1      43.613  22.274  25.826  1.00  0.00     0.039 A 
ATOM     31  C   UNL A   1      44.088  22.506  27.119  1.00  0.00     0.014 A 
ATOM     32  C   UNL A   1      42.831  23.233  25.190  1.00  0.00     0.014 A 
ATOM     33  C   UNL A   1      43.817  23.735  27.719  1.00  0.00     0.010 A 
ATOM     34  C   UNL A   1      42.745  24.503  25.687  1.00  0.00     0.010 A 
ATOM     35  C   UNL A   1      43.159  24.737  26.985  1.00  0.00    -0.014 A 
BRANCH  35  36
ATOM     36  C   UNL A   1      42.938  26.062  27.542  1.00  0.00     0.031 A 
ATOM     37  C   UNL A   1      43.931  27.073  27.113  1.00  0.00     0.074 A 
ATOM     38  C   UNL A   1      41.860  26.406  28.278  1.00  0.00     0.049 A 
ATOM     39  N   UNL A   1      44.943  27.492  27.794  1.00  0.00    -0.248 NA
ATOM     40  C   UNL A   1      43.913  27.534  25.719  1.00  0.00     0.031 C 
ATOM     41  C   UNL A   1      40.638  25.644  28.570  1.00  0.00     0.029 A 
ATOM     42  N   UNL A   1      41.624  27.590  28.900  1.00  0.00    -0.354 N 
ATOM     43  C   UNL A   1      45.564  28.450  27.004  1.00  0.00     0.074 A 
ATOM     44  C   UNL A   1      45.014  28.291  25.681  1.00  0.00     0.031 C 
ATOM     45  C   UNL A   1      39.717  26.455  29.139  1.00  0.00     0.029 A 
ATOM     46  C   UNL A   1      40.344  27.733  29.421  1.00  0.00     0.049 A 
ATOM     47  H   UNL A   1      42.307  28.294  28.976  1.00  0.00     0.167 HD
ATOM     48  C   UNL A   1      46.308  29.440  27.570  1.00  0.00     0.037 A 
ATOM     49  C   UNL A   1      39.851  28.822  30.062  1.00  0.00     0.037 A 
ATOM     50  C   UNL A   1      46.608  29.135  28.951  1.00  0.00     0.049 A 
ATOM     51  C   UNL A   1      41.026  29.560  30.597  1.00  0.00     0.074 A 
ATOM     52  C   UNL A   1      47.280  28.112  29.593  1.00  0.00     0.029 A 
ATOM     53  N   UNL A   1      45.830  29.732  29.917  1.00  0.00    -0.354 N 
ATOM     54  N   UNL A   1      41.810  29.090  31.529  1.00  0.00    -0.248 NA
ATOM     55  C   UNL A   1      41.602  30.607  29.767  1.00  0.00     0.031 C 
ATOM     56  C   UNL A   1      46.511  27.842  30.763  1.00  0.00     0.029 A 
ATOM     57  C   UNL A   1      45.457  28.756  30.810  1.00  0.00     0.049 A 
ATOM     58  H   UNL A   1      45.585  30.684  29.960  1.00  0.00     0.167 HD
ATOM     59  C   UNL A   1      43.090  29.461  31.141  1.00  0.00     0.074 A 
ATOM     60  C   UNL A   1      42.889  30.462  30.093  1.00  0.00     0.031 C 
ATOM     61  C   UNL A   1      44.187  28.734  31.508  1.00  0.00     0.037 A 
BRANCH  48  62
ATOM     62  C   UNL A   1      46.458  30.832  27.006  1.00  0.00     0.058 A 
ATOM     63  C   UNL A   1      47.740  31.417  26.956  1.00  0.00     0.135 A 
ATOM     64  C   UNL A   1      45.377  31.712  26.777  1.00  0.00     0.135 A 
ATOM     65  F   UNL A   1      48.840  30.675  27.157  1.00  0.00    -0.206 F 
ATOM     66  C   UNL A   1      47.928  32.788  26.778  1.00  0.00     0.059 A 
ATOM     67  C   UNL A   1      45.546  33.071  26.543  1.00  0.00     0.059 A 
ATOM     68  F   UNL A   1      44.101  31.321  26.867  1.00  0.00    -0.206 F 
ATOM     69  C   UNL A   1      46.821  33.609  26.590  1.00  0.00     0.060 A 
BRANCH  69  70
ATOM     70  S   UNL A   1      47.052  35.390  26.479  1.00  0.00     0.124 S 
ATOM     71  O   UNL A   1      47.851  35.503  25.264  1.00  0.00    -0.237 OA
ATOM     72  O   UNL A   1      45.676  35.866  26.387  1.00  0.00    -0.237 OA
ATOM     73  O   UNL A   1      47.742  35.717  27.722  1.00  0.00    -0.744 OA
ENDBRANCH  69  70
ENDBRANCH  48  62
BRANCH  49  74
ATOM     74  C   UNL A   1      38.511  29.448  29.900  1.00  0.00     0.058 A 
ATOM     75  C   UNL A   1      37.703  29.721  31.018  1.00  0.00     0.135 A 
ATOM     76  C   UNL A   1      38.130  30.067  28.692  1.00  0.00     0.135 A 
ATOM     77  F   UNL A   1      37.998  29.181  32.211  1.00  0.00    -0.206 F 
ATOM     78  C   UNL A   1      36.624  30.611  30.962  1.00  0.00     0.059 A 
ATOM     79  C   UNL A   1      37.056  30.954  28.611  1.00  0.00     0.059 A 
ATOM     80  F   UNL A   1      38.851  29.903  27.573  1.00  0.00    -0.206 F 
ATOM     81  C   UNL A   1      36.325  31.244  29.757  1.00  0.00     0.060 A 
BRANCH  81  82
ATOM     82  S   UNL A   1      35.054  32.533  29.724  1.00  0.00     0.124 S 
ATOM     83  O   UNL A   1      35.854  33.741  29.556  1.00  0.00    -0.237 OA
ATOM     84  O   UNL A   1      34.247  32.137  28.575  1.00  0.00    -0.237 OA
ATOM     85  O   UNL A   1      34.398  32.395  31.021  1.00  0.00    -0.744 OA
ENDBRANCH  81  82
ENDBRANCH  49  74
BRANCH  61  86
ATOM     86  C   UNL A   1      44.023  27.678  32.575  1.00  0.00     0.058 A 
ATOM     87  C   UNL A   1      43.921  27.942  33.954  1.00  0.00     0.135 A 
ATOM     88  C   UNL A   1      43.794  26.356  32.164  1.00  0.00     0.135 A 
ATOM     89  F   UNL A   1      44.034  29.191  34.428  1.00  0.00    -0.206 F 
ATOM     90  C   UNL A   1      43.631  26.935  34.879  1.00  0.00     0.059 A 
ATOM     91  C   UNL A   1      43.476  25.342  33.064  1.00  0.00     0.059 A 
ATOM     92  F   UNL A   1      43.822  26.047  30.856  1.00  0.00    -0.206 F 
ATOM     93  C   UNL A   1      43.404  25.637  34.423  1.00  0.00     0.060 A 
BRANCH  93  94
ATOM     94  S   UNL A   1      42.950  24.352  35.610  1.00  0.00     0.124 S 
ATOM     95  O   UNL A   1      43.872  23.274  35.267  1.00  0.00    -0.237 OA
ATOM     96  O   UNL A   1      43.189  25.006  36.892  1.00  0.00    -0.237 OA
ATOM     97  O   UNL A   1      41.545  24.087  35.307  1.00  0.00    -0.744 OA
ENDBRANCH  93  94
ENDBRANCH  61  86
ENDBRANCH  35  36
ENDBRANCH  27  30
ENDBRANCH  25  26
ENDBRANCH  24  25
ENDBRANCH  23  24
ENDBRANCH   1  23
TORSDOF 20
ENDMDL
MODEL 3
REMARK VINA RESULT:     -10.6      1.300      1.903
REMARK SMILES Cc1cc(C)c2c(OCCCC(=O)NCCCCCCNC(=O)c3ccc(-c4c5nc(c(-c6c(F)cc(S(=O)(=O)[O-])cc6F)c6ccc([nH]6)c(-c6c(F)cc(S(=O)(=O)[O-])cc6F)c6nc(c(-c7c(F)cc(S(=O)(=O)[O-])cc7F)c7ccc4[nH]7)C=C6)C=C5)cc3)nsc2n1
REMARK SMILES IDX 17 1 16 2 15 3 14 4 12 5 13 6 11 8 10 9 9 10 8 11 7 12 1 13
REMARK SMILES IDX 2 14 3 15 93 16 4 17 92 18 5 19 6 20 91 21 90 22 18 23 19 24
REMARK SMILES IDX 20 25 21 26 22 27 23 29 24 30 25 31 89 32 26 33 88 34 27 35
REMARK SMILES IDX 28 36 29 37 82 38 30 39 87 40 81 41 83 42 31 43 86 44 80 45
REMARK SMILES IDX 79 46 32 48 66 49 45 50 65 51 46 52 49 53 64 54 84 55 47 56
REMARK SMILES IDX 48 57 63 59 85 60 50 61 33 62 34 63 43 64 35 65 36 66 42 67
REMARK SMILES IDX 44 68 37 69 38 70 39 71 40 72 41 73 67 74 68 75 77 76 69 77
REMARK SMILES IDX 70 78 76 79 78 80 71 81 72 82 73 83 74 84 75 85 51 86 52 87
REMARK SMILES IDX 61 88 53 89 54 90 60 91 62 92 55 93 56 94 57 95 58 96 59 97
REMARK H PARENT 14 7 21 28 83 47 49 58
REMARK Flexibility Score: inf
ROOT
ATOM      1  C   UNL A   1      38.995  24.210  27.020  1.00  0.00     0.002 C 
ENDROOT
BRANCH   1   2
ATOM      2  C   UNL A   1      38.066  23.465  26.039  1.00  0.00     0.021 C 
BRANCH   2   3
ATOM      3  C   UNL A   1      36.564  23.907  26.050  1.00  0.00     0.116 C 
BRANCH   3   4
ATOM      4  N   UNL A   1      35.568  22.863  26.584  1.00  0.00    -0.356 N 
ATOM      5  C   UNL A   1      34.784  21.750  26.445  1.00  0.00     0.220 C 
ATOM      6  O   UNL A   1      34.328  21.444  27.572  1.00  0.00    -0.275 OA
ATOM      7  H   UNL A   1      35.416  23.141  27.517  1.00  0.00     0.163 HD
BRANCH   5   8
ATOM      8  C   UNL A   1      34.459  20.651  25.285  1.00  0.00     0.103 C 
BRANCH   8   9
ATOM      9  C   UNL A   1      33.178  20.266  24.395  1.00  0.00     0.051 C 
BRANCH   9  10
ATOM     10  C   UNL A   1      32.355  21.048  23.282  1.00  0.00     0.232 C 
BRANCH  10  11
ATOM     11  O   UNL A   1      31.643  22.276  23.514  1.00  0.00    -0.477 OA
BRANCH  11  12
ATOM     12  C   UNL A   1      31.988  23.164  24.483  1.00  0.00     0.235 A 
ATOM     13  C   UNL A   1      33.075  28.431  23.629  1.00  0.00     0.067 C 
ATOM     14  C   UNL A   1      33.138  26.993  24.070  1.00  0.00     0.039 A 
ATOM     15  C   UNL A   1      33.886  26.091  23.319  1.00  0.00     0.027 A 
ATOM     16  N   UNL A   1      32.445  26.628  25.169  1.00  0.00    -0.240 NA
ATOM     17  C   UNL A   1      33.826  24.706  23.574  1.00  0.00    -0.034 A 
ATOM     18  C   UNL A   1      32.277  25.291  25.256  1.00  0.00     0.147 A 
ATOM     19  C   UNL A   1      34.687  23.620  23.047  1.00  0.00     0.045 C 
ATOM     20  C   UNL A   1      32.783  24.331  24.396  1.00  0.00     0.078 A 
ATOM     21  S   UNL A   1      31.417  24.464  26.468  1.00  0.00    -0.012 S 
ATOM     22  N   UNL A   1      31.319  23.016  25.627  1.00  0.00    -0.153 NA
ENDBRANCH  11  12
ENDBRANCH  10  11
ENDBRANCH   9  10
ENDBRANCH   8   9
ENDBRANCH   5   8
ENDBRANCH   3   4
ENDBRANCH   2   3
ENDBRANCH   1   2
BRANCH   1  23
ATOM     23  C   UNL A   1      40.235  23.480  27.582  1.00  0.00     0.002 C 
BRANCH  23  24
ATOM     24  C   UNL A   1      41.019  22.510  26.678  1.00  0.00     0.021 C 
BRANCH  24  25
ATOM     25  C   UNL A   1      42.483  22.291  27.039  1.00  0.00     0.116 C 
BRANCH  25  26
ATOM     26  N   UNL A   1      43.427  22.776  26.033  1.00  0.00    -0.352 N 
ATOM     27  C   UNL A   1      43.666  24.073  25.594  1.00  0.00     0.251 C 
ATOM     28  H   UNL A   1      43.976  22.080  25.604  1.00  0.00     0.163 HD
ATOM     29  O   UNL A   1      44.254  24.264  24.552  1.00  0.00    -0.269 OA
BRANCH  27  30
ATOM     30  C   UNL A   1      43.185  25.212  26.410  1.00  0.00     0.039 A 
ATOM     31  C   UNL A   1      43.702  25.464  27.683  1.00  0.00     0.014 A 
ATOM     32  C   UNL A   1      42.190  26.031  25.889  1.00  0.00     0.014 A 
ATOM     33  C   UNL A   1      43.246  26.583  28.380  1.00  0.00     0.010 A 
ATOM     34  C   UNL A   1      41.899  27.232  26.474  1.00  0.00     0.010 A 
ATOM     35  C   UNL A   1      42.356  27.474  27.755  1.00  0.00    -0.014 A 
BRANCH  35  36
ATOM     36  C   UNL A   1      41.927  28.699  28.411  1.00  0.00     0.031 A 
ATOM     37  C   UNL A   1      42.916  29.799  28.346  1.00  0.00     0.074 A 
ATOM     38  C   UNL A   1      40.694  28.894  28.926  1.00  0.00     0.049 A 
ATOM     39  N   UNL A   1      43.726  30.161  29.283  1.00  0.00    -0.248 NA
ATOM     40  C   UNL A   1      43.167  30.448  27.053  1.00  0.00     0.031 C 
ATOM     41  C   UNL A   1      39.495  28.049  28.840  1.00  0.00     0.029 A 
ATOM     42  N   UNL A   1      40.247  29.969  29.623  1.00  0.00    -0.354 N 
ATOM     43  C   UNL A   1      44.433  31.244  28.778  1.00  0.00     0.074 A 
ATOM     44  C   UNL A   1      44.194  31.246  27.358  1.00  0.00     0.031 C 
ATOM     45  C   UNL A   1      38.419  28.736  29.286  1.00  0.00     0.029 A 
ATOM     46  C   UNL A   1      38.879  29.987  29.859  1.00  0.00     0.049 A 
ATOM     47  H   UNL A   1      40.847  30.684  29.938  1.00  0.00     0.167 HD
ATOM     48  C   UNL A   1      44.967  32.175  29.616  1.00  0.00     0.037 A 
ATOM     49  C   UNL A   1      38.183  30.956  30.506  1.00  0.00     0.037 A 
ATOM     50  C   UNL A   1      44.982  31.694  30.980  1.00  0.00     0.049 A 
ATOM     51  C   UNL A   1      39.160  31.660  31.379  1.00  0.00     0.074 A 
ATOM     52  C   UNL A   1      45.570  30.620  31.621  1.00  0.00     0.029 A 
ATOM     53  N   UNL A   1      43.974  32.119  31.815  1.00  0.00    -0.354 N 
ATOM     54  N   UNL A   1      39.757  31.098  32.396  1.00  0.00    -0.248 NA
ATOM     55  C   UNL A   1      39.828  32.834  30.836  1.00  0.00     0.031 C 
ATOM     56  C   UNL A   1      44.588  30.160  32.547  1.00  0.00     0.029 A 
ATOM     57  C   UNL A   1      43.487  31.015  32.472  1.00  0.00     0.049 A 
ATOM     58  H   UNL A   1      43.660  33.045  31.922  1.00  0.00     0.167 HD
ATOM     59  C   UNL A   1      41.061  31.571  32.352  1.00  0.00     0.074 A 
ATOM     60  C   UNL A   1      41.021  32.698  31.421  1.00  0.00     0.031 C 
ATOM     61  C   UNL A   1      42.101  30.845  32.860  1.00  0.00     0.037 A 
BRANCH  48  62
ATOM     62  C   UNL A   1      45.137  33.636  29.280  1.00  0.00     0.058 A 
ATOM     63  C   UNL A   1      43.994  34.455  29.185  1.00  0.00     0.135 A 
ATOM     64  C   UNL A   1      46.332  34.198  28.778  1.00  0.00     0.135 A 
ATOM     65  F   UNL A   1      42.803  34.025  29.632  1.00  0.00    -0.206 F 
ATOM     66  C   UNL A   1      44.018  35.702  28.560  1.00  0.00     0.059 A 
ATOM     67  C   UNL A   1      46.390  35.460  28.201  1.00  0.00     0.059 A 
ATOM     68  F   UNL A   1      47.482  33.515  28.729  1.00  0.00    -0.206 F 
ATOM     69  C   UNL A   1      45.221  36.187  28.055  1.00  0.00     0.060 A 
BRANCH  69  70
ATOM     70  S   UNL A   1      45.232  37.739  27.144  1.00  0.00     0.124 S 
ATOM     71  O   UNL A   1      46.326  37.515  26.205  1.00  0.00    -0.237 OA
ATOM     72  O   UNL A   1      43.890  37.760  26.571  1.00  0.00    -0.237 OA
ATOM     73  O   UNL A   1      45.483  38.735  28.180  1.00  0.00    -0.744 OA
ENDBRANCH  69  70
ENDBRANCH  48  62
BRANCH  49  74
ATOM     74  C   UNL A   1      36.870  31.543  30.129  1.00  0.00     0.058 A 
ATOM     75  C   UNL A   1      36.005  32.063  31.109  1.00  0.00     0.135 A 
ATOM     76  C   UNL A   1      36.573  31.886  28.795  1.00  0.00     0.135 A 
ATOM     77  F   UNL A   1      36.218  31.795  32.407  1.00  0.00    -0.206 F 
ATOM     78  C   UNL A   1      34.952  32.929  30.794  1.00  0.00     0.059 A 
ATOM     79  C   UNL A   1      35.526  32.744  28.455  1.00  0.00     0.059 A 
ATOM     80  F   UNL A   1      37.354  31.474  27.785  1.00  0.00    -0.206 F 
ATOM     81  C   UNL A   1      34.737  33.285  29.464  1.00  0.00     0.060 A 
BRANCH  81  82
ATOM     82  S   UNL A   1      33.500  34.547  29.072  1.00  0.00     0.124 S 
ATOM     83  O   UNL A   1      32.677  33.864  28.079  1.00  0.00    -0.237 OA
ATOM     84  O   UNL A   1      32.875  34.776  30.370  1.00  0.00    -0.237 OA
ATOM     85  O   UNL A   1      34.298  35.658  28.562  1.00  0.00    -0.744 OA
ENDBRANCH  81  82
ENDBRANCH  49  74
BRANCH  61  86
ATOM     86  C   UNL A   1      41.785  29.646  33.723  1.00  0.00     0.058 A 
ATOM     87  C   UNL A   1      41.644  28.329  33.244  1.00  0.00     0.135 A 
ATOM     88  C   UNL A   1      41.789  29.817  35.116  1.00  0.00     0.135 A 
ATOM     89  F   UNL A   1      41.721  28.060  31.934  1.00  0.00    -0.206 F 
ATOM     90  C   UNL A   1      41.489  27.242  34.109  1.00  0.00     0.059 A 
ATOM     91  C   UNL A   1      41.664  28.746  35.997  1.00  0.00     0.059 A 
ATOM     92  F   UNL A   1      41.974  31.041  35.639  1.00  0.00    -0.206 F 
ATOM     93  C   UNL A   1      41.506  27.460  35.486  1.00  0.00     0.060 A 
BRANCH  93  94
ATOM     94  S   UNL A   1      41.387  26.046  36.605  1.00  0.00     0.124 S 
ATOM     95  O   UNL A   1      40.596  26.587  37.705  1.00  0.00    -0.237 OA
ATOM     96  O   UNL A   1      40.720  25.044  35.779  1.00  0.00    -0.237 OA
ATOM     97  O   UNL A   1      42.780  25.747  36.928  1.00  0.00    -0.744 OA
ENDBRANCH  93  94
ENDBRANCH  61  86
ENDBRANCH  35  36
ENDBRANCH  27  30
ENDBRANCH  25  26
ENDBRANCH  24  25
ENDBRANCH  23  24
ENDBRANCH   1  23
TORSDOF 20
ENDMDL
