MODEL 1
REMARK VINA RESULT:     -11.9      0.000      0.000
REMARK SMILES Cc1cccc(NC(=O)COc2ccc(N3C[C@@H](C(=O)NCCCCCCNC(=O)c4ccc(-c5c6nc(c(-c7c(F)cc(S(=O)(=O)[O-])cc7F)c7ccc([nH]7)c(-c7c(F)cc(S(=O)(=O)[O-])cc7F)c7nc(c(-c8c(F)cc(S(=O)(=O)[O-])cc8F)c8ccc5[nH]8)C=C7)C=C6)cc4)CC3=O)cc2)c1
REMARK SMILES IDX 23 1 22 2 21 3 19 4 20 5 18 7 16 8 17 9 98 10 97 11 99 12
REMARK SMILES IDX 15 13 12 14 13 15 101 16 14 17 100 18 11 19 10 20 8 21 7 22
REMARK SMILES IDX 9 24 6 25 1 26 2 27 3 28 102 29 4 30 5 31 24 32 25 33 26 34
REMARK SMILES IDX 27 35 28 36 29 37 30 39 31 40 32 41 96 42 33 43 95 44 34 45
REMARK SMILES IDX 35 46 36 47 89 48 37 49 94 50 88 51 90 52 38 53 93 54 87 55
REMARK SMILES IDX 86 56 39 58 73 59 52 60 72 61 53 62 56 63 71 64 91 65 54 66
REMARK SMILES IDX 55 67 70 69 92 70 57 71 40 72 41 73 50 74 42 75 43 76 49 77
REMARK SMILES IDX 51 78 44 79 45 80 46 81 47 82 48 83 74 84 75 85 84 86 76 87
REMARK SMILES IDX 77 88 83 89 85 90 78 91 79 92 80 93 81 94 82 95 58 96 59 97
REMARK SMILES IDX 68 98 60 99 61 100 67 101 69 102 62 103 63 104 64 105 65 106
REMARK SMILES IDX 66 107
REMARK H PARENT 21 6 7 23 28 38 90 57 56 68
REMARK Flexibility Score: inf
ROOT
ATOM      1  C   UNL A   1      33.449  24.737  26.388  1.00  0.00     0.021 C 
ENDROOT
BRANCH   1   2
ATOM      2  C   UNL A   1      33.125  23.447  27.144  1.00  0.00     0.116 C 
BRANCH   2   3
ATOM      3  N   UNL A   1      31.845  22.880  26.754  1.00  0.00    -0.356 N 
ATOM      4  C   UNL A   1      31.488  22.041  25.751  1.00  0.00     0.225 C 
ATOM      5  O   UNL A   1      30.321  21.634  25.741  1.00  0.00    -0.275 OA
ATOM      6  H   UNL A   1      31.095  23.159  27.327  1.00  0.00     0.163 HD
BRANCH   4   7
ATOM      7  C   UNL A   1      32.448  21.551  24.687  1.00  0.00     0.107 C 
ATOM      8  N   UNL A   1      34.803  21.341  24.584  1.00  0.00    -0.312 N 
ATOM      9  C   UNL A   1      33.644  20.821  25.267  1.00  0.00     0.139 C 
ATOM     10  C   UNL A   1      34.480  22.386  23.716  1.00  0.00     0.227 C 
ATOM     11  C   UNL A   1      32.991  22.611  23.747  1.00  0.00     0.116 C 
ATOM     12  O   UNL A   1      35.225  23.029  22.990  1.00  0.00    -0.274 OA
BRANCH   8  13
ATOM     13  C   UNL A   1      36.114  20.849  24.830  1.00  0.00     0.044 A 
ATOM     14  C   UNL A   1      38.720  19.873  25.330  1.00  0.00     0.120 A 
ATOM     15  C   UNL A   1      38.434  21.228  25.475  1.00  0.00     0.048 A 
ATOM     16  C   UNL A   1      37.706  19.000  24.953  1.00  0.00     0.048 A 
ATOM     17  C   UNL A   1      37.151  21.716  25.200  1.00  0.00     0.030 A 
ATOM     18  C   UNL A   1      36.414  19.486  24.716  1.00  0.00     0.030 A 
BRANCH  14  19
ATOM     19  O   UNL A   1      39.981  19.483  25.672  1.00  0.00    -0.484 OA
BRANCH  19  20
ATOM     20  C   UNL A   1      40.624  20.277  26.654  1.00  0.00     0.329 C 
BRANCH  20  21
ATOM     21  C   UNL A   1      42.116  20.587  26.528  1.00  0.00     0.262 C 
ATOM     22  N   UNL A   1      42.623  21.847  26.456  1.00  0.00    -0.323 N 
ATOM     23  H   UNL A   1      43.607  21.864  26.497  1.00  0.00     0.170 HD
ATOM     24  O   UNL A   1      42.930  19.654  26.492  1.00  0.00    -0.271 OA
BRANCH  22  25
ATOM     25  C   UNL A   1      42.064  23.130  26.336  1.00  0.00     0.041 A 
ATOM     26  C   UNL A   1      39.407  25.062  28.293  1.00  0.00     0.044 C 
ATOM     27  C   UNL A   1      40.456  24.720  27.277  1.00  0.00    -0.049 A 
ATOM     28  C   UNL A   1      40.813  25.649  26.298  1.00  0.00     0.003 A 
ATOM     29  C   UNL A   1      41.090  23.469  27.290  1.00  0.00     0.029 A 
ATOM     30  C   UNL A   1      41.795  25.332  25.363  1.00  0.00     0.002 A 
ATOM     31  C   UNL A   1      42.424  24.083  25.388  1.00  0.00     0.026 A 
ENDBRANCH  22  25
ENDBRANCH  20  21
ENDBRANCH  19  20
ENDBRANCH  14  19
ENDBRANCH   8  13
ENDBRANCH   4   7
ENDBRANCH   2   3
ENDBRANCH   1   2
BRANCH   1  32
ATOM     32  C   UNL A   1      32.266  25.681  26.130  1.00  0.00     0.002 C 
BRANCH  32  33
ATOM     33  C   UNL A   1      32.593  27.131  25.729  1.00  0.00     0.002 C 
BRANCH  33  34
ATOM     34  C   UNL A   1      34.071  27.486  25.542  1.00  0.00     0.021 C 
BRANCH  34  35
ATOM     35  C   UNL A   1      34.563  28.637  26.410  1.00  0.00     0.116 C 
BRANCH  35  36
ATOM     36  N   UNL A   1      33.993  29.934  26.087  1.00  0.00    -0.352 N 
ATOM     37  C   UNL A   1      33.665  30.858  27.087  1.00  0.00     0.251 C 
ATOM     38  H   UNL A   1      33.835  30.167  25.145  1.00  0.00     0.163 HD
ATOM     39  O   UNL A   1      32.599  31.390  27.203  1.00  0.00    -0.269 OA
BRANCH  37  40
ATOM     40  C   UNL A   1      34.789  31.161  28.013  1.00  0.00     0.039 A 
ATOM     41  C   UNL A   1      35.592  32.278  27.769  1.00  0.00     0.014 A 
ATOM     42  C   UNL A   1      35.161  30.199  28.949  1.00  0.00     0.014 A 
ATOM     43  C   UNL A   1      36.851  32.357  28.371  1.00  0.00     0.010 A 
ATOM     44  C   UNL A   1      36.441  30.238  29.473  1.00  0.00     0.010 A 
ATOM     45  C   UNL A   1      37.305  31.297  29.161  1.00  0.00    -0.014 A 
BRANCH  45  46
ATOM     46  C   UNL A   1      38.694  31.136  29.598  1.00  0.00     0.031 A 
ATOM     47  C   UNL A   1      39.551  30.038  29.080  1.00  0.00     0.074 A 
ATOM     48  C   UNL A   1      39.260  32.071  30.394  1.00  0.00     0.049 A 
ATOM     49  N   UNL A   1      40.652  29.652  29.638  1.00  0.00    -0.248 NA
ATOM     50  C   UNL A   1      39.214  29.264  27.889  1.00  0.00     0.031 C 
ATOM     51  C   UNL A   1      40.688  32.284  30.621  1.00  0.00     0.029 A 
ATOM     52  N   UNL A   1      38.638  32.907  31.320  1.00  0.00    -0.354 N 
ATOM     53  C   UNL A   1      41.286  28.790  28.775  1.00  0.00     0.074 A 
ATOM     54  C   UNL A   1      40.334  28.553  27.713  1.00  0.00     0.031 C 
ATOM     55  C   UNL A   1      40.850  32.979  31.755  1.00  0.00     0.029 A 
ATOM     56  C   UNL A   1      39.547  33.119  32.377  1.00  0.00     0.049 A 
ATOM     57  H   UNL A   1      37.730  33.281  31.250  1.00  0.00     0.167 HD
ATOM     58  C   UNL A   1      42.590  28.443  28.981  1.00  0.00     0.037 A 
ATOM     59  C   UNL A   1      39.240  32.723  33.649  1.00  0.00     0.037 A 
ATOM     60  C   UNL A   1      43.135  29.021  30.204  1.00  0.00     0.049 A 
ATOM     61  C   UNL A   1      40.117  31.615  34.196  1.00  0.00     0.074 A 
ATOM     62  C   UNL A   1      43.922  30.125  30.489  1.00  0.00     0.029 A 
ATOM     63  N   UNL A   1      42.650  28.576  31.419  1.00  0.00    -0.354 N 
ATOM     64  N   UNL A   1      41.136  31.096  33.567  1.00  0.00    -0.248 NA
ATOM     65  C   UNL A   1      39.859  30.945  35.475  1.00  0.00     0.031 C 
ATOM     66  C   UNL A   1      43.868  30.361  31.891  1.00  0.00     0.029 A 
ATOM     67  C   UNL A   1      43.048  29.401  32.453  1.00  0.00     0.049 A 
ATOM     68  H   UNL A   1      42.091  27.774  31.534  1.00  0.00     0.167 HD
ATOM     69  C   UNL A   1      41.584  30.004  34.262  1.00  0.00     0.074 A 
ATOM     70  C   UNL A   1      40.788  29.973  35.472  1.00  0.00     0.031 C 
ATOM     71  C   UNL A   1      42.533  29.153  33.784  1.00  0.00     0.037 A 
BRANCH  58  72
ATOM     72  C   UNL A   1      43.419  27.746  27.930  1.00  0.00     0.058 A 
ATOM     73  C   UNL A   1      43.941  26.456  28.154  1.00  0.00     0.135 A 
ATOM     74  C   UNL A   1      43.771  28.331  26.699  1.00  0.00     0.135 A 
ATOM     75  F   UNL A   1      43.625  25.752  29.249  1.00  0.00    -0.206 F 
ATOM     76  C   UNL A   1      44.838  25.843  27.279  1.00  0.00     0.059 A 
ATOM     77  C   UNL A   1      44.711  27.763  25.832  1.00  0.00     0.059 A 
ATOM     78  F   UNL A   1      43.199  29.473  26.289  1.00  0.00    -0.206 F 
ATOM     79  C   UNL A   1      45.251  26.521  26.140  1.00  0.00     0.060 A 
BRANCH  79  80
ATOM     80  S   UNL A   1      46.528  25.778  25.106  1.00  0.00     0.124 S 
ATOM     81  O   UNL A   1      45.851  24.601  24.569  1.00  0.00    -0.237 OA
ATOM     82  O   UNL A   1      46.800  26.845  24.149  1.00  0.00    -0.237 OA
ATOM     83  O   UNL A   1      47.603  25.492  26.051  1.00  0.00    -0.744 OA
ENDBRANCH  79  80
ENDBRANCH  58  72
BRANCH  59  84
ATOM     84  C   UNL A   1      37.803  32.939  33.971  1.00  0.00     0.058 A 
ATOM     85  C   UNL A   1      37.410  34.247  34.317  1.00  0.00     0.135 A 
ATOM     86  C   UNL A   1      36.815  32.064  33.502  1.00  0.00     0.135 A 
ATOM     87  F   UNL A   1      38.317  35.114  34.800  1.00  0.00    -0.206 F 
ATOM     88  C   UNL A   1      36.143  34.729  34.018  1.00  0.00     0.059 A 
ATOM     89  C   UNL A   1      35.530  32.524  33.211  1.00  0.00     0.059 A 
ATOM     90  F   UNL A   1      37.127  30.803  33.172  1.00  0.00    -0.206 F 
ATOM     91  C   UNL A   1      35.239  33.879  33.386  1.00  0.00     0.060 A 
BRANCH  91  92
ATOM     92  S   UNL A   1      33.754  34.607  32.651  1.00  0.00     0.124 S 
ATOM     93  O   UNL A   1      33.968  34.373  31.228  1.00  0.00    -0.237 OA
ATOM     94  O   UNL A   1      32.688  33.815  33.270  1.00  0.00    -0.237 OA
ATOM     95  O   UNL A   1      33.821  35.999  33.081  1.00  0.00    -0.744 OA
ENDBRANCH  91  92
ENDBRANCH  59  84
BRANCH  71  96
ATOM     96  C   UNL A   1      43.041  27.992  34.574  1.00  0.00     0.058 A 
ATOM     97  C   UNL A   1      44.318  28.012  35.153  1.00  0.00     0.135 A 
ATOM     98  C   UNL A   1      42.326  26.781  34.641  1.00  0.00     0.135 A 
ATOM     99  F   UNL A   1      45.066  29.127  35.114  1.00  0.00    -0.206 F 
ATOM    100  C   UNL A   1      44.863  26.887  35.768  1.00  0.00     0.059 A 
ATOM    101  C   UNL A   1      42.863  25.636  35.221  1.00  0.00     0.059 A 
ATOM    102  F   UNL A   1      41.080  26.691  34.148  1.00  0.00    -0.206 F 
ATOM    103  C   UNL A   1      44.130  25.701  35.791  1.00  0.00     0.060 A 
BRANCH 103 104
ATOM    104  S   UNL A   1      44.854  24.219  36.524  1.00  0.00     0.124 S 
ATOM    105  O   UNL A   1      44.537  24.367  37.942  1.00  0.00    -0.237 OA
ATOM    106  O   UNL A   1      44.128  23.165  35.823  1.00  0.00    -0.237 OA
ATOM    107  O   UNL A   1      46.269  24.343  36.191  1.00  0.00    -0.744 OA
ENDBRANCH 103 104
ENDBRANCH  71  96
ENDBRANCH  45  46
ENDBRANCH  37  40
ENDBRANCH  35  36
ENDBRANCH  34  35
ENDBRANCH  33  34
ENDBRANCH  32  33
ENDBRANCH   1  32
TORSDOF 21
ENDMDL
MODEL 2
REMARK VINA RESULT:     -11.4      3.853     10.998
REMARK SMILES Cc1cccc(NC(=O)COc2ccc(N3C[C@@H](C(=O)NCCCCCCNC(=O)c4ccc(-c5c6nc(c(-c7c(F)cc(S(=O)(=O)[O-])cc7F)c7ccc([nH]7)c(-c7c(F)cc(S(=O)(=O)[O-])cc7F)c7nc(c(-c8c(F)cc(S(=O)(=O)[O-])cc8F)c8ccc5[nH]8)C=C7)C=C6)cc4)CC3=O)cc2)c1
REMARK SMILES IDX 23 1 22 2 21 3 19 4 20 5 18 7 16 8 17 9 98 10 97 11 99 12
REMARK SMILES IDX 15 13 12 14 13 15 101 16 14 17 100 18 11 19 10 20 8 21 7 22
REMARK SMILES IDX 9 24 6 25 1 26 2 27 3 28 102 29 4 30 5 31 24 32 25 33 26 34
REMARK SMILES IDX 27 35 28 36 29 37 30 39 31 40 32 41 96 42 33 43 95 44 34 45
REMARK SMILES IDX 35 46 36 47 89 48 37 49 94 50 88 51 90 52 38 53 93 54 87 55
REMARK SMILES IDX 86 56 39 58 73 59 52 60 72 61 53 62 56 63 71 64 91 65 54 66
REMARK SMILES IDX 55 67 70 69 92 70 57 71 40 72 41 73 50 74 42 75 43 76 49 77
REMARK SMILES IDX 51 78 44 79 45 80 46 81 47 82 48 83 74 84 75 85 84 86 76 87
REMARK SMILES IDX 77 88 83 89 85 90 78 91 79 92 80 93 81 94 82 95 58 96 59 97
REMARK SMILES IDX 68 98 60 99 61 100 67 101 69 102 62 103 63 104 64 105 65 106
REMARK SMILES IDX 66 107
REMARK H PARENT 21 6 7 23 28 38 90 57 56 68
REMARK Flexibility Score: inf
ROOT
ATOM      1  C   UNL A   1      37.887  22.637  25.760  1.00  0.00     0.021 C 
ENDROOT
BRANCH   1   2
ATOM      2  C   UNL A   1      36.461  22.176  25.457  1.00  0.00     0.116 C 
BRANCH   2   3
ATOM      3  N   UNL A   1      36.376  20.744  25.224  1.00  0.00    -0.356 N 
ATOM      4  C   UNL A   1      35.328  19.923  24.967  1.00  0.00     0.225 C 
ATOM      5  O   UNL A   1      35.584  18.746  24.693  1.00  0.00    -0.275 OA
ATOM      6  H   UNL A   1      37.245  20.283  25.259  1.00  0.00     0.163 HD
BRANCH   4   7
ATOM      7  C   UNL A   1      33.885  20.385  24.956  1.00  0.00     0.107 C 
ATOM      8  N   UNL A   1      32.845  22.483  24.617  1.00  0.00    -0.312 N 
ATOM      9  C   UNL A   1      33.627  21.479  23.939  1.00  0.00     0.139 C 
ATOM     10  C   UNL A   1      32.671  22.191  25.971  1.00  0.00     0.227 C 
ATOM     11  C   UNL A   1      33.338  20.878  26.283  1.00  0.00     0.116 C 
ATOM     12  O   UNL A   1      32.056  22.830  26.814  1.00  0.00    -0.274 OA
BRANCH   8  13
ATOM     13  C   UNL A   1      32.364  23.646  23.956  1.00  0.00     0.044 A 
ATOM     14  C   UNL A   1      31.412  25.955  22.630  1.00  0.00     0.120 A 
ATOM     15  C   UNL A   1      32.779  25.709  22.725  1.00  0.00     0.048 A 
ATOM     16  C   UNL A   1      30.517  25.043  23.178  1.00  0.00     0.048 A 
ATOM     17  C   UNL A   1      33.252  24.581  23.407  1.00  0.00     0.030 A 
ATOM     18  C   UNL A   1      30.993  23.896  23.825  1.00  0.00     0.030 A 
BRANCH  14  19
ATOM     19  O   UNL A   1      31.044  27.048  21.902  1.00  0.00    -0.484 OA
BRANCH  19  20
ATOM     20  C   UNL A   1      29.997  27.828  22.453  1.00  0.00     0.329 C 
BRANCH  20  21
ATOM     21  C   UNL A   1      30.121  29.351  22.496  1.00  0.00     0.262 C 
ATOM     22  N   UNL A   1      30.687  30.034  23.528  1.00  0.00    -0.323 N 
ATOM     23  H   UNL A   1      30.790  30.995  23.337  1.00  0.00     0.170 HD
ATOM     24  O   UNL A   1      29.695  30.023  21.548  1.00  0.00    -0.271 OA
BRANCH  22  25
ATOM     25  C   UNL A   1      31.159  29.681  24.803  1.00  0.00     0.041 A 
ATOM     26  C   UNL A   1      31.716  26.353  26.603  1.00  0.00     0.044 C 
ATOM     27  C   UNL A   1      31.672  27.825  26.317  1.00  0.00    -0.049 A 
ATOM     28  C   UNL A   1      32.080  28.740  27.289  1.00  0.00     0.003 A 
ATOM     29  C   UNL A   1      31.220  28.305  25.079  1.00  0.00     0.029 A 
ATOM     30  C   UNL A   1      32.047  30.106  27.017  1.00  0.00     0.002 A 
ATOM     31  C   UNL A   1      31.599  30.573  25.777  1.00  0.00     0.026 A 
ENDBRANCH  22  25
ENDBRANCH  20  21
ENDBRANCH  19  20
ENDBRANCH  14  19
ENDBRANCH   8  13
ENDBRANCH   4   7
ENDBRANCH   2   3
ENDBRANCH   1   2
BRANCH   1  32
ATOM     32  C   UNL A   1      38.908  21.525  26.046  1.00  0.00     0.002 C 
BRANCH  32  33
ATOM     33  C   UNL A   1      40.213  21.930  26.754  1.00  0.00     0.002 C 
BRANCH  33  34
ATOM     34  C   UNL A   1      41.527  21.527  26.079  1.00  0.00     0.021 C 
BRANCH  34  35
ATOM     35  C   UNL A   1      42.441  22.691  25.720  1.00  0.00     0.116 C 
BRANCH  35  36
ATOM     36  N   UNL A   1      43.711  22.712  26.426  1.00  0.00    -0.352 N 
ATOM     37  C   UNL A   1      44.492  23.872  26.492  1.00  0.00     0.251 C 
ATOM     38  H   UNL A   1      44.028  21.892  26.867  1.00  0.00     0.163 HD
ATOM     39  O   UNL A   1      45.650  23.936  26.193  1.00  0.00    -0.269 OA
BRANCH  37  40
ATOM     40  C   UNL A   1      43.756  25.059  27.006  1.00  0.00     0.039 A 
ATOM     41  C   UNL A   1      43.645  26.195  26.201  1.00  0.00     0.014 A 
ATOM     42  C   UNL A   1      43.411  25.097  28.355  1.00  0.00     0.014 A 
ATOM     43  C   UNL A   1      43.318  27.419  26.792  1.00  0.00     0.010 A 
ATOM     44  C   UNL A   1      43.174  26.324  28.948  1.00  0.00     0.010 A 
ATOM     45  C   UNL A   1      43.159  27.495  28.178  1.00  0.00    -0.014 A 
BRANCH  45  46
ATOM     46  C   UNL A   1      43.104  28.752  28.929  1.00  0.00     0.031 A 
ATOM     47  C   UNL A   1      41.823  29.471  29.151  1.00  0.00     0.074 A 
ATOM     48  C   UNL A   1      44.216  29.215  29.546  1.00  0.00     0.049 A 
ATOM     49  N   UNL A   1      41.740  30.708  29.519  1.00  0.00    -0.248 NA
ATOM     50  C   UNL A   1      40.519  28.848  28.948  1.00  0.00     0.031 C 
ATOM     51  C   UNL A   1      44.277  30.207  30.616  1.00  0.00     0.029 A 
ATOM     52  N   UNL A   1      45.547  29.014  29.187  1.00  0.00    -0.354 N 
ATOM     53  C   UNL A   1      40.430  30.966  29.846  1.00  0.00     0.074 A 
ATOM     54  C   UNL A   1      39.701  29.785  29.441  1.00  0.00     0.031 C 
ATOM     55  C   UNL A   1      45.517  30.713  30.671  1.00  0.00     0.029 A 
ATOM     56  C   UNL A   1      46.262  30.174  29.549  1.00  0.00     0.049 A 
ATOM     57  H   UNL A   1      45.922  28.209  28.760  1.00  0.00     0.167 HD
ATOM     58  C   UNL A   1      40.100  32.104  30.523  1.00  0.00     0.037 A 
ATOM     59  C   UNL A   1      46.899  30.924  28.600  1.00  0.00     0.037 A 
ATOM     60  C   UNL A   1      41.250  32.969  30.757  1.00  0.00     0.049 A 
ATOM     61  C   UNL A   1      46.332  32.316  28.406  1.00  0.00     0.074 A 
ATOM     62  C   UNL A   1      42.096  33.191  31.832  1.00  0.00     0.029 A 
ATOM     63  N   UNL A   1      41.844  33.587  29.672  1.00  0.00    -0.354 N 
ATOM     64  N   UNL A   1      45.360  32.825  29.112  1.00  0.00    -0.248 NA
ATOM     65  C   UNL A   1      46.770  33.220  27.338  1.00  0.00     0.031 C 
ATOM     66  C   UNL A   1      43.229  33.917  31.366  1.00  0.00     0.029 A 
ATOM     67  C   UNL A   1      43.068  34.132  30.010  1.00  0.00     0.049 A 
ATOM     68  H   UNL A   1      41.447  33.632  28.773  1.00  0.00     0.167 HD
ATOM     69  C   UNL A   1      44.979  34.018  28.557  1.00  0.00     0.074 A 
ATOM     70  C   UNL A   1      45.916  34.249  27.477  1.00  0.00     0.031 C 
ATOM     71  C   UNL A   1      43.885  34.717  28.967  1.00  0.00     0.037 A 
BRANCH  58  72
ATOM     72  C   UNL A   1      38.747  32.305  31.160  1.00  0.00     0.058 A 
ATOM     73  C   UNL A   1      37.667  32.831  30.422  1.00  0.00     0.135 A 
ATOM     74  C   UNL A   1      38.473  32.039  32.515  1.00  0.00     0.135 A 
ATOM     75  F   UNL A   1      37.763  33.060  29.105  1.00  0.00    -0.206 F 
ATOM     76  C   UNL A   1      36.450  33.178  31.008  1.00  0.00     0.059 A 
ATOM     77  C   UNL A   1      37.283  32.429  33.139  1.00  0.00     0.059 A 
ATOM     78  F   UNL A   1      39.354  31.374  33.279  1.00  0.00    -0.206 F 
ATOM     79  C   UNL A   1      36.280  33.013  32.376  1.00  0.00     0.060 A 
BRANCH  79  80
ATOM     80  S   UNL A   1      34.760  33.613  33.138  1.00  0.00     0.124 S 
ATOM     81  O   UNL A   1      35.019  33.403  34.560  1.00  0.00    -0.237 OA
ATOM     82  O   UNL A   1      34.729  35.002  32.698  1.00  0.00    -0.237 OA
ATOM     83  O   UNL A   1      33.732  32.748  32.567  1.00  0.00    -0.744 OA
ENDBRANCH  79  80
ENDBRANCH  58  72
BRANCH  59  84
ATOM     84  C   UNL A   1      47.518  30.079  27.542  1.00  0.00     0.058 A 
ATOM     85  C   UNL A   1      48.816  29.589  27.787  1.00  0.00     0.135 A 
ATOM     86  C   UNL A   1      46.732  29.400  26.603  1.00  0.00     0.135 A 
ATOM     87  F   UNL A   1      49.619  30.225  28.657  1.00  0.00    -0.206 F 
ATOM     88  C   UNL A   1      49.240  28.367  27.282  1.00  0.00     0.059 A 
ATOM     89  C   UNL A   1      47.146  28.178  26.070  1.00  0.00     0.059 A 
ATOM     90  F   UNL A   1      45.494  29.828  26.318  1.00  0.00    -0.206 F 
ATOM     91  C   UNL A   1      48.360  27.632  26.492  1.00  0.00     0.060 A 
BRANCH  91  92
ATOM     92  S   UNL A   1      48.754  25.895  26.166  1.00  0.00     0.124 S 
ATOM     93  O   UNL A   1      50.212  25.912  26.131  1.00  0.00    -0.237 OA
ATOM     94  O   UNL A   1      48.156  25.225  27.323  1.00  0.00    -0.237 OA
ATOM     95  O   UNL A   1      48.094  25.640  24.892  1.00  0.00    -0.744 OA
ENDBRANCH  91  92
ENDBRANCH  59  84
BRANCH  71  96
ATOM     96  C   UNL A   1      43.509  36.037  28.379  1.00  0.00     0.058 A 
ATOM     97  C   UNL A   1      43.678  37.227  29.101  1.00  0.00     0.135 A 
ATOM     98  C   UNL A   1      42.834  36.126  27.147  1.00  0.00     0.135 A 
ATOM     99  F   UNL A   1      44.299  37.218  30.293  1.00  0.00    -0.206 F 
ATOM    100  C   UNL A   1      43.202  38.447  28.627  1.00  0.00     0.059 A 
ATOM    101  C   UNL A   1      42.321  37.327  26.669  1.00  0.00     0.059 A 
ATOM    102  F   UNL A   1      42.668  35.039  26.375  1.00  0.00    -0.206 F 
ATOM    103  C   UNL A   1      42.517  38.486  27.413  1.00  0.00     0.060 A 
BRANCH 103 104
ATOM    104  S   UNL A   1      41.835  40.049  26.823  1.00  0.00     0.124 S 
ATOM    105  O   UNL A   1      41.364  40.685  28.050  1.00  0.00    -0.237 OA
ATOM    106  O   UNL A   1      43.007  40.663  26.207  1.00  0.00    -0.237 OA
ATOM    107  O   UNL A   1      40.784  39.625  25.903  1.00  0.00    -0.744 OA
ENDBRANCH 103 104
ENDBRANCH  71  96
ENDBRANCH  45  46
ENDBRANCH  37  40
ENDBRANCH  35  36
ENDBRANCH  34  35
ENDBRANCH  33  34
ENDBRANCH  32  33
ENDBRANCH   1  32
TORSDOF 21
ENDMDL
MODEL 3
REMARK VINA RESULT:     -11.2      2.589      5.198
REMARK SMILES Cc1cccc(NC(=O)COc2ccc(N3C[C@@H](C(=O)NCCCCCCNC(=O)c4ccc(-c5c6nc(c(-c7c(F)cc(S(=O)(=O)[O-])cc7F)c7ccc([nH]7)c(-c7c(F)cc(S(=O)(=O)[O-])cc7F)c7nc(c(-c8c(F)cc(S(=O)(=O)[O-])cc8F)c8ccc5[nH]8)C=C7)C=C6)cc4)CC3=O)cc2)c1
REMARK SMILES IDX 23 1 22 2 21 3 19 4 20 5 18 7 16 8 17 9 98 10 97 11 99 12
REMARK SMILES IDX 15 13 12 14 13 15 101 16 14 17 100 18 11 19 10 20 8 21 7 22
REMARK SMILES IDX 9 24 6 25 1 26 2 27 3 28 102 29 4 30 5 31 24 32 25 33 26 34
REMARK SMILES IDX 27 35 28 36 29 37 30 39 31 40 32 41 96 42 33 43 95 44 34 45
REMARK SMILES IDX 35 46 36 47 89 48 37 49 94 50 88 51 90 52 38 53 93 54 87 55
REMARK SMILES IDX 86 56 39 58 73 59 52 60 72 61 53 62 56 63 71 64 91 65 54 66
REMARK SMILES IDX 55 67 70 69 92 70 57 71 40 72 41 73 50 74 42 75 43 76 49 77
REMARK SMILES IDX 51 78 44 79 45 80 46 81 47 82 48 83 74 84 75 85 84 86 76 87
REMARK SMILES IDX 77 88 83 89 85 90 78 91 79 92 80 93 81 94 82 95 58 96 59 97
REMARK SMILES IDX 68 98 60 99 61 100 67 101 69 102 62 103 63 104 64 105 65 106
REMARK SMILES IDX 66 107
REMARK H PARENT 21 6 7 23 28 38 90 57 56 68
REMARK Flexibility Score: inf
ROOT
ATOM      1  C   UNL A   1      34.736  30.864  27.282  1.00  0.00     0.021 C 
ENDROOT
BRANCH   1   2
ATOM      2  C   UNL A   1      33.943  29.646  26.807  1.00  0.00     0.116 C 
BRANCH   2   3
ATOM      3  N   UNL A   1      32.773  29.387  27.629  1.00  0.00    -0.356 N 
ATOM      4  C   UNL A   1      31.685  28.601  27.444  1.00  0.00     0.225 C 
ATOM      5  O   UNL A   1      30.896  28.493  28.389  1.00  0.00    -0.275 OA
ATOM      6  H   UNL A   1      32.771  29.878  28.483  1.00  0.00     0.163 HD
BRANCH   4   7
ATOM      7  C   UNL A   1      31.420  27.823  26.171  1.00  0.00     0.107 C 
ATOM      8  N   UNL A   1      32.777  26.502  24.752  1.00  0.00    -0.312 N 
ATOM      9  C   UNL A   1      32.228  26.544  26.085  1.00  0.00     0.139 C 
ATOM     10  C   UNL A   1      32.488  27.660  24.027  1.00  0.00     0.227 C 
ATOM     11  C   UNL A   1      31.650  28.579  24.876  1.00  0.00     0.116 C 
ATOM     12  O   UNL A   1      32.797  27.932  22.875  1.00  0.00    -0.274 OA
BRANCH   8  13
ATOM     13  C   UNL A   1      33.555  25.409  24.285  1.00  0.00     0.044 A 
ATOM     14  C   UNL A   1      35.102  23.227  23.366  1.00  0.00     0.120 A 
ATOM     15  C   UNL A   1      35.496  23.948  24.490  1.00  0.00     0.048 A 
ATOM     16  C   UNL A   1      33.929  23.580  22.709  1.00  0.00     0.048 A 
ATOM     17  C   UNL A   1      34.746  25.046  24.928  1.00  0.00     0.030 A 
ATOM     18  C   UNL A   1      33.161  24.655  23.173  1.00  0.00     0.030 A 
BRANCH  14  19
ATOM     19  O   UNL A   1      35.864  22.142  23.046  1.00  0.00    -0.484 OA
BRANCH  19  20
ATOM     20  C   UNL A   1      37.051  21.983  23.803  1.00  0.00     0.329 C 
BRANCH  20  21
ATOM     21  C   UNL A   1      36.994  21.328  25.183  1.00  0.00     0.262 C 
ATOM     22  N   UNL A   1      36.044  20.427  25.554  1.00  0.00    -0.323 N 
ATOM     23  H   UNL A   1      36.227  20.021  26.433  1.00  0.00     0.170 HD
ATOM     24  O   UNL A   1      37.852  21.615  26.029  1.00  0.00    -0.271 OA
BRANCH  22  25
ATOM     25  C   UNL A   1      34.862  19.944  24.969  1.00  0.00     0.041 A 
ATOM     26  C   UNL A   1      33.885  16.651  23.289  1.00  0.00     0.044 C 
ATOM     27  C   UNL A   1      33.805  18.041  23.847  1.00  0.00    -0.049 A 
ATOM     28  C   UNL A   1      32.613  18.763  23.761  1.00  0.00     0.003 A 
ATOM     29  C   UNL A   1      34.918  18.637  24.456  1.00  0.00     0.029 A 
ATOM     30  C   UNL A   1      32.539  20.050  24.289  1.00  0.00     0.002 A 
ATOM     31  C   UNL A   1      33.655  20.633  24.899  1.00  0.00     0.026 A 
ENDBRANCH  22  25
ENDBRANCH  20  21
ENDBRANCH  19  20
ENDBRANCH  14  19
ENDBRANCH   8  13
ENDBRANCH   4   7
ENDBRANCH   2   3
ENDBRANCH   1   2
BRANCH   1  32
ATOM     32  C   UNL A   1      34.010  31.803  28.257  1.00  0.00     0.002 C 
BRANCH  32  33
ATOM     33  C   UNL A   1      33.819  33.266  27.820  1.00  0.00     0.002 C 
BRANCH  33  34
ATOM     34  C   UNL A   1      34.804  34.295  28.382  1.00  0.00     0.021 C 
BRANCH  34  35
ATOM     35  C   UNL A   1      36.074  33.701  28.979  1.00  0.00     0.116 C 
BRANCH  35  36
ATOM     36  N   UNL A   1      36.055  33.547  30.424  1.00  0.00    -0.352 N 
ATOM     37  C   UNL A   1      35.946  32.287  31.023  1.00  0.00     0.251 C 
ATOM     38  H   UNL A   1      36.121  34.348  30.993  1.00  0.00     0.163 HD
ATOM     39  O   UNL A   1      35.136  31.992  31.855  1.00  0.00    -0.269 OA
BRANCH  37  40
ATOM     40  C   UNL A   1      36.967  31.312  30.554  1.00  0.00     0.039 A 
ATOM     41  C   UNL A   1      36.997  30.032  31.113  1.00  0.00     0.014 A 
ATOM     42  C   UNL A   1      38.010  31.771  29.755  1.00  0.00     0.014 A 
ATOM     43  C   UNL A   1      38.154  29.258  30.983  1.00  0.00     0.010 A 
ATOM     44  C   UNL A   1      39.183  31.039  29.703  1.00  0.00     0.010 A 
ATOM     45  C   UNL A   1      39.274  29.796  30.344  1.00  0.00    -0.014 A 
BRANCH  45  46
ATOM     46  C   UNL A   1      40.613  29.204  30.401  1.00  0.00     0.031 A 
ATOM     47  C   UNL A   1      40.927  27.922  29.718  1.00  0.00     0.074 A 
ATOM     48  C   UNL A   1      41.626  29.889  30.978  1.00  0.00     0.049 A 
ATOM     49  N   UNL A   1      41.967  27.198  29.977  1.00  0.00    -0.248 NA
ATOM     50  C   UNL A   1      40.068  27.338  28.693  1.00  0.00     0.031 C 
ATOM     51  C   UNL A   1      43.057  29.651  30.807  1.00  0.00     0.029 A 
ATOM     52  N   UNL A   1      41.556  30.832  32.002  1.00  0.00    -0.354 N 
ATOM     53  C   UNL A   1      42.057  26.223  29.012  1.00  0.00     0.074 A 
ATOM     54  C   UNL A   1      40.831  26.331  28.253  1.00  0.00     0.031 C 
ATOM     55  C   UNL A   1      43.718  30.215  31.827  1.00  0.00     0.029 A 
ATOM     56  C   UNL A   1      42.734  30.714  32.768  1.00  0.00     0.049 A 
ATOM     57  H   UNL A   1      40.819  31.466  32.161  1.00  0.00     0.167 HD
ATOM     58  C   UNL A   1      43.200  25.490  28.877  1.00  0.00     0.037 A 
ATOM     59  C   UNL A   1      42.672  30.374  34.091  1.00  0.00     0.037 A 
ATOM     60  C   UNL A   1      44.199  25.822  29.885  1.00  0.00     0.049 A 
ATOM     61  C   UNL A   1      43.285  29.030  34.429  1.00  0.00     0.074 A 
ATOM     62  C   UNL A   1      45.329  26.624  29.904  1.00  0.00     0.029 A 
ATOM     63  N   UNL A   1      43.944  25.492  31.203  1.00  0.00    -0.354 N 
ATOM     64  N   UNL A   1      43.893  28.255  33.572  1.00  0.00    -0.248 NA
ATOM     65  C   UNL A   1      43.187  28.414  35.756  1.00  0.00     0.031 C 
ATOM     66  C   UNL A   1      45.725  26.804  31.260  1.00  0.00     0.029 A 
ATOM     67  C   UNL A   1      44.834  26.113  32.059  1.00  0.00     0.049 A 
ATOM     68  H   UNL A   1      43.221  24.893  31.494  1.00  0.00     0.167 HD
ATOM     69  C   UNL A   1      44.158  27.050  34.166  1.00  0.00     0.074 A 
ATOM     70  C   UNL A   1      43.742  27.208  35.545  1.00  0.00     0.031 C 
ATOM     71  C   UNL A   1      44.641  25.974  33.488  1.00  0.00     0.037 A 
BRANCH  58  72
ATOM     72  C   UNL A   1      43.468  24.622  27.672  1.00  0.00     0.058 A 
ATOM     73  C   UNL A   1      43.084  23.266  27.653  1.00  0.00     0.135 A 
ATOM     74  C   UNL A   1      44.149  25.068  26.523  1.00  0.00     0.135 A 
ATOM     75  F   UNL A   1      42.364  22.727  28.645  1.00  0.00    -0.206 F 
ATOM     76  C   UNL A   1      43.450  22.392  26.629  1.00  0.00     0.059 A 
ATOM     77  C   UNL A   1      44.577  24.202  25.512  1.00  0.00     0.059 A 
ATOM     78  F   UNL A   1      44.410  26.372  26.339  1.00  0.00    -0.206 F 
ATOM     79  C   UNL A   1      44.233  22.858  25.581  1.00  0.00     0.060 A 
BRANCH  79  80
ATOM     80  S   UNL A   1      44.826  21.680  24.353  1.00  0.00     0.124 S 
ATOM     81  O   UNL A   1      44.378  22.281  23.100  1.00  0.00    -0.237 OA
ATOM     82  O   UNL A   1      46.266  21.700  24.586  1.00  0.00    -0.237 OA
ATOM     83  O   UNL A   1      44.147  20.440  24.718  1.00  0.00    -0.744 OA
ENDBRANCH  79  80
ENDBRANCH  58  72
BRANCH  59  84
ATOM     84  C   UNL A   1      41.508  31.000  34.776  1.00  0.00     0.058 A 
ATOM     85  C   UNL A   1      41.677  32.309  35.267  1.00  0.00     0.135 A 
ATOM     86  C   UNL A   1      40.201  30.558  34.535  1.00  0.00     0.135 A 
ATOM     87  F   UNL A   1      42.911  32.768  35.542  1.00  0.00    -0.206 F 
ATOM     88  C   UNL A   1      40.621  33.209  35.320  1.00  0.00     0.059 A 
ATOM     89  C   UNL A   1      39.122  31.442  34.599  1.00  0.00     0.059 A 
ATOM     90  F   UNL A   1      39.977  29.317  34.081  1.00  0.00    -0.206 F 
ATOM     91  C   UNL A   1      39.363  32.784  34.901  1.00  0.00     0.060 A 
BRANCH  91  92
ATOM     92  S   UNL A   1      38.095  34.040  34.600  1.00  0.00     0.124 S 
ATOM     93  O   UNL A   1      37.074  33.687  35.579  1.00  0.00    -0.237 OA
ATOM     94  O   UNL A   1      38.826  35.281  34.866  1.00  0.00    -0.237 OA
ATOM     95  O   UNL A   1      37.736  33.819  33.204  1.00  0.00    -0.744 OA
ENDBRANCH  91  92
ENDBRANCH  59  84
BRANCH  71  96
ATOM     96  C   UNL A   1      44.966  24.681  34.160  1.00  0.00     0.058 A 
ATOM     97  C   UNL A   1      46.290  24.234  34.273  1.00  0.00     0.135 A 
ATOM     98  C   UNL A   1      43.953  23.792  34.568  1.00  0.00     0.135 A 
ATOM     99  F   UNL A   1      47.309  25.021  33.888  1.00  0.00    -0.206 F 
ATOM    100  C   UNL A   1      46.599  22.968  34.766  1.00  0.00     0.059 A 
ATOM    101  C   UNL A   1      44.236  22.512  35.033  1.00  0.00     0.059 A 
ATOM    102  F   UNL A   1      42.662  24.159  34.532  1.00  0.00    -0.206 F 
ATOM    103  C   UNL A   1      45.564  22.111  35.136  1.00  0.00     0.060 A 
BRANCH 103 104
ATOM    104  S   UNL A   1      45.949  20.444  35.711  1.00  0.00     0.124 S 
ATOM    105  O   UNL A   1      47.351  20.284  35.336  1.00  0.00    -0.237 OA
ATOM    106  O   UNL A   1      45.689  20.563  37.142  1.00  0.00    -0.237 OA
ATOM    107  O   UNL A   1      45.010  19.612  34.964  1.00  0.00    -0.744 OA
ENDBRANCH 103 104
ENDBRANCH  71  96
ENDBRANCH  45  46
ENDBRANCH  37  40
ENDBRANCH  35  36
ENDBRANCH  34  35
ENDBRANCH  33  34
ENDBRANCH  32  33
ENDBRANCH   1  32
TORSDOF 21
ENDMDL
