MODEL 1
REMARK VINA RESULT:     -10.4      0.000      0.000
REMARK SMILES COC(=O)c1ccc([C@H]2CC(=O)Nc3c(C(=O)NCCCCCCNC(=O)c4ccc(-c5c6nc(c(-c7c(F)cc(S(=O)(=O)[O-])cc7F)c7ccc([nH]7)c(-c7c(F)cc(S(=O)(=O)[O-])cc7F)c7nc(c(-c8c(F)cc(S(=O)(=O)[O-])cc8F)c8ccc5[nH]8)C=C7)C=C6)cc4)cn(-c4cc(OC)ccc4OC)c32)cc1
REMARK SMILES IDX 21 1 20 2 19 3 18 4 16 5 17 6 15 8 9 9 10 10 106 11 11 12
REMARK SMILES IDX 14 13 95 14 12 15 13 16 94 17 8 19 5 20 6 21 108 22 7 23
REMARK SMILES IDX 107 24 3 25 4 26 2 27 1 28 96 29 97 30 103 31 98 32 102 33
REMARK SMILES IDX 101 34 104 35 105 36 99 37 100 38 22 39 23 40 24 41 25 42
REMARK SMILES IDX 26 43 27 45 28 46 29 47 93 48 30 49 92 50 31 51 32 52 33 53
REMARK SMILES IDX 86 54 34 55 91 56 85 57 87 58 35 59 90 60 84 61 83 62 36 64
REMARK SMILES IDX 70 65 49 66 69 67 50 68 53 69 68 70 88 71 51 72 52 73 67 75
REMARK SMILES IDX 89 76 54 77 37 78 38 79 47 80 39 81 40 82 46 83 48 84 41 85
REMARK SMILES IDX 42 86 43 87 44 88 45 89 71 90 72 91 81 92 73 93 74 94 80 95
REMARK SMILES IDX 82 96 75 97 76 98 77 99 78 100 79 101 55 102 56 103 65 104
REMARK SMILES IDX 57 105 58 106 64 107 66 108 59 109 60 110 61 111 62 112
REMARK SMILES IDX 63 113
REMARK H PARENT 18 7 13 18 25 44 87 63 53 74
REMARK Flexibility Score: inf
ROOT
ATOM      1  C   UNL A   1      36.585  33.363  28.435  1.00  0.00     0.002 C 
ENDROOT
BRANCH   1   2
ATOM      2  C   UNL A   1      35.291  34.155  28.639  1.00  0.00     0.021 C 
BRANCH   2   3
ATOM      3  C   UNL A   1      34.080  33.258  28.922  1.00  0.00     0.116 C 
BRANCH   3   4
ATOM      4  N   UNL A   1      33.026  33.532  27.985  1.00  0.00    -0.352 N 
ATOM      5  C   UNL A   1      32.304  32.741  27.145  1.00  0.00     0.254 C 
ATOM      6  O   UNL A   1      31.386  33.323  26.556  1.00  0.00    -0.269 OA
ATOM      7  H   UNL A   1      32.775  34.484  27.943  1.00  0.00     0.163 HD
BRANCH   5   8
ATOM      8  C   UNL A   1      32.538  31.311  26.913  1.00  0.00     0.081 A 
ATOM      9  C   UNL A   1      34.063  27.937  26.226  1.00  0.00     0.078 C 
ATOM     10  C   UNL A   1      35.550  28.269  26.422  1.00  0.00     0.115 C 
ATOM     11  C   UNL A   1      33.186  29.161  26.415  1.00  0.00     0.055 A 
ATOM     12  C   UNL A   1      35.845  29.479  27.261  1.00  0.00     0.225 C 
ATOM     13  C   UNL A   1      33.630  30.384  26.890  1.00  0.00     0.076 A 
ATOM     14  N   UNL A   1      31.830  29.288  26.153  1.00  0.00    -0.314 N 
ATOM     15  O   UNL A   1      36.910  29.614  27.865  1.00  0.00    -0.275 OA
ATOM     16  N   UNL A   1      34.947  30.502  27.253  1.00  0.00    -0.324 N 
ATOM     17  C   UNL A   1      31.439  30.529  26.576  1.00  0.00     0.107 A 
ATOM     18  H   UNL A   1      35.266  31.392  27.529  1.00  0.00     0.170 HD
BRANCH   9  19
ATOM     19  C   UNL A   1      33.953  27.171  24.907  1.00  0.00    -0.038 A 
ATOM     20  C   UNL A   1      33.562  25.675  22.548  1.00  0.00     0.060 A 
ATOM     21  C   UNL A   1      33.830  25.026  23.756  1.00  0.00     0.016 A 
ATOM     22  C   UNL A   1      33.596  27.070  22.501  1.00  0.00     0.016 A 
ATOM     23  C   UNL A   1      34.009  25.767  24.927  1.00  0.00     0.005 A 
ATOM     24  C   UNL A   1      33.838  27.803  23.663  1.00  0.00     0.005 A 
BRANCH  20  25
ATOM     25  C   UNL A   1      33.194  24.846  21.367  1.00  0.00     0.337 C 
ATOM     26  O   UNL A   1      33.578  23.705  21.201  1.00  0.00    -0.246 OA
BRANCH  25  27
ATOM     27  O   UNL A   1      32.324  25.521  20.572  1.00  0.00    -0.465 OA
ATOM     28  C   UNL A   1      32.662  25.495  19.187  1.00  0.00     0.282 C 
ENDBRANCH  25  27
ENDBRANCH  20  25
ENDBRANCH   9  19
BRANCH  14  29
ATOM     29  C   UNL A   1      30.962  28.352  25.559  1.00  0.00     0.091 A 
ATOM     30  C   UNL A   1      30.845  27.110  26.214  1.00  0.00     0.077 A 
ATOM     31  C   UNL A   1      30.289  28.585  24.349  1.00  0.00     0.143 A 
ATOM     32  C   UNL A   1      30.130  26.061  25.643  1.00  0.00     0.121 A 
ATOM     33  C   UNL A   1      29.565  27.512  23.801  1.00  0.00     0.052 A 
ATOM     34  C   UNL A   1      29.497  26.262  24.423  1.00  0.00     0.050 A 
BRANCH  31  35
ATOM     35  O   UNL A   1      30.222  29.664  23.519  1.00  0.00    -0.495 OA
ATOM     36  C   UNL A   1      29.296  29.799  22.456  1.00  0.00     0.278 C 
ENDBRANCH  31  35
BRANCH  32  37
ATOM     37  O   UNL A   1      30.117  24.905  26.369  1.00  0.00    -0.497 OA
ATOM     38  C   UNL A   1      31.376  24.479  26.879  1.00  0.00     0.278 C 
ENDBRANCH  32  37
ENDBRANCH  14  29
ENDBRANCH   5   8
ENDBRANCH   3   4
ENDBRANCH   2   3
ENDBRANCH   1   2
BRANCH   1  39
ATOM     39  C   UNL A   1      37.709  33.719  29.421  1.00  0.00     0.002 C 
BRANCH  39  40
ATOM     40  C   UNL A   1      38.240  32.554  30.272  1.00  0.00     0.021 C 
BRANCH  40  41
ATOM     41  C   UNL A   1      37.130  31.799  30.985  1.00  0.00     0.116 C 
BRANCH  41  42
ATOM     42  N   UNL A   1      36.963  32.296  32.350  1.00  0.00    -0.352 N 
ATOM     43  C   UNL A   1      37.473  31.801  33.526  1.00  0.00     0.251 C 
ATOM     44  H   UNL A   1      36.405  33.102  32.439  1.00  0.00     0.163 HD
ATOM     45  O   UNL A   1      36.983  32.129  34.599  1.00  0.00    -0.269 OA
BRANCH  43  46
ATOM     46  C   UNL A   1      38.609  30.866  33.473  1.00  0.00     0.039 A 
ATOM     47  C   UNL A   1      38.434  29.572  32.980  1.00  0.00     0.014 A 
ATOM     48  C   UNL A   1      39.857  31.304  33.910  1.00  0.00     0.014 A 
ATOM     49  C   UNL A   1      39.544  28.743  32.862  1.00  0.00     0.010 A 
ATOM     50  C   UNL A   1      40.969  30.538  33.670  1.00  0.00     0.010 A 
ATOM     51  C   UNL A   1      40.815  29.240  33.192  1.00  0.00    -0.014 A 
BRANCH  51  52
ATOM     52  C   UNL A   1      42.008  28.444  32.923  1.00  0.00     0.031 A 
ATOM     53  C   UNL A   1      42.401  27.528  34.031  1.00  0.00     0.074 A 
ATOM     54  C   UNL A   1      42.573  28.364  31.700  1.00  0.00     0.049 A 
ATOM     55  N   UNL A   1      43.458  27.582  34.771  1.00  0.00    -0.248 NA
ATOM     56  C   UNL A   1      41.427  26.512  34.467  1.00  0.00     0.031 C 
ATOM     57  C   UNL A   1      42.096  28.946  30.439  1.00  0.00     0.029 A 
ATOM     58  N   UNL A   1      43.648  27.633  31.299  1.00  0.00    -0.354 N 
ATOM     59  C   UNL A   1      43.399  26.468  35.607  1.00  0.00     0.074 A 
ATOM     60  C   UNL A   1      42.051  25.974  35.517  1.00  0.00     0.031 C 
ATOM     61  C   UNL A   1      42.724  28.353  29.401  1.00  0.00     0.029 A 
ATOM     62  C   UNL A   1      43.762  27.483  29.921  1.00  0.00     0.049 A 
ATOM     63  H   UNL A   1      44.292  27.243  31.932  1.00  0.00     0.167 HD
ATOM     64  C   UNL A   1      44.532  25.897  36.107  1.00  0.00     0.037 A 
ATOM     65  C   UNL A   1      44.627  26.672  29.259  1.00  0.00     0.037 A 
ATOM     66  C   UNL A   1      45.659  26.790  35.978  1.00  0.00     0.049 A 
ATOM     67  C   UNL A   1      45.730  26.358  30.204  1.00  0.00     0.074 A 
ATOM     68  C   UNL A   1      45.946  28.064  36.425  1.00  0.00     0.029 A 
ATOM     69  N   UNL A   1      46.553  26.540  34.964  1.00  0.00    -0.354 N 
ATOM     70  N   UNL A   1      46.575  27.245  30.656  1.00  0.00    -0.248 NA
ATOM     71  C   UNL A   1      45.612  25.148  31.002  1.00  0.00     0.031 C 
ATOM     72  C   UNL A   1      46.644  28.684  35.346  1.00  0.00     0.029 A 
ATOM     73  C   UNL A   1      46.807  27.732  34.337  1.00  0.00     0.049 A 
ATOM     74  H   UNL A   1      46.940  25.665  34.731  1.00  0.00     0.167 HD
ATOM     75  C   UNL A   1      46.761  26.910  31.989  1.00  0.00     0.074 A 
ATOM     76  C   UNL A   1      46.220  25.559  32.119  1.00  0.00     0.031 C 
ATOM     77  C   UNL A   1      47.074  27.859  32.921  1.00  0.00     0.037 A 
BRANCH  64  78
ATOM     78  C   UNL A   1      44.715  24.414  36.356  1.00  0.00     0.058 A 
ATOM     79  C   UNL A   1      45.308  23.987  37.564  1.00  0.00     0.135 A 
ATOM     80  C   UNL A   1      44.606  23.422  35.355  1.00  0.00     0.135 A 
ATOM     81  F   UNL A   1      45.462  24.839  38.590  1.00  0.00    -0.206 F 
ATOM     82  C   UNL A   1      45.838  22.706  37.729  1.00  0.00     0.059 A 
ATOM     83  C   UNL A   1      45.077  22.124  35.519  1.00  0.00     0.059 A 
ATOM     84  F   UNL A   1      44.131  23.681  34.132  1.00  0.00    -0.206 F 
ATOM     85  C   UNL A   1      45.734  21.788  36.690  1.00  0.00     0.060 A 
BRANCH  85  86
ATOM     86  S   UNL A   1      46.519  20.175  36.850  1.00  0.00     0.124 S 
ATOM     87  O   UNL A   1      47.879  20.551  37.219  1.00  0.00    -0.237 OA
ATOM     88  O   UNL A   1      45.719  19.553  37.900  1.00  0.00    -0.237 OA
ATOM     89  O   UNL A   1      46.361  19.592  35.521  1.00  0.00    -0.744 OA
ENDBRANCH  85  86
ENDBRANCH  64  78
BRANCH  65  90
ATOM     90  C   UNL A   1      44.394  25.903  28.008  1.00  0.00     0.058 A 
ATOM     91  C   UNL A   1      45.243  26.046  26.897  1.00  0.00     0.135 A 
ATOM     92  C   UNL A   1      43.511  24.803  27.975  1.00  0.00     0.135 A 
ATOM     93  F   UNL A   1      46.128  27.054  26.851  1.00  0.00    -0.206 F 
ATOM     94  C   UNL A   1      45.259  25.124  25.843  1.00  0.00     0.059 A 
ATOM     95  C   UNL A   1      43.501  23.878  26.932  1.00  0.00     0.059 A 
ATOM     96  F   UNL A   1      42.693  24.540  29.005  1.00  0.00    -0.206 F 
ATOM     97  C   UNL A   1      44.398  24.028  25.881  1.00  0.00     0.060 A 
BRANCH  97  98
ATOM     98  S   UNL A   1      44.541  22.738  24.621  1.00  0.00     0.124 S 
ATOM     99  O   UNL A   1      43.178  22.667  24.106  1.00  0.00    -0.237 OA
ATOM    100  O   UNL A   1      45.537  23.298  23.715  1.00  0.00    -0.237 OA
ATOM    101  O   UNL A   1      44.981  21.570  25.382  1.00  0.00    -0.744 OA
ENDBRANCH  97  98
ENDBRANCH  65  90
BRANCH  77 102
ATOM    102  C   UNL A   1      47.529  29.215  32.439  1.00  0.00     0.058 A 
ATOM    103  C   UNL A   1      48.840  29.529  32.038  1.00  0.00     0.135 A 
ATOM    104  C   UNL A   1      46.548  30.197  32.232  1.00  0.00     0.135 A 
ATOM    105  F   UNL A   1      49.819  28.616  32.103  1.00  0.00    -0.206 F 
ATOM    106  C   UNL A   1      49.167  30.774  31.495  1.00  0.00     0.059 A 
ATOM    107  C   UNL A   1      46.844  31.432  31.663  1.00  0.00     0.059 A 
ATOM    108  F   UNL A   1      45.265  29.940  32.537  1.00  0.00    -0.206 F 
ATOM    109  C   UNL A   1      48.159  31.720  31.310  1.00  0.00     0.060 A 
BRANCH 109 110
ATOM    110  S   UNL A   1      48.565  33.304  30.544  1.00  0.00     0.124 S 
ATOM    111  O   UNL A   1      48.539  32.975  29.124  1.00  0.00    -0.237 OA
ATOM    112  O   UNL A   1      47.488  34.171  31.014  1.00  0.00    -0.237 OA
ATOM    113  O   UNL A   1      49.885  33.618  31.087  1.00  0.00    -0.744 OA
ENDBRANCH 109 110
ENDBRANCH  77 102
ENDBRANCH  51  52
ENDBRANCH  43  46
ENDBRANCH  41  42
ENDBRANCH  40  41
ENDBRANCH  39  40
ENDBRANCH   1  39
TORSDOF 22
ENDMDL
MODEL 2
REMARK VINA RESULT:     -10.3      8.963     14.908
REMARK SMILES COC(=O)c1ccc([C@H]2CC(=O)Nc3c(C(=O)NCCCCCCNC(=O)c4ccc(-c5c6nc(c(-c7c(F)cc(S(=O)(=O)[O-])cc7F)c7ccc([nH]7)c(-c7c(F)cc(S(=O)(=O)[O-])cc7F)c7nc(c(-c8c(F)cc(S(=O)(=O)[O-])cc8F)c8ccc5[nH]8)C=C7)C=C6)cc4)cn(-c4cc(OC)ccc4OC)c32)cc1
REMARK SMILES IDX 21 1 20 2 19 3 18 4 16 5 17 6 15 8 9 9 10 10 106 11 11 12
REMARK SMILES IDX 14 13 95 14 12 15 13 16 94 17 8 19 5 20 6 21 108 22 7 23
REMARK SMILES IDX 107 24 3 25 4 26 2 27 1 28 96 29 97 30 103 31 98 32 102 33
REMARK SMILES IDX 101 34 104 35 105 36 99 37 100 38 22 39 23 40 24 41 25 42
REMARK SMILES IDX 26 43 27 45 28 46 29 47 93 48 30 49 92 50 31 51 32 52 33 53
REMARK SMILES IDX 86 54 34 55 91 56 85 57 87 58 35 59 90 60 84 61 83 62 36 64
REMARK SMILES IDX 70 65 49 66 69 67 50 68 53 69 68 70 88 71 51 72 52 73 67 75
REMARK SMILES IDX 89 76 54 77 37 78 38 79 47 80 39 81 40 82 46 83 48 84 41 85
REMARK SMILES IDX 42 86 43 87 44 88 45 89 71 90 72 91 81 92 73 93 74 94 80 95
REMARK SMILES IDX 82 96 75 97 76 98 77 99 78 100 79 101 55 102 56 103 65 104
REMARK SMILES IDX 57 105 58 106 64 107 66 108 59 109 60 110 61 111 62 112
REMARK SMILES IDX 63 113
REMARK H PARENT 18 7 13 18 25 44 87 63 53 74
REMARK Flexibility Score: inf
ROOT
ATOM      1  C   UNL A   1      44.055  40.839  29.581  1.00  0.00     0.002 C 
ENDROOT
BRANCH   1   2
ATOM      2  C   UNL A   1      44.563  39.416  29.829  1.00  0.00     0.021 C 
BRANCH   2   3
ATOM      3  C   UNL A   1      43.889  38.375  28.927  1.00  0.00     0.116 C 
BRANCH   3   4
ATOM      4  N   UNL A   1      44.826  37.865  27.967  1.00  0.00    -0.352 N 
ATOM      5  C   UNL A   1      45.420  38.411  26.871  1.00  0.00     0.254 C 
ATOM      6  O   UNL A   1      46.274  37.692  26.339  1.00  0.00    -0.269 OA
ATOM      7  H   UNL A   1      45.095  36.932  28.137  1.00  0.00     0.163 HD
BRANCH   5   8
ATOM      8  C   UNL A   1      45.124  39.736  26.315  1.00  0.00     0.081 A 
ATOM      9  C   UNL A   1      43.517  42.713  24.662  1.00  0.00     0.078 C 
ATOM     10  C   UNL A   1      42.060  42.230  24.595  1.00  0.00     0.115 C 
ATOM     11  C   UNL A   1      44.428  41.665  25.273  1.00  0.00     0.055 A 
ATOM     12  C   UNL A   1      41.683  41.156  25.574  1.00  0.00     0.225 C 
ATOM     13  C   UNL A   1      43.993  40.496  25.875  1.00  0.00     0.076 A 
ATOM     14  N   UNL A   1      45.813  41.671  25.339  1.00  0.00    -0.314 N 
ATOM     15  O   UNL A   1      40.521  40.990  25.949  1.00  0.00    -0.275 OA
ATOM     16  N   UNL A   1      42.642  40.273  25.963  1.00  0.00    -0.324 N 
ATOM     17  C   UNL A   1      46.200  40.584  26.073  1.00  0.00     0.107 A 
ATOM     18  H   UNL A   1      42.346  39.410  26.334  1.00  0.00     0.170 HD
BRANCH   9  19
ATOM     19  C   UNL A   1      43.868  43.246  23.272  1.00  0.00    -0.038 A 
ATOM     20  C   UNL A   1      44.722  44.243  20.775  1.00  0.00     0.060 A 
ATOM     21  C   UNL A   1      44.760  45.060  21.908  1.00  0.00     0.016 A 
ATOM     22  C   UNL A   1      44.160  42.969  20.871  1.00  0.00     0.016 A 
ATOM     23  C   UNL A   1      44.350  44.561  23.148  1.00  0.00     0.005 A 
ATOM     24  C   UNL A   1      43.694  42.501  22.100  1.00  0.00     0.005 A 
BRANCH  20  25
ATOM     25  C   UNL A   1      45.340  44.750  19.519  1.00  0.00     0.337 C 
ATOM     26  O   UNL A   1      46.410  44.363  19.092  1.00  0.00    -0.246 OA
BRANCH  25  27
ATOM     27  O   UNL A   1      44.504  45.627  18.905  1.00  0.00    -0.465 OA
ATOM     28  C   UNL A   1      45.102  46.886  18.603  1.00  0.00     0.282 C 
ENDBRANCH  25  27
ENDBRANCH  20  25
ENDBRANCH   9  19
BRANCH  14  29
ATOM     29  C   UNL A   1      46.712  42.595  24.771  1.00  0.00     0.091 A 
ATOM     30  C   UNL A   1      47.058  43.699  25.575  1.00  0.00     0.077 A 
ATOM     31  C   UNL A   1      47.202  42.487  23.460  1.00  0.00     0.143 A 
ATOM     32  C   UNL A   1      47.822  44.746  25.067  1.00  0.00     0.121 A 
ATOM     33  C   UNL A   1      47.982  43.551  22.977  1.00  0.00     0.052 A 
ATOM     34  C   UNL A   1      48.276  44.675  23.756  1.00  0.00     0.050 A 
BRANCH  31  35
ATOM     35  O   UNL A   1      47.037  41.550  22.484  1.00  0.00    -0.495 OA
ATOM     36  C   UNL A   1      47.552  41.666  21.169  1.00  0.00     0.278 C 
ENDBRANCH  31  35
BRANCH  32  37
ATOM     37  O   UNL A   1      48.063  45.767  25.942  1.00  0.00    -0.497 OA
ATOM     38  C   UNL A   1      47.637  45.547  27.282  1.00  0.00     0.278 C 
ENDBRANCH  32  37
ENDBRANCH  14  29
ENDBRANCH   5   8
ENDBRANCH   3   4
ENDBRANCH   2   3
ENDBRANCH   1   2
BRANCH   1  39
ATOM     39  C   UNL A   1      43.006  41.324  30.595  1.00  0.00     0.002 C 
BRANCH  39  40
ATOM     40  C   UNL A   1      42.852  40.458  31.856  1.00  0.00     0.021 C 
BRANCH  40  41
ATOM     41  C   UNL A   1      43.644  40.999  33.036  1.00  0.00     0.116 C 
BRANCH  41  42
ATOM     42  N   UNL A   1      44.962  40.371  33.104  1.00  0.00    -0.352 N 
ATOM     43  C   UNL A   1      45.309  39.124  33.567  1.00  0.00     0.251 C 
ATOM     44  H   UNL A   1      45.707  40.920  32.771  1.00  0.00     0.163 HD
ATOM     45  O   UNL A   1      46.473  38.875  33.858  1.00  0.00    -0.269 OA
BRANCH  43  46
ATOM     46  C   UNL A   1      44.263  38.100  33.713  1.00  0.00     0.039 A 
ATOM     47  C   UNL A   1      43.951  37.253  32.647  1.00  0.00     0.014 A 
ATOM     48  C   UNL A   1      43.603  37.986  34.935  1.00  0.00     0.014 A 
ATOM     49  C   UNL A   1      43.020  36.240  32.845  1.00  0.00     0.010 A 
ATOM     50  C   UNL A   1      42.787  36.909  35.170  1.00  0.00     0.010 A 
ATOM     51  C   UNL A   1      42.454  36.062  34.117  1.00  0.00    -0.014 A 
BRANCH  51  52
ATOM     52  C   UNL A   1      41.600  34.909  34.387  1.00  0.00     0.031 A 
ATOM     53  C   UNL A   1      42.062  33.639  33.759  1.00  0.00     0.074 A 
ATOM     54  C   UNL A   1      40.614  34.929  35.308  1.00  0.00     0.049 A 
ATOM     55  N   UNL A   1      41.488  32.961  32.821  1.00  0.00    -0.248 NA
ATOM     56  C   UNL A   1      43.400  33.138  34.115  1.00  0.00     0.031 C 
ATOM     57  C   UNL A   1      40.264  36.008  36.241  1.00  0.00     0.029 A 
ATOM     58  N   UNL A   1      39.779  33.927  35.692  1.00  0.00    -0.354 N 
ATOM     59  C   UNL A   1      42.272  31.823  32.636  1.00  0.00     0.074 A 
ATOM     60  C   UNL A   1      43.519  32.087  33.300  1.00  0.00     0.031 C 
ATOM     61  C   UNL A   1      39.476  35.520  37.223  1.00  0.00     0.029 A 
ATOM     62  C   UNL A   1      39.124  34.150  36.898  1.00  0.00     0.049 A 
ATOM     63  H   UNL A   1      39.649  33.110  35.158  1.00  0.00     0.167 HD
ATOM     64  C   UNL A   1      41.734  30.661  32.166  1.00  0.00     0.037 A 
ATOM     65  C   UNL A   1      38.375  33.258  37.596  1.00  0.00     0.037 A 
ATOM     66  C   UNL A   1      40.443  30.897  31.565  1.00  0.00     0.049 A 
ATOM     67  C   UNL A   1      37.974  32.193  36.640  1.00  0.00     0.074 A 
ATOM     68  C   UNL A   1      39.983  31.684  30.527  1.00  0.00     0.029 A 
ATOM     69  N   UNL A   1      39.330  30.558  32.298  1.00  0.00    -0.354 N 
ATOM     70  N   UNL A   1      37.178  32.389  35.624  1.00  0.00    -0.248 NA
ATOM     71  C   UNL A   1      38.822  31.015  36.546  1.00  0.00     0.031 C 
ATOM     72  C   UNL A   1      38.721  32.177  30.972  1.00  0.00     0.029 A 
ATOM     73  C   UNL A   1      38.451  31.606  32.217  1.00  0.00     0.049 A 
ATOM     74  H   UNL A   1      39.191  29.717  32.789  1.00  0.00     0.167 HD
ATOM     75  C   UNL A   1      37.722  31.634  34.596  1.00  0.00     0.074 A 
ATOM     76  C   UNL A   1      38.674  30.737  35.248  1.00  0.00     0.031 C 
ATOM     77  C   UNL A   1      37.560  31.997  33.288  1.00  0.00     0.037 A 
BRANCH  64  78
ATOM     78  C   UNL A   1      42.178  29.274  32.582  1.00  0.00     0.058 A 
ATOM     79  C   UNL A   1      42.185  28.937  33.954  1.00  0.00     0.135 A 
ATOM     80  C   UNL A   1      42.865  28.373  31.737  1.00  0.00     0.135 A 
ATOM     81  F   UNL A   1      41.562  29.714  34.853  1.00  0.00    -0.206 F 
ATOM     82  C   UNL A   1      42.899  27.847  34.455  1.00  0.00     0.059 A 
ATOM     83  C   UNL A   1      43.535  27.250  32.210  1.00  0.00     0.059 A 
ATOM     84  F   UNL A   1      43.008  28.584  30.424  1.00  0.00    -0.206 F 
ATOM     85  C   UNL A   1      43.588  27.021  33.574  1.00  0.00     0.060 A 
BRANCH  85  86
ATOM     86  S   UNL A   1      44.606  25.685  34.222  1.00  0.00     0.124 S 
ATOM     87  O   UNL A   1      45.800  25.803  33.393  1.00  0.00    -0.237 OA
ATOM     88  O   UNL A   1      44.757  26.072  35.621  1.00  0.00    -0.237 OA
ATOM     89  O   UNL A   1      43.789  24.498  33.991  1.00  0.00    -0.744 OA
ENDBRANCH  85  86
ENDBRANCH  64  78
BRANCH  65  90
ATOM     90  C   UNL A   1      38.269  33.099  39.070  1.00  0.00     0.058 A 
ATOM     91  C   UNL A   1      37.052  32.748  39.679  1.00  0.00     0.135 A 
ATOM     92  C   UNL A   1      39.418  33.004  39.884  1.00  0.00     0.135 A 
ATOM     93  F   UNL A   1      35.910  32.792  38.975  1.00  0.00    -0.206 F 
ATOM     94  C   UNL A   1      36.981  32.276  40.995  1.00  0.00     0.059 A 
ATOM     95  C   UNL A   1      39.371  32.546  41.200  1.00  0.00     0.059 A 
ATOM     96  F   UNL A   1      40.639  33.263  39.392  1.00  0.00    -0.206 F 
ATOM     97  C   UNL A   1      38.153  32.157  41.742  1.00  0.00     0.060 A 
BRANCH  97  98
ATOM     98  S   UNL A   1      38.095  31.376  43.373  1.00  0.00     0.124 S 
ATOM     99  O   UNL A   1      39.502  31.377  43.758  1.00  0.00    -0.237 OA
ATOM    100  O   UNL A   1      37.229  32.282  44.119  1.00  0.00    -0.237 OA
ATOM    101  O   UNL A   1      37.525  30.059  43.098  1.00  0.00    -0.744 OA
ENDBRANCH  97  98
ENDBRANCH  65  90
BRANCH  77 102
ATOM    102  C   UNL A   1      36.523  33.041  32.956  1.00  0.00     0.058 A 
ATOM    103  C   UNL A   1      36.725  34.431  33.042  1.00  0.00     0.135 A 
ATOM    104  C   UNL A   1      35.320  32.608  32.377  1.00  0.00     0.135 A 
ATOM    105  F   UNL A   1      37.885  34.935  33.485  1.00  0.00    -0.206 F 
ATOM    106  C   UNL A   1      35.760  35.344  32.610  1.00  0.00     0.059 A 
ATOM    107  C   UNL A   1      34.359  33.498  31.911  1.00  0.00     0.059 A 
ATOM    108  F   UNL A   1      35.091  31.295  32.210  1.00  0.00    -0.206 F 
ATOM    109  C   UNL A   1      34.578  34.866  32.043  1.00  0.00     0.060 A 
BRANCH 109 110
ATOM    110  S   UNL A   1      33.359  36.044  31.421  1.00  0.00     0.124 S 
ATOM    111  O   UNL A   1      33.568  35.971  29.980  1.00  0.00    -0.237 OA
ATOM    112  O   UNL A   1      32.099  35.486  31.908  1.00  0.00    -0.237 OA
ATOM    113  O   UNL A   1      33.752  37.305  32.045  1.00  0.00    -0.744 OA
ENDBRANCH 109 110
ENDBRANCH  77 102
ENDBRANCH  51  52
ENDBRANCH  43  46
ENDBRANCH  41  42
ENDBRANCH  40  41
ENDBRANCH  39  40
ENDBRANCH   1  39
TORSDOF 22
ENDMDL
MODEL 3
REMARK VINA RESULT:      -9.7      5.826     12.036
REMARK SMILES COC(=O)c1ccc([C@H]2CC(=O)Nc3c(C(=O)NCCCCCCNC(=O)c4ccc(-c5c6nc(c(-c7c(F)cc(S(=O)(=O)[O-])cc7F)c7ccc([nH]7)c(-c7c(F)cc(S(=O)(=O)[O-])cc7F)c7nc(c(-c8c(F)cc(S(=O)(=O)[O-])cc8F)c8ccc5[nH]8)C=C7)C=C6)cc4)cn(-c4cc(OC)ccc4OC)c32)cc1
REMARK SMILES IDX 21 1 20 2 19 3 18 4 16 5 17 6 15 8 9 9 10 10 106 11 11 12
REMARK SMILES IDX 14 13 95 14 12 15 13 16 94 17 8 19 5 20 6 21 108 22 7 23
REMARK SMILES IDX 107 24 3 25 4 26 2 27 1 28 96 29 97 30 103 31 98 32 102 33
REMARK SMILES IDX 101 34 104 35 105 36 99 37 100 38 22 39 23 40 24 41 25 42
REMARK SMILES IDX 26 43 27 45 28 46 29 47 93 48 30 49 92 50 31 51 32 52 33 53
REMARK SMILES IDX 86 54 34 55 91 56 85 57 87 58 35 59 90 60 84 61 83 62 36 64
REMARK SMILES IDX 70 65 49 66 69 67 50 68 53 69 68 70 88 71 51 72 52 73 67 75
REMARK SMILES IDX 89 76 54 77 37 78 38 79 47 80 39 81 40 82 46 83 48 84 41 85
REMARK SMILES IDX 42 86 43 87 44 88 45 89 71 90 72 91 81 92 73 93 74 94 80 95
REMARK SMILES IDX 82 96 75 97 76 98 77 99 78 100 79 101 55 102 56 103 65 104
REMARK SMILES IDX 57 105 58 106 64 107 66 108 59 109 60 110 61 111 62 112
REMARK SMILES IDX 63 113
REMARK H PARENT 18 7 13 18 25 44 87 63 53 74
REMARK Flexibility Score: inf
ROOT
ATOM      1  C   UNL A   1      37.095  32.524  33.969  1.00  0.00     0.002 C 
ENDROOT
BRANCH   1   2
ATOM      2  C   UNL A   1      38.486  32.073  34.424  1.00  0.00     0.021 C 
BRANCH   2   3
ATOM      3  C   UNL A   1      38.665  32.131  35.946  1.00  0.00     0.116 C 
BRANCH   3   4
ATOM      4  N   UNL A   1      39.299  33.361  36.328  1.00  0.00    -0.352 N 
ATOM      5  C   UNL A   1      39.590  33.918  37.535  1.00  0.00     0.254 C 
ATOM      6  O   UNL A   1      40.254  34.958  37.473  1.00  0.00    -0.269 OA
ATOM      7  H   UNL A   1      39.582  33.912  35.562  1.00  0.00     0.163 HD
BRANCH   5   8
ATOM      8  C   UNL A   1      39.185  33.379  38.839  1.00  0.00     0.081 A 
ATOM      9  C   UNL A   1      37.271  32.322  41.905  1.00  0.00     0.078 C 
ATOM     10  C   UNL A   1      35.832  32.480  41.391  1.00  0.00     0.115 C 
ATOM     11  C   UNL A   1      38.289  32.725  40.854  1.00  0.00     0.055 A 
ATOM     12  C   UNL A   1      35.663  32.442  39.900  1.00  0.00     0.225 C 
ATOM     13  C   UNL A   1      37.987  33.016  39.534  1.00  0.00     0.076 A 
ATOM     14  N   UNL A   1      39.658  32.879  41.006  1.00  0.00    -0.314 N 
ATOM     15  O   UNL A   1      34.602  32.110  39.369  1.00  0.00    -0.275 OA
ATOM     16  N   UNL A   1      36.683  32.901  39.124  1.00  0.00    -0.324 N 
ATOM     17  C   UNL A   1      40.188  33.142  39.773  1.00  0.00     0.107 A 
ATOM     18  H   UNL A   1      36.469  33.171  38.202  1.00  0.00     0.170 HD
BRANCH   9  19
ATOM     19  C   UNL A   1      37.331  33.018  43.266  1.00  0.00    -0.038 A 
ATOM     20  C   UNL A   1      37.651  34.241  45.788  1.00  0.00     0.060 A 
ATOM     21  C   UNL A   1      37.708  32.849  45.668  1.00  0.00     0.016 A 
ATOM     22  C   UNL A   1      37.329  35.009  44.667  1.00  0.00     0.016 A 
ATOM     23  C   UNL A   1      37.563  32.246  44.416  1.00  0.00     0.005 A 
ATOM     24  C   UNL A   1      37.124  34.392  43.432  1.00  0.00     0.005 A 
BRANCH  20  25
ATOM     25  C   UNL A   1      37.995  34.852  47.101  1.00  0.00     0.337 C 
ATOM     26  O   UNL A   1      37.865  36.035  47.347  1.00  0.00    -0.246 OA
BRANCH  25  27
ATOM     27  O   UNL A   1      38.388  33.891  47.977  1.00  0.00    -0.465 OA
ATOM     28  C   UNL A   1      39.801  33.813  48.158  1.00  0.00     0.282 C 
ENDBRANCH  25  27
ENDBRANCH  20  25
ENDBRANCH   9  19
BRANCH  14  29
ATOM     29  C   UNL A   1      40.422  32.800  42.187  1.00  0.00     0.091 A 
ATOM     30  C   UNL A   1      40.754  31.502  42.626  1.00  0.00     0.077 A 
ATOM     31  C   UNL A   1      40.790  33.923  42.944  1.00  0.00     0.143 A 
ATOM     32  C   UNL A   1      41.380  31.297  43.852  1.00  0.00     0.121 A 
ATOM     33  C   UNL A   1      41.432  33.687  44.172  1.00  0.00     0.052 A 
ATOM     34  C   UNL A   1      41.709  32.396  44.633  1.00  0.00     0.050 A 
BRANCH  31  35
ATOM     35  O   UNL A   1      40.607  35.262  42.764  1.00  0.00    -0.495 OA
ATOM     36  C   UNL A   1      41.367  36.060  41.873  1.00  0.00     0.278 C 
ENDBRANCH  31  35
BRANCH  32  37
ATOM     37  O   UNL A   1      41.622  29.990  44.168  1.00  0.00    -0.497 OA
ATOM     38  C   UNL A   1      41.401  29.630  45.527  1.00  0.00     0.278 C 
ENDBRANCH  32  37
ENDBRANCH  14  29
ENDBRANCH   5   8
ENDBRANCH   3   4
ENDBRANCH   2   3
ENDBRANCH   1   2
BRANCH   1  39
ATOM     39  C   UNL A   1      36.632  31.907  32.640  1.00  0.00     0.002 C 
BRANCH  39  40
ATOM     40  C   UNL A   1      35.142  32.092  32.305  1.00  0.00     0.021 C 
BRANCH  40  41
ATOM     41  C   UNL A   1      34.915  33.096  31.187  1.00  0.00     0.116 C 
BRANCH  41  42
ATOM     42  N   UNL A   1      34.151  32.491  30.098  1.00  0.00    -0.352 N 
ATOM     43  C   UNL A   1      34.600  31.823  28.984  1.00  0.00     0.251 C 
ATOM     44  H   UNL A   1      33.173  32.574  30.174  1.00  0.00     0.163 HD
ATOM     45  O   UNL A   1      33.864  31.667  28.018  1.00  0.00    -0.269 OA
BRANCH  43  46
ATOM     46  C   UNL A   1      35.978  31.308  28.969  1.00  0.00     0.039 A 
ATOM     47  C   UNL A   1      37.060  32.189  28.934  1.00  0.00     0.014 A 
ATOM     48  C   UNL A   1      36.178  29.929  29.005  1.00  0.00     0.014 A 
ATOM     49  C   UNL A   1      38.349  31.673  29.009  1.00  0.00     0.010 A 
ATOM     50  C   UNL A   1      37.438  29.429  29.214  1.00  0.00     0.010 A 
ATOM     51  C   UNL A   1      38.531  30.290  29.168  1.00  0.00    -0.014 A 
BRANCH  51  52
ATOM     52  C   UNL A   1      39.863  29.747  29.411  1.00  0.00     0.031 A 
ATOM     53  C   UNL A   1      40.188  29.527  30.848  1.00  0.00     0.074 A 
ATOM     54  C   UNL A   1      40.647  29.265  28.423  1.00  0.00     0.049 A 
ATOM     55  N   UNL A   1      41.071  30.137  31.567  1.00  0.00    -0.248 NA
ATOM     56  C   UNL A   1      39.324  28.617  31.620  1.00  0.00     0.031 C 
ATOM     57  C   UNL A   1      40.322  29.109  26.999  1.00  0.00     0.029 A 
ATOM     58  N   UNL A   1      41.879  28.695  28.507  1.00  0.00    -0.354 N 
ATOM     59  C   UNL A   1      41.038  29.523  32.818  1.00  0.00     0.074 A 
ATOM     60  C   UNL A   1      39.824  28.752  32.851  1.00  0.00     0.031 C 
ATOM     61  C   UNL A   1      41.214  28.276  26.420  1.00  0.00     0.029 A 
ATOM     62  C   UNL A   1      42.264  27.982  27.376  1.00  0.00     0.049 A 
ATOM     63  H   UNL A   1      42.450  28.779  29.304  1.00  0.00     0.167 HD
ATOM     64  C   UNL A   1      42.136  29.502  33.626  1.00  0.00     0.037 A 
ATOM     65  C   UNL A   1      43.352  27.181  27.251  1.00  0.00     0.037 A 
ATOM     66  C   UNL A   1      43.112  30.473  33.194  1.00  0.00     0.049 A 
ATOM     67  C   UNL A   1      44.301  27.571  28.326  1.00  0.00     0.074 A 
ATOM     68  C   UNL A   1      43.108  31.843  33.015  1.00  0.00     0.029 A 
ATOM     69  N   UNL A   1      44.204  30.010  32.499  1.00  0.00    -0.354 N 
ATOM     70  N   UNL A   1      44.898  28.731  28.384  1.00  0.00    -0.248 NA
ATOM     71  C   UNL A   1      44.232  26.844  29.585  1.00  0.00     0.031 C 
ATOM     72  C   UNL A   1      43.883  32.063  31.839  1.00  0.00     0.029 A 
ATOM     73  C   UNL A   1      44.376  30.828  31.412  1.00  0.00     0.049 A 
ATOM     74  H   UNL A   1      44.760  29.234  32.738  1.00  0.00     0.167 HD
ATOM     75  C   UNL A   1      44.889  29.069  29.729  1.00  0.00     0.074 A 
ATOM     76  C   UNL A   1      44.554  27.830  30.428  1.00  0.00     0.031 C 
ATOM     77  C   UNL A   1      44.873  30.374  30.131  1.00  0.00     0.037 A 
BRANCH  64  78
ATOM     78  C   UNL A   1      42.503  28.363  34.555  1.00  0.00     0.058 A 
ATOM     79  C   UNL A   1      42.765  28.642  35.915  1.00  0.00     0.135 A 
ATOM     80  C   UNL A   1      42.891  27.075  34.119  1.00  0.00     0.135 A 
ATOM     81  F   UNL A   1      42.437  29.831  36.445  1.00  0.00    -0.206 F 
ATOM     82  C   UNL A   1      43.444  27.750  36.747  1.00  0.00     0.059 A 
ATOM     83  C   UNL A   1      43.518  26.151  34.947  1.00  0.00     0.059 A 
ATOM     84  F   UNL A   1      42.774  26.681  32.847  1.00  0.00    -0.206 F 
ATOM     85  C   UNL A   1      43.835  26.514  36.245  1.00  0.00     0.060 A 
BRANCH  85  86
ATOM     86  S   UNL A   1      44.814  25.408  37.274  1.00  0.00     0.124 S 
ATOM     87  O   UNL A   1      43.959  25.272  38.447  1.00  0.00    -0.237 OA
ATOM     88  O   UNL A   1      44.930  24.227  36.424  1.00  0.00    -0.237 OA
ATOM     89  O   UNL A   1      46.055  26.150  37.478  1.00  0.00    -0.744 OA
ENDBRANCH  85  86
ENDBRANCH  64  78
BRANCH  65  90
ATOM     90  C   UNL A   1      43.476  25.908  26.491  1.00  0.00     0.058 A 
ATOM     91  C   UNL A   1      44.401  25.775  25.440  1.00  0.00     0.135 A 
ATOM     92  C   UNL A   1      42.898  24.711  26.963  1.00  0.00     0.135 A 
ATOM     93  F   UNL A   1      45.012  26.860  24.940  1.00  0.00    -0.206 F 
ATOM     94  C   UNL A   1      44.775  24.528  24.926  1.00  0.00     0.059 A 
ATOM     95  C   UNL A   1      43.248  23.458  26.460  1.00  0.00     0.059 A 
ATOM     96  F   UNL A   1      42.044  24.715  27.996  1.00  0.00    -0.206 F 
ATOM     97  C   UNL A   1      44.208  23.371  25.459  1.00  0.00     0.060 A 
BRANCH  97  98
ATOM     98  S   UNL A   1      44.821  21.752  24.931  1.00  0.00     0.124 S 
ATOM     99  O   UNL A   1      44.747  21.861  23.478  1.00  0.00    -0.237 OA
ATOM    100  O   UNL A   1      46.163  21.728  25.502  1.00  0.00    -0.237 OA
ATOM    101  O   UNL A   1      43.873  20.819  25.536  1.00  0.00    -0.744 OA
ENDBRANCH  97  98
ENDBRANCH  65  90
BRANCH  77 102
ATOM    102  C   UNL A   1      45.187  31.443  29.113  1.00  0.00     0.058 A 
ATOM    103  C   UNL A   1      46.483  31.820  28.716  1.00  0.00     0.135 A 
ATOM    104  C   UNL A   1      44.115  31.999  28.398  1.00  0.00     0.135 A 
ATOM    105  F   UNL A   1      47.566  31.262  29.273  1.00  0.00    -0.206 F 
ATOM    106  C   UNL A   1      46.700  32.737  27.685  1.00  0.00     0.059 A 
ATOM    107  C   UNL A   1      44.308  32.890  27.346  1.00  0.00     0.059 A 
ATOM    108  F   UNL A   1      42.855  31.635  28.685  1.00  0.00    -0.206 F 
ATOM    109  C   UNL A   1      45.604  33.267  27.004  1.00  0.00     0.060 A 
BRANCH 109 110
ATOM    110  S   UNL A   1      45.884  34.399  25.626  1.00  0.00     0.124 S 
ATOM    111  O   UNL A   1      45.484  35.681  26.194  1.00  0.00    -0.237 OA
ATOM    112  O   UNL A   1      47.312  34.238  25.366  1.00  0.00    -0.237 OA
ATOM    113  O   UNL A   1      45.009  33.883  24.576  1.00  0.00    -0.744 OA
ENDBRANCH 109 110
ENDBRANCH  77 102
ENDBRANCH  51  52
ENDBRANCH  43  46
ENDBRANCH  41  42
ENDBRANCH  40  41
ENDBRANCH  39  40
ENDBRANCH   1  39
TORSDOF 22
ENDMDL
