MODEL 1
REMARK VINA RESULT:     -13.2      0.000      0.000
REMARK SMILES Cc1ccc(O[C@H](C)C(=O)Nc2ccsc2C(=O)NCCCCCCNC(=O)c2ccc(-c3c4nc(c(-c5c(F)cc(S(=O)(=O)[O-])cc5F)c5ccc([nH]5)c(-c5c(F)cc(S(=O)(=O)[O-])cc5F)c5nc(c(-c6c(F)cc(S(=O)(=O)[O-])cc6F)c6ccc3[nH]6)C=C5)C=C4)cc2)cc1
REMARK SMILES IDX 22 1 21 2 20 3 19 4 17 5 18 6 16 8 12 9 13 10 14 11 15 12
REMARK SMILES IDX 11 13 9 14 10 15 7 17 8 18 6 19 5 20 1 21 2 22 3 23 96 24
REMARK SMILES IDX 4 25 95 26 23 27 24 28 25 29 26 30 27 31 28 33 29 34 30 35
REMARK SMILES IDX 94 36 31 37 93 38 32 39 33 40 34 41 87 42 35 43 92 44 86 45
REMARK SMILES IDX 88 46 36 47 91 48 85 49 84 50 37 52 71 53 50 54 70 55 51 56
REMARK SMILES IDX 54 57 69 58 89 59 52 60 53 61 68 63 90 64 55 65 38 66 39 67
REMARK SMILES IDX 48 68 40 69 41 70 47 71 49 72 42 73 43 74 44 75 45 76 46 77
REMARK SMILES IDX 72 78 73 79 82 80 74 81 75 82 81 83 83 84 76 85 77 86 78 87
REMARK SMILES IDX 79 88 80 89 56 90 57 91 66 92 58 93 59 94 65 95 67 96 60 97
REMARK SMILES IDX 61 98 62 99 63 100 64 101
REMARK H PARENT 19 7 11 16 26 32 88 51 54 62
REMARK Flexibility Score: inf
ROOT
ATOM      1  C   UNL A   1      32.183  27.654  26.269  1.00  0.00     0.002 C 
ENDROOT
BRANCH   1   2
ATOM      2  C   UNL A   1      31.640  26.226  26.155  1.00  0.00     0.021 C 
BRANCH   2   3
ATOM      3  C   UNL A   1      32.633  25.067  26.157  1.00  0.00     0.116 C 
BRANCH   3   4
ATOM      4  N   UNL A   1      32.425  24.051  27.160  1.00  0.00    -0.351 N 
ATOM      5  C   UNL A   1      33.058  22.846  27.385  1.00  0.00     0.263 C 
ATOM      6  O   UNL A   1      32.636  22.239  28.377  1.00  0.00    -0.268 OA
ATOM      7  H   UNL A   1      31.705  24.254  27.798  1.00  0.00     0.163 HD
BRANCH   5   8
ATOM      8  C   UNL A   1      34.118  22.294  26.528  1.00  0.00     0.115 A 
ATOM      9  C   UNL A   1      34.408  21.054  25.963  1.00  0.00     0.065 A 
ATOM     10  C   UNL A   1      35.588  21.091  25.152  1.00  0.00     0.038 A 
ATOM     11  C   UNL A   1      36.217  22.309  25.166  1.00  0.00     0.068 A 
ATOM     12  S   UNL A   1      35.369  23.435  26.110  1.00  0.00    -0.137 S 
BRANCH   9  13
ATOM     13  N   UNL A   1      33.606  19.932  26.053  1.00  0.00    -0.321 N 
ATOM     14  C   UNL A   1      32.799  19.367  25.097  1.00  0.00     0.265 C 
ATOM     15  O   UNL A   1      32.212  18.323  25.415  1.00  0.00    -0.270 OA
ATOM     16  H   UNL A   1      33.615  19.474  26.925  1.00  0.00     0.170 HD
BRANCH  14  17
ATOM     17  C   UNL A   1      32.619  19.954  23.672  1.00  0.00     0.259 C 
ATOM     18  C   UNL A   1      32.348  18.781  22.741  1.00  0.00     0.064 C 
BRANCH  17  19
ATOM     19  O   UNL A   1      31.784  21.102  23.701  1.00  0.00    -0.481 OA
BRANCH  19  20
ATOM     20  C   UNL A   1      32.070  22.385  23.369  1.00  0.00     0.120 A 
ATOM     21  C   UNL A   1      32.290  26.470  21.952  1.00  0.00     0.044 C 
ATOM     22  C   UNL A   1      32.218  25.080  22.505  1.00  0.00    -0.051 A 
ATOM     23  C   UNL A   1      33.333  24.239  22.446  1.00  0.00     0.007 A 
ATOM     24  C   UNL A   1      31.030  24.571  23.030  1.00  0.00     0.007 A 
ATOM     25  C   UNL A   1      33.262  22.909  22.887  1.00  0.00     0.047 A 
ATOM     26  C   UNL A   1      30.963  23.240  23.454  1.00  0.00     0.047 A 
ENDBRANCH  19  20
ENDBRANCH  17  19
ENDBRANCH  14  17
ENDBRANCH   9  13
ENDBRANCH   5   8
ENDBRANCH   3   4
ENDBRANCH   2   3
ENDBRANCH   1   2
BRANCH   1  27
ATOM     27  C   UNL A   1      33.651  27.936  25.920  1.00  0.00     0.002 C 
BRANCH  27  28
ATOM     28  C   UNL A   1      34.197  29.344  26.148  1.00  0.00     0.021 C 
BRANCH  28  29
ATOM     29  C   UNL A   1      34.371  29.756  27.605  1.00  0.00     0.116 C 
BRANCH  29  30
ATOM     30  N   UNL A   1      35.156  30.977  27.762  1.00  0.00    -0.352 N 
ATOM     31  C   UNL A   1      36.483  31.095  28.143  1.00  0.00     0.251 C 
ATOM     32  H   UNL A   1      34.684  31.820  27.575  1.00  0.00     0.163 HD
ATOM     33  O   UNL A   1      37.001  32.168  28.398  1.00  0.00    -0.269 OA
BRANCH  31  34
ATOM     34  C   UNL A   1      37.287  29.857  28.127  1.00  0.00     0.039 A 
ATOM     35  C   UNL A   1      37.273  29.072  29.286  1.00  0.00     0.014 A 
ATOM     36  C   UNL A   1      38.245  29.672  27.135  1.00  0.00     0.014 A 
ATOM     37  C   UNL A   1      38.348  28.232  29.551  1.00  0.00     0.010 A 
ATOM     38  C   UNL A   1      39.349  28.900  27.436  1.00  0.00     0.010 A 
ATOM     39  C   UNL A   1      39.426  28.230  28.669  1.00  0.00    -0.014 A 
BRANCH  39  40
ATOM     40  C   UNL A   1      40.714  27.621  28.972  1.00  0.00     0.031 A 
ATOM     41  C   UNL A   1      40.933  26.190  28.685  1.00  0.00     0.074 A 
ATOM     42  C   UNL A   1      41.736  28.399  29.389  1.00  0.00     0.049 A 
ATOM     43  N   UNL A   1      41.939  25.496  29.102  1.00  0.00    -0.248 NA
ATOM     44  C   UNL A   1      39.957  25.395  27.950  1.00  0.00     0.031 C 
ATOM     45  C   UNL A   1      43.158  28.075  29.369  1.00  0.00     0.029 A 
ATOM     46  N   UNL A   1      41.655  29.575  30.138  1.00  0.00    -0.354 N 
ATOM     47  C   UNL A   1      41.914  24.287  28.442  1.00  0.00     0.074 A 
ATOM     48  C   UNL A   1      40.599  24.228  27.856  1.00  0.00     0.031 C 
ATOM     49  C   UNL A   1      43.796  28.858  30.252  1.00  0.00     0.029 A 
ATOM     50  C   UNL A   1      42.777  29.585  30.990  1.00  0.00     0.049 A 
ATOM     51  H   UNL A   1      40.954  30.263  30.081  1.00  0.00     0.167 HD
ATOM     52  C   UNL A   1      43.076  23.576  28.343  1.00  0.00     0.037 A 
ATOM     53  C   UNL A   1      42.629  29.529  32.347  1.00  0.00     0.037 A 
ATOM     54  C   UNL A   1      44.074  24.097  29.289  1.00  0.00     0.049 A 
ATOM     55  C   UNL A   1      43.261  28.313  32.986  1.00  0.00     0.074 A 
ATOM     56  C   UNL A   1      45.204  24.885  29.145  1.00  0.00     0.029 A 
ATOM     57  N   UNL A   1      43.799  24.063  30.658  1.00  0.00    -0.354 N 
ATOM     58  N   UNL A   1      43.589  27.230  32.336  1.00  0.00    -0.248 NA
ATOM     59  C   UNL A   1      43.583  28.226  34.407  1.00  0.00     0.031 C 
ATOM     60  C   UNL A   1      45.550  25.401  30.423  1.00  0.00     0.029 A 
ATOM     61  C   UNL A   1      44.650  24.902  31.351  1.00  0.00     0.049 A 
ATOM     62  H   UNL A   1      43.093  23.516  31.072  1.00  0.00     0.167 HD
ATOM     63  C   UNL A   1      44.129  26.314  33.204  1.00  0.00     0.074 A 
ATOM     64  C   UNL A   1      44.127  26.998  34.485  1.00  0.00     0.031 C 
ATOM     65  C   UNL A   1      44.531  25.071  32.797  1.00  0.00     0.037 A 
BRANCH  52  66
ATOM     66  C   UNL A   1      43.410  22.639  27.177  1.00  0.00     0.058 A 
ATOM     67  C   UNL A   1      42.713  21.417  27.014  1.00  0.00     0.135 A 
ATOM     68  C   UNL A   1      44.473  22.803  26.263  1.00  0.00     0.135 A 
ATOM     69  F   UNL A   1      41.619  21.135  27.734  1.00  0.00    -0.206 F 
ATOM     70  C   UNL A   1      43.110  20.414  26.116  1.00  0.00     0.059 A 
ATOM     71  C   UNL A   1      44.903  21.812  25.375  1.00  0.00     0.059 A 
ATOM     72  F   UNL A   1      45.146  23.948  26.142  1.00  0.00    -0.206 F 
ATOM     73  C   UNL A   1      44.230  20.607  25.322  1.00  0.00     0.060 A 
BRANCH  73  74
ATOM     74  S   UNL A   1      44.788  19.295  24.220  1.00  0.00     0.124 S 
ATOM     75  O   UNL A   1      44.569  19.887  22.904  1.00  0.00    -0.237 OA
ATOM     76  O   UNL A   1      46.180  19.128  24.622  1.00  0.00    -0.237 OA
ATOM     77  O   UNL A   1      43.907  18.176  24.548  1.00  0.00    -0.744 OA
ENDBRANCH  73  74
ENDBRANCH  52  66
BRANCH  53  78
ATOM     78  C   UNL A   1      41.413  30.242  32.829  1.00  0.00     0.058 A 
ATOM     79  C   UNL A   1      40.281  29.460  33.132  1.00  0.00     0.135 A 
ATOM     80  C   UNL A   1      41.488  31.521  33.399  1.00  0.00     0.135 A 
ATOM     81  F   UNL A   1      40.152  28.232  32.601  1.00  0.00    -0.206 F 
ATOM     82  C   UNL A   1      39.352  29.854  34.089  1.00  0.00     0.059 A 
ATOM     83  C   UNL A   1      40.558  31.943  34.354  1.00  0.00     0.059 A 
ATOM     84  F   UNL A   1      42.539  32.313  33.146  1.00  0.00    -0.206 F 
ATOM     85  C   UNL A   1      39.538  31.071  34.740  1.00  0.00     0.060 A 
BRANCH  85  86
ATOM     86  S   UNL A   1      38.542  31.391  36.217  1.00  0.00     0.124 S 
ATOM     87  O   UNL A   1      39.499  32.068  37.086  1.00  0.00    -0.237 OA
ATOM     88  O   UNL A   1      37.475  32.231  35.677  1.00  0.00    -0.237 OA
ATOM     89  O   UNL A   1      38.136  30.057  36.644  1.00  0.00    -0.744 OA
ENDBRANCH  85  86
ENDBRANCH  53  78
BRANCH  65  90
ATOM     90  C   UNL A   1      44.947  23.931  33.704  1.00  0.00     0.058 A 
ATOM     91  C   UNL A   1      44.066  22.963  34.220  1.00  0.00     0.135 A 
ATOM     92  C   UNL A   1      46.320  23.702  33.983  1.00  0.00     0.135 A 
ATOM     93  F   UNL A   1      42.758  22.984  33.927  1.00  0.00    -0.206 F 
ATOM     94  C   UNL A   1      44.497  21.900  35.019  1.00  0.00     0.059 A 
ATOM     95  C   UNL A   1      46.776  22.616  34.727  1.00  0.00     0.059 A 
ATOM     96  F   UNL A   1      47.274  24.525  33.524  1.00  0.00    -0.206 F 
ATOM     97  C   UNL A   1      45.855  21.734  35.268  1.00  0.00     0.060 A 
BRANCH  97  98
ATOM     98  S   UNL A   1      46.429  20.329  36.241  1.00  0.00     0.124 S 
ATOM     99  O   UNL A   1      45.924  20.667  37.568  1.00  0.00    -0.237 OA
ATOM    100  O   UNL A   1      45.779  19.195  35.591  1.00  0.00    -0.237 OA
ATOM    101  O   UNL A   1      47.878  20.385  36.081  1.00  0.00    -0.744 OA
ENDBRANCH  97  98
ENDBRANCH  65  90
ENDBRANCH  39  40
ENDBRANCH  31  34
ENDBRANCH  29  30
ENDBRANCH  28  29
ENDBRANCH  27  28
ENDBRANCH   1  27
TORSDOF 20
ENDMDL
MODEL 2
REMARK VINA RESULT:     -13.1      1.405      2.981
REMARK SMILES Cc1ccc(O[C@H](C)C(=O)Nc2ccsc2C(=O)NCCCCCCNC(=O)c2ccc(-c3c4nc(c(-c5c(F)cc(S(=O)(=O)[O-])cc5F)c5ccc([nH]5)c(-c5c(F)cc(S(=O)(=O)[O-])cc5F)c5nc(c(-c6c(F)cc(S(=O)(=O)[O-])cc6F)c6ccc3[nH]6)C=C5)C=C4)cc2)cc1
REMARK SMILES IDX 22 1 21 2 20 3 19 4 17 5 18 6 16 8 12 9 13 10 14 11 15 12
REMARK SMILES IDX 11 13 9 14 10 15 7 17 8 18 6 19 5 20 1 21 2 22 3 23 96 24
REMARK SMILES IDX 4 25 95 26 23 27 24 28 25 29 26 30 27 31 28 33 29 34 30 35
REMARK SMILES IDX 94 36 31 37 93 38 32 39 33 40 34 41 87 42 35 43 92 44 86 45
REMARK SMILES IDX 88 46 36 47 91 48 85 49 84 50 37 52 71 53 50 54 70 55 51 56
REMARK SMILES IDX 54 57 69 58 89 59 52 60 53 61 68 63 90 64 55 65 38 66 39 67
REMARK SMILES IDX 48 68 40 69 41 70 47 71 49 72 42 73 43 74 44 75 45 76 46 77
REMARK SMILES IDX 72 78 73 79 82 80 74 81 75 82 81 83 83 84 76 85 77 86 78 87
REMARK SMILES IDX 79 88 80 89 56 90 57 91 66 92 58 93 59 94 65 95 67 96 60 97
REMARK SMILES IDX 61 98 62 99 63 100 64 101
REMARK H PARENT 19 7 11 16 26 32 88 51 54 62
REMARK Flexibility Score: inf
ROOT
ATOM      1  C   UNL A   1      31.859  27.916  27.306  1.00  0.00     0.002 C 
ENDROOT
BRANCH   1   2
ATOM      2  C   UNL A   1      31.950  26.931  26.135  1.00  0.00     0.021 C 
BRANCH   2   3
ATOM      3  C   UNL A   1      33.240  26.138  25.950  1.00  0.00     0.116 C 
BRANCH   3   4
ATOM      4  N   UNL A   1      33.623  25.850  24.590  1.00  0.00    -0.351 N 
ATOM      5  C   UNL A   1      34.270  24.767  24.032  1.00  0.00     0.263 C 
ATOM      6  O   UNL A   1      34.400  24.842  22.803  1.00  0.00    -0.268 OA
ATOM      7  H   UNL A   1      33.377  26.550  23.944  1.00  0.00     0.163 HD
BRANCH   5   8
ATOM      8  C   UNL A   1      34.794  23.628  24.800  1.00  0.00     0.115 A 
ATOM      9  C   UNL A   1      34.259  22.648  25.633  1.00  0.00     0.065 A 
ATOM     10  C   UNL A   1      35.256  21.729  26.098  1.00  0.00     0.038 A 
ATOM     11  C   UNL A   1      36.523  22.053  25.689  1.00  0.00     0.068 A 
ATOM     12  S   UNL A   1      36.524  23.431  24.701  1.00  0.00    -0.137 S 
BRANCH   9  13
ATOM     13  N   UNL A   1      32.913  22.479  25.900  1.00  0.00    -0.321 N 
ATOM     14  C   UNL A   1      31.979  21.754  25.203  1.00  0.00     0.265 C 
ATOM     15  O   UNL A   1      30.835  21.722  25.681  1.00  0.00    -0.270 OA
ATOM     16  H   UNL A   1      32.579  22.944  26.701  1.00  0.00     0.170 HD
BRANCH  14  17
ATOM     17  C   UNL A   1      32.294  20.979  23.897  1.00  0.00     0.259 C 
ATOM     18  C   UNL A   1      32.328  22.004  22.771  1.00  0.00     0.064 C 
BRANCH  17  19
ATOM     19  O   UNL A   1      33.348  20.050  24.102  1.00  0.00    -0.481 OA
BRANCH  19  20
ATOM     20  C   UNL A   1      33.298  18.781  24.578  1.00  0.00     0.120 A 
ATOM     21  C   UNL A   1      32.941  14.539  25.363  1.00  0.00     0.044 C 
ATOM     22  C   UNL A   1      33.129  16.003  25.110  1.00  0.00    -0.051 A 
ATOM     23  C   UNL A   1      32.634  16.944  26.015  1.00  0.00     0.007 A 
ATOM     24  C   UNL A   1      33.740  16.462  23.942  1.00  0.00     0.007 A 
ATOM     25  C   UNL A   1      32.731  18.320  25.757  1.00  0.00     0.047 A 
ATOM     26  C   UNL A   1      33.821  17.834  23.686  1.00  0.00     0.047 A 
ENDBRANCH  19  20
ENDBRANCH  17  19
ENDBRANCH  14  17
ENDBRANCH   9  13
ENDBRANCH   5   8
ENDBRANCH   3   4
ENDBRANCH   2   3
ENDBRANCH   1   2
BRANCH   1  27
ATOM     27  C   UNL A   1      31.981  29.422  27.038  1.00  0.00     0.002 C 
BRANCH  27  28
ATOM     28  C   UNL A   1      33.295  29.958  26.474  1.00  0.00     0.021 C 
BRANCH  28  29
ATOM     29  C   UNL A   1      34.536  29.682  27.316  1.00  0.00     0.116 C 
BRANCH  29  30
ATOM     30  N   UNL A   1      35.296  30.890  27.623  1.00  0.00    -0.352 N 
ATOM     31  C   UNL A   1      36.563  30.983  28.178  1.00  0.00     0.251 C 
ATOM     32  H   UNL A   1      34.855  31.743  27.411  1.00  0.00     0.163 HD
ATOM     33  O   UNL A   1      37.045  32.041  28.541  1.00  0.00    -0.269 OA
BRANCH  31  34
ATOM     34  C   UNL A   1      37.360  29.742  28.217  1.00  0.00     0.039 A 
ATOM     35  C   UNL A   1      37.414  29.056  29.436  1.00  0.00     0.014 A 
ATOM     36  C   UNL A   1      38.255  29.465  27.187  1.00  0.00     0.014 A 
ATOM     37  C   UNL A   1      38.499  28.231  29.705  1.00  0.00     0.010 A 
ATOM     38  C   UNL A   1      39.372  28.712  27.485  1.00  0.00     0.010 A 
ATOM     39  C   UNL A   1      39.521  28.147  28.763  1.00  0.00    -0.014 A 
BRANCH  39  40
ATOM     40  C   UNL A   1      40.823  27.553  29.036  1.00  0.00     0.031 A 
ATOM     41  C   UNL A   1      41.064  26.133  28.711  1.00  0.00     0.074 A 
ATOM     42  C   UNL A   1      41.836  28.339  29.463  1.00  0.00     0.049 A 
ATOM     43  N   UNL A   1      42.086  25.448  29.100  1.00  0.00    -0.248 NA
ATOM     44  C   UNL A   1      40.094  25.339  27.967  1.00  0.00     0.031 C 
ATOM     45  C   UNL A   1      43.263  28.041  29.419  1.00  0.00     0.029 A 
ATOM     46  N   UNL A   1      41.742  29.494  30.241  1.00  0.00    -0.354 N 
ATOM     47  C   UNL A   1      42.076  24.255  28.410  1.00  0.00     0.074 A 
ATOM     48  C   UNL A   1      40.756  24.187  27.837  1.00  0.00     0.031 C 
ATOM     49  C   UNL A   1      43.897  28.813  30.315  1.00  0.00     0.029 A 
ATOM     50  C   UNL A   1      42.873  29.503  31.082  1.00  0.00     0.049 A 
ATOM     51  H   UNL A   1      41.028  30.170  30.209  1.00  0.00     0.167 HD
ATOM     52  C   UNL A   1      43.249  23.568  28.282  1.00  0.00     0.037 A 
ATOM     53  C   UNL A   1      42.741  29.410  32.438  1.00  0.00     0.037 A 
ATOM     54  C   UNL A   1      44.249  24.082  29.231  1.00  0.00     0.049 A 
ATOM     55  C   UNL A   1      43.401  28.191  33.040  1.00  0.00     0.074 A 
ATOM     56  C   UNL A   1      45.363  24.895  29.094  1.00  0.00     0.029 A 
ATOM     57  N   UNL A   1      43.989  24.010  30.600  1.00  0.00    -0.354 N 
ATOM     58  N   UNL A   1      43.740  27.129  32.360  1.00  0.00    -0.248 NA
ATOM     59  C   UNL A   1      43.740  28.074  34.455  1.00  0.00     0.031 C 
ATOM     60  C   UNL A   1      45.713  25.384  30.381  1.00  0.00     0.029 A 
ATOM     61  C   UNL A   1      44.832  24.847  31.306  1.00  0.00     0.049 A 
ATOM     62  H   UNL A   1      43.297  23.440  31.009  1.00  0.00     0.167 HD
ATOM     63  C   UNL A   1      44.306  26.202  33.199  1.00  0.00     0.074 A 
ATOM     64  C   UNL A   1      44.306  26.855  34.496  1.00  0.00     0.031 C 
ATOM     65  C   UNL A   1      44.726  24.977  32.756  1.00  0.00     0.037 A 
BRANCH  52  66
ATOM     66  C   UNL A   1      43.587  22.666  27.089  1.00  0.00     0.058 A 
ATOM     67  C   UNL A   1      42.938  21.418  26.925  1.00  0.00     0.135 A 
ATOM     68  C   UNL A   1      44.614  22.892  26.148  1.00  0.00     0.135 A 
ATOM     69  F   UNL A   1      41.879  21.077  27.671  1.00  0.00    -0.206 F 
ATOM     70  C   UNL A   1      43.350  20.449  25.997  1.00  0.00     0.059 A 
ATOM     71  C   UNL A   1      45.058  21.935  25.229  1.00  0.00     0.059 A 
ATOM     72  F   UNL A   1      45.234  24.066  26.028  1.00  0.00    -0.206 F 
ATOM     73  C   UNL A   1      44.435  20.704  25.173  1.00  0.00     0.060 A 
BRANCH  73  74
ATOM     74  S   UNL A   1      45.015  19.436  24.032  1.00  0.00     0.124 S 
ATOM     75  O   UNL A   1      44.501  19.917  22.753  1.00  0.00    -0.237 OA
ATOM     76  O   UNL A   1      46.461  19.505  24.204  1.00  0.00    -0.237 OA
ATOM     77  O   UNL A   1      44.386  18.214  24.530  1.00  0.00    -0.744 OA
ENDBRANCH  73  74
ENDBRANCH  52  66
BRANCH  53  78
ATOM     78  C   UNL A   1      41.517  30.089  32.951  1.00  0.00     0.058 A 
ATOM     79  C   UNL A   1      41.556  31.492  33.069  1.00  0.00     0.135 A 
ATOM     80  C   UNL A   1      40.257  29.479  32.886  1.00  0.00     0.135 A 
ATOM     81  F   UNL A   1      42.738  32.127  33.149  1.00  0.00    -0.206 F 
ATOM     82  C   UNL A   1      40.408  32.270  32.954  1.00  0.00     0.059 A 
ATOM     83  C   UNL A   1      39.089  30.241  32.782  1.00  0.00     0.059 A 
ATOM     84  F   UNL A   1      40.155  28.147  32.776  1.00  0.00    -0.206 F 
ATOM     85  C   UNL A   1      39.188  31.633  32.746  1.00  0.00     0.060 A 
BRANCH  85  86
ATOM     86  S   UNL A   1      37.785  32.658  32.238  1.00  0.00     0.124 S 
ATOM     87  O   UNL A   1      36.825  31.655  31.790  1.00  0.00    -0.237 OA
ATOM     88  O   UNL A   1      37.450  33.339  33.487  1.00  0.00    -0.237 OA
ATOM     89  O   UNL A   1      38.348  33.504  31.193  1.00  0.00    -0.744 OA
ENDBRANCH  85  86
ENDBRANCH  53  78
BRANCH  65  90
ATOM     90  C   UNL A   1      45.172  23.822  33.630  1.00  0.00     0.058 A 
ATOM     91  C   UNL A   1      46.487  23.636  34.091  1.00  0.00     0.135 A 
ATOM     92  C   UNL A   1      44.218  22.910  34.151  1.00  0.00     0.135 A 
ATOM     93  F   UNL A   1      47.464  24.500  33.781  1.00  0.00    -0.206 F 
ATOM     94  C   UNL A   1      46.850  22.580  34.932  1.00  0.00     0.059 A 
ATOM     95  C   UNL A   1      44.548  21.886  35.038  1.00  0.00     0.059 A 
ATOM     96  F   UNL A   1      42.920  22.992  33.825  1.00  0.00    -0.206 F 
ATOM     97  C   UNL A   1      45.873  21.709  35.402  1.00  0.00     0.060 A 
BRANCH  97  98
ATOM     98  S   UNL A   1      46.315  20.384  36.541  1.00  0.00     0.124 S 
ATOM     99  O   UNL A   1      45.761  20.881  37.796  1.00  0.00    -0.237 OA
ATOM    100  O   UNL A   1      45.638  19.223  35.971  1.00  0.00    -0.237 OA
ATOM    101  O   UNL A   1      47.772  20.350  36.461  1.00  0.00    -0.744 OA
ENDBRANCH  97  98
ENDBRANCH  65  90
ENDBRANCH  39  40
ENDBRANCH  31  34
ENDBRANCH  29  30
ENDBRANCH  28  29
ENDBRANCH  27  28
ENDBRANCH   1  27
TORSDOF 20
ENDMDL
MODEL 3
REMARK VINA RESULT:     -12.2      2.258      3.049
REMARK SMILES Cc1ccc(O[C@H](C)C(=O)Nc2ccsc2C(=O)NCCCCCCNC(=O)c2ccc(-c3c4nc(c(-c5c(F)cc(S(=O)(=O)[O-])cc5F)c5ccc([nH]5)c(-c5c(F)cc(S(=O)(=O)[O-])cc5F)c5nc(c(-c6c(F)cc(S(=O)(=O)[O-])cc6F)c6ccc3[nH]6)C=C5)C=C4)cc2)cc1
REMARK SMILES IDX 22 1 21 2 20 3 19 4 17 5 18 6 16 8 12 9 13 10 14 11 15 12
REMARK SMILES IDX 11 13 9 14 10 15 7 17 8 18 6 19 5 20 1 21 2 22 3 23 96 24
REMARK SMILES IDX 4 25 95 26 23 27 24 28 25 29 26 30 27 31 28 33 29 34 30 35
REMARK SMILES IDX 94 36 31 37 93 38 32 39 33 40 34 41 87 42 35 43 92 44 86 45
REMARK SMILES IDX 88 46 36 47 91 48 85 49 84 50 37 52 71 53 50 54 70 55 51 56
REMARK SMILES IDX 54 57 69 58 89 59 52 60 53 61 68 63 90 64 55 65 38 66 39 67
REMARK SMILES IDX 48 68 40 69 41 70 47 71 49 72 42 73 43 74 44 75 45 76 46 77
REMARK SMILES IDX 72 78 73 79 82 80 74 81 75 82 81 83 83 84 76 85 77 86 78 87
REMARK SMILES IDX 79 88 80 89 56 90 57 91 66 92 58 93 59 94 65 95 67 96 60 97
REMARK SMILES IDX 61 98 62 99 63 100 64 101
REMARK H PARENT 19 7 11 16 26 32 88 51 54 62
REMARK Flexibility Score: inf
ROOT
ATOM      1  C   UNL A   1      34.038  27.750  26.030  1.00  0.00     0.002 C 
ENDROOT
BRANCH   1   2
ATOM      2  C   UNL A   1      33.191  26.541  26.443  1.00  0.00     0.021 C 
BRANCH   2   3
ATOM      3  C   UNL A   1      33.585  25.163  25.920  1.00  0.00     0.116 C 
BRANCH   3   4
ATOM      4  N   UNL A   1      34.001  25.100  24.540  1.00  0.00    -0.351 N 
ATOM      5  C   UNL A   1      34.596  24.092  23.810  1.00  0.00     0.263 C 
ATOM      6  O   UNL A   1      34.780  24.380  22.620  1.00  0.00    -0.268 OA
ATOM      7  H   UNL A   1      33.829  25.922  24.028  1.00  0.00     0.163 HD
BRANCH   5   8
ATOM      8  C   UNL A   1      35.012  22.798  24.370  1.00  0.00     0.115 A 
ATOM      9  C   UNL A   1      34.433  21.819  25.175  1.00  0.00     0.065 A 
ATOM     10  C   UNL A   1      35.306  20.703  25.383  1.00  0.00     0.038 A 
ATOM     11  C   UNL A   1      36.542  20.868  24.815  1.00  0.00     0.068 A 
ATOM     12  S   UNL A   1      36.650  22.341  23.981  1.00  0.00    -0.137 S 
BRANCH   9  13
ATOM     13  N   UNL A   1      33.128  21.836  25.631  1.00  0.00    -0.321 N 
ATOM     14  C   UNL A   1      31.970  22.067  24.932  1.00  0.00     0.265 C 
ATOM     15  O   UNL A   1      30.911  21.977  25.569  1.00  0.00    -0.270 OA
ATOM     16  H   UNL A   1      33.014  21.656  26.593  1.00  0.00     0.170 HD
BRANCH  14  17
ATOM     17  C   UNL A   1      31.937  22.403  23.417  1.00  0.00     0.259 C 
ATOM     18  C   UNL A   1      32.098  21.088  22.667  1.00  0.00     0.064 C 
BRANCH  17  19
ATOM     19  O   UNL A   1      30.887  23.314  23.125  1.00  0.00    -0.481 OA
BRANCH  19  20
ATOM     20  C   UNL A   1      30.892  24.670  23.144  1.00  0.00     0.120 A 
ATOM     21  C   UNL A   1      30.166  28.927  23.447  1.00  0.00     0.044 C 
ATOM     22  C   UNL A   1      30.466  27.460  23.388  1.00  0.00    -0.051 A 
ATOM     23  C   UNL A   1      31.171  26.929  22.306  1.00  0.00     0.007 A 
ATOM     24  C   UNL A   1      29.997  26.587  24.370  1.00  0.00     0.007 A 
ATOM     25  C   UNL A   1      31.393  25.548  22.193  1.00  0.00     0.047 A 
ATOM     26  C   UNL A   1      30.211  25.210  24.243  1.00  0.00     0.047 A 
ENDBRANCH  19  20
ENDBRANCH  17  19
ENDBRANCH  14  17
ENDBRANCH   9  13
ENDBRANCH   5   8
ENDBRANCH   3   4
ENDBRANCH   2   3
ENDBRANCH   1   2
BRANCH   1  27
ATOM     27  C   UNL A   1      33.432  28.819  25.111  1.00  0.00     0.002 C 
BRANCH  27  28
ATOM     28  C   UNL A   1      32.804  30.057  25.749  1.00  0.00     0.021 C 
BRANCH  28  29
ATOM     29  C   UNL A   1      32.906  30.141  27.268  1.00  0.00     0.116 C 
BRANCH  29  30
ATOM     30  N   UNL A   1      33.342  31.452  27.739  1.00  0.00    -0.352 N 
ATOM     31  C   UNL A   1      34.486  31.764  28.457  1.00  0.00     0.251 C 
ATOM     32  H   UNL A   1      32.751  32.207  27.520  1.00  0.00     0.163 HD
ATOM     33  O   UNL A   1      34.679  32.866  28.939  1.00  0.00    -0.269 OA
BRANCH  31  34
ATOM     34  C   UNL A   1      35.526  30.720  28.528  1.00  0.00     0.039 A 
ATOM     35  C   UNL A   1      35.692  30.067  29.755  1.00  0.00     0.014 A 
ATOM     36  C   UNL A   1      36.486  30.635  27.523  1.00  0.00     0.014 A 
ATOM     37  C   UNL A   1      36.921  29.492  30.058  1.00  0.00     0.010 A 
ATOM     38  C   UNL A   1      37.729  30.137  27.856  1.00  0.00     0.010 A 
ATOM     39  C   UNL A   1      37.961  29.622  29.142  1.00  0.00    -0.014 A 
BRANCH  39  40
ATOM     40  C   UNL A   1      39.352  29.319  29.454  1.00  0.00     0.031 A 
ATOM     41  C   UNL A   1      39.914  28.003  29.093  1.00  0.00     0.074 A 
ATOM     42  C   UNL A   1      40.149  30.290  29.951  1.00  0.00     0.049 A 
ATOM     43  N   UNL A   1      41.048  27.544  29.503  1.00  0.00    -0.248 NA
ATOM     44  C   UNL A   1      39.172  27.047  28.279  1.00  0.00     0.031 C 
ATOM     45  C   UNL A   1      41.607  30.317  29.962  1.00  0.00     0.029 A 
ATOM     46  N   UNL A   1      39.773  31.362  30.763  1.00  0.00    -0.354 N 
ATOM     47  C   UNL A   1      41.328  26.409  28.774  1.00  0.00     0.074 A 
ATOM     48  C   UNL A   1      40.078  26.076  28.140  1.00  0.00     0.031 C 
ATOM     49  C   UNL A   1      42.020  31.170  30.911  1.00  0.00     0.029 A 
ATOM     50  C   UNL A   1      40.842  31.584  31.654  1.00  0.00     0.049 A 
ATOM     51  H   UNL A   1      38.927  31.865  30.722  1.00  0.00     0.167 HD
ATOM     52  C   UNL A   1      42.629  26.004  28.675  1.00  0.00     0.037 A 
ATOM     53  C   UNL A   1      40.684  31.407  32.999  1.00  0.00     0.037 A 
ATOM     54  C   UNL A   1      43.454  26.685  29.684  1.00  0.00     0.049 A 
ATOM     55  C   UNL A   1      41.577  30.338  33.588  1.00  0.00     0.074 A 
ATOM     56  C   UNL A   1      44.364  27.728  29.625  1.00  0.00     0.029 A 
ATOM     57  N   UNL A   1      43.167  26.499  31.038  1.00  0.00    -0.354 N 
ATOM     58  N   UNL A   1      42.168  29.408  32.888  1.00  0.00    -0.248 NA
ATOM     59  C   UNL A   1      41.882  30.239  35.012  1.00  0.00     0.031 C 
ATOM     60  C   UNL A   1      44.550  28.228  30.942  1.00  0.00     0.029 A 
ATOM     61  C   UNL A   1      43.777  27.470  31.808  1.00  0.00     0.049 A 
ATOM     62  H   UNL A   1      42.605  25.773  31.395  1.00  0.00     0.167 HD
ATOM     63  C   UNL A   1      42.895  28.594  33.720  1.00  0.00     0.074 A 
ATOM     64  C   UNL A   1      42.703  29.174  35.038  1.00  0.00     0.031 C 
ATOM     65  C   UNL A   1      43.593  27.512  33.256  1.00  0.00     0.037 A 
BRANCH  52  66
ATOM     66  C   UNL A   1      43.201  25.251  27.469  1.00  0.00     0.058 A 
ATOM     67  C   UNL A   1      43.178  23.836  27.427  1.00  0.00     0.135 A 
ATOM     68  C   UNL A   1      43.898  25.831  26.387  1.00  0.00     0.135 A 
ATOM     69  F   UNL A   1      42.483  23.121  28.323  1.00  0.00    -0.206 F 
ATOM     70  C   UNL A   1      43.876  23.078  26.475  1.00  0.00     0.059 A 
ATOM     71  C   UNL A   1      44.621  25.100  25.439  1.00  0.00     0.059 A 
ATOM     72  F   UNL A   1      43.898  27.144  26.154  1.00  0.00    -0.206 F 
ATOM     73  C   UNL A   1      44.625  23.721  25.501  1.00  0.00     0.060 A 
BRANCH  73  74
ATOM     74  S   UNL A   1      45.584  22.754  24.320  1.00  0.00     0.124 S 
ATOM     75  O   UNL A   1      46.549  23.735  23.834  1.00  0.00    -0.237 OA
ATOM     76  O   UNL A   1      46.123  21.691  25.160  1.00  0.00    -0.237 OA
ATOM     77  O   UNL A   1      44.588  22.329  23.339  1.00  0.00    -0.744 OA
ENDBRANCH  73  74
ENDBRANCH  52  66
BRANCH  53  78
ATOM     78  C   UNL A   1      39.323  31.776  33.479  1.00  0.00     0.058 A 
ATOM     79  C   UNL A   1      39.043  33.147  33.642  1.00  0.00     0.135 A 
ATOM     80  C   UNL A   1      38.233  30.904  33.341  1.00  0.00     0.135 A 
ATOM     81  F   UNL A   1      40.050  34.024  33.793  1.00  0.00    -0.206 F 
ATOM     82  C   UNL A   1      37.756  33.654  33.501  1.00  0.00     0.059 A 
ATOM     83  C   UNL A   1      36.929  31.392  33.210  1.00  0.00     0.059 A 
ATOM     84  F   UNL A   1      38.436  29.588  33.185  1.00  0.00    -0.206 F 
ATOM     85  C   UNL A   1      36.716  32.771  33.221  1.00  0.00     0.060 A 
BRANCH  85  86
ATOM     86  S   UNL A   1      35.139  33.479  32.685  1.00  0.00     0.124 S 
ATOM     87  O   UNL A   1      34.608  34.014  33.934  1.00  0.00    -0.237 OA
ATOM     88  O   UNL A   1      35.578  34.473  31.708  1.00  0.00    -0.237 OA
ATOM     89  O   UNL A   1      34.425  32.332  32.137  1.00  0.00    -0.744 OA
ENDBRANCH  85  86
ENDBRANCH  53  78
BRANCH  65  90
ATOM     90  C   UNL A   1      44.252  26.447  34.110  1.00  0.00     0.058 A 
ATOM     91  C   UNL A   1      43.554  25.467  34.838  1.00  0.00     0.135 A 
ATOM     92  C   UNL A   1      45.664  26.305  34.112  1.00  0.00     0.135 A 
ATOM     93  F   UNL A   1      42.215  25.404  34.818  1.00  0.00    -0.206 F 
ATOM     94  C   UNL A   1      44.201  24.474  35.579  1.00  0.00     0.059 A 
ATOM     95  C   UNL A   1      46.326  25.288  34.796  1.00  0.00     0.059 A 
ATOM     96  F   UNL A   1      46.453  27.149  33.432  1.00  0.00    -0.206 F 
ATOM     97  C   UNL A   1      45.589  24.392  35.553  1.00  0.00     0.060 A 
BRANCH  97  98
ATOM     98  S   UNL A   1      46.433  23.076  36.451  1.00  0.00     0.124 S 
ATOM     99  O   UNL A   1      45.527  22.861  37.574  1.00  0.00    -0.237 OA
ATOM    100  O   UNL A   1      46.485  21.994  35.470  1.00  0.00    -0.237 OA
ATOM    101  O   UNL A   1      47.722  23.673  36.781  1.00  0.00    -0.744 OA
ENDBRANCH  97  98
ENDBRANCH  65  90
ENDBRANCH  39  40
ENDBRANCH  31  34
ENDBRANCH  29  30
ENDBRANCH  28  29
ENDBRANCH  27  28
ENDBRANCH   1  27
TORSDOF 20
ENDMDL
