MODEL 1
REMARK VINA RESULT:     -12.2      0.000      0.000
REMARK SMILES NS(=O)(=O)c1ccc(/N=C/c2ccc(O)c(C(=O)NCCCCCCNC(=O)c3ccc(-c4c5nc(c(-c6c(F)cc(S(=O)(=O)[O-])cc6F)c6ccc([nH]6)c(-c6c(F)cc(S(=O)(=O)[O-])cc6F)c6nc(c(-c7c(F)cc(S(=O)(=O)[O-])cc7F)c7ccc4[nH]7)C=C6)C=C5)cc3)c2)cc1
REMARK SMILES IDX 22 1 21 2 20 3 19 4 17 5 18 6 16 8 11 9 12 10 95 11 13 12
REMARK SMILES IDX 14 13 10 14 9 15 8 16 5 17 6 18 97 19 7 20 96 21 2 22 3 23
REMARK SMILES IDX 4 24 1 25 15 28 23 30 24 31 25 32 26 33 27 34 28 36 29 37
REMARK SMILES IDX 30 38 94 39 31 40 93 41 32 42 33 43 34 44 87 45 35 46 92 47
REMARK SMILES IDX 86 48 88 49 36 50 91 51 85 52 84 53 37 55 71 56 50 57 70 58
REMARK SMILES IDX 51 59 54 60 69 61 89 62 52 63 53 64 68 66 90 67 55 68 38 69
REMARK SMILES IDX 39 70 48 71 40 72 41 73 47 74 49 75 42 76 43 77 44 78 45 79
REMARK SMILES IDX 46 80 72 81 73 82 82 83 74 84 75 85 81 86 83 87 76 88 77 89
REMARK SMILES IDX 78 90 79 91 80 92 56 93 57 94 66 95 58 96 59 97 65 98 67 99
REMARK SMILES IDX 60 100 61 101 62 102 63 103 64 104
REMARK H PARENT 19 7 1 26 1 27 15 29 26 35 88 54 54 65
REMARK Flexibility Score: inf
ROOT
ATOM      1  C   UNL A   1      38.538  23.275  26.430  1.00  0.00     0.002 C 
ENDROOT
BRANCH   1   2
ATOM      2  C   UNL A   1      37.365  23.003  25.487  1.00  0.00     0.021 C 
BRANCH   2   3
ATOM      3  C   UNL A   1      36.589  21.710  25.712  1.00  0.00     0.116 C 
BRANCH   3   4
ATOM      4  N   UNL A   1      35.560  21.802  26.737  1.00  0.00    -0.352 N 
ATOM      5  C   UNL A   1      34.187  21.809  26.633  1.00  0.00     0.255 C 
ATOM      6  O   UNL A   1      33.509  21.978  27.648  1.00  0.00    -0.269 OA
ATOM      7  H   UNL A   1      35.902  21.871  27.658  1.00  0.00     0.163 HD
BRANCH   5   8
ATOM      8  C   UNL A   1      33.477  21.705  25.331  1.00  0.00     0.082 A 
ATOM      9  C   UNL A   1      32.052  22.649  23.611  1.00  0.00    -0.006 A 
ATOM     10  C   UNL A   1      31.892  21.396  23.022  1.00  0.00     0.013 A 
ATOM     11  C   UNL A   1      32.902  22.814  24.710  1.00  0.00     0.027 A 
ATOM     12  C   UNL A   1      32.573  20.300  23.557  1.00  0.00     0.047 A 
ATOM     13  C   UNL A   1      33.351  20.454  24.708  1.00  0.00     0.128 A 
BRANCH   9  14
ATOM     14  C   UNL A   1      31.218  23.793  23.176  1.00  0.00     0.119 C 
ATOM     15  N   UNL A   1      31.420  24.959  23.695  1.00  0.00    -0.256 NA
BRANCH  15  16
ATOM     16  C   UNL A   1      30.579  26.041  23.400  1.00  0.00     0.063 A 
ATOM     17  C   UNL A   1      29.110  28.395  22.993  1.00  0.00     0.082 A 
ATOM     18  C   UNL A   1      30.415  28.306  22.510  1.00  0.00     0.024 A 
ATOM     19  C   UNL A   1      28.524  27.315  23.659  1.00  0.00     0.024 A 
ATOM     20  C   UNL A   1      31.139  27.128  22.718  1.00  0.00     0.030 A 
ATOM     21  C   UNL A   1      29.265  26.147  23.871  1.00  0.00     0.030 A 
BRANCH  17  22
ATOM     22  S   UNL A   1      28.169  29.885  22.815  1.00  0.00     0.238 S 
ATOM     23  O   UNL A   1      29.012  30.981  23.222  1.00  0.00    -0.207 OA
ATOM     24  O   UNL A   1      26.859  29.647  23.378  1.00  0.00    -0.207 OA
BRANCH  22  25
ATOM     25  N   UNL A   1      27.932  30.037  21.161  1.00  0.00    -0.225 NA
ATOM     26  H   UNL A   1      28.820  29.904  20.677  1.00  0.00     0.137 HD
ATOM     27  H   UNL A   1      27.566  30.966  20.954  1.00  0.00     0.137 HD
ENDBRANCH  22  25
ENDBRANCH  17  22
ENDBRANCH  15  16
ENDBRANCH   9  14
BRANCH  13  28
ATOM     28  O   UNL A   1      33.958  19.320  25.184  1.00  0.00    -0.507 OA
ATOM     29  H   UNL A   1      34.747  19.386  25.683  1.00  0.00     0.293 HD
ENDBRANCH  13  28
ENDBRANCH   5   8
ENDBRANCH   3   4
ENDBRANCH   2   3
ENDBRANCH   1   2
BRANCH   1  30
ATOM     30  C   UNL A   1      39.686  22.263  26.404  1.00  0.00     0.002 C 
BRANCH  30  31
ATOM     31  C   UNL A   1      40.640  22.281  27.599  1.00  0.00     0.021 C 
BRANCH  31  32
ATOM     32  C   UNL A   1      41.911  23.106  27.428  1.00  0.00     0.116 C 
BRANCH  32  33
ATOM     33  N   UNL A   1      41.897  23.927  26.228  1.00  0.00    -0.352 N 
ATOM     34  C   UNL A   1      41.650  25.272  26.093  1.00  0.00     0.251 C 
ATOM     35  H   UNL A   1      42.092  23.448  25.391  1.00  0.00     0.163 HD
ATOM     36  O   UNL A   1      41.543  25.760  24.971  1.00  0.00    -0.269 OA
BRANCH  34  37
ATOM     37  C   UNL A   1      41.488  26.127  27.291  1.00  0.00     0.039 A 
ATOM     38  C   UNL A   1      42.461  27.093  27.565  1.00  0.00     0.014 A 
ATOM     39  C   UNL A   1      40.395  25.975  28.148  1.00  0.00     0.014 A 
ATOM     40  C   UNL A   1      42.305  27.945  28.662  1.00  0.00     0.010 A 
ATOM     41  C   UNL A   1      40.203  26.872  29.197  1.00  0.00     0.010 A 
ATOM     42  C   UNL A   1      41.158  27.863  29.469  1.00  0.00    -0.014 A 
BRANCH  42  43
ATOM     43  C   UNL A   1      40.943  28.800  30.603  1.00  0.00     0.031 A 
ATOM     44  C   UNL A   1      41.806  28.713  31.832  1.00  0.00     0.074 A 
ATOM     45  C   UNL A   1      39.936  29.693  30.548  1.00  0.00     0.049 A 
ATOM     46  N   UNL A   1      41.750  29.416  32.935  1.00  0.00    -0.248 NA
ATOM     47  C   UNL A   1      42.855  27.682  31.831  1.00  0.00     0.031 C 
ATOM     48  C   UNL A   1      39.010  29.856  29.427  1.00  0.00     0.029 A 
ATOM     49  N   UNL A   1      39.524  30.633  31.459  1.00  0.00    -0.354 N 
ATOM     50  C   UNL A   1      42.742  28.904  33.761  1.00  0.00     0.074 A 
ATOM     51  C   UNL A   1      43.346  27.795  33.055  1.00  0.00     0.031 C 
ATOM     52  C   UNL A   1      38.163  30.862  29.700  1.00  0.00     0.029 A 
ATOM     53  C   UNL A   1      38.460  31.388  31.029  1.00  0.00     0.049 A 
ATOM     54  H   UNL A   1      39.951  30.757  32.338  1.00  0.00     0.167 HD
ATOM     55  C   UNL A   1      43.134  29.333  34.987  1.00  0.00     0.037 A 
ATOM     56  C   UNL A   1      37.798  32.394  31.633  1.00  0.00     0.037 A 
ATOM     57  C   UNL A   1      42.532  30.440  35.684  1.00  0.00     0.049 A 
ATOM     58  C   UNL A   1      38.229  32.839  33.004  1.00  0.00     0.074 A 
ATOM     59  C   UNL A   1      42.882  30.984  36.907  1.00  0.00     0.029 A 
ATOM     60  N   UNL A   1      41.444  31.168  35.221  1.00  0.00    -0.354 N 
ATOM     61  N   UNL A   1      39.206  32.381  33.749  1.00  0.00    -0.248 NA
ATOM     62  C   UNL A   1      37.468  33.938  33.614  1.00  0.00     0.031 C 
ATOM     63  C   UNL A   1      41.978  32.011  37.204  1.00  0.00     0.029 A 
ATOM     64  C   UNL A   1      41.095  32.141  36.144  1.00  0.00     0.049 A 
ATOM     65  H   UNL A   1      40.987  31.015  34.362  1.00  0.00     0.167 HD
ATOM     66  C   UNL A   1      39.198  33.155  34.905  1.00  0.00     0.074 A 
ATOM     67  C   UNL A   1      38.120  34.113  34.756  1.00  0.00     0.031 C 
ATOM     68  C   UNL A   1      40.015  33.084  35.985  1.00  0.00     0.037 A 
BRANCH  55  69
ATOM     69  C   UNL A   1      44.261  28.582  35.648  1.00  0.00     0.058 A 
ATOM     70  C   UNL A   1      44.020  27.528  36.546  1.00  0.00     0.135 A 
ATOM     71  C   UNL A   1      45.598  28.935  35.403  1.00  0.00     0.135 A 
ATOM     72  F   UNL A   1      42.761  27.153  36.826  1.00  0.00    -0.206 F 
ATOM     73  C   UNL A   1      45.056  26.894  37.222  1.00  0.00     0.059 A 
ATOM     74  C   UNL A   1      46.654  28.291  36.044  1.00  0.00     0.059 A 
ATOM     75  F   UNL A   1      45.890  29.927  34.548  1.00  0.00    -0.206 F 
ATOM     76  C   UNL A   1      46.371  27.292  36.973  1.00  0.00     0.060 A 
BRANCH  76  77
ATOM     77  S   UNL A   1      47.703  26.499  37.898  1.00  0.00     0.124 S 
ATOM     78  O   UNL A   1      48.360  25.723  36.851  1.00  0.00    -0.237 OA
ATOM     79  O   UNL A   1      48.457  27.642  38.406  1.00  0.00    -0.237 OA
ATOM     80  O   UNL A   1      46.997  25.719  38.910  1.00  0.00    -0.744 OA
ENDBRANCH  76  77
ENDBRANCH  55  69
BRANCH  56  81
ATOM     81  C   UNL A   1      36.694  33.082  30.916  1.00  0.00     0.058 A 
ATOM     82  C   UNL A   1      35.358  32.846  31.272  1.00  0.00     0.135 A 
ATOM     83  C   UNL A   1      36.947  34.018  29.901  1.00  0.00     0.135 A 
ATOM     84  F   UNL A   1      35.068  31.953  32.229  1.00  0.00    -0.206 F 
ATOM     85  C   UNL A   1      34.309  33.514  30.649  1.00  0.00     0.059 A 
ATOM     86  C   UNL A   1      35.916  34.716  29.280  1.00  0.00     0.059 A 
ATOM     87  F   UNL A   1      38.210  34.286  29.532  1.00  0.00    -0.206 F 
ATOM     88  C   UNL A   1      34.600  34.455  29.660  1.00  0.00     0.060 A 
BRANCH  88  89
ATOM     89  S   UNL A   1      33.234  35.374  28.917  1.00  0.00     0.124 S 
ATOM     90  O   UNL A   1      32.623  34.357  28.070  1.00  0.00    -0.237 OA
ATOM     91  O   UNL A   1      32.465  35.778  30.090  1.00  0.00    -0.237 OA
ATOM     92  O   UNL A   1      33.909  36.461  28.213  1.00  0.00    -0.744 OA
ENDBRANCH  88  89
ENDBRANCH  56  81
BRANCH  68  93
ATOM     93  C   UNL A   1      39.793  34.087  37.085  1.00  0.00     0.058 A 
ATOM     94  C   UNL A   1      38.932  33.825  38.162  1.00  0.00     0.135 A 
ATOM     95  C   UNL A   1      40.488  35.308  37.082  1.00  0.00     0.135 A 
ATOM     96  F   UNL A   1      38.236  32.677  38.209  1.00  0.00    -0.206 F 
ATOM     97  C   UNL A   1      38.752  34.748  39.189  1.00  0.00     0.059 A 
ATOM     98  C   UNL A   1      40.342  36.233  38.112  1.00  0.00     0.059 A 
ATOM     99  F   UNL A   1      41.329  35.605  36.080  1.00  0.00    -0.206 F 
ATOM    100  C   UNL A   1      39.463  35.948  39.155  1.00  0.00     0.060 A 
BRANCH 100 101
ATOM    101  S   UNL A   1      39.243  37.124  40.508  1.00  0.00     0.124 S 
ATOM    102  O   UNL A   1      40.583  37.687  40.629  1.00  0.00    -0.237 OA
ATOM    103  O   UNL A   1      38.223  38.023  39.977  1.00  0.00    -0.237 OA
ATOM    104  O   UNL A   1      38.811  36.284  41.621  1.00  0.00    -0.744 OA
ENDBRANCH 100 101
ENDBRANCH  68  93
ENDBRANCH  42  43
ENDBRANCH  34  37
ENDBRANCH  32  33
ENDBRANCH  31  32
ENDBRANCH  30  31
ENDBRANCH   1  30
TORSDOF 21
ENDMDL
MODEL 2
REMARK VINA RESULT:     -11.9      0.569      8.129
REMARK SMILES NS(=O)(=O)c1ccc(/N=C/c2ccc(O)c(C(=O)NCCCCCCNC(=O)c3ccc(-c4c5nc(c(-c6c(F)cc(S(=O)(=O)[O-])cc6F)c6ccc([nH]6)c(-c6c(F)cc(S(=O)(=O)[O-])cc6F)c6nc(c(-c7c(F)cc(S(=O)(=O)[O-])cc7F)c7ccc4[nH]7)C=C6)C=C5)cc3)c2)cc1
REMARK SMILES IDX 22 1 21 2 20 3 19 4 17 5 18 6 16 8 11 9 12 10 95 11 13 12
REMARK SMILES IDX 14 13 10 14 9 15 8 16 5 17 6 18 97 19 7 20 96 21 2 22 3 23
REMARK SMILES IDX 4 24 1 25 15 28 23 30 24 31 25 32 26 33 27 34 28 36 29 37
REMARK SMILES IDX 30 38 94 39 31 40 93 41 32 42 33 43 34 44 87 45 35 46 92 47
REMARK SMILES IDX 86 48 88 49 36 50 91 51 85 52 84 53 37 55 71 56 50 57 70 58
REMARK SMILES IDX 51 59 54 60 69 61 89 62 52 63 53 64 68 66 90 67 55 68 38 69
REMARK SMILES IDX 39 70 48 71 40 72 41 73 47 74 49 75 42 76 43 77 44 78 45 79
REMARK SMILES IDX 46 80 72 81 73 82 82 83 74 84 75 85 81 86 83 87 76 88 77 89
REMARK SMILES IDX 78 90 79 91 80 92 56 93 57 94 66 95 58 96 59 97 65 98 67 99
REMARK SMILES IDX 60 100 61 101 62 102 63 103 64 104
REMARK H PARENT 19 7 1 26 1 27 15 29 26 35 88 54 54 65
REMARK Flexibility Score: inf
ROOT
ATOM      1  C   UNL A   1      38.545  22.987  26.291  1.00  0.00     0.002 C 
ENDROOT
BRANCH   1   2
ATOM      2  C   UNL A   1      37.556  22.603  25.190  1.00  0.00     0.021 C 
BRANCH   2   3
ATOM      3  C   UNL A   1      36.813  21.283  25.364  1.00  0.00     0.116 C 
BRANCH   3   4
ATOM      4  N   UNL A   1      35.879  21.267  26.481  1.00  0.00    -0.352 N 
ATOM      5  C   UNL A   1      34.534  21.556  26.531  1.00  0.00     0.255 C 
ATOM      6  O   UNL A   1      33.958  21.549  27.621  1.00  0.00    -0.269 OA
ATOM      7  H   UNL A   1      36.275  21.006  27.344  1.00  0.00     0.163 HD
BRANCH   5   8
ATOM      8  C   UNL A   1      33.751  21.959  25.333  1.00  0.00     0.082 A 
ATOM      9  C   UNL A   1      32.492  23.610  24.081  1.00  0.00    -0.006 A 
ATOM     10  C   UNL A   1      32.019  22.626  23.214  1.00  0.00     0.013 A 
ATOM     11  C   UNL A   1      33.413  23.289  25.083  1.00  0.00     0.027 A 
ATOM     12  C   UNL A   1      32.458  21.310  23.373  1.00  0.00     0.047 A 
ATOM     13  C   UNL A   1      33.309  20.980  24.430  1.00  0.00     0.128 A 
BRANCH   9  14
ATOM     14  C   UNL A   1      31.921  24.976  24.046  1.00  0.00     0.119 C 
ATOM     15  N   UNL A   1      30.766  25.168  23.499  1.00  0.00    -0.256 NA
BRANCH  15  16
ATOM     16  C   UNL A   1      30.244  26.459  23.338  1.00  0.00     0.063 A 
ATOM     17  C   UNL A   1      28.959  28.898  22.823  1.00  0.00     0.082 A 
ATOM     18  C   UNL A   1      28.277  27.891  23.506  1.00  0.00     0.024 A 
ATOM     19  C   UNL A   1      30.282  28.707  22.414  1.00  0.00     0.024 A 
ATOM     20  C   UNL A   1      28.925  26.679  23.757  1.00  0.00     0.030 A 
ATOM     21  C   UNL A   1      30.915  27.484  22.661  1.00  0.00     0.030 A 
BRANCH  17  22
ATOM     22  S   UNL A   1      28.166  30.429  22.420  1.00  0.00     0.238 S 
ATOM     23  O   UNL A   1      29.179  31.454  22.414  1.00  0.00    -0.207 OA
ATOM     24  O   UNL A   1      26.959  30.520  23.211  1.00  0.00    -0.207 OA
BRANCH  22  25
ATOM     25  N   UNL A   1      27.655  30.233  20.834  1.00  0.00    -0.225 NA
ATOM     26  H   UNL A   1      27.374  29.264  20.685  1.00  0.00     0.137 HD
ATOM     27  H   UNL A   1      28.419  30.467  20.200  1.00  0.00     0.137 HD
ENDBRANCH  22  25
ENDBRANCH  17  22
ENDBRANCH  15  16
ENDBRANCH   9  14
BRANCH  13  28
ATOM     28  O   UNL A   1      33.664  19.659  24.532  1.00  0.00    -0.507 OA
ATOM     29  H   UNL A   1      34.004  19.206  23.786  1.00  0.00     0.293 HD
ENDBRANCH  13  28
ENDBRANCH   5   8
ENDBRANCH   3   4
ENDBRANCH   2   3
ENDBRANCH   1   2
BRANCH   1  30
ATOM     30  C   UNL A   1      39.785  22.102  26.435  1.00  0.00     0.002 C 
BRANCH  30  31
ATOM     31  C   UNL A   1      40.710  22.409  27.614  1.00  0.00     0.021 C 
BRANCH  31  32
ATOM     32  C   UNL A   1      41.950  23.236  27.292  1.00  0.00     0.116 C 
BRANCH  32  33
ATOM     33  N   UNL A   1      41.771  24.103  26.140  1.00  0.00    -0.352 N 
ATOM     34  C   UNL A   1      41.407  25.427  26.091  1.00  0.00     0.251 C 
ATOM     35  H   UNL A   1      41.933  23.679  25.267  1.00  0.00     0.163 HD
ATOM     36  O   UNL A   1      41.167  25.952  25.007  1.00  0.00    -0.269 OA
BRANCH  34  37
ATOM     37  C   UNL A   1      41.276  26.214  27.339  1.00  0.00     0.039 A 
ATOM     38  C   UNL A   1      42.258  27.161  27.643  1.00  0.00     0.014 A 
ATOM     39  C   UNL A   1      40.203  26.015  28.212  1.00  0.00     0.014 A 
ATOM     40  C   UNL A   1      42.131  27.950  28.790  1.00  0.00     0.010 A 
ATOM     41  C   UNL A   1      40.040  26.853  29.315  1.00  0.00     0.010 A 
ATOM     42  C   UNL A   1      41.005  27.825  29.619  1.00  0.00    -0.014 A 
BRANCH  42  43
ATOM     43  C   UNL A   1      40.820  28.696  30.808  1.00  0.00     0.031 A 
ATOM     44  C   UNL A   1      39.752  29.756  30.813  1.00  0.00     0.074 A 
ATOM     45  C   UNL A   1      41.649  28.572  31.863  1.00  0.00     0.049 A 
ATOM     46  N   UNL A   1      39.461  30.634  31.738  1.00  0.00    -0.248 NA
ATOM     47  C   UNL A   1      38.917  29.857  29.606  1.00  0.00     0.031 C 
ATOM     48  C   UNL A   1      42.743  27.606  31.968  1.00  0.00     0.029 A 
ATOM     49  N   UNL A   1      41.700  29.261  33.048  1.00  0.00    -0.354 N 
ATOM     50  C   UNL A   1      38.422  31.399  31.222  1.00  0.00     0.074 A 
ATOM     51  C   UNL A   1      38.174  30.918  29.879  1.00  0.00     0.031 C 
ATOM     52  C   UNL A   1      43.332  27.738  33.168  1.00  0.00     0.029 A 
ATOM     53  C   UNL A   1      42.685  28.823  33.900  1.00  0.00     0.049 A 
ATOM     54  H   UNL A   1      41.087  30.001  33.269  1.00  0.00     0.167 HD
ATOM     55  C   UNL A   1      37.720  32.395  31.817  1.00  0.00     0.037 A 
ATOM     56  C   UNL A   1      43.027  29.243  35.133  1.00  0.00     0.037 A 
ATOM     57  C   UNL A   1      37.969  32.868  33.154  1.00  0.00     0.049 A 
ATOM     58  C   UNL A   1      42.255  30.367  35.768  1.00  0.00     0.074 A 
ATOM     59  C   UNL A   1      37.288  33.838  33.868  1.00  0.00     0.029 A 
ATOM     60  N   UNL A   1      38.988  32.408  33.978  1.00  0.00    -0.354 N 
ATOM     61  N   UNL A   1      41.239  31.043  35.288  1.00  0.00    -0.248 NA
ATOM     62  C   UNL A   1      42.676  30.784  37.113  1.00  0.00     0.031 C 
ATOM     63  C   UNL A   1      37.923  33.998  35.105  1.00  0.00     0.029 A 
ATOM     64  C   UNL A   1      38.969  33.092  35.184  1.00  0.00     0.049 A 
ATOM     65  H   UNL A   1      39.630  31.701  33.741  1.00  0.00     0.167 HD
ATOM     66  C   UNL A   1      40.878  31.946  36.282  1.00  0.00     0.074 A 
ATOM     67  C   UNL A   1      41.784  31.725  37.392  1.00  0.00     0.031 C 
ATOM     68  C   UNL A   1      39.882  32.866  36.279  1.00  0.00     0.037 A 
BRANCH  55  69
ATOM     69  C   UNL A   1      36.627  33.043  31.007  1.00  0.00     0.058 A 
ATOM     70  C   UNL A   1      36.914  33.922  29.949  1.00  0.00     0.135 A 
ATOM     71  C   UNL A   1      35.276  32.803  31.306  1.00  0.00     0.135 A 
ATOM     72  F   UNL A   1      38.187  34.196  29.624  1.00  0.00    -0.206 F 
ATOM     73  C   UNL A   1      35.906  34.587  29.259  1.00  0.00     0.059 A 
ATOM     74  C   UNL A   1      34.249  33.433  30.607  1.00  0.00     0.059 A 
ATOM     75  F   UNL A   1      34.941  31.966  32.300  1.00  0.00    -0.206 F 
ATOM     76  C   UNL A   1      34.576  34.345  29.605  1.00  0.00     0.060 A 
BRANCH  76  77
ATOM     77  S   UNL A   1      33.279  35.256  28.739  1.00  0.00     0.124 S 
ATOM     78  O   UNL A   1      34.066  36.179  27.928  1.00  0.00    -0.237 OA
ATOM     79  O   UNL A   1      32.590  34.199  28.004  1.00  0.00    -0.237 OA
ATOM     80  O   UNL A   1      32.512  35.865  29.821  1.00  0.00    -0.744 OA
ENDBRANCH  76  77
ENDBRANCH  55  69
BRANCH  56  81
ATOM     81  C   UNL A   1      44.120  28.554  35.866  1.00  0.00     0.058 A 
ATOM     82  C   UNL A   1      45.449  28.985  35.732  1.00  0.00     0.135 A 
ATOM     83  C   UNL A   1      43.860  27.492  36.746  1.00  0.00     0.135 A 
ATOM     84  F   UNL A   1      45.745  29.990  34.894  1.00  0.00    -0.206 F 
ATOM     85  C   UNL A   1      46.483  28.389  36.444  1.00  0.00     0.059 A 
ATOM     86  C   UNL A   1      44.875  26.896  37.488  1.00  0.00     0.059 A 
ATOM     87  F   UNL A   1      42.603  27.051  36.917  1.00  0.00    -0.206 F 
ATOM     88  C   UNL A   1      46.184  27.350  37.328  1.00  0.00     0.060 A 
BRANCH  88  89
ATOM     89  S   UNL A   1      47.525  26.640  38.307  1.00  0.00     0.124 S 
ATOM     90  O   UNL A   1      47.010  25.305  38.584  1.00  0.00    -0.237 OA
ATOM     91  O   UNL A   1      48.651  26.713  37.381  1.00  0.00    -0.237 OA
ATOM     92  O   UNL A   1      47.609  27.536  39.457  1.00  0.00    -0.744 OA
ENDBRANCH  88  89
ENDBRANCH  56  81
BRANCH  68  93
ATOM     93  C   UNL A   1      39.699  33.690  37.525  1.00  0.00     0.058 A 
ATOM     94  C   UNL A   1      40.385  34.899  37.719  1.00  0.00     0.135 A 
ATOM     95  C   UNL A   1      38.790  33.285  38.516  1.00  0.00     0.135 A 
ATOM     96  F   UNL A   1      41.273  35.327  36.806  1.00  0.00    -0.206 F 
ATOM     97  C   UNL A   1      40.191  35.668  38.863  1.00  0.00     0.059 A 
ATOM     98  C   UNL A   1      38.562  34.052  39.655  1.00  0.00     0.059 A 
ATOM     99  F   UNL A   1      38.102  32.141  38.376  1.00  0.00    -0.206 F 
ATOM    100  C   UNL A   1      39.276  35.236  39.824  1.00  0.00     0.060 A 
BRANCH 100 101
ATOM    101  S   UNL A   1      39.012  36.258  41.289  1.00  0.00     0.124 S 
ATOM    102  O   UNL A   1      37.777  35.695  41.822  1.00  0.00    -0.237 OA
ATOM    103  O   UNL A   1      40.216  35.999  42.072  1.00  0.00    -0.237 OA
ATOM    104  O   UNL A   1      38.905  37.609  40.746  1.00  0.00    -0.744 OA
ENDBRANCH 100 101
ENDBRANCH  68  93
ENDBRANCH  42  43
ENDBRANCH  34  37
ENDBRANCH  32  33
ENDBRANCH  31  32
ENDBRANCH  30  31
ENDBRANCH   1  30
TORSDOF 21
ENDMDL
MODEL 3
REMARK VINA RESULT:     -11.9      6.651     12.304
REMARK SMILES NS(=O)(=O)c1ccc(/N=C/c2ccc(O)c(C(=O)NCCCCCCNC(=O)c3ccc(-c4c5nc(c(-c6c(F)cc(S(=O)(=O)[O-])cc6F)c6ccc([nH]6)c(-c6c(F)cc(S(=O)(=O)[O-])cc6F)c6nc(c(-c7c(F)cc(S(=O)(=O)[O-])cc7F)c7ccc4[nH]7)C=C6)C=C5)cc3)c2)cc1
REMARK SMILES IDX 22 1 21 2 20 3 19 4 17 5 18 6 16 8 11 9 12 10 95 11 13 12
REMARK SMILES IDX 14 13 10 14 9 15 8 16 5 17 6 18 97 19 7 20 96 21 2 22 3 23
REMARK SMILES IDX 4 24 1 25 15 28 23 30 24 31 25 32 26 33 27 34 28 36 29 37
REMARK SMILES IDX 30 38 94 39 31 40 93 41 32 42 33 43 34 44 87 45 35 46 92 47
REMARK SMILES IDX 86 48 88 49 36 50 91 51 85 52 84 53 37 55 71 56 50 57 70 58
REMARK SMILES IDX 51 59 54 60 69 61 89 62 52 63 53 64 68 66 90 67 55 68 38 69
REMARK SMILES IDX 39 70 48 71 40 72 41 73 47 74 49 75 42 76 43 77 44 78 45 79
REMARK SMILES IDX 46 80 72 81 73 82 82 83 74 84 75 85 81 86 83 87 76 88 77 89
REMARK SMILES IDX 78 90 79 91 80 92 56 93 57 94 66 95 58 96 59 97 65 98 67 99
REMARK SMILES IDX 60 100 61 101 62 102 63 103 64 104
REMARK H PARENT 19 7 1 26 1 27 15 29 26 35 88 54 54 65
REMARK Flexibility Score: inf
ROOT
ATOM      1  C   UNL A   1      33.727  27.932  25.319  1.00  0.00     0.002 C 
ENDROOT
BRANCH   1   2
ATOM      2  C   UNL A   1      34.001  28.209  23.840  1.00  0.00     0.021 C 
BRANCH   2   3
ATOM      3  C   UNL A   1      32.890  28.893  23.052  1.00  0.00     0.116 C 
BRANCH   3   4
ATOM      4  N   UNL A   1      32.336  28.084  21.976  1.00  0.00    -0.352 N 
ATOM      5  C   UNL A   1      31.660  26.885  22.011  1.00  0.00     0.255 C 
ATOM      6  O   UNL A   1      31.350  26.339  20.951  1.00  0.00    -0.269 OA
ATOM      7  H   UNL A   1      32.466  28.456  21.074  1.00  0.00     0.163 HD
BRANCH   5   8
ATOM      8  C   UNL A   1      31.357  26.168  23.277  1.00  0.00     0.082 A 
ATOM      9  C   UNL A   1      31.517  24.206  24.694  1.00  0.00    -0.006 A 
ATOM     10  C   UNL A   1      30.526  24.706  25.538  1.00  0.00     0.013 A 
ATOM     11  C   UNL A   1      31.983  24.969  23.618  1.00  0.00     0.027 A 
ATOM     12  C   UNL A   1      29.987  25.969  25.283  1.00  0.00     0.047 A 
ATOM     13  C   UNL A   1      30.393  26.687  24.155  1.00  0.00     0.128 A 
BRANCH   9  14
ATOM     14  C   UNL A   1      31.988  22.810  24.837  1.00  0.00     0.119 C 
ATOM     15  N   UNL A   1      31.936  22.015  23.819  1.00  0.00    -0.256 NA
BRANCH  15  16
ATOM     16  C   UNL A   1      32.259  20.657  23.942  1.00  0.00     0.063 A 
ATOM     17  C   UNL A   1      33.225  18.041  24.243  1.00  0.00     0.082 A 
ATOM     18  C   UNL A   1      33.301  18.931  25.315  1.00  0.00     0.024 A 
ATOM     19  C   UNL A   1      32.655  18.438  23.031  1.00  0.00     0.024 A 
ATOM     20  C   UNL A   1      32.817  20.232  25.155  1.00  0.00     0.030 A 
ATOM     21  C   UNL A   1      32.186  19.747  22.880  1.00  0.00     0.030 A 
BRANCH  17  22
ATOM     22  S   UNL A   1      33.882  16.401  24.369  1.00  0.00     0.238 S 
ATOM     23  O   UNL A   1      34.883  16.413  25.406  1.00  0.00    -0.207 OA
ATOM     24  O   UNL A   1      34.142  15.928  23.028  1.00  0.00    -0.207 OA
BRANCH  22  25
ATOM     25  N   UNL A   1      32.600  15.478  24.935  1.00  0.00    -0.225 NA
ATOM     26  H   UNL A   1      32.420  14.713  24.286  1.00  0.00     0.137 HD
ATOM     27  H   UNL A   1      31.768  16.063  25.012  1.00  0.00     0.137 HD
ENDBRANCH  22  25
ENDBRANCH  17  22
ENDBRANCH  15  16
ENDBRANCH   9  14
BRANCH  13  28
ATOM     28  O   UNL A   1      29.788  27.903  23.962  1.00  0.00    -0.507 OA
ATOM     29  H   UNL A   1      28.968  28.089  24.373  1.00  0.00     0.293 HD
ENDBRANCH  13  28
ENDBRANCH   5   8
ENDBRANCH   3   4
ENDBRANCH   2   3
ENDBRANCH   1   2
BRANCH   1  30
ATOM     30  C   UNL A   1      33.687  29.149  26.246  1.00  0.00     0.002 C 
BRANCH  30  31
ATOM     31  C   UNL A   1      34.585  29.095  27.483  1.00  0.00     0.021 C 
BRANCH  31  32
ATOM     32  C   UNL A   1      35.335  30.379  27.821  1.00  0.00     0.116 C 
BRANCH  32  33
ATOM     33  N   UNL A   1      35.327  30.682  29.243  1.00  0.00    -0.352 N 
ATOM     34  C   UNL A   1      36.299  30.459  30.189  1.00  0.00     0.251 C 
ATOM     35  H   UNL A   1      34.506  31.108  29.576  1.00  0.00     0.163 HD
ATOM     36  O   UNL A   1      36.048  30.656  31.375  1.00  0.00    -0.269 OA
BRANCH  34  37
ATOM     37  C   UNL A   1      37.633  29.958  29.787  1.00  0.00     0.039 A 
ATOM     38  C   UNL A   1      38.014  30.058  28.446  1.00  0.00     0.014 A 
ATOM     39  C   UNL A   1      38.501  29.381  30.718  1.00  0.00     0.014 A 
ATOM     40  C   UNL A   1      39.287  29.636  28.052  1.00  0.00     0.010 A 
ATOM     41  C   UNL A   1      39.795  29.031  30.338  1.00  0.00     0.010 A 
ATOM     42  C   UNL A   1      40.200  29.148  29.000  1.00  0.00    -0.014 A 
BRANCH  42  43
ATOM     43  C   UNL A   1      41.580  28.754  28.612  1.00  0.00     0.031 A 
ATOM     44  C   UNL A   1      42.687  29.772  28.610  1.00  0.00     0.074 A 
ATOM     45  C   UNL A   1      41.825  27.492  28.209  1.00  0.00     0.049 A 
ATOM     46  N   UNL A   1      43.943  29.630  28.269  1.00  0.00    -0.248 NA
ATOM     47  C   UNL A   1      42.328  31.138  29.020  1.00  0.00     0.031 C 
ATOM     48  C   UNL A   1      40.831  26.420  28.136  1.00  0.00     0.029 A 
ATOM     49  N   UNL A   1      42.987  26.897  27.786  1.00  0.00    -0.354 N 
ATOM     50  C   UNL A   1      44.519  30.886  28.411  1.00  0.00     0.074 A 
ATOM     51  C   UNL A   1      43.462  31.790  28.812  1.00  0.00     0.031 C 
ATOM     52  C   UNL A   1      41.433  25.290  27.732  1.00  0.00     0.029 A 
ATOM     53  C   UNL A   1      42.845  25.566  27.479  1.00  0.00     0.049 A 
ATOM     54  H   UNL A   1      43.843  27.379  27.709  1.00  0.00     0.167 HD
ATOM     55  C   UNL A   1      45.815  31.252  28.247  1.00  0.00     0.037 A 
ATOM     56  C   UNL A   1      43.749  24.665  27.046  1.00  0.00     0.037 A 
ATOM     57  C   UNL A   1      46.863  30.348  27.851  1.00  0.00     0.049 A 
ATOM     58  C   UNL A   1      45.176  25.094  26.843  1.00  0.00     0.074 A 
ATOM     59  C   UNL A   1      48.214  30.605  27.700  1.00  0.00     0.029 A 
ATOM     60  N   UNL A   1      46.674  29.009  27.532  1.00  0.00    -0.354 N 
ATOM     61  N   UNL A   1      45.716  26.274  27.035  1.00  0.00    -0.248 NA
ATOM     62  C   UNL A   1      46.115  24.070  26.367  1.00  0.00     0.031 C 
ATOM     63  C   UNL A   1      48.835  29.435  27.247  1.00  0.00     0.029 A 
ATOM     64  C   UNL A   1      47.880  28.434  27.164  1.00  0.00     0.049 A 
ATOM     65  H   UNL A   1      45.810  28.538  27.564  1.00  0.00     0.167 HD
ATOM     66  C   UNL A   1      47.066  26.128  26.733  1.00  0.00     0.074 A 
ATOM     67  C   UNL A   1      47.258  24.744  26.348  1.00  0.00     0.031 C 
ATOM     68  C   UNL A   1      48.055  27.055  26.777  1.00  0.00     0.037 A 
BRANCH  55  69
ATOM     69  C   UNL A   1      46.153  32.701  28.484  1.00  0.00     0.058 A 
ATOM     70  C   UNL A   1      46.073  33.656  27.457  1.00  0.00     0.135 A 
ATOM     71  C   UNL A   1      46.587  33.138  29.747  1.00  0.00     0.135 A 
ATOM     72  F   UNL A   1      45.674  33.295  26.227  1.00  0.00    -0.206 F 
ATOM     73  C   UNL A   1      46.470  34.975  27.654  1.00  0.00     0.059 A 
ATOM     74  C   UNL A   1      46.958  34.460  29.976  1.00  0.00     0.059 A 
ATOM     75  F   UNL A   1      46.675  32.272  30.769  1.00  0.00    -0.206 F 
ATOM     76  C   UNL A   1      46.923  35.364  28.915  1.00  0.00     0.060 A 
BRANCH  76  77
ATOM     77  S   UNL A   1      47.487  37.064  29.144  1.00  0.00     0.124 S 
ATOM     78  O   UNL A   1      46.589  37.527  30.197  1.00  0.00    -0.237 OA
ATOM     79  O   UNL A   1      48.881  36.883  29.536  1.00  0.00    -0.237 OA
ATOM     80  O   UNL A   1      47.282  37.669  27.831  1.00  0.00    -0.744 OA
ENDBRANCH  76  77
ENDBRANCH  55  69
BRANCH  56  81
ATOM     81  C   UNL A   1      43.335  23.255  26.830  1.00  0.00     0.058 A 
ATOM     82  C   UNL A   1      43.238  22.732  25.533  1.00  0.00     0.135 A 
ATOM     83  C   UNL A   1      43.076  22.392  27.907  1.00  0.00     0.135 A 
ATOM     84  F   UNL A   1      43.467  23.522  24.473  1.00  0.00    -0.206 F 
ATOM     85  C   UNL A   1      42.900  21.402  25.306  1.00  0.00     0.059 A 
ATOM     86  C   UNL A   1      42.760  21.052  27.706  1.00  0.00     0.059 A 
ATOM     87  F   UNL A   1      43.166  22.844  29.169  1.00  0.00    -0.206 F 
ATOM     88  C   UNL A   1      42.672  20.567  26.401  1.00  0.00     0.060 A 
BRANCH  88  89
ATOM     89  S   UNL A   1      42.315  18.823  26.096  1.00  0.00     0.124 S 
ATOM     90  O   UNL A   1      40.903  18.872  25.737  1.00  0.00    -0.237 OA
ATOM     91  O   UNL A   1      43.241  18.508  25.013  1.00  0.00    -0.237 OA
ATOM     92  O   UNL A   1      42.621  18.192  27.377  1.00  0.00    -0.744 OA
ENDBRANCH  88  89
ENDBRANCH  56  81
BRANCH  68  93
ATOM     93  C   UNL A   1      49.446  26.597  26.426  1.00  0.00     0.058 A 
ATOM     94  C   UNL A   1      50.280  25.976  27.368  1.00  0.00     0.135 A 
ATOM     95  C   UNL A   1      49.929  26.740  25.116  1.00  0.00     0.135 A 
ATOM     96  F   UNL A   1      49.870  25.822  28.638  1.00  0.00    -0.206 F 
ATOM     97  C   UNL A   1      51.555  25.532  27.029  1.00  0.00     0.059 A 
ATOM     98  C   UNL A   1      51.191  26.281  24.748  1.00  0.00     0.059 A 
ATOM     99  F   UNL A   1      49.169  27.320  24.173  1.00  0.00    -0.206 F 
ATOM    100  C   UNL A   1      52.000  25.688  25.715  1.00  0.00     0.060 A 
BRANCH 100 101
ATOM    101  S   UNL A   1      53.644  25.081  25.281  1.00  0.00     0.124 S 
ATOM    102  O   UNL A   1      53.462  23.637  25.384  1.00  0.00    -0.237 OA
ATOM    103  O   UNL A   1      53.822  25.602  23.929  1.00  0.00    -0.237 OA
ATOM    104  O   UNL A   1      54.507  25.680  26.294  1.00  0.00    -0.744 OA
ENDBRANCH 100 101
ENDBRANCH  68  93
ENDBRANCH  42  43
ENDBRANCH  34  37
ENDBRANCH  32  33
ENDBRANCH  31  32
ENDBRANCH  30  31
ENDBRANCH   1  30
TORSDOF 21
ENDMDL
