MODEL 1
REMARK VINA RESULT:     -12.0      0.000      0.000
REMARK SMILES COc1ccc([C@@H]2CC[NH2+][C@H]2C(=O)NCCCCCCNC(=O)c2ccc(-c3c4nc(c(-c5c(F)cc(S(=O)(=O)[O-])cc5F)c5ccc([nH]5)c(-c5c(F)cc(S(=O)(=O)[O-])cc5F)c5nc(c(-c6c(F)cc(S(=O)(=O)[O-])cc6F)c6ccc3[nH]6)C=C5)C=C4)cc2)c2ccccc12
REMARK SMILES IDX 18 1 17 2 16 3 15 4 14 5 12 6 13 7 11 9 7 10 8 11 9 12 10 13
REMARK SMILES IDX 6 16 3 17 4 18 95 19 5 20 90 21 94 22 91 23 93 24 92 25 2 26
REMARK SMILES IDX 1 27 19 28 20 29 21 30 22 31 23 33 24 34 25 35 89 36 26 37
REMARK SMILES IDX 88 38 27 39 28 40 29 41 82 42 30 43 87 44 81 45 83 46 31 47
REMARK SMILES IDX 86 48 80 49 79 50 32 52 66 53 45 54 65 55 46 56 49 57 64 58
REMARK SMILES IDX 84 59 47 60 48 61 63 63 85 64 50 65 33 66 34 67 43 68 35 69
REMARK SMILES IDX 36 70 42 71 44 72 37 73 38 74 39 75 40 76 41 77 67 78 68 79
REMARK SMILES IDX 77 80 69 81 70 82 76 83 78 84 71 85 72 86 73 87 74 88 75 89
REMARK SMILES IDX 51 90 52 91 61 92 53 93 54 94 60 95 62 96 55 97 56 98 57 99
REMARK SMILES IDX 58 100 59 101
REMARK H PARENT 14 8 10 14 10 15 21 32 83 51 49 62
REMARK Flexibility Score: inf
ROOT
ATOM      1  C   UNL A   1      33.042  29.292  26.791  1.00  0.00     0.002 C 
ENDROOT
BRANCH   1   2
ATOM      2  C   UNL A   1      32.397  29.429  25.410  1.00  0.00     0.002 C 
BRANCH   2   3
ATOM      3  C   UNL A   1      33.259  28.914  24.256  1.00  0.00     0.021 C 
BRANCH   3   4
ATOM      4  C   UNL A   1      32.526  28.821  22.917  1.00  0.00     0.116 C 
BRANCH   4   5
ATOM      5  N   UNL A   1      33.060  27.771  22.066  1.00  0.00    -0.351 N 
ATOM      6  C   UNL A   1      32.812  26.429  22.009  1.00  0.00     0.278 C 
ATOM      7  O   UNL A   1      33.442  25.776  21.172  1.00  0.00    -0.268 OA
ATOM      8  H   UNL A   1      33.724  28.085  21.409  1.00  0.00     0.163 HD
BRANCH   6   9
ATOM      9  C   UNL A   1      31.791  25.751  22.942  1.00  0.00     0.280 C 
ATOM     10  C   UNL A   1      32.357  25.355  24.313  1.00  0.00     0.094 C 
ATOM     11  C   UNL A   1      31.293  25.822  25.318  1.00  0.00     0.076 C 
ATOM     12  C   UNL A   1      30.109  26.300  24.493  1.00  0.00     0.262 C 
ATOM     13  N   UNL A   1      30.618  26.635  23.167  1.00  0.00    -0.335 N 
ATOM     14  H   UNL A   1      30.902  27.615  23.133  1.00  0.00     0.346 HD
ATOM     15  H   UNL A   1      29.908  26.502  22.449  1.00  0.00     0.346 HD
BRANCH  10  16
ATOM     16  C   UNL A   1      32.787  23.888  24.354  1.00  0.00    -0.030 A 
ATOM     17  C   UNL A   1      33.505  21.170  24.383  1.00  0.00     0.126 A 
ATOM     18  C   UNL A   1      32.239  21.554  23.945  1.00  0.00     0.047 A 
ATOM     19  C   UNL A   1      34.440  22.123  24.835  1.00  0.00     0.024 A 
ATOM     20  C   UNL A   1      31.891  22.899  23.915  1.00  0.00     0.009 A 
ATOM     21  C   UNL A   1      34.097  23.500  24.801  1.00  0.00    -0.011 A 
ATOM     22  C   UNL A   1      35.717  21.732  25.302  1.00  0.00     0.012 A 
ATOM     23  C   UNL A   1      35.099  24.413  25.217  1.00  0.00     0.009 A 
ATOM     24  C   UNL A   1      36.664  22.662  25.723  1.00  0.00     0.001 A 
ATOM     25  C   UNL A   1      36.356  24.008  25.675  1.00  0.00     0.001 A 
BRANCH  17  26
ATOM     26  O   UNL A   1      33.846  19.836  24.434  1.00  0.00    -0.496 OA
ATOM     27  C   UNL A   1      32.772  19.023  24.903  1.00  0.00     0.278 C 
ENDBRANCH  17  26
ENDBRANCH  10  16
ENDBRANCH   6   9
ENDBRANCH   4   5
ENDBRANCH   3   4
ENDBRANCH   2   3
ENDBRANCH   1   2
BRANCH   1  28
ATOM     28  C   UNL A   1      33.971  30.444  27.184  1.00  0.00     0.021 C 
BRANCH  28  29
ATOM     29  C   UNL A   1      35.242  30.015  27.912  1.00  0.00     0.116 C 
BRANCH  29  30
ATOM     30  N   UNL A   1      35.297  30.554  29.260  1.00  0.00    -0.352 N 
ATOM     31  C   UNL A   1      36.308  30.466  30.181  1.00  0.00     0.251 C 
ATOM     32  H   UNL A   1      34.499  31.050  29.553  1.00  0.00     0.163 HD
ATOM     33  O   UNL A   1      36.097  30.778  31.355  1.00  0.00    -0.269 OA
BRANCH  31  34
ATOM     34  C   UNL A   1      37.641  29.985  29.767  1.00  0.00     0.039 A 
ATOM     35  C   UNL A   1      37.992  30.042  28.417  1.00  0.00     0.014 A 
ATOM     36  C   UNL A   1      38.538  29.469  30.708  1.00  0.00     0.014 A 
ATOM     37  C   UNL A   1      39.262  29.623  28.016  1.00  0.00     0.010 A 
ATOM     38  C   UNL A   1      39.828  29.122  30.317  1.00  0.00     0.010 A 
ATOM     39  C   UNL A   1      40.201  29.185  28.966  1.00  0.00    -0.014 A 
BRANCH  39  40
ATOM     40  C   UNL A   1      41.572  28.792  28.558  1.00  0.00     0.031 A 
ATOM     41  C   UNL A   1      42.682  29.807  28.538  1.00  0.00     0.074 A 
ATOM     42  C   UNL A   1      41.808  27.525  28.163  1.00  0.00     0.049 A 
ATOM     43  N   UNL A   1      43.939  29.651  28.209  1.00  0.00    -0.248 NA
ATOM     44  C   UNL A   1      42.327  31.183  28.914  1.00  0.00     0.031 C 
ATOM     45  C   UNL A   1      40.804  26.462  28.093  1.00  0.00     0.029 A 
ATOM     46  N   UNL A   1      42.966  26.916  27.750  1.00  0.00    -0.354 N 
ATOM     47  C   UNL A   1      44.522  30.908  28.332  1.00  0.00     0.074 A 
ATOM     48  C   UNL A   1      43.465  31.825  28.701  1.00  0.00     0.031 C 
ATOM     49  C   UNL A   1      41.397  25.323  27.704  1.00  0.00     0.029 A 
ATOM     50  C   UNL A   1      42.813  25.581  27.462  1.00  0.00     0.049 A 
ATOM     51  H   UNL A   1      43.825  27.390  27.669  1.00  0.00     0.167 HD
ATOM     52  C   UNL A   1      45.821  31.259  28.176  1.00  0.00     0.037 A 
ATOM     53  C   UNL A   1      43.714  24.666  27.056  1.00  0.00     0.037 A 
ATOM     54  C   UNL A   1      46.867  30.338  27.813  1.00  0.00     0.049 A 
ATOM     55  C   UNL A   1      45.148  25.080  26.876  1.00  0.00     0.074 A 
ATOM     56  C   UNL A   1      48.222  30.580  27.678  1.00  0.00     0.029 A 
ATOM     57  N   UNL A   1      46.672  28.995  27.519  1.00  0.00    -0.354 N 
ATOM     58  N   UNL A   1      45.696  26.258  27.059  1.00  0.00    -0.248 NA
ATOM     59  C   UNL A   1      46.086  24.038  26.441  1.00  0.00     0.031 C 
ATOM     60  C   UNL A   1      48.839  29.397  27.254  1.00  0.00     0.029 A 
ATOM     61  C   UNL A   1      47.877  28.402  27.177  1.00  0.00     0.049 A 
ATOM     62  H   UNL A   1      45.804  28.531  27.548  1.00  0.00     0.167 HD
ATOM     63  C   UNL A   1      47.049  26.094  26.784  1.00  0.00     0.074 A 
ATOM     64  C   UNL A   1      47.236  24.699  26.436  1.00  0.00     0.031 C 
ATOM     65  C   UNL A   1      48.046  27.014  26.819  1.00  0.00     0.037 A 
BRANCH  52  66
ATOM     66  C   UNL A   1      46.170  32.709  28.391  1.00  0.00     0.058 A 
ATOM     67  C   UNL A   1      46.155  33.638  27.336  1.00  0.00     0.135 A 
ATOM     68  C   UNL A   1      46.538  33.176  29.663  1.00  0.00     0.135 A 
ATOM     69  F   UNL A   1      45.821  33.246  26.096  1.00  0.00    -0.206 F 
ATOM     70  C   UNL A   1      46.549  34.959  27.520  1.00  0.00     0.059 A 
ATOM     71  C   UNL A   1      46.903  34.503  29.878  1.00  0.00     0.059 A 
ATOM     72  F   UNL A   1      46.564  32.337  30.711  1.00  0.00    -0.206 F 
ATOM     73  C   UNL A   1      46.932  35.379  28.795  1.00  0.00     0.060 A 
BRANCH  73  74
ATOM     74  S   UNL A   1      47.483  37.085  29.012  1.00  0.00     0.124 S 
ATOM     75  O   UNL A   1      46.304  37.827  28.574  1.00  0.00    -0.237 OA
ATOM     76  O   UNL A   1      47.771  37.143  30.442  1.00  0.00    -0.237 OA
ATOM     77  O   UNL A   1      48.646  37.180  28.137  1.00  0.00    -0.744 OA
ENDBRANCH  73  74
ENDBRANCH  52  66
BRANCH  53  78
ATOM     78  C   UNL A   1      43.287  23.258  26.849  1.00  0.00     0.058 A 
ATOM     79  C   UNL A   1      43.170  22.730  25.555  1.00  0.00     0.135 A 
ATOM     80  C   UNL A   1      43.037  22.401  27.932  1.00  0.00     0.135 A 
ATOM     81  F   UNL A   1      43.392  23.512  24.488  1.00  0.00    -0.206 F 
ATOM     82  C   UNL A   1      42.821  21.401  25.340  1.00  0.00     0.059 A 
ATOM     83  C   UNL A   1      42.709  21.062  27.742  1.00  0.00     0.059 A 
ATOM     84  F   UNL A   1      43.152  22.855  29.189  1.00  0.00    -0.206 F 
ATOM     85  C   UNL A   1      42.601  20.572  26.441  1.00  0.00     0.060 A 
BRANCH  85  86
ATOM     86  S   UNL A   1      42.232  18.828  26.149  1.00  0.00     0.124 S 
ATOM     87  O   UNL A   1      42.523  18.243  27.453  1.00  0.00    -0.237 OA
ATOM     88  O   UNL A   1      40.824  18.874  25.768  1.00  0.00    -0.237 OA
ATOM     89  O   UNL A   1      43.152  18.465  25.075  1.00  0.00    -0.744 OA
ENDBRANCH  85  86
ENDBRANCH  53  78
BRANCH  65  90
ATOM     90  C   UNL A   1      49.435  26.534  26.492  1.00  0.00     0.058 A 
ATOM     91  C   UNL A   1      50.274  25.979  27.471  1.00  0.00     0.135 A 
ATOM     92  C   UNL A   1      49.922  26.606  25.177  1.00  0.00     0.135 A 
ATOM     93  F   UNL A   1      49.860  25.892  28.746  1.00  0.00    -0.206 F 
ATOM     94  C   UNL A   1      51.559  25.545  27.165  1.00  0.00     0.059 A 
ATOM     95  C   UNL A   1      51.194  26.152  24.843  1.00  0.00     0.059 A 
ATOM     96  F   UNL A   1      49.157  27.117  24.199  1.00  0.00    -0.206 F 
ATOM     97  C   UNL A   1      52.012  25.637  25.848  1.00  0.00     0.060 A 
BRANCH  97  98
ATOM     98  S   UNL A   1      53.677  25.060  25.462  1.00  0.00     0.124 S 
ATOM     99  O   UNL A   1      53.948  25.760  24.211  1.00  0.00    -0.237 OA
ATOM    100  O   UNL A   1      54.442  25.513  26.620  1.00  0.00    -0.237 OA
ATOM    101  O   UNL A   1      53.519  23.613  25.351  1.00  0.00    -0.744 OA
ENDBRANCH  97  98
ENDBRANCH  65  90
ENDBRANCH  39  40
ENDBRANCH  31  34
ENDBRANCH  29  30
ENDBRANCH  28  29
ENDBRANCH   1  28
TORSDOF 18
ENDMDL
MODEL 2
REMARK VINA RESULT:     -12.0      0.952      2.170
REMARK SMILES COc1ccc([C@@H]2CC[NH2+][C@H]2C(=O)NCCCCCCNC(=O)c2ccc(-c3c4nc(c(-c5c(F)cc(S(=O)(=O)[O-])cc5F)c5ccc([nH]5)c(-c5c(F)cc(S(=O)(=O)[O-])cc5F)c5nc(c(-c6c(F)cc(S(=O)(=O)[O-])cc6F)c6ccc3[nH]6)C=C5)C=C4)cc2)c2ccccc12
REMARK SMILES IDX 18 1 17 2 16 3 15 4 14 5 12 6 13 7 11 9 7 10 8 11 9 12 10 13
REMARK SMILES IDX 6 16 3 17 4 18 95 19 5 20 90 21 94 22 91 23 93 24 92 25 2 26
REMARK SMILES IDX 1 27 19 28 20 29 21 30 22 31 23 33 24 34 25 35 89 36 26 37
REMARK SMILES IDX 88 38 27 39 28 40 29 41 82 42 30 43 87 44 81 45 83 46 31 47
REMARK SMILES IDX 86 48 80 49 79 50 32 52 66 53 45 54 65 55 46 56 49 57 64 58
REMARK SMILES IDX 84 59 47 60 48 61 63 63 85 64 50 65 33 66 34 67 43 68 35 69
REMARK SMILES IDX 36 70 42 71 44 72 37 73 38 74 39 75 40 76 41 77 67 78 68 79
REMARK SMILES IDX 77 80 69 81 70 82 76 83 78 84 71 85 72 86 73 87 74 88 75 89
REMARK SMILES IDX 51 90 52 91 61 92 53 93 54 94 60 95 62 96 55 97 56 98 57 99
REMARK SMILES IDX 58 100 59 101
REMARK H PARENT 14 8 10 14 10 15 21 32 83 51 49 62
REMARK Flexibility Score: inf
ROOT
ATOM      1  C   UNL A   1      34.669  29.134  27.100  1.00  0.00     0.002 C 
ENDROOT
BRANCH   1   2
ATOM      2  C   UNL A   1      33.866  28.750  25.854  1.00  0.00     0.002 C 
BRANCH   2   3
ATOM      3  C   UNL A   1      32.392  28.441  26.122  1.00  0.00     0.021 C 
BRANCH   3   4
ATOM      4  C   UNL A   1      32.132  27.030  26.651  1.00  0.00     0.116 C 
BRANCH   4   5
ATOM      5  N   UNL A   1      31.085  26.346  25.912  1.00  0.00    -0.351 N 
ATOM      6  C   UNL A   1      31.060  25.803  24.658  1.00  0.00     0.278 C 
ATOM      7  O   UNL A   1      30.000  25.289  24.290  1.00  0.00    -0.268 OA
ATOM      8  H   UNL A   1      30.237  26.257  26.405  1.00  0.00     0.163 HD
BRANCH   6   9
ATOM      9  C   UNL A   1      32.296  25.823  23.739  1.00  0.00     0.280 C 
ATOM     10  C   UNL A   1      32.609  24.474  23.077  1.00  0.00     0.094 C 
ATOM     11  C   UNL A   1      32.893  24.823  21.608  1.00  0.00     0.076 C 
ATOM     12  C   UNL A   1      32.899  26.341  21.525  1.00  0.00     0.262 C 
ATOM     13  N   UNL A   1      32.133  26.836  22.664  1.00  0.00    -0.335 N 
ATOM     14  H   UNL A   1      31.148  26.932  22.415  1.00  0.00     0.346 HD
ATOM     15  H   UNL A   1      32.460  27.753  22.964  1.00  0.00     0.346 HD
BRANCH  10  16
ATOM     16  C   UNL A   1      33.675  23.692  23.847  1.00  0.00    -0.030 A 
ATOM     17  C   UNL A   1      35.670  22.332  25.288  1.00  0.00     0.126 A 
ATOM     18  C   UNL A   1      35.754  23.711  25.108  1.00  0.00     0.047 A 
ATOM     19  C   UNL A   1      34.602  21.590  24.742  1.00  0.00     0.024 A 
ATOM     20  C   UNL A   1      34.760  24.384  24.410  1.00  0.00     0.009 A 
ATOM     21  C   UNL A   1      33.576  22.270  24.034  1.00  0.00    -0.011 A 
ATOM     22  C   UNL A   1      34.527  20.186  24.905  1.00  0.00     0.012 A 
ATOM     23  C   UNL A   1      32.503  21.476  23.556  1.00  0.00     0.009 A 
ATOM     24  C   UNL A   1      33.464  19.442  24.398  1.00  0.00     0.001 A 
ATOM     25  C   UNL A   1      32.445  20.091  23.726  1.00  0.00     0.001 A 
BRANCH  17  26
ATOM     26  O   UNL A   1      36.664  21.657  25.961  1.00  0.00    -0.496 OA
ATOM     27  C   UNL A   1      37.910  21.703  25.268  1.00  0.00     0.278 C 
ENDBRANCH  17  26
ENDBRANCH  10  16
ENDBRANCH   6   9
ENDBRANCH   4   5
ENDBRANCH   3   4
ENDBRANCH   2   3
ENDBRANCH   1   2
BRANCH   1  28
ATOM     28  C   UNL A   1      34.424  30.557  27.609  1.00  0.00     0.021 C 
BRANCH  28  29
ATOM     29  C   UNL A   1      35.617  31.189  28.321  1.00  0.00     0.116 C 
BRANCH  29  30
ATOM     30  N   UNL A   1      35.524  31.037  29.763  1.00  0.00    -0.352 N 
ATOM     31  C   UNL A   1      36.424  30.471  30.627  1.00  0.00     0.251 C 
ATOM     32  H   UNL A   1      34.703  31.388  30.176  1.00  0.00     0.163 HD
ATOM     33  O   UNL A   1      36.085  30.215  31.784  1.00  0.00    -0.269 OA
BRANCH  31  34
ATOM     34  C   UNL A   1      37.791  30.157  30.166  1.00  0.00     0.039 A 
ATOM     35  C   UNL A   1      38.764  29.820  31.109  1.00  0.00     0.014 A 
ATOM     36  C   UNL A   1      38.115  30.205  28.805  1.00  0.00     0.014 A 
ATOM     37  C   UNL A   1      40.051  29.486  30.683  1.00  0.00     0.010 A 
ATOM     38  C   UNL A   1      39.376  29.801  28.379  1.00  0.00     0.010 A 
ATOM     39  C   UNL A   1      40.361  29.447  29.313  1.00  0.00    -0.014 A 
BRANCH  39  40
ATOM     40  C   UNL A   1      41.709  29.039  28.848  1.00  0.00     0.031 A 
ATOM     41  C   UNL A   1      42.840  30.031  28.821  1.00  0.00     0.074 A 
ATOM     42  C   UNL A   1      41.905  27.781  28.409  1.00  0.00     0.049 A 
ATOM     43  N   UNL A   1      44.082  29.860  28.446  1.00  0.00    -0.248 NA
ATOM     44  C   UNL A   1      42.527  31.403  29.248  1.00  0.00     0.031 C 
ATOM     45  C   UNL A   1      40.878  26.740  28.341  1.00  0.00     0.029 A 
ATOM     46  N   UNL A   1      43.036  27.160  27.941  1.00  0.00    -0.354 N 
ATOM     47  C   UNL A   1      44.695  31.100  28.586  1.00  0.00     0.074 A 
ATOM     48  C   UNL A   1      43.671  32.028  29.017  1.00  0.00     0.031 C 
ATOM     49  C   UNL A   1      41.433  25.601  27.900  1.00  0.00     0.029 A 
ATOM     50  C   UNL A   1      42.846  25.838  27.619  1.00  0.00     0.049 A 
ATOM     51  H   UNL A   1      43.903  27.619  27.844  1.00  0.00     0.167 HD
ATOM     52  C   UNL A   1      45.996  31.430  28.397  1.00  0.00     0.037 A 
ATOM     53  C   UNL A   1      43.714  24.917  27.157  1.00  0.00     0.037 A 
ATOM     54  C   UNL A   1      47.009  30.498  27.973  1.00  0.00     0.049 A 
ATOM     55  C   UNL A   1      45.149  25.307  26.942  1.00  0.00     0.074 A 
ATOM     56  C   UNL A   1      48.364  30.717  27.801  1.00  0.00     0.029 A 
ATOM     57  N   UNL A   1      46.776  29.169  27.647  1.00  0.00    -0.354 N 
ATOM     58  N   UNL A   1      45.728  26.468  27.140  1.00  0.00    -0.248 NA
ATOM     59  C   UNL A   1      46.050  24.259  26.445  1.00  0.00     0.031 C 
ATOM     60  C   UNL A   1      48.942  29.535  27.322  1.00  0.00     0.029 A 
ATOM     61  C   UNL A   1      47.957  28.562  27.248  1.00  0.00     0.049 A 
ATOM     62  H   UNL A   1      45.900  28.722  27.691  1.00  0.00     0.167 HD
ATOM     63  C   UNL A   1      47.067  26.284  26.816  1.00  0.00     0.074 A 
ATOM     64  C   UNL A   1      47.213  24.897  26.422  1.00  0.00     0.031 C 
ATOM     65  C   UNL A   1      48.084  27.182  26.845  1.00  0.00     0.037 A 
BRANCH  52  66
ATOM     66  C   UNL A   1      46.382  32.866  28.643  1.00  0.00     0.058 A 
ATOM     67  C   UNL A   1      46.782  33.316  29.913  1.00  0.00     0.135 A 
ATOM     68  C   UNL A   1      46.339  33.807  27.603  1.00  0.00     0.135 A 
ATOM     69  F   UNL A   1      46.831  32.463  30.949  1.00  0.00    -0.206 F 
ATOM     70  C   UNL A   1      47.066  34.656  30.156  1.00  0.00     0.059 A 
ATOM     71  C   UNL A   1      46.652  35.147  27.814  1.00  0.00     0.059 A 
ATOM     72  F   UNL A   1      45.971  33.434  26.366  1.00  0.00    -0.206 F 
ATOM     73  C   UNL A   1      46.988  35.567  29.100  1.00  0.00     0.060 A 
BRANCH  73  74
ATOM     74  S   UNL A   1      47.316  37.310  29.438  1.00  0.00     0.124 S 
ATOM     75  O   UNL A   1      48.755  37.384  29.200  1.00  0.00    -0.237 OA
ATOM     76  O   UNL A   1      46.476  37.985  28.454  1.00  0.00    -0.237 OA
ATOM     77  O   UNL A   1      46.901  37.471  30.827  1.00  0.00    -0.744 OA
ENDBRANCH  73  74
ENDBRANCH  52  66
BRANCH  53  78
ATOM     78  C   UNL A   1      43.250  23.525  26.923  1.00  0.00     0.058 A 
ATOM     79  C   UNL A   1      43.011  23.060  25.621  1.00  0.00     0.135 A 
ATOM     80  C   UNL A   1      43.085  22.619  27.982  1.00  0.00     0.135 A 
ATOM     81  F   UNL A   1      43.148  23.891  24.577  1.00  0.00    -0.206 F 
ATOM     82  C   UNL A   1      42.626  21.747  25.376  1.00  0.00     0.059 A 
ATOM     83  C   UNL A   1      42.722  21.294  27.760  1.00  0.00     0.059 A 
ATOM     84  F   UNL A   1      43.317  23.011  29.245  1.00  0.00    -0.206 F 
ATOM     85  C   UNL A   1      42.493  20.868  26.452  1.00  0.00     0.060 A 
BRANCH  85  86
ATOM     86  S   UNL A   1      42.075  19.144  26.114  1.00  0.00     0.124 S 
ATOM     87  O   UNL A   1      42.910  18.860  24.952  1.00  0.00    -0.237 OA
ATOM     88  O   UNL A   1      42.464  18.486  27.358  1.00  0.00    -0.237 OA
ATOM     89  O   UNL A   1      40.637  19.190  25.862  1.00  0.00    -0.744 OA
ENDBRANCH  85  86
ENDBRANCH  53  78
BRANCH  65  90
ATOM     90  C   UNL A   1      49.451  26.684  26.458  1.00  0.00     0.058 A 
ATOM     91  C   UNL A   1      50.286  26.031  27.378  1.00  0.00     0.135 A 
ATOM     92  C   UNL A   1      49.921  26.839  25.144  1.00  0.00     0.135 A 
ATOM     93  F   UNL A   1      49.889  25.861  28.650  1.00  0.00    -0.206 F 
ATOM     94  C   UNL A   1      51.552  25.580  27.018  1.00  0.00     0.059 A 
ATOM     95  C   UNL A   1      51.171  26.371  24.754  1.00  0.00     0.059 A 
ATOM     96  F   UNL A   1      49.158  27.446  24.221  1.00  0.00    -0.206 F 
ATOM     97  C   UNL A   1      51.987  25.756  25.703  1.00  0.00     0.060 A 
BRANCH  97  98
ATOM     98  S   UNL A   1      53.626  25.157  25.246  1.00  0.00     0.124 S 
ATOM     99  O   UNL A   1      54.461  25.769  26.274  1.00  0.00    -0.237 OA
ATOM    100  O   UNL A   1      53.468  23.708  25.338  1.00  0.00    -0.237 OA
ATOM    101  O   UNL A   1      53.812  25.675  23.894  1.00  0.00    -0.744 OA
ENDBRANCH  97  98
ENDBRANCH  65  90
ENDBRANCH  39  40
ENDBRANCH  31  34
ENDBRANCH  29  30
ENDBRANCH  28  29
ENDBRANCH   1  28
TORSDOF 18
ENDMDL
MODEL 3
REMARK VINA RESULT:     -12.0      6.431     11.905
REMARK SMILES COc1ccc([C@@H]2CC[NH2+][C@H]2C(=O)NCCCCCCNC(=O)c2ccc(-c3c4nc(c(-c5c(F)cc(S(=O)(=O)[O-])cc5F)c5ccc([nH]5)c(-c5c(F)cc(S(=O)(=O)[O-])cc5F)c5nc(c(-c6c(F)cc(S(=O)(=O)[O-])cc6F)c6ccc3[nH]6)C=C5)C=C4)cc2)c2ccccc12
REMARK SMILES IDX 18 1 17 2 16 3 15 4 14 5 12 6 13 7 11 9 7 10 8 11 9 12 10 13
REMARK SMILES IDX 6 16 3 17 4 18 95 19 5 20 90 21 94 22 91 23 93 24 92 25 2 26
REMARK SMILES IDX 1 27 19 28 20 29 21 30 22 31 23 33 24 34 25 35 89 36 26 37
REMARK SMILES IDX 88 38 27 39 28 40 29 41 82 42 30 43 87 44 81 45 83 46 31 47
REMARK SMILES IDX 86 48 80 49 79 50 32 52 66 53 45 54 65 55 46 56 49 57 64 58
REMARK SMILES IDX 84 59 47 60 48 61 63 63 85 64 50 65 33 66 34 67 43 68 35 69
REMARK SMILES IDX 36 70 42 71 44 72 37 73 38 74 39 75 40 76 41 77 67 78 68 79
REMARK SMILES IDX 77 80 69 81 70 82 76 83 78 84 71 85 72 86 73 87 74 88 75 89
REMARK SMILES IDX 51 90 52 91 61 92 53 93 54 94 60 95 62 96 55 97 56 98 57 99
REMARK SMILES IDX 58 100 59 101
REMARK H PARENT 14 8 10 14 10 15 21 32 83 51 49 62
REMARK Flexibility Score: inf
ROOT
ATOM      1  C   UNL A   1      38.016  23.775  26.221  1.00  0.00     0.002 C 
ENDROOT
BRANCH   1   2
ATOM      2  C   UNL A   1      36.773  23.191  25.544  1.00  0.00     0.002 C 
BRANCH   2   3
ATOM      3  C   UNL A   1      35.447  23.674  26.131  1.00  0.00     0.021 C 
BRANCH   3   4
ATOM      4  C   UNL A   1      34.411  22.569  26.339  1.00  0.00     0.116 C 
BRANCH   4   5
ATOM      5  N   UNL A   1      33.214  23.051  27.006  1.00  0.00    -0.351 N 
ATOM      6  C   UNL A   1      32.035  23.543  26.520  1.00  0.00     0.278 C 
ATOM      7  O   UNL A   1      31.189  23.893  27.348  1.00  0.00    -0.268 OA
ATOM      8  H   UNL A   1      33.260  23.017  27.989  1.00  0.00     0.163 HD
BRANCH   6   9
ATOM      9  C   UNL A   1      31.763  23.655  25.009  1.00  0.00     0.280 C 
ATOM     10  C   UNL A   1      32.675  24.652  24.278  1.00  0.00     0.094 C 
ATOM     11  C   UNL A   1      33.122  23.905  23.011  1.00  0.00     0.076 C 
ATOM     12  C   UNL A   1      32.332  22.607  22.981  1.00  0.00     0.262 C 
ATOM     13  N   UNL A   1      31.907  22.332  24.349  1.00  0.00    -0.335 N 
ATOM     14  H   UNL A   1      32.608  21.770  24.833  1.00  0.00     0.346 HD
ATOM     15  H   UNL A   1      31.033  21.808  24.371  1.00  0.00     0.346 HD
BRANCH  10  16
ATOM     16  C   UNL A   1      32.010  26.018  24.107  1.00  0.00    -0.030 A 
ATOM     17  C   UNL A   1      30.721  28.492  23.750  1.00  0.00     0.126 A 
ATOM     18  C   UNL A   1      30.256  27.359  23.086  1.00  0.00     0.047 A 
ATOM     19  C   UNL A   1      31.848  28.430  24.595  1.00  0.00     0.024 A 
ATOM     20  C   UNL A   1      30.884  26.134  23.275  1.00  0.00     0.009 A 
ATOM     21  C   UNL A   1      32.492  27.181  24.802  1.00  0.00    -0.011 A 
ATOM     22  C   UNL A   1      32.335  29.584  25.252  1.00  0.00     0.012 A 
ATOM     23  C   UNL A   1      33.586  27.174  25.704  1.00  0.00     0.009 A 
ATOM     24  C   UNL A   1      33.429  29.536  26.113  1.00  0.00     0.001 A 
ATOM     25  C   UNL A   1      34.053  28.324  26.344  1.00  0.00     0.001 A 
BRANCH  17  26
ATOM     26  O   UNL A   1      30.116  29.712  23.549  1.00  0.00    -0.496 OA
ATOM     27  C   UNL A   1      29.744  29.910  22.186  1.00  0.00     0.278 C 
ENDBRANCH  17  26
ENDBRANCH  10  16
ENDBRANCH   6   9
ENDBRANCH   4   5
ENDBRANCH   3   4
ENDBRANCH   2   3
ENDBRANCH   1   2
BRANCH   1  28
ATOM     28  C   UNL A   1      39.146  22.772  26.466  1.00  0.00     0.021 C 
BRANCH  28  29
ATOM     29  C   UNL A   1      40.393  23.367  27.115  1.00  0.00     0.116 C 
BRANCH  29  30
ATOM     30  N   UNL A   1      41.278  23.965  26.130  1.00  0.00    -0.352 N 
ATOM     31  C   UNL A   1      41.675  25.271  26.011  1.00  0.00     0.251 C 
ATOM     32  H   UNL A   1      41.641  23.348  25.455  1.00  0.00     0.163 HD
ATOM     33  O   UNL A   1      42.240  25.649  24.983  1.00  0.00    -0.269 OA
BRANCH  31  34
ATOM     34  C   UNL A   1      41.413  26.223  27.108  1.00  0.00     0.039 A 
ATOM     35  C   UNL A   1      40.421  25.921  28.044  1.00  0.00     0.014 A 
ATOM     36  C   UNL A   1      42.136  27.416  27.208  1.00  0.00     0.014 A 
ATOM     37  C   UNL A   1      40.187  26.795  29.107  1.00  0.00     0.010 A 
ATOM     38  C   UNL A   1      41.952  28.248  28.308  1.00  0.00     0.010 A 
ATOM     39  C   UNL A   1      40.968  27.953  29.264  1.00  0.00    -0.014 A 
BRANCH  39  40
ATOM     40  C   UNL A   1      40.765  28.858  30.421  1.00  0.00     0.031 A 
ATOM     41  C   UNL A   1      41.642  28.748  31.639  1.00  0.00     0.074 A 
ATOM     42  C   UNL A   1      39.761  29.756  30.392  1.00  0.00     0.049 A 
ATOM     43  N   UNL A   1      41.614  29.447  32.745  1.00  0.00    -0.248 NA
ATOM     44  C   UNL A   1      42.669  27.695  31.622  1.00  0.00     0.031 C 
ATOM     45  C   UNL A   1      38.813  29.927  29.289  1.00  0.00     0.029 A 
ATOM     46  N   UNL A   1      39.371  30.695  31.313  1.00  0.00    -0.354 N 
ATOM     47  C   UNL A   1      42.612  28.917  33.555  1.00  0.00     0.074 A 
ATOM     48  C   UNL A   1      43.181  27.796  32.839  1.00  0.00     0.031 C 
ATOM     49  C   UNL A   1      37.980  30.937  29.579  1.00  0.00     0.029 A 
ATOM     50  C   UNL A   1      38.308  31.462  30.901  1.00  0.00     0.049 A 
ATOM     51  H   UNL A   1      39.811  30.809  32.187  1.00  0.00     0.167 HD
ATOM     52  C   UNL A   1      43.032  29.341  34.771  1.00  0.00     0.037 A 
ATOM     53  C   UNL A   1      37.674  32.480  31.515  1.00  0.00     0.037 A 
ATOM     54  C   UNL A   1      42.463  30.462  35.474  1.00  0.00     0.049 A 
ATOM     55  C   UNL A   1      38.147  32.925  32.870  1.00  0.00     0.074 A 
ATOM     56  C   UNL A   1      42.847  31.005  36.687  1.00  0.00     0.029 A 
ATOM     57  N   UNL A   1      41.380  31.209  35.029  1.00  0.00    -0.354 N 
ATOM     58  N   UNL A   1      39.134  32.455  33.596  1.00  0.00    -0.248 NA
ATOM     59  C   UNL A   1      37.423  34.044  33.487  1.00  0.00     0.031 C 
ATOM     60  C   UNL A   1      41.966  32.048  36.999  1.00  0.00     0.029 A 
ATOM     61  C   UNL A   1      41.065  32.190  35.955  1.00  0.00     0.049 A 
ATOM     62  H   UNL A   1      40.904  31.062  34.179  1.00  0.00     0.167 HD
ATOM     63  C   UNL A   1      39.166  33.237  34.745  1.00  0.00     0.074 A 
ATOM     64  C   UNL A   1      38.107  34.218  34.610  1.00  0.00     0.031 C 
ATOM     65  C   UNL A   1      39.998  33.152  35.814  1.00  0.00     0.037 A 
BRANCH  52  66
ATOM     66  C   UNL A   1      44.158  28.573  35.414  1.00  0.00     0.058 A 
ATOM     67  C   UNL A   1      43.917  27.507  36.297  1.00  0.00     0.135 A 
ATOM     68  C   UNL A   1      45.496  28.916  35.158  1.00  0.00     0.135 A 
ATOM     69  F   UNL A   1      42.658  27.142  36.588  1.00  0.00    -0.206 F 
ATOM     70  C   UNL A   1      44.955  26.848  36.947  1.00  0.00     0.059 A 
ATOM     71  C   UNL A   1      46.553  28.247  35.771  1.00  0.00     0.059 A 
ATOM     72  F   UNL A   1      45.789  29.922  34.318  1.00  0.00    -0.206 F 
ATOM     73  C   UNL A   1      46.271  27.233  36.684  1.00  0.00     0.060 A 
BRANCH  73  74
ATOM     74  S   UNL A   1      47.607  26.400  37.568  1.00  0.00     0.124 S 
ATOM     75  O   UNL A   1      47.272  26.709  38.955  1.00  0.00    -0.237 OA
ATOM     76  O   UNL A   1      47.427  25.007  37.170  1.00  0.00    -0.237 OA
ATOM     77  O   UNL A   1      48.809  27.045  37.053  1.00  0.00    -0.744 OA
ENDBRANCH  73  74
ENDBRANCH  52  66
BRANCH  53  78
ATOM     78  C   UNL A   1      36.559  33.175  30.820  1.00  0.00     0.058 A 
ATOM     79  C   UNL A   1      35.239  33.042  31.276  1.00  0.00     0.135 A 
ATOM     80  C   UNL A   1      36.792  34.022  29.726  1.00  0.00     0.135 A 
ATOM     81  F   UNL A   1      34.966  32.237  32.315  1.00  0.00    -0.206 F 
ATOM     82  C   UNL A   1      34.188  33.724  30.672  1.00  0.00     0.059 A 
ATOM     83  C   UNL A   1      35.760  34.732  29.120  1.00  0.00     0.059 A 
ATOM     84  F   UNL A   1      38.040  34.195  29.263  1.00  0.00    -0.206 F 
ATOM     85  C   UNL A   1      34.460  34.575  29.600  1.00  0.00     0.060 A 
BRANCH  85  86
ATOM     86  S   UNL A   1      33.100  35.519  28.880  1.00  0.00     0.124 S 
ATOM     87  O   UNL A   1      32.511  34.542  27.971  1.00  0.00    -0.237 OA
ATOM     88  O   UNL A   1      32.307  35.858  30.058  1.00  0.00    -0.237 OA
ATOM     89  O   UNL A   1      33.775  36.647  28.243  1.00  0.00    -0.744 OA
ENDBRANCH  85  86
ENDBRANCH  53  78
BRANCH  65  90
ATOM     90  C   UNL A   1      39.809  34.162  36.913  1.00  0.00     0.058 A 
ATOM     91  C   UNL A   1      39.040  33.877  38.053  1.00  0.00     0.135 A 
ATOM     92  C   UNL A   1      40.424  35.422  36.838  1.00  0.00     0.135 A 
ATOM     93  F   UNL A   1      38.423  32.690  38.173  1.00  0.00    -0.206 F 
ATOM     94  C   UNL A   1      38.860  34.817  39.062  1.00  0.00     0.059 A 
ATOM     95  C   UNL A   1      40.281  36.367  37.848  1.00  0.00     0.059 A 
ATOM     96  F   UNL A   1      41.180  35.743  35.776  1.00  0.00    -0.206 F 
ATOM     97  C   UNL A   1      39.484  36.061  38.950  1.00  0.00     0.060 A 
BRANCH  97  98
ATOM     98  S   UNL A   1      39.252  37.268  40.272  1.00  0.00     0.124 S 
ATOM     99  O   UNL A   1      40.631  37.607  40.606  1.00  0.00    -0.237 OA
ATOM    100  O   UNL A   1      38.485  38.318  39.606  1.00  0.00    -0.237 OA
ATOM    101  O   UNL A   1      38.524  36.520  41.292  1.00  0.00    -0.744 OA
ENDBRANCH  97  98
ENDBRANCH  65  90
ENDBRANCH  39  40
ENDBRANCH  31  34
ENDBRANCH  29  30
ENDBRANCH  28  29
ENDBRANCH   1  28
TORSDOF 18
ENDMDL
