MODEL 1
REMARK VINA RESULT:     -11.9      0.000      0.000
REMARK SMILES CC(C)CC(=O)Nc1ccc(NC(=O)[C@@H]2CCCC[C@@H]2C(=O)NCCCCCCNC(=O)c2ccc(-c3c4nc(c(-c5c(F)cc(S(=O)(=O)[O-])cc5F)c5ccc([nH]5)c(-c5c(F)cc(S(=O)(=O)[O-])cc5F)c5nc(c(-c6c(F)cc(S(=O)(=O)[O-])cc6F)c6ccc3[nH]6)C=C5)C=C4)cc2)cc1
REMARK SMILES IDX 25 1 24 2 23 3 21 4 22 5 20 7 15 8 16 9 17 10 19 11 18 12
REMARK SMILES IDX 13 13 12 14 14 16 11 17 8 18 9 19 100 20 10 21 99 22 7 23
REMARK SMILES IDX 5 24 6 25 4 27 2 28 1 29 3 30 26 31 27 32 28 33 29 34 30 35
REMARK SMILES IDX 31 36 32 38 33 39 34 40 98 41 35 42 97 43 36 44 37 45 38 46
REMARK SMILES IDX 91 47 39 48 96 49 90 50 92 51 40 52 95 53 89 54 88 55 41 57
REMARK SMILES IDX 75 58 54 59 74 60 55 61 58 62 73 63 93 64 56 65 57 66 72 68
REMARK SMILES IDX 94 69 59 70 42 71 43 72 52 73 44 74 45 75 51 76 53 77 46 78
REMARK SMILES IDX 47 79 48 80 49 81 50 82 76 83 77 84 86 85 78 86 79 87 85 88
REMARK SMILES IDX 87 89 80 90 81 91 82 92 83 93 84 94 60 95 61 96 70 97 62 98
REMARK SMILES IDX 63 99 69 100 71 101 64 102 65 103 66 104 67 105 68 106
REMARK H PARENT 23 6 12 15 7 26 30 37 92 56 58 67
REMARK Flexibility Score: inf
ROOT
ATOM      1  C   UNL A   1      36.319  20.204  25.019  1.00  0.00     0.021 C 
ENDROOT
BRANCH   1   2
ATOM      2  C   UNL A   1      35.120  21.051  24.607  1.00  0.00     0.116 C 
BRANCH   2   3
ATOM      3  N   UNL A   1      33.887  20.326  24.741  1.00  0.00    -0.356 N 
ATOM      4  C   UNL A   1      32.608  20.699  24.917  1.00  0.00     0.223 C 
ATOM      5  O   UNL A   1      31.823  19.741  25.019  1.00  0.00    -0.275 OA
ATOM      6  H   UNL A   1      34.004  19.350  24.696  1.00  0.00     0.163 HD
BRANCH   4   7
ATOM      7  C   UNL A   1      32.024  22.131  24.903  1.00  0.00     0.091 C 
ATOM      8  C   UNL A   1      32.643  23.392  24.259  1.00  0.00     0.091 C 
ATOM      9  C   UNL A   1      33.982  23.772  24.893  1.00  0.00     0.014 C 
ATOM     10  C   UNL A   1      33.759  24.091  26.371  1.00  0.00     0.001 C 
ATOM     11  C   UNL A   1      31.757  22.510  26.387  1.00  0.00     0.014 C 
ATOM     12  C   UNL A   1      33.041  22.953  27.097  1.00  0.00     0.001 C 
BRANCH   8  13
ATOM     13  C   UNL A   1      32.559  23.517  22.748  1.00  0.00     0.228 C 
ATOM     14  N   UNL A   1      32.302  24.703  22.137  1.00  0.00    -0.326 N 
ATOM     15  H   UNL A   1      32.120  24.596  21.175  1.00  0.00     0.169 HD
ATOM     16  O   UNL A   1      32.744  22.546  22.007  1.00  0.00    -0.274 OA
BRANCH  14  17
ATOM     17  C   UNL A   1      32.233  26.043  22.546  1.00  0.00     0.041 A 
ATOM     18  C   UNL A   1      31.931  28.617  23.662  1.00  0.00     0.041 A 
ATOM     19  C   UNL A   1      32.997  28.357  22.819  1.00  0.00     0.028 A 
ATOM     20  C   UNL A   1      30.950  27.649  23.787  1.00  0.00     0.028 A 
ATOM     21  C   UNL A   1      33.129  27.077  22.250  1.00  0.00     0.028 A 
ATOM     22  C   UNL A   1      31.107  26.364  23.290  1.00  0.00     0.028 A 
BRANCH  18  23
ATOM     23  N   UNL A   1      31.785  29.851  24.308  1.00  0.00    -0.326 N 
ATOM     24  C   UNL A   1      32.027  30.129  25.638  1.00  0.00     0.224 C 
ATOM     25  O   UNL A   1      31.472  31.094  26.168  1.00  0.00    -0.275 OA
ATOM     26  H   UNL A   1      31.476  30.603  23.753  1.00  0.00     0.169 HD
BRANCH  24  27
ATOM     27  C   UNL A   1      33.162  29.376  26.352  1.00  0.00     0.103 C 
BRANCH  27  28
ATOM     28  C   UNL A   1      34.357  30.188  26.900  1.00  0.00    -0.008 C 
ATOM     29  C   UNL A   1      33.988  31.316  27.869  1.00  0.00     0.008 C 
ATOM     30  C   UNL A   1      35.284  29.233  27.664  1.00  0.00     0.008 C 
ENDBRANCH  27  28
ENDBRANCH  24  27
ENDBRANCH  18  23
ENDBRANCH  14  17
ENDBRANCH   8  13
ENDBRANCH   4   7
ENDBRANCH   2   3
ENDBRANCH   1   2
BRANCH   1  31
ATOM     31  C   UNL A   1      37.638  20.971  25.031  1.00  0.00     0.002 C 
BRANCH  31  32
ATOM     32  C   UNL A   1      37.494  22.496  24.962  1.00  0.00     0.002 C 
BRANCH  32  33
ATOM     33  C   UNL A   1      37.578  23.221  26.308  1.00  0.00     0.021 C 
BRANCH  33  34
ATOM     34  C   UNL A   1      38.458  24.468  26.301  1.00  0.00     0.116 C 
BRANCH  34  35
ATOM     35  N   UNL A   1      39.866  24.126  26.163  1.00  0.00    -0.352 N 
ATOM     36  C   UNL A   1      40.965  24.790  26.633  1.00  0.00     0.251 C 
ATOM     37  H   UNL A   1      40.054  23.300  25.662  1.00  0.00     0.163 HD
ATOM     38  O   UNL A   1      42.085  24.513  26.201  1.00  0.00    -0.269 OA
BRANCH  36  39
ATOM     39  C   UNL A   1      40.797  25.834  27.658  1.00  0.00     0.039 A 
ATOM     40  C   UNL A   1      39.786  25.701  28.611  1.00  0.00     0.014 A 
ATOM     41  C   UNL A   1      41.640  26.950  27.667  1.00  0.00     0.014 A 
ATOM     42  C   UNL A   1      39.649  26.670  29.604  1.00  0.00     0.010 A 
ATOM     43  C   UNL A   1      41.548  27.874  28.699  1.00  0.00     0.010 A 
ATOM     44  C   UNL A   1      40.544  27.750  29.671  1.00  0.00    -0.014 A 
BRANCH  44  45
ATOM     45  C   UNL A   1      40.445  28.775  30.737  1.00  0.00     0.031 A 
ATOM     46  C   UNL A   1      41.304  28.657  31.965  1.00  0.00     0.074 A 
ATOM     47  C   UNL A   1      39.532  29.759  30.631  1.00  0.00     0.049 A 
ATOM     48  N   UNL A   1      41.296  29.385  33.052  1.00  0.00    -0.248 NA
ATOM     49  C   UNL A   1      42.285  27.558  31.987  1.00  0.00     0.031 C 
ATOM     50  C   UNL A   1      38.618  29.947  29.502  1.00  0.00     0.029 A 
ATOM     51  N   UNL A   1      39.210  30.779  31.490  1.00  0.00    -0.354 N 
ATOM     52  C   UNL A   1      42.252  28.824  33.890  1.00  0.00     0.074 A 
ATOM     53  C   UNL A   1      42.784  27.664  33.209  1.00  0.00     0.031 C 
ATOM     54  C   UNL A   1      37.851  31.025  29.732  1.00  0.00     0.029 A 
ATOM     55  C   UNL A   1      38.185  31.577  31.040  1.00  0.00     0.049 A 
ATOM     56  H   UNL A   1      39.669  30.926  32.349  1.00  0.00     0.167 HD
ATOM     57  C   UNL A   1      42.663  29.251  35.107  1.00  0.00     0.037 A 
ATOM     58  C   UNL A   1      37.574  32.626  31.625  1.00  0.00     0.037 A 
ATOM     59  C   UNL A   1      42.138  30.420  35.764  1.00  0.00     0.049 A 
ATOM     60  C   UNL A   1      38.041  33.076  32.983  1.00  0.00     0.074 A 
ATOM     61  C   UNL A   1      42.519  30.970  36.974  1.00  0.00     0.029 A 
ATOM     62  N   UNL A   1      41.119  31.219  35.263  1.00  0.00    -0.354 N 
ATOM     63  N   UNL A   1      38.984  32.567  33.741  1.00  0.00    -0.248 NA
ATOM     64  C   UNL A   1      37.367  34.245  33.566  1.00  0.00     0.031 C 
ATOM     65  C   UNL A   1      41.696  32.071  37.231  1.00  0.00     0.029 A 
ATOM     66  C   UNL A   1      40.845  32.246  36.151  1.00  0.00     0.049 A 
ATOM     67  H   UNL A   1      40.659  31.077  34.405  1.00  0.00     0.167 HD
ATOM     68  C   UNL A   1      39.043  33.377  34.870  1.00  0.00     0.074 A 
ATOM     69  C   UNL A   1      38.042  34.408  34.695  1.00  0.00     0.031 C 
ATOM     70  C   UNL A   1      39.857  33.277  35.950  1.00  0.00     0.037 A 
BRANCH  57  71
ATOM     71  C   UNL A   1      43.729  28.453  35.807  1.00  0.00     0.058 A 
ATOM     72  C   UNL A   1      45.095  28.726  35.629  1.00  0.00     0.135 A 
ATOM     73  C   UNL A   1      43.381  27.424  36.699  1.00  0.00     0.135 A 
ATOM     74  F   UNL A   1      45.487  29.687  34.776  1.00  0.00    -0.206 F 
ATOM     75  C   UNL A   1      46.077  27.991  36.284  1.00  0.00     0.059 A 
ATOM     76  C   UNL A   1      44.346  26.697  37.390  1.00  0.00     0.059 A 
ATOM     77  F   UNL A   1      42.091  27.118  36.908  1.00  0.00    -0.206 F 
ATOM     78  C   UNL A   1      45.692  26.978  37.164  1.00  0.00     0.060 A 
BRANCH  78  79
ATOM     79  S   UNL A   1      46.979  26.040  38.013  1.00  0.00     0.124 S 
ATOM     80  O   UNL A   1      46.345  25.778  39.302  1.00  0.00    -0.237 OA
ATOM     81  O   UNL A   1      47.147  24.881  37.142  1.00  0.00    -0.237 OA
ATOM     82  O   UNL A   1      48.109  26.965  38.048  1.00  0.00    -0.744 OA
ENDBRANCH  78  79
ENDBRANCH  57  71
BRANCH  58  83
ATOM     83  C   UNL A   1      36.470  33.331  30.919  1.00  0.00     0.058 A 
ATOM     84  C   UNL A   1      35.142  33.209  31.352  1.00  0.00     0.135 A 
ATOM     85  C   UNL A   1      36.721  34.154  29.810  1.00  0.00     0.135 A 
ATOM     86  F   UNL A   1      34.849  32.431  32.407  1.00  0.00    -0.206 F 
ATOM     87  C   UNL A   1      34.099  33.859  30.702  1.00  0.00     0.059 A 
ATOM     88  C   UNL A   1      35.699  34.837  29.159  1.00  0.00     0.059 A 
ATOM     89  F   UNL A   1      37.976  34.320  29.365  1.00  0.00    -0.206 F 
ATOM     90  C   UNL A   1      34.389  34.674  29.606  1.00  0.00     0.060 A 
BRANCH  90  91
ATOM     91  S   UNL A   1      33.032  35.548  28.794  1.00  0.00     0.124 S 
ATOM     92  O   UNL A   1      33.751  36.546  28.011  1.00  0.00    -0.237 OA
ATOM     93  O   UNL A   1      32.391  34.479  28.034  1.00  0.00    -0.237 OA
ATOM     94  O   UNL A   1      32.250  36.066  29.913  1.00  0.00    -0.744 OA
ENDBRANCH  90  91
ENDBRANCH  58  83
BRANCH  70  95
ATOM     95  C   UNL A   1      39.745  34.341  37.007  1.00  0.00     0.058 A 
ATOM     96  C   UNL A   1      38.983  34.157  38.171  1.00  0.00     0.135 A 
ATOM     97  C   UNL A   1      40.475  35.536  36.882  1.00  0.00     0.135 A 
ATOM     98  F   UNL A   1      38.261  33.038  38.336  1.00  0.00    -0.206 F 
ATOM     99  C   UNL A   1      38.936  35.126  39.167  1.00  0.00     0.059 A 
ATOM    100  C   UNL A   1      40.467  36.504  37.880  1.00  0.00     0.059 A 
ATOM    101  F   UNL A   1      41.227  35.757  35.793  1.00  0.00    -0.206 F 
ATOM    102  C   UNL A   1      39.687  36.294  39.015  1.00  0.00     0.060 A 
BRANCH 102 103
ATOM    103  S   UNL A   1      39.658  37.520  40.341  1.00  0.00     0.124 S 
ATOM    104  O   UNL A   1      38.945  36.801  41.391  1.00  0.00    -0.237 OA
ATOM    105  O   UNL A   1      41.078  37.751  40.581  1.00  0.00    -0.237 OA
ATOM    106  O   UNL A   1      38.937  38.644  39.749  1.00  0.00    -0.744 OA
ENDBRANCH 102 103
ENDBRANCH  70  95
ENDBRANCH  44  45
ENDBRANCH  36  39
ENDBRANCH  34  35
ENDBRANCH  33  34
ENDBRANCH  32  33
ENDBRANCH  31  32
ENDBRANCH   1  31
TORSDOF 21
ENDMDL
MODEL 2
REMARK VINA RESULT:     -11.4      0.932      8.024
REMARK SMILES CC(C)CC(=O)Nc1ccc(NC(=O)[C@@H]2CCCC[C@@H]2C(=O)NCCCCCCNC(=O)c2ccc(-c3c4nc(c(-c5c(F)cc(S(=O)(=O)[O-])cc5F)c5ccc([nH]5)c(-c5c(F)cc(S(=O)(=O)[O-])cc5F)c5nc(c(-c6c(F)cc(S(=O)(=O)[O-])cc6F)c6ccc3[nH]6)C=C5)C=C4)cc2)cc1
REMARK SMILES IDX 25 1 24 2 23 3 21 4 22 5 20 7 15 8 16 9 17 10 19 11 18 12
REMARK SMILES IDX 13 13 12 14 14 16 11 17 8 18 9 19 100 20 10 21 99 22 7 23
REMARK SMILES IDX 5 24 6 25 4 27 2 28 1 29 3 30 26 31 27 32 28 33 29 34 30 35
REMARK SMILES IDX 31 36 32 38 33 39 34 40 98 41 35 42 97 43 36 44 37 45 38 46
REMARK SMILES IDX 91 47 39 48 96 49 90 50 92 51 40 52 95 53 89 54 88 55 41 57
REMARK SMILES IDX 75 58 54 59 74 60 55 61 58 62 73 63 93 64 56 65 57 66 72 68
REMARK SMILES IDX 94 69 59 70 42 71 43 72 52 73 44 74 45 75 51 76 53 77 46 78
REMARK SMILES IDX 47 79 48 80 49 81 50 82 76 83 77 84 86 85 78 86 79 87 85 88
REMARK SMILES IDX 87 89 80 90 81 91 82 92 83 93 84 94 60 95 61 96 70 97 62 98
REMARK SMILES IDX 63 99 69 100 71 101 64 102 65 103 66 104 67 105 68 106
REMARK H PARENT 23 6 12 15 7 26 30 37 92 56 58 67
REMARK Flexibility Score: inf
ROOT
ATOM      1  C   UNL A   1      36.837  20.606  25.422  1.00  0.00     0.021 C 
ENDROOT
BRANCH   1   2
ATOM      2  C   UNL A   1      35.581  20.740  24.569  1.00  0.00     0.116 C 
BRANCH   2   3
ATOM      3  N   UNL A   1      34.521  19.900  25.051  1.00  0.00    -0.356 N 
ATOM      4  C   UNL A   1      33.285  20.144  25.520  1.00  0.00     0.223 C 
ATOM      5  O   UNL A   1      32.677  19.119  25.872  1.00  0.00    -0.275 OA
ATOM      6  H   UNL A   1      34.747  18.942  25.036  1.00  0.00     0.163 HD
BRANCH   4   7
ATOM      7  C   UNL A   1      32.537  21.497  25.568  1.00  0.00     0.091 C 
ATOM      8  C   UNL A   1      32.697  22.694  24.605  1.00  0.00     0.091 C 
ATOM      9  C   UNL A   1      34.105  23.289  24.644  1.00  0.00     0.014 C 
ATOM     10  C   UNL A   1      34.384  23.812  26.053  1.00  0.00     0.001 C 
ATOM     11  C   UNL A   1      32.768  22.075  26.993  1.00  0.00     0.014 C 
ATOM     12  C   UNL A   1      34.144  22.739  27.116  1.00  0.00     0.001 C 
BRANCH   8  13
ATOM     13  C   UNL A   1      32.060  22.575  23.231  1.00  0.00     0.228 C 
ATOM     14  N   UNL A   1      31.307  23.573  22.697  1.00  0.00    -0.326 N 
ATOM     15  H   UNL A   1      30.834  23.288  21.882  1.00  0.00     0.169 HD
ATOM     16  O   UNL A   1      32.218  21.571  22.530  1.00  0.00    -0.274 OA
BRANCH  14  17
ATOM     17  C   UNL A   1      31.041  24.909  23.029  1.00  0.00     0.041 A 
ATOM     18  C   UNL A   1      30.594  27.675  23.362  1.00  0.00     0.041 A 
ATOM     19  C   UNL A   1      29.873  26.769  24.119  1.00  0.00     0.028 A 
ATOM     20  C   UNL A   1      31.637  27.193  22.592  1.00  0.00     0.028 A 
ATOM     21  C   UNL A   1      30.116  25.392  23.963  1.00  0.00     0.028 A 
ATOM     22  C   UNL A   1      31.837  25.838  22.376  1.00  0.00     0.028 A 
BRANCH  18  23
ATOM     23  N   UNL A   1      30.349  29.053  23.428  1.00  0.00    -0.326 N 
ATOM     24  C   UNL A   1      30.708  29.915  24.444  1.00  0.00     0.224 C 
ATOM     25  O   UNL A   1      30.086  30.969  24.593  1.00  0.00    -0.275 OA
ATOM     26  H   UNL A   1      29.868  29.449  22.665  1.00  0.00     0.169 HD
BRANCH  24  27
ATOM     27  C   UNL A   1      32.018  29.652  25.203  1.00  0.00     0.103 C 
BRANCH  27  28
ATOM     28  C   UNL A   1      31.953  29.416  26.729  1.00  0.00    -0.008 C 
ATOM     29  C   UNL A   1      31.567  27.994  27.151  1.00  0.00     0.008 C 
ATOM     30  C   UNL A   1      33.340  29.693  27.324  1.00  0.00     0.008 C 
ENDBRANCH  27  28
ENDBRANCH  24  27
ENDBRANCH  18  23
ENDBRANCH  14  17
ENDBRANCH   8  13
ENDBRANCH   4   7
ENDBRANCH   2   3
ENDBRANCH   1   2
BRANCH   1  31
ATOM     31  C   UNL A   1      37.795  21.788  25.296  1.00  0.00     0.002 C 
BRANCH  31  32
ATOM     32  C   UNL A   1      39.196  21.541  25.868  1.00  0.00     0.002 C 
BRANCH  32  33
ATOM     33  C   UNL A   1      39.625  22.501  26.981  1.00  0.00     0.021 C 
BRANCH  33  34
ATOM     34  C   UNL A   1      39.448  23.979  26.643  1.00  0.00     0.116 C 
BRANCH  34  35
ATOM     35  N   UNL A   1      40.579  24.492  25.885  1.00  0.00    -0.352 N 
ATOM     36  C   UNL A   1      41.221  25.694  26.000  1.00  0.00     0.251 C 
ATOM     37  H   UNL A   1      40.932  23.889  25.192  1.00  0.00     0.163 HD
ATOM     38  O   UNL A   1      41.980  26.077  25.107  1.00  0.00    -0.269 OA
BRANCH  36  39
ATOM     39  C   UNL A   1      40.998  26.523  27.196  1.00  0.00     0.039 A 
ATOM     40  C   UNL A   1      40.129  26.070  28.190  1.00  0.00     0.014 A 
ATOM     41  C   UNL A   1      41.647  27.755  27.327  1.00  0.00     0.014 A 
ATOM     42  C   UNL A   1      39.944  26.837  29.341  1.00  0.00     0.010 A 
ATOM     43  C   UNL A   1      41.519  28.480  28.504  1.00  0.00     0.010 A 
ATOM     44  C   UNL A   1      40.657  28.034  29.518  1.00  0.00    -0.014 A 
BRANCH  44  45
ATOM     45  C   UNL A   1      40.508  28.850  30.746  1.00  0.00     0.031 A 
ATOM     46  C   UNL A   1      39.468  29.934  30.798  1.00  0.00     0.074 A 
ATOM     47  C   UNL A   1      41.356  28.663  31.775  1.00  0.00     0.049 A 
ATOM     48  N   UNL A   1      39.246  30.822  31.733  1.00  0.00    -0.248 NA
ATOM     49  C   UNL A   1      38.575  30.055  29.633  1.00  0.00     0.031 C 
ATOM     50  C   UNL A   1      42.429  27.667  31.818  1.00  0.00     0.029 A 
ATOM     51  N   UNL A   1      41.461  29.313  32.979  1.00  0.00    -0.354 N 
ATOM     52  C   UNL A   1      38.206  31.615  31.263  1.00  0.00     0.074 A 
ATOM     53  C   UNL A   1      37.875  31.137  29.938  1.00  0.00     0.031 C 
ATOM     54  C   UNL A   1      43.072  27.762  32.993  1.00  0.00     0.029 A 
ATOM     55  C   UNL A   1      42.489  28.853  33.768  1.00  0.00     0.049 A 
ATOM     56  H   UNL A   1      40.857  30.041  33.253  1.00  0.00     0.167 HD
ATOM     57  C   UNL A   1      37.571  32.632  31.889  1.00  0.00     0.037 A 
ATOM     58  C   UNL A   1      42.921  29.273  34.972  1.00  0.00     0.037 A 
ATOM     59  C   UNL A   1      37.899  33.084  33.217  1.00  0.00     0.049 A 
ATOM     60  C   UNL A   1      42.206  30.415  35.644  1.00  0.00     0.074 A 
ATOM     61  C   UNL A   1      37.286  34.074  33.964  1.00  0.00     0.029 A 
ATOM     62  N   UNL A   1      38.930  32.574  33.995  1.00  0.00    -0.354 N 
ATOM     63  N   UNL A   1      41.188  31.120  35.210  1.00  0.00    -0.248 NA
ATOM     64  C   UNL A   1      42.693  30.816  36.971  1.00  0.00     0.031 C 
ATOM     65  C   UNL A   1      37.978  34.198  35.173  1.00  0.00     0.029 A 
ATOM     66  C   UNL A   1      38.982  33.242  35.206  1.00  0.00     0.049 A 
ATOM     67  H   UNL A   1      39.533  31.845  33.725  1.00  0.00     0.167 HD
ATOM     68  C   UNL A   1      40.888  32.021  36.226  1.00  0.00     0.074 A 
ATOM     69  C   UNL A   1      41.831  31.769  37.296  1.00  0.00     0.031 C 
ATOM     70  C   UNL A   1      39.916  32.965  36.270  1.00  0.00     0.037 A 
BRANCH  57  71
ATOM     71  C   UNL A   1      36.462  33.329  31.148  1.00  0.00     0.058 A 
ATOM     72  C   UNL A   1      35.115  33.164  31.509  1.00  0.00     0.135 A 
ATOM     73  C   UNL A   1      36.750  34.203  30.087  1.00  0.00     0.135 A 
ATOM     74  F   UNL A   1      34.778  32.328  32.505  1.00  0.00    -0.206 F 
ATOM     75  C   UNL A   1      34.092  33.815  30.827  1.00  0.00     0.059 A 
ATOM     76  C   UNL A   1      35.746  34.890  29.411  1.00  0.00     0.059 A 
ATOM     77  F   UNL A   1      38.020  34.398  29.698  1.00  0.00    -0.206 F 
ATOM     78  C   UNL A   1      34.418  34.677  29.779  1.00  0.00     0.060 A 
BRANCH  78  79
ATOM     79  S   UNL A   1      33.081  35.521  28.911  1.00  0.00     0.124 S 
ATOM     80  O   UNL A   1      32.312  36.069  30.024  1.00  0.00    -0.237 OA
ATOM     81  O   UNL A   1      33.802  36.497  28.099  1.00  0.00    -0.237 OA
ATOM     82  O   UNL A   1      32.426  34.450  28.166  1.00  0.00    -0.744 OA
ENDBRANCH  78  79
ENDBRANCH  57  71
BRANCH  58  83
ATOM     83  C   UNL A   1      44.076  28.598  35.625  1.00  0.00     0.058 A 
ATOM     84  C   UNL A   1      43.879  27.534  36.517  1.00  0.00     0.135 A 
ATOM     85  C   UNL A   1      45.396  28.990  35.359  1.00  0.00     0.135 A 
ATOM     86  F   UNL A   1      42.635  27.122  36.807  1.00  0.00    -0.206 F 
ATOM     87  C   UNL A   1      44.948  26.895  37.137  1.00  0.00     0.059 A 
ATOM     88  C   UNL A   1      46.483  28.350  35.945  1.00  0.00     0.059 A 
ATOM     89  F   UNL A   1      45.641  29.992  34.498  1.00  0.00    -0.206 F 
ATOM     90  C   UNL A   1      46.248  27.310  36.842  1.00  0.00     0.060 A 
BRANCH  90  91
ATOM     91  S   UNL A   1      47.630  26.446  37.621  1.00  0.00     0.124 S 
ATOM     92  O   UNL A   1      47.408  26.747  39.030  1.00  0.00    -0.237 OA
ATOM     93  O   UNL A   1      47.392  25.063  37.218  1.00  0.00    -0.237 OA
ATOM     94  O   UNL A   1      48.801  27.073  37.017  1.00  0.00    -0.744 OA
ENDBRANCH  90  91
ENDBRANCH  58  83
BRANCH  70  95
ATOM     95  C   UNL A   1      39.779  33.764  37.535  1.00  0.00     0.058 A 
ATOM     96  C   UNL A   1      40.462  34.974  37.730  1.00  0.00     0.135 A 
ATOM     97  C   UNL A   1      38.888  33.346  38.539  1.00  0.00     0.135 A 
ATOM     98  F   UNL A   1      41.331  35.416  36.807  1.00  0.00    -0.206 F 
ATOM     99  C   UNL A   1      40.280  35.733  38.881  1.00  0.00     0.059 A 
ATOM    100  C   UNL A   1      38.667  34.103  39.683  1.00  0.00     0.059 A 
ATOM    101  F   UNL A   1      38.202  32.201  38.397  1.00  0.00    -0.206 F 
ATOM    102  C   UNL A   1      39.375  35.292  39.850  1.00  0.00     0.060 A 
BRANCH 102 103
ATOM    103  S   UNL A   1      39.109  36.314  41.315  1.00  0.00     0.124 S 
ATOM    104  O   UNL A   1      40.363  36.123  42.037  1.00  0.00    -0.237 OA
ATOM    105  O   UNL A   1      38.905  37.638  40.736  1.00  0.00    -0.237 OA
ATOM    106  O   UNL A   1      37.930  35.718  41.936  1.00  0.00    -0.744 OA
ENDBRANCH 102 103
ENDBRANCH  70  95
ENDBRANCH  44  45
ENDBRANCH  36  39
ENDBRANCH  34  35
ENDBRANCH  33  34
ENDBRANCH  32  33
ENDBRANCH  31  32
ENDBRANCH   1  31
TORSDOF 21
ENDMDL
MODEL 3
REMARK VINA RESULT:     -11.4      6.237     11.780
REMARK SMILES CC(C)CC(=O)Nc1ccc(NC(=O)[C@@H]2CCCC[C@@H]2C(=O)NCCCCCCNC(=O)c2ccc(-c3c4nc(c(-c5c(F)cc(S(=O)(=O)[O-])cc5F)c5ccc([nH]5)c(-c5c(F)cc(S(=O)(=O)[O-])cc5F)c5nc(c(-c6c(F)cc(S(=O)(=O)[O-])cc6F)c6ccc3[nH]6)C=C5)C=C4)cc2)cc1
REMARK SMILES IDX 25 1 24 2 23 3 21 4 22 5 20 7 15 8 16 9 17 10 19 11 18 12
REMARK SMILES IDX 13 13 12 14 14 16 11 17 8 18 9 19 100 20 10 21 99 22 7 23
REMARK SMILES IDX 5 24 6 25 4 27 2 28 1 29 3 30 26 31 27 32 28 33 29 34 30 35
REMARK SMILES IDX 31 36 32 38 33 39 34 40 98 41 35 42 97 43 36 44 37 45 38 46
REMARK SMILES IDX 91 47 39 48 96 49 90 50 92 51 40 52 95 53 89 54 88 55 41 57
REMARK SMILES IDX 75 58 54 59 74 60 55 61 58 62 73 63 93 64 56 65 57 66 72 68
REMARK SMILES IDX 94 69 59 70 42 71 43 72 52 73 44 74 45 75 51 76 53 77 46 78
REMARK SMILES IDX 47 79 48 80 49 81 50 82 76 83 77 84 86 85 78 86 79 87 85 88
REMARK SMILES IDX 87 89 80 90 81 91 82 92 83 93 84 94 60 95 61 96 70 97 62 98
REMARK SMILES IDX 63 99 69 100 71 101 64 102 65 103 66 104 67 105 68 106
REMARK H PARENT 23 6 12 15 7 26 30 37 92 56 58 67
REMARK Flexibility Score: inf
ROOT
ATOM      1  C   UNL A   1      32.131  28.100  27.030  1.00  0.00     0.021 C 
ENDROOT
BRANCH   1   2
ATOM      2  C   UNL A   1      31.142  27.630  25.968  1.00  0.00     0.116 C 
BRANCH   2   3
ATOM      3  N   UNL A   1      31.143  28.498  24.823  1.00  0.00    -0.356 N 
ATOM      4  C   UNL A   1      31.419  28.313  23.521  1.00  0.00     0.223 C 
ATOM      5  O   UNL A   1      31.330  29.350  22.844  1.00  0.00    -0.275 OA
ATOM      6  H   UNL A   1      30.889  29.424  25.038  1.00  0.00     0.163 HD
BRANCH   4   7
ATOM      7  C   UNL A   1      31.722  26.982  22.793  1.00  0.00     0.091 C 
ATOM      8  C   UNL A   1      31.803  25.569  23.412  1.00  0.00     0.091 C 
ATOM      9  C   UNL A   1      32.929  25.448  24.441  1.00  0.00     0.014 C 
ATOM     10  C   UNL A   1      34.266  25.706  23.746  1.00  0.00     0.001 C 
ATOM     11  C   UNL A   1      33.070  27.188  22.047  1.00  0.00     0.014 C 
ATOM     12  C   UNL A   1      34.268  27.037  22.993  1.00  0.00     0.001 C 
BRANCH   8  13
ATOM     13  C   UNL A   1      30.494  24.888  23.771  1.00  0.00     0.228 C 
ATOM     14  N   UNL A   1      30.443  23.587  24.162  1.00  0.00    -0.326 N 
ATOM     15  H   UNL A   1      29.520  23.246  24.202  1.00  0.00     0.169 HD
ATOM     16  O   UNL A   1      29.419  25.495  23.742  1.00  0.00    -0.274 OA
BRANCH  14  17
ATOM     17  C   UNL A   1      31.387  22.615  24.520  1.00  0.00     0.041 A 
ATOM     18  C   UNL A   1      33.465  20.753  24.948  1.00  0.00     0.041 A 
ATOM     19  C   UNL A   1      32.782  21.278  26.030  1.00  0.00     0.028 A 
ATOM     20  C   UNL A   1      32.984  21.030  23.681  1.00  0.00     0.028 A 
ATOM     21  C   UNL A   1      31.733  22.189  25.808  1.00  0.00     0.028 A 
ATOM     22  C   UNL A   1      32.001  21.980  23.450  1.00  0.00     0.028 A 
BRANCH  18  23
ATOM     23  N   UNL A   1      34.559  19.894  25.111  1.00  0.00    -0.326 N 
ATOM     24  C   UNL A   1      35.896  20.232  25.074  1.00  0.00     0.224 C 
ATOM     25  O   UNL A   1      36.733  19.368  24.805  1.00  0.00    -0.275 OA
ATOM     26  H   UNL A   1      34.351  18.945  25.269  1.00  0.00     0.169 HD
BRANCH  24  27
ATOM     27  C   UNL A   1      36.322  21.610  25.604  1.00  0.00     0.103 C 
BRANCH  27  28
ATOM     28  C   UNL A   1      37.245  22.487  24.728  1.00  0.00    -0.008 C 
ATOM     29  C   UNL A   1      36.671  22.871  23.360  1.00  0.00     0.008 C 
ATOM     30  C   UNL A   1      37.524  23.798  25.475  1.00  0.00     0.008 C 
ENDBRANCH  27  28
ENDBRANCH  24  27
ENDBRANCH  18  23
ENDBRANCH  14  17
ENDBRANCH   8  13
ENDBRANCH   4   7
ENDBRANCH   2   3
ENDBRANCH   1   2
BRANCH   1  31
ATOM     31  C   UNL A   1      33.592  27.968  26.610  1.00  0.00     0.002 C 
BRANCH  31  32
ATOM     32  C   UNL A   1      34.397  29.272  26.673  1.00  0.00     0.002 C 
BRANCH  32  33
ATOM     33  C   UNL A   1      35.271  29.439  27.919  1.00  0.00     0.021 C 
BRANCH  33  34
ATOM     34  C   UNL A   1      35.579  30.889  28.285  1.00  0.00     0.116 C 
BRANCH  34  35
ATOM     35  N   UNL A   1      35.497  31.105  29.723  1.00  0.00    -0.352 N 
ATOM     36  C   UNL A   1      36.397  30.776  30.697  1.00  0.00     0.251 C 
ATOM     37  H   UNL A   1      34.678  31.551  30.037  1.00  0.00     0.163 HD
ATOM     38  O   UNL A   1      36.056  30.785  31.881  1.00  0.00    -0.269 OA
BRANCH  36  39
ATOM     39  C   UNL A   1      37.774  30.413  30.320  1.00  0.00     0.039 A 
ATOM     40  C   UNL A   1      38.608  29.818  31.268  1.00  0.00     0.014 A 
ATOM     41  C   UNL A   1      38.238  30.672  29.027  1.00  0.00     0.014 A 
ATOM     42  C   UNL A   1      39.900  29.440  30.903  1.00  0.00     0.010 A 
ATOM     43  C   UNL A   1      39.498  30.228  28.646  1.00  0.00     0.010 A 
ATOM     44  C   UNL A   1      40.346  29.619  29.583  1.00  0.00    -0.014 A 
BRANCH  44  45
ATOM     45  C   UNL A   1      41.701  29.194  29.159  1.00  0.00     0.031 A 
ATOM     46  C   UNL A   1      42.813  30.203  29.099  1.00  0.00     0.074 A 
ATOM     47  C   UNL A   1      41.904  27.924  28.758  1.00  0.00     0.049 A 
ATOM     48  N   UNL A   1      44.036  30.060  28.658  1.00  0.00    -0.248 NA
ATOM     49  C   UNL A   1      42.503  31.564  29.571  1.00  0.00     0.031 C 
ATOM     50  C   UNL A   1      40.887  26.870  28.737  1.00  0.00     0.029 A 
ATOM     51  N   UNL A   1      43.031  27.307  28.277  1.00  0.00    -0.354 N 
ATOM     52  C   UNL A   1      44.633  31.309  28.783  1.00  0.00     0.074 A 
ATOM     53  C   UNL A   1      43.623  32.212  29.291  1.00  0.00     0.031 C 
ATOM     54  C   UNL A   1      41.441  25.735  28.282  1.00  0.00     0.029 A 
ATOM     55  C   UNL A   1      42.836  25.989  27.937  1.00  0.00     0.049 A 
ATOM     56  H   UNL A   1      43.898  27.764  28.183  1.00  0.00     0.167 HD
ATOM     57  C   UNL A   1      45.911  31.663  28.519  1.00  0.00     0.037 A 
ATOM     58  C   UNL A   1      43.682  25.093  27.395  1.00  0.00     0.037 A 
ATOM     59  C   UNL A   1      46.912  30.749  28.033  1.00  0.00     0.049 A 
ATOM     60  C   UNL A   1      45.097  25.514  27.099  1.00  0.00     0.074 A 
ATOM     61  C   UNL A   1      48.250  30.992  27.779  1.00  0.00     0.029 A 
ATOM     62  N   UNL A   1      46.682  29.414  27.726  1.00  0.00    -0.354 N 
ATOM     63  N   UNL A   1      45.661  26.685  27.273  1.00  0.00    -0.248 NA
ATOM     64  C   UNL A   1      45.992  24.492  26.539  1.00  0.00     0.031 C 
ATOM     65  C   UNL A   1      48.817  29.819  27.271  1.00  0.00     0.029 A 
ATOM     66  C   UNL A   1      47.849  28.827  27.268  1.00  0.00     0.049 A 
ATOM     67  H   UNL A   1      45.818  28.953  27.821  1.00  0.00     0.167 HD
ATOM     68  C   UNL A   1      46.987  26.531  26.881  1.00  0.00     0.074 A 
ATOM     69  C   UNL A   1      47.139  25.153  26.463  1.00  0.00     0.031 C 
ATOM     70  C   UNL A   1      47.987  27.446  26.874  1.00  0.00     0.037 A 
BRANCH  57  71
ATOM     71  C   UNL A   1      46.303  33.099  28.747  1.00  0.00     0.058 A 
ATOM     72  C   UNL A   1      46.725  33.558  30.005  1.00  0.00     0.135 A 
ATOM     73  C   UNL A   1      46.292  34.020  27.686  1.00  0.00     0.135 A 
ATOM     74  F   UNL A   1      46.740  32.727  31.060  1.00  0.00    -0.206 F 
ATOM     75  C   UNL A   1      47.094  34.884  30.211  1.00  0.00     0.059 A 
ATOM     76  C   UNL A   1      46.687  35.343  27.861  1.00  0.00     0.059 A 
ATOM     77  F   UNL A   1      45.897  33.636  26.462  1.00  0.00    -0.206 F 
ATOM     78  C   UNL A   1      47.072  35.769  29.132  1.00  0.00     0.060 A 
BRANCH  78  79
ATOM     79  S   UNL A   1      47.562  37.482  29.414  1.00  0.00     0.124 S 
ATOM     80  O   UNL A   1      49.002  37.345  29.607  1.00  0.00    -0.237 OA
ATOM     81  O   UNL A   1      47.149  38.133  28.175  1.00  0.00    -0.237 OA
ATOM     82  O   UNL A   1      46.804  37.863  30.602  1.00  0.00    -0.744 OA
ENDBRANCH  78  79
ENDBRANCH  57  71
BRANCH  58  83
ATOM     83  C   UNL A   1      43.218  23.706  27.115  1.00  0.00     0.058 A 
ATOM     84  C   UNL A   1      43.107  22.762  28.145  1.00  0.00     0.135 A 
ATOM     85  C   UNL A   1      42.862  23.304  25.819  1.00  0.00     0.135 A 
ATOM     86  F   UNL A   1      43.438  23.096  29.402  1.00  0.00    -0.206 F 
ATOM     87  C   UNL A   1      42.678  21.461  27.899  1.00  0.00     0.059 A 
ATOM     88  C   UNL A   1      42.404  22.018  25.551  1.00  0.00     0.059 A 
ATOM     89  F   UNL A   1      42.933  24.174  24.800  1.00  0.00    -0.206 F 
ATOM     90  C   UNL A   1      42.326  21.100  26.597  1.00  0.00     0.060 A 
BRANCH  90  91
ATOM     91  S   UNL A   1      41.730  19.421  26.297  1.00  0.00     0.124 S 
ATOM     92  O   UNL A   1      42.470  19.057  25.094  1.00  0.00    -0.237 OA
ATOM     93  O   UNL A   1      42.124  18.733  27.522  1.00  0.00    -0.237 OA
ATOM     94  O   UNL A   1      40.292  19.602  26.124  1.00  0.00    -0.744 OA
ENDBRANCH  90  91
ENDBRANCH  58  83
BRANCH  70  95
ATOM     95  C   UNL A   1      49.354  26.981  26.456  1.00  0.00     0.058 A 
ATOM     96  C   UNL A   1      50.257  26.410  27.365  1.00  0.00     0.135 A 
ATOM     97  C   UNL A   1      49.735  27.042  25.104  1.00  0.00     0.135 A 
ATOM     98  F   UNL A   1      49.946  26.335  28.669  1.00  0.00    -0.206 F 
ATOM     99  C   UNL A   1      51.495  25.930  26.953  1.00  0.00     0.059 A 
ATOM    100  C   UNL A   1      50.955  26.540  24.665  1.00  0.00     0.059 A 
ATOM    101  F   UNL A   1      48.904  27.570  24.192  1.00  0.00    -0.206 F 
ATOM    102  C   UNL A   1      51.833  25.994  25.599  1.00  0.00     0.060 A 
BRANCH 102 103
ATOM    103  S   UNL A   1      53.422  25.318  25.070  1.00  0.00     0.124 S 
ATOM    104  O   UNL A   1      54.351  26.050  25.925  1.00  0.00    -0.237 OA
ATOM    105  O   UNL A   1      53.270  23.898  25.368  1.00  0.00    -0.237 OA
ATOM    106  O   UNL A   1      53.479  25.654  23.650  1.00  0.00    -0.744 OA
ENDBRANCH 102 103
ENDBRANCH  70  95
ENDBRANCH  44  45
ENDBRANCH  36  39
ENDBRANCH  34  35
ENDBRANCH  33  34
ENDBRANCH  32  33
ENDBRANCH  31  32
ENDBRANCH   1  31
TORSDOF 21
ENDMDL
