MODEL 1
REMARK VINA RESULT:     -11.1      0.000      0.000
REMARK SMILES CCN(CC(C)(C)O)C(=O)Nc1ccc(C(=O)NCCCCCCNC(=O)c2ccc(-c3c4nc(c(-c5c(F)cc(S(=O)(=O)[O-])cc5F)c5ccc([nH]5)c(-c5c(F)cc(S(=O)(=O)[O-])cc5F)c5nc(c(-c6c(F)cc(S(=O)(=O)[O-])cc6F)c6ccc3[nH]6)C=C5)C=C4)cc2)c(O)c1
REMARK SMILES IDX 20 1 19 2 18 3 16 4 17 5 15 7 12 8 13 9 96 10 14 11 94 12
REMARK SMILES IDX 11 13 9 14 10 15 3 17 2 18 1 19 4 20 5 21 6 22 7 23 8 24
REMARK SMILES IDX 95 26 21 28 22 29 23 30 24 31 25 32 26 33 27 35 28 36 29 37
REMARK SMILES IDX 93 38 30 39 92 40 31 41 32 42 33 43 86 44 34 45 91 46 85 47
REMARK SMILES IDX 87 48 35 49 90 50 84 51 83 52 36 54 70 55 49 56 69 57 50 58
REMARK SMILES IDX 53 59 68 60 88 61 51 62 52 63 67 65 89 66 54 67 37 68 38 69
REMARK SMILES IDX 47 70 39 71 40 72 46 73 48 74 41 75 42 76 43 77 44 78 45 79
REMARK SMILES IDX 71 80 72 81 81 82 73 83 74 84 80 85 82 86 75 87 76 88 77 89
REMARK SMILES IDX 78 90 79 91 55 92 56 93 65 94 57 95 58 96 64 97 66 98 59 99
REMARK SMILES IDX 60 100 61 101 62 102 63 103
REMARK H PARENT 18 6 11 16 8 25 95 27 25 34 87 53 53 64
REMARK Flexibility Score: inf
ROOT
ATOM      1  C   UNL A   1      35.153  21.000  25.257  1.00  0.00     0.021 C 
ENDROOT
BRANCH   1   2
ATOM      2  C   UNL A   1      33.799  20.309  25.232  1.00  0.00     0.116 C 
BRANCH   2   3
ATOM      3  N   UNL A   1      33.050  20.468  24.005  1.00  0.00    -0.352 N 
ATOM      4  C   UNL A   1      32.473  21.600  23.487  1.00  0.00     0.255 C 
ATOM      5  O   UNL A   1      31.940  21.540  22.380  1.00  0.00    -0.269 OA
ATOM      6  H   UNL A   1      32.940  19.651  23.465  1.00  0.00     0.163 HD
BRANCH   4   7
ATOM      7  C   UNL A   1      32.349  22.843  24.293  1.00  0.00     0.081 A 
ATOM      8  C   UNL A   1      31.901  25.489  25.181  1.00  0.00     0.046 A 
ATOM      9  C   UNL A   1      33.012  25.157  24.427  1.00  0.00     0.027 A 
ATOM     10  C   UNL A   1      31.171  24.425  25.712  1.00  0.00     0.073 A 
ATOM     11  C   UNL A   1      33.211  23.869  23.930  1.00  0.00     0.020 A 
ATOM     12  C   UNL A   1      31.436  23.108  25.312  1.00  0.00     0.130 A 
BRANCH   8  13
ATOM     13  N   UNL A   1      31.515  26.791  25.531  1.00  0.00    -0.308 N 
ATOM     14  C   UNL A   1      31.645  28.075  25.126  1.00  0.00     0.321 C 
ATOM     15  O   UNL A   1      31.252  28.901  25.963  1.00  0.00    -0.248 OA
ATOM     16  H   UNL A   1      30.963  26.759  26.346  1.00  0.00     0.171 HD
BRANCH  14  17
ATOM     17  N   UNL A   1      32.043  28.498  23.883  1.00  0.00    -0.322 N 
BRANCH  17  18
ATOM     18  C   UNL A   1      33.461  28.864  23.726  1.00  0.00     0.118 C 
ATOM     19  C   UNL A   1      34.083  28.332  22.436  1.00  0.00     0.027 C 
ENDBRANCH  17  18
BRANCH  17  20
ATOM     20  C   UNL A   1      31.267  28.603  22.646  1.00  0.00     0.155 C 
BRANCH  20  21
ATOM     21  C   UNL A   1      29.918  29.388  22.810  1.00  0.00     0.077 C 
ATOM     22  C   UNL A   1      29.480  30.180  21.555  1.00  0.00     0.043 C 
ATOM     23  C   UNL A   1      28.821  28.440  23.336  1.00  0.00     0.043 C 
BRANCH  21  24
ATOM     24  O   UNL A   1      30.091  30.384  23.841  1.00  0.00    -0.389 OA
ATOM     25  H   UNL A   1      31.030  30.449  24.074  1.00  0.00     0.211 HD
ENDBRANCH  21  24
ENDBRANCH  20  21
ENDBRANCH  17  20
ENDBRANCH  14  17
ENDBRANCH   8  13
BRANCH  12  26
ATOM     26  O   UNL A   1      30.786  22.136  26.017  1.00  0.00    -0.507 OA
ATOM     27  H   UNL A   1      29.885  22.249  26.250  1.00  0.00     0.293 HD
ENDBRANCH  12  26
ENDBRANCH   4   7
ENDBRANCH   2   3
ENDBRANCH   1   2
BRANCH   1  28
ATOM     28  C   UNL A   1      35.362  22.054  26.347  1.00  0.00     0.002 C 
BRANCH  28  29
ATOM     29  C   UNL A   1      36.108  23.339  25.971  1.00  0.00     0.002 C 
BRANCH  29  30
ATOM     30  C   UNL A   1      37.603  23.226  25.670  1.00  0.00     0.021 C 
BRANCH  30  31
ATOM     31  C   UNL A   1      38.506  24.175  26.440  1.00  0.00     0.116 C 
BRANCH  31  32
ATOM     32  N   UNL A   1      39.907  24.017  26.092  1.00  0.00    -0.352 N 
ATOM     33  C   UNL A   1      40.979  24.768  26.497  1.00  0.00     0.251 C 
ATOM     34  H   UNL A   1      40.114  23.271  25.483  1.00  0.00     0.163 HD
ATOM     35  O   UNL A   1      42.084  24.591  25.987  1.00  0.00    -0.269 OA
BRANCH  33  36
ATOM     36  C   UNL A   1      40.789  25.807  27.528  1.00  0.00     0.039 A 
ATOM     37  C   UNL A   1      39.759  25.653  28.458  1.00  0.00     0.014 A 
ATOM     38  C   UNL A   1      41.639  26.915  27.591  1.00  0.00     0.014 A 
ATOM     39  C   UNL A   1      39.611  26.590  29.481  1.00  0.00     0.010 A 
ATOM     40  C   UNL A   1      41.542  27.801  28.658  1.00  0.00     0.010 A 
ATOM     41  C   UNL A   1      40.517  27.656  29.605  1.00  0.00    -0.014 A 
BRANCH  41  42
ATOM     42  C   UNL A   1      40.392  28.645  30.706  1.00  0.00     0.031 A 
ATOM     43  C   UNL A   1      41.277  28.530  31.917  1.00  0.00     0.074 A 
ATOM     44  C   UNL A   1      39.458  29.613  30.632  1.00  0.00     0.049 A 
ATOM     45  N   UNL A   1      41.296  29.266  32.998  1.00  0.00    -0.248 NA
ATOM     46  C   UNL A   1      42.251  27.428  31.926  1.00  0.00     0.031 C 
ATOM     47  C   UNL A   1      38.520  29.800  29.523  1.00  0.00     0.029 A 
ATOM     48  N   UNL A   1      39.144  30.622  31.505  1.00  0.00    -0.354 N 
ATOM     49  C   UNL A   1      42.276  28.713  33.815  1.00  0.00     0.074 A 
ATOM     50  C   UNL A   1      42.778  27.539  33.135  1.00  0.00     0.031 C 
ATOM     51  C   UNL A   1      37.760  30.880  29.768  1.00  0.00     0.029 A 
ATOM     52  C   UNL A   1      38.127  31.437  31.066  1.00  0.00     0.049 A 
ATOM     53  H   UNL A   1      39.603  30.751  32.367  1.00  0.00     0.167 HD
ATOM     54  C   UNL A   1      42.737  29.159  35.007  1.00  0.00     0.037 A 
ATOM     55  C   UNL A   1      37.556  32.509  31.647  1.00  0.00     0.037 A 
ATOM     56  C   UNL A   1      42.237  30.335  35.671  1.00  0.00     0.049 A 
ATOM     57  C   UNL A   1      38.062  32.968  32.988  1.00  0.00     0.074 A 
ATOM     58  C   UNL A   1      42.655  30.895  36.863  1.00  0.00     0.029 A 
ATOM     59  N   UNL A   1      41.202  31.130  35.197  1.00  0.00    -0.354 N 
ATOM     60  N   UNL A   1      39.027  32.466  33.722  1.00  0.00    -0.248 NA
ATOM     61  C   UNL A   1      37.407  34.144  33.577  1.00  0.00     0.031 C 
ATOM     62  C   UNL A   1      41.841  32.000  37.136  1.00  0.00     0.029 A 
ATOM     63  C   UNL A   1      40.954  32.164  36.084  1.00  0.00     0.049 A 
ATOM     64  H   UNL A   1      40.715  30.981  34.354  1.00  0.00     0.167 HD
ATOM     65  C   UNL A   1      39.117  33.285  34.843  1.00  0.00     0.074 A 
ATOM     66  C   UNL A   1      38.115  34.319  34.684  1.00  0.00     0.031 C 
ATOM     67  C   UNL A   1      39.957  33.192  35.904  1.00  0.00     0.037 A 
BRANCH  54  68
ATOM     68  C   UNL A   1      43.836  28.366  35.665  1.00  0.00     0.058 A 
ATOM     69  C   UNL A   1      45.191  28.619  35.391  1.00  0.00     0.135 A 
ATOM     70  C   UNL A   1      43.536  27.347  36.582  1.00  0.00     0.135 A 
ATOM     71  F   UNL A   1      45.539  29.573  34.513  1.00  0.00    -0.206 F 
ATOM     72  C   UNL A   1      46.205  27.860  35.967  1.00  0.00     0.059 A 
ATOM     73  C   UNL A   1      44.536  26.596  37.196  1.00  0.00     0.059 A 
ATOM     74  F   UNL A   1      42.260  27.062  36.883  1.00  0.00    -0.206 F 
ATOM     75  C   UNL A   1      45.867  26.846  36.865  1.00  0.00     0.060 A 
BRANCH  75  76
ATOM     76  S   UNL A   1      47.192  25.857  37.586  1.00  0.00     0.124 S 
ATOM     77  O   UNL A   1      46.552  25.352  38.796  1.00  0.00    -0.237 OA
ATOM     78  O   UNL A   1      47.447  24.868  36.544  1.00  0.00    -0.237 OA
ATOM     79  O   UNL A   1      48.262  26.827  37.801  1.00  0.00    -0.744 OA
ENDBRANCH  75  76
ENDBRANCH  54  68
BRANCH  55  80
ATOM     80  C   UNL A   1      36.470  33.245  30.945  1.00  0.00     0.058 A 
ATOM     81  C   UNL A   1      35.139  33.150  31.382  1.00  0.00     0.135 A 
ATOM     82  C   UNL A   1      36.736  34.068  29.841  1.00  0.00     0.135 A 
ATOM     83  F   UNL A   1      34.832  32.372  32.431  1.00  0.00    -0.206 F 
ATOM     84  C   UNL A   1      34.110  33.831  30.741  1.00  0.00     0.059 A 
ATOM     85  C   UNL A   1      35.727  34.781  29.199  1.00  0.00     0.059 A 
ATOM     86  F   UNL A   1      37.993  34.207  29.393  1.00  0.00    -0.206 F 
ATOM     87  C   UNL A   1      34.416  34.648  29.651  1.00  0.00     0.060 A 
BRANCH  87  88
ATOM     88  S   UNL A   1      33.078  35.567  28.858  1.00  0.00     0.124 S 
ATOM     89  O   UNL A   1      32.440  34.526  28.060  1.00  0.00    -0.237 OA
ATOM     90  O   UNL A   1      32.317  36.049  30.007  1.00  0.00    -0.237 OA
ATOM     91  O   UNL A   1      33.782  36.600  28.104  1.00  0.00    -0.744 OA
ENDBRANCH  87  88
ENDBRANCH  55  80
BRANCH  67  92
ATOM     92  C   UNL A   1      39.860  34.261  36.959  1.00  0.00     0.058 A 
ATOM     93  C   UNL A   1      40.532  35.487  36.837  1.00  0.00     0.135 A 
ATOM     94  C   UNL A   1      39.039  34.072  38.083  1.00  0.00     0.135 A 
ATOM     95  F   UNL A   1      41.334  35.717  35.786  1.00  0.00    -0.206 F 
ATOM     96  C   UNL A   1      40.413  36.478  37.805  1.00  0.00     0.059 A 
ATOM     97  C   UNL A   1      38.881  35.062  39.048  1.00  0.00     0.059 A 
ATOM     98  F   UNL A   1      38.364  32.922  38.244  1.00  0.00    -0.206 F 
ATOM     99  C   UNL A   1      39.582  36.258  38.906  1.00  0.00     0.060 A 
BRANCH  99 100
ATOM    100  S   UNL A   1      39.410  37.567  40.136  1.00  0.00     0.124 S 
ATOM    101  O   UNL A   1      40.754  38.138  40.149  1.00  0.00    -0.237 OA
ATOM    102  O   UNL A   1      38.370  38.408  39.554  1.00  0.00    -0.237 OA
ATOM    103  O   UNL A   1      39.023  36.848  41.347  1.00  0.00    -0.744 OA
ENDBRANCH  99 100
ENDBRANCH  67  92
ENDBRANCH  41  42
ENDBRANCH  33  36
ENDBRANCH  31  32
ENDBRANCH  30  31
ENDBRANCH  29  30
ENDBRANCH  28  29
ENDBRANCH   1  28
TORSDOF 23
ENDMDL
MODEL 2
REMARK VINA RESULT:     -10.9      5.022      7.380
REMARK SMILES CCN(CC(C)(C)O)C(=O)Nc1ccc(C(=O)NCCCCCCNC(=O)c2ccc(-c3c4nc(c(-c5c(F)cc(S(=O)(=O)[O-])cc5F)c5ccc([nH]5)c(-c5c(F)cc(S(=O)(=O)[O-])cc5F)c5nc(c(-c6c(F)cc(S(=O)(=O)[O-])cc6F)c6ccc3[nH]6)C=C5)C=C4)cc2)c(O)c1
REMARK SMILES IDX 20 1 19 2 18 3 16 4 17 5 15 7 12 8 13 9 96 10 14 11 94 12
REMARK SMILES IDX 11 13 9 14 10 15 3 17 2 18 1 19 4 20 5 21 6 22 7 23 8 24
REMARK SMILES IDX 95 26 21 28 22 29 23 30 24 31 25 32 26 33 27 35 28 36 29 37
REMARK SMILES IDX 93 38 30 39 92 40 31 41 32 42 33 43 86 44 34 45 91 46 85 47
REMARK SMILES IDX 87 48 35 49 90 50 84 51 83 52 36 54 70 55 49 56 69 57 50 58
REMARK SMILES IDX 53 59 68 60 88 61 51 62 52 63 67 65 89 66 54 67 37 68 38 69
REMARK SMILES IDX 47 70 39 71 40 72 46 73 48 74 41 75 42 76 43 77 44 78 45 79
REMARK SMILES IDX 71 80 72 81 81 82 73 83 74 84 80 85 82 86 75 87 76 88 77 89
REMARK SMILES IDX 78 90 79 91 55 92 56 93 65 94 57 95 58 96 64 97 66 98 59 99
REMARK SMILES IDX 60 100 61 101 62 102 63 103
REMARK H PARENT 18 6 11 16 8 25 95 27 25 34 87 53 53 64
REMARK Flexibility Score: inf
ROOT
ATOM      1  C   UNL A   1      33.422  26.685  25.168  1.00  0.00     0.021 C 
ENDROOT
BRANCH   1   2
ATOM      2  C   UNL A   1      32.175  26.351  24.363  1.00  0.00     0.116 C 
BRANCH   2   3
ATOM      3  N   UNL A   1      30.965  26.197  25.142  1.00  0.00    -0.352 N 
ATOM      4  C   UNL A   1      30.519  25.099  25.833  1.00  0.00     0.255 C 
ATOM      5  O   UNL A   1      29.491  25.198  26.501  1.00  0.00    -0.269 OA
ATOM      6  H   UNL A   1      30.382  26.989  25.182  1.00  0.00     0.163 HD
BRANCH   4   7
ATOM      7  C   UNL A   1      31.162  23.769  25.672  1.00  0.00     0.081 A 
ATOM      8  C   UNL A   1      32.858  21.625  24.950  1.00  0.00     0.046 A 
ATOM      9  C   UNL A   1      31.956  22.168  24.053  1.00  0.00     0.027 A 
ATOM     10  C   UNL A   1      32.698  21.990  26.288  1.00  0.00     0.073 A 
ATOM     11  C   UNL A   1      31.160  23.266  24.377  1.00  0.00     0.020 A 
ATOM     12  C   UNL A   1      31.813  23.015  26.647  1.00  0.00     0.130 A 
BRANCH   8  13
ATOM     13  N   UNL A   1      33.841  20.674  24.641  1.00  0.00    -0.308 N 
ATOM     14  C   UNL A   1      34.047  19.337  24.626  1.00  0.00     0.321 C 
ATOM     15  O   UNL A   1      35.234  19.020  24.454  1.00  0.00    -0.248 OA
ATOM     16  H   UNL A   1      34.654  21.134  24.332  1.00  0.00     0.171 HD
BRANCH  14  17
ATOM     17  N   UNL A   1      33.079  18.365  24.663  1.00  0.00    -0.322 N 
BRANCH  17  18
ATOM     18  C   UNL A   1      32.008  18.453  23.655  1.00  0.00     0.118 C 
ATOM     19  C   UNL A   1      32.528  18.449  22.219  1.00  0.00     0.027 C 
ENDBRANCH  17  18
BRANCH  17  20
ATOM     20  C   UNL A   1      32.966  17.200  25.541  1.00  0.00     0.155 C 
BRANCH  20  21
ATOM     21  C   UNL A   1      33.697  15.923  24.995  1.00  0.00     0.077 C 
ATOM     22  C   UNL A   1      35.194  15.829  25.376  1.00  0.00     0.043 C 
ATOM     23  C   UNL A   1      32.899  14.659  25.376  1.00  0.00     0.043 C 
BRANCH  21  24
ATOM     24  O   UNL A   1      33.679  15.968  23.552  1.00  0.00    -0.389 OA
ATOM     25  H   UNL A   1      33.412  15.103  23.205  1.00  0.00     0.211 HD
ENDBRANCH  21  24
ENDBRANCH  20  21
ENDBRANCH  17  20
ENDBRANCH  14  17
ENDBRANCH   8  13
BRANCH  12  26
ATOM     26  O   UNL A   1      31.607  23.173  27.988  1.00  0.00    -0.507 OA
ATOM     27  H   UNL A   1      30.834  23.604  28.295  1.00  0.00     0.293 HD
ENDBRANCH  12  26
ENDBRANCH   4   7
ENDBRANCH   2   3
ENDBRANCH   1   2
BRANCH   1  28
ATOM     28  C   UNL A   1      34.373  25.524  25.466  1.00  0.00     0.002 C 
BRANCH  28  29
ATOM     29  C   UNL A   1      34.790  24.617  24.303  1.00  0.00     0.002 C 
BRANCH  29  30
ATOM     30  C   UNL A   1      35.957  23.657  24.537  1.00  0.00     0.021 C 
BRANCH  30  31
ATOM     31  C   UNL A   1      36.513  23.625  25.950  1.00  0.00     0.116 C 
BRANCH  31  32
ATOM     32  N   UNL A   1      37.507  22.583  26.135  1.00  0.00    -0.352 N 
ATOM     33  C   UNL A   1      38.822  22.710  26.500  1.00  0.00     0.251 C 
ATOM     34  H   UNL A   1      37.195  21.662  25.976  1.00  0.00     0.163 HD
ATOM     35  O   UNL A   1      39.569  21.734  26.464  1.00  0.00    -0.269 OA
BRANCH  33  36
ATOM     36  C   UNL A   1      39.337  24.032  26.909  1.00  0.00     0.039 A 
ATOM     37  C   UNL A   1      39.346  24.362  28.265  1.00  0.00     0.014 A 
ATOM     38  C   UNL A   1      39.831  24.930  25.959  1.00  0.00     0.014 A 
ATOM     39  C   UNL A   1      39.894  25.578  28.673  1.00  0.00     0.010 A 
ATOM     40  C   UNL A   1      40.452  26.103  26.374  1.00  0.00     0.010 A 
ATOM     41  C   UNL A   1      40.476  26.445  27.734  1.00  0.00    -0.014 A 
BRANCH  41  42
ATOM     42  C   UNL A   1      41.092  27.729  28.155  1.00  0.00     0.031 A 
ATOM     43  C   UNL A   1      42.579  27.920  28.032  1.00  0.00     0.074 A 
ATOM     44  C   UNL A   1      40.320  28.699  28.683  1.00  0.00     0.049 A 
ATOM     45  N   UNL A   1      43.311  28.947  28.380  1.00  0.00    -0.248 NA
ATOM     46  C   UNL A   1      43.349  26.800  27.469  1.00  0.00     0.031 C 
ATOM     47  C   UNL A   1      38.873  28.612  28.885  1.00  0.00     0.029 A 
ATOM     48  N   UNL A   1      40.645  29.948  29.147  1.00  0.00    -0.354 N 
ATOM     49  C   UNL A   1      44.623  28.594  28.083  1.00  0.00     0.074 A 
ATOM     50  C   UNL A   1      44.593  27.233  27.594  1.00  0.00     0.031 C 
ATOM     51  C   UNL A   1      38.430  29.771  29.398  1.00  0.00     0.029 A 
ATOM     52  C   UNL A   1      39.565  30.667  29.601  1.00  0.00     0.049 A 
ATOM     53  H   UNL A   1      41.566  30.297  29.155  1.00  0.00     0.167 HD
ATOM     54  C   UNL A   1      45.746  29.344  28.179  1.00  0.00     0.037 A 
ATOM     55  C   UNL A   1      39.499  31.907  30.122  1.00  0.00     0.037 A 
ATOM     56  C   UNL A   1      45.763  30.702  28.658  1.00  0.00     0.049 A 
ATOM     57  C   UNL A   1      40.764  32.712  30.251  1.00  0.00     0.074 A 
ATOM     58  C   UNL A   1      46.838  31.565  28.766  1.00  0.00     0.029 A 
ATOM     59  N   UNL A   1      44.649  31.394  29.115  1.00  0.00    -0.354 N 
ATOM     60  N   UNL A   1      41.989  32.384  29.915  1.00  0.00    -0.248 NA
ATOM     61  C   UNL A   1      40.638  34.059  30.823  1.00  0.00     0.031 C 
ATOM     62  C   UNL A   1      46.384  32.761  29.332  1.00  0.00     0.029 A 
ATOM     63  C   UNL A   1      45.015  32.665  29.524  1.00  0.00     0.049 A 
ATOM     64  H   UNL A   1      43.733  31.034  29.143  1.00  0.00     0.167 HD
ATOM     65  C   UNL A   1      42.774  33.495  30.204  1.00  0.00     0.074 A 
ATOM     66  C   UNL A   1      41.882  34.507  30.733  1.00  0.00     0.031 C 
ATOM     67  C   UNL A   1      44.110  33.664  30.040  1.00  0.00     0.037 A 
BRANCH  54  68
ATOM     68  C   UNL A   1      47.044  28.707  27.759  1.00  0.00     0.058 A 
ATOM     69  C   UNL A   1      47.883  28.065  28.685  1.00  0.00     0.135 A 
ATOM     70  C   UNL A   1      47.453  28.731  26.416  1.00  0.00     0.135 A 
ATOM     71  F   UNL A   1      47.550  28.022  29.985  1.00  0.00    -0.206 F 
ATOM     72  C   UNL A   1      49.102  27.513  28.305  1.00  0.00     0.059 A 
ATOM     73  C   UNL A   1      48.654  28.155  26.007  1.00  0.00     0.059 A 
ATOM     74  F   UNL A   1      46.692  29.328  25.487  1.00  0.00    -0.206 F 
ATOM     75  C   UNL A   1      49.481  27.567  26.962  1.00  0.00     0.060 A 
BRANCH  75  76
ATOM     76  S   UNL A   1      51.074  26.865  26.489  1.00  0.00     0.124 S 
ATOM     77  O   UNL A   1      51.189  25.749  27.424  1.00  0.00    -0.237 OA
ATOM     78  O   UNL A   1      50.853  26.500  25.093  1.00  0.00    -0.237 OA
ATOM     79  O   UNL A   1      52.010  27.963  26.708  1.00  0.00    -0.744 OA
ENDBRANCH  75  76
ENDBRANCH  54  68
BRANCH  55  80
ATOM     80  C   UNL A   1      38.185  32.477  30.523  1.00  0.00     0.058 A 
ATOM     81  C   UNL A   1      37.674  32.265  31.814  1.00  0.00     0.135 A 
ATOM     82  C   UNL A   1      37.422  33.255  29.640  1.00  0.00     0.135 A 
ATOM     83  F   UNL A   1      38.362  31.524  32.694  1.00  0.00    -0.206 F 
ATOM     84  C   UNL A   1      36.448  32.791  32.208  1.00  0.00     0.059 A 
ATOM     85  C   UNL A   1      36.205  33.814  30.020  1.00  0.00     0.059 A 
ATOM     86  F   UNL A   1      37.873  33.502  28.400  1.00  0.00    -0.206 F 
ATOM     87  C   UNL A   1      35.722  33.568  31.304  1.00  0.00     0.060 A 
BRANCH  87  88
ATOM     88  S   UNL A   1      34.156  34.287  31.844  1.00  0.00     0.124 S 
ATOM     89  O   UNL A   1      33.653  33.253  32.742  1.00  0.00    -0.237 OA
ATOM     90  O   UNL A   1      34.593  35.527  32.478  1.00  0.00    -0.237 OA
ATOM     91  O   UNL A   1      33.416  34.456  30.597  1.00  0.00    -0.744 OA
ENDBRANCH  87  88
ENDBRANCH  55  80
BRANCH  67  92
ATOM     92  C   UNL A   1      44.686  35.008  30.396  1.00  0.00     0.058 A 
ATOM     93  C   UNL A   1      44.742  36.061  29.471  1.00  0.00     0.135 A 
ATOM     94  C   UNL A   1      45.140  35.259  31.702  1.00  0.00     0.135 A 
ATOM     95  F   UNL A   1      44.327  35.874  28.207  1.00  0.00    -0.206 F 
ATOM     96  C   UNL A   1      45.251  37.307  29.818  1.00  0.00     0.059 A 
ATOM     97  C   UNL A   1      45.625  36.506  32.081  1.00  0.00     0.059 A 
ATOM     98  F   UNL A   1      45.099  34.290  32.631  1.00  0.00    -0.206 F 
ATOM     99  C   UNL A   1      45.687  37.522  31.129  1.00  0.00     0.060 A 
BRANCH  99 100
ATOM    100  S   UNL A   1      46.313  39.155  31.575  1.00  0.00     0.124 S 
ATOM    101  O   UNL A   1      47.165  38.842  32.718  1.00  0.00    -0.237 OA
ATOM    102  O   UNL A   1      47.008  39.565  30.360  1.00  0.00    -0.237 OA
ATOM    103  O   UNL A   1      45.102  39.910  31.884  1.00  0.00    -0.744 OA
ENDBRANCH  99 100
ENDBRANCH  67  92
ENDBRANCH  41  42
ENDBRANCH  33  36
ENDBRANCH  31  32
ENDBRANCH  30  31
ENDBRANCH  29  30
ENDBRANCH  28  29
ENDBRANCH   1  28
TORSDOF 23
ENDMDL
MODEL 3
REMARK VINA RESULT:     -10.8      1.056      8.113
REMARK SMILES CCN(CC(C)(C)O)C(=O)Nc1ccc(C(=O)NCCCCCCNC(=O)c2ccc(-c3c4nc(c(-c5c(F)cc(S(=O)(=O)[O-])cc5F)c5ccc([nH]5)c(-c5c(F)cc(S(=O)(=O)[O-])cc5F)c5nc(c(-c6c(F)cc(S(=O)(=O)[O-])cc6F)c6ccc3[nH]6)C=C5)C=C4)cc2)c(O)c1
REMARK SMILES IDX 20 1 19 2 18 3 16 4 17 5 15 7 12 8 13 9 96 10 14 11 94 12
REMARK SMILES IDX 11 13 9 14 10 15 3 17 2 18 1 19 4 20 5 21 6 22 7 23 8 24
REMARK SMILES IDX 95 26 21 28 22 29 23 30 24 31 25 32 26 33 27 35 28 36 29 37
REMARK SMILES IDX 93 38 30 39 92 40 31 41 32 42 33 43 86 44 34 45 91 46 85 47
REMARK SMILES IDX 87 48 35 49 90 50 84 51 83 52 36 54 70 55 49 56 69 57 50 58
REMARK SMILES IDX 53 59 68 60 88 61 51 62 52 63 67 65 89 66 54 67 37 68 38 69
REMARK SMILES IDX 47 70 39 71 40 72 46 73 48 74 41 75 42 76 43 77 44 78 45 79
REMARK SMILES IDX 71 80 72 81 81 82 73 83 74 84 80 85 82 86 75 87 76 88 77 89
REMARK SMILES IDX 78 90 79 91 55 92 56 93 65 94 57 95 58 96 64 97 66 98 59 99
REMARK SMILES IDX 60 100 61 101 62 102 63 103
REMARK H PARENT 18 6 11 16 8 25 95 27 25 34 87 53 53 64
REMARK Flexibility Score: inf
ROOT
ATOM      1  C   UNL A   1      36.154  21.624  24.589  1.00  0.00     0.021 C 
ENDROOT
BRANCH   1   2
ATOM      2  C   UNL A   1      34.931  20.874  25.091  1.00  0.00     0.116 C 
BRANCH   2   3
ATOM      3  N   UNL A   1      33.824  20.812  24.162  1.00  0.00    -0.352 N 
ATOM      4  C   UNL A   1      32.760  21.669  24.029  1.00  0.00     0.255 C 
ATOM      5  O   UNL A   1      31.958  21.479  23.116  1.00  0.00    -0.269 OA
ATOM      6  H   UNL A   1      33.836  20.051  23.537  1.00  0.00     0.163 HD
BRANCH   4   7
ATOM      7  C   UNL A   1      32.479  22.717  25.044  1.00  0.00     0.081 A 
ATOM      8  C   UNL A   1      31.922  25.145  26.381  1.00  0.00     0.046 A 
ATOM      9  C   UNL A   1      33.176  24.873  25.868  1.00  0.00     0.027 A 
ATOM     10  C   UNL A   1      31.036  24.069  26.456  1.00  0.00     0.073 A 
ATOM     11  C   UNL A   1      33.447  23.707  25.152  1.00  0.00     0.020 A 
ATOM     12  C   UNL A   1      31.342  22.848  25.840  1.00  0.00     0.130 A 
BRANCH   8  13
ATOM     13  N   UNL A   1      31.510  26.373  26.917  1.00  0.00    -0.308 N 
ATOM     14  C   UNL A   1      31.562  27.703  26.669  1.00  0.00     0.321 C 
ATOM     15  O   UNL A   1      31.195  28.400  27.627  1.00  0.00    -0.248 OA
ATOM     16  H   UNL A   1      31.017  26.215  27.755  1.00  0.00     0.171 HD
BRANCH  14  17
ATOM     17  N   UNL A   1      31.857  28.294  25.467  1.00  0.00    -0.322 N 
BRANCH  17  18
ATOM     18  C   UNL A   1      33.245  28.744  25.268  1.00  0.00     0.118 C 
ATOM     19  C   UNL A   1      34.188  28.305  26.387  1.00  0.00     0.027 C 
ENDBRANCH  17  18
BRANCH  17  20
ATOM     20  C   UNL A   1      30.995  28.513  24.305  1.00  0.00     0.155 C 
BRANCH  20  21
ATOM     21  C   UNL A   1      31.026  27.338  23.264  1.00  0.00     0.077 C 
ATOM     22  C   UNL A   1      32.422  26.703  23.057  1.00  0.00     0.043 C 
ATOM     23  C   UNL A   1      29.939  26.300  23.613  1.00  0.00     0.043 C 
BRANCH  21  24
ATOM     24  O   UNL A   1      30.656  27.862  21.971  1.00  0.00    -0.389 OA
ATOM     25  H   UNL A   1      29.690  27.904  21.903  1.00  0.00     0.211 HD
ENDBRANCH  21  24
ENDBRANCH  20  21
ENDBRANCH  17  20
ENDBRANCH  14  17
ENDBRANCH   8  13
BRANCH  12  26
ATOM     26  O   UNL A   1      30.491  21.817  26.119  1.00  0.00    -0.507 OA
ATOM     27  H   UNL A   1      30.749  21.147  26.721  1.00  0.00     0.293 HD
ENDBRANCH  12  26
ENDBRANCH   4   7
ENDBRANCH   2   3
ENDBRANCH   1   2
BRANCH   1  28
ATOM     28  C   UNL A   1      37.517  21.037  24.965  1.00  0.00     0.002 C 
BRANCH  28  29
ATOM     29  C   UNL A   1      38.474  21.908  25.787  1.00  0.00     0.002 C 
BRANCH  29  30
ATOM     30  C   UNL A   1      38.063  23.358  26.048  1.00  0.00     0.021 C 
BRANCH  30  31
ATOM     31  C   UNL A   1      39.090  24.216  26.766  1.00  0.00     0.116 C 
BRANCH  31  32
ATOM     32  N   UNL A   1      40.166  24.647  25.890  1.00  0.00    -0.352 N 
ATOM     33  C   UNL A   1      41.004  25.722  26.030  1.00  0.00     0.251 C 
ATOM     34  H   UNL A   1      40.313  24.093  25.089  1.00  0.00     0.163 HD
ATOM     35  O   UNL A   1      41.767  26.034  25.116  1.00  0.00    -0.269 OA
BRANCH  33  36
ATOM     36  C   UNL A   1      40.963  26.518  27.273  1.00  0.00     0.039 A 
ATOM     37  C   UNL A   1      41.722  27.686  27.351  1.00  0.00     0.014 A 
ATOM     38  C   UNL A   1      40.158  26.124  28.347  1.00  0.00     0.014 A 
ATOM     39  C   UNL A   1      41.638  28.486  28.491  1.00  0.00     0.010 A 
ATOM     40  C   UNL A   1      40.012  26.963  29.445  1.00  0.00     0.010 A 
ATOM     41  C   UNL A   1      40.762  28.145  29.535  1.00  0.00    -0.014 A 
BRANCH  41  42
ATOM     42  C   UNL A   1      40.638  29.001  30.742  1.00  0.00     0.031 A 
ATOM     43  C   UNL A   1      39.591  30.080  30.788  1.00  0.00     0.074 A 
ATOM     44  C   UNL A   1      41.492  28.834  31.771  1.00  0.00     0.049 A 
ATOM     45  N   UNL A   1      39.348  30.955  31.729  1.00  0.00    -0.248 NA
ATOM     46  C   UNL A   1      38.718  30.209  29.611  1.00  0.00     0.031 C 
ATOM     47  C   UNL A   1      42.571  27.845  31.822  1.00  0.00     0.029 A 
ATOM     48  N   UNL A   1      41.587  29.491  32.971  1.00  0.00    -0.354 N 
ATOM     49  C   UNL A   1      38.302  31.739  31.256  1.00  0.00     0.074 A 
ATOM     50  C   UNL A   1      38.005  31.282  29.917  1.00  0.00     0.031 C 
ATOM     51  C   UNL A   1      43.196  27.938  33.007  1.00  0.00     0.029 A 
ATOM     52  C   UNL A   1      42.591  29.017  33.782  1.00  0.00     0.049 A 
ATOM     53  H   UNL A   1      40.993  30.233  33.227  1.00  0.00     0.167 HD
ATOM     54  C   UNL A   1      37.630  32.729  31.890  1.00  0.00     0.037 A 
ATOM     55  C   UNL A   1      42.979  29.411  35.010  1.00  0.00     0.037 A 
ATOM     56  C   UNL A   1      37.927  33.170  33.228  1.00  0.00     0.049 A 
ATOM     57  C   UNL A   1      42.239  30.535  35.683  1.00  0.00     0.074 A 
ATOM     58  C   UNL A   1      37.288  34.140  33.977  1.00  0.00     0.029 A 
ATOM     59  N   UNL A   1      38.955  32.669  34.015  1.00  0.00    -0.354 N 
ATOM     60  N   UNL A   1      41.217  31.230  35.244  1.00  0.00    -0.248 NA
ATOM     61  C   UNL A   1      42.700  30.925  37.023  1.00  0.00     0.031 C 
ATOM     62  C   UNL A   1      37.959  34.261  35.199  1.00  0.00     0.029 A 
ATOM     63  C   UNL A   1      38.981  33.325  35.235  1.00  0.00     0.049 A 
ATOM     64  H   UNL A   1      39.575  31.953  33.747  1.00  0.00     0.167 HD
ATOM     65  C   UNL A   1      40.891  32.116  36.265  1.00  0.00     0.074 A 
ATOM     66  C   UNL A   1      41.820  31.861  37.348  1.00  0.00     0.031 C 
ATOM     67  C   UNL A   1      39.909  33.051  36.306  1.00  0.00     0.037 A 
BRANCH  54  68
ATOM     68  C   UNL A   1      36.510  33.398  31.137  1.00  0.00     0.058 A 
ATOM     69  C   UNL A   1      36.761  34.259  30.055  1.00  0.00     0.135 A 
ATOM     70  C   UNL A   1      35.171  33.175  31.495  1.00  0.00     0.135 A 
ATOM     71  F   UNL A   1      38.022  34.520  29.676  1.00  0.00    -0.206 F 
ATOM     72  C   UNL A   1      35.729  34.910  29.386  1.00  0.00     0.059 A 
ATOM     73  C   UNL A   1      34.120  33.790  30.818  1.00  0.00     0.059 A 
ATOM     74  F   UNL A   1      34.871  32.362  32.519  1.00  0.00    -0.206 F 
ATOM     75  C   UNL A   1      34.411  34.673  29.779  1.00  0.00     0.060 A 
BRANCH  75  76
ATOM     76  S   UNL A   1      33.087  35.541  28.915  1.00  0.00     0.124 S 
ATOM     77  O   UNL A   1      33.841  36.509  28.125  1.00  0.00    -0.237 OA
ATOM     78  O   UNL A   1      32.449  34.467  28.160  1.00  0.00    -0.237 OA
ATOM     79  O   UNL A   1      32.285  36.105  29.997  1.00  0.00    -0.744 OA
ENDBRANCH  75  76
ENDBRANCH  54  68
BRANCH  55  80
ATOM     80  C   UNL A   1      44.098  28.711  35.697  1.00  0.00     0.058 A 
ATOM     81  C   UNL A   1      43.848  27.638  36.568  1.00  0.00     0.135 A 
ATOM     82  C   UNL A   1      45.434  29.083  35.488  1.00  0.00     0.135 A 
ATOM     83  F   UNL A   1      42.586  27.247  36.804  1.00  0.00    -0.206 F 
ATOM     84  C   UNL A   1      44.879  26.970  37.218  1.00  0.00     0.059 A 
ATOM     85  C   UNL A   1      46.486  28.413  36.107  1.00  0.00     0.059 A 
ATOM     86  F   UNL A   1      45.729  30.091  34.653  1.00  0.00    -0.206 F 
ATOM     87  C   UNL A   1      46.197  27.363  36.978  1.00  0.00     0.060 A 
BRANCH  87  88
ATOM     88  S   UNL A   1      47.531  26.456  37.789  1.00  0.00     0.124 S 
ATOM     89  O   UNL A   1      48.701  26.944  37.066  1.00  0.00    -0.237 OA
ATOM     90  O   UNL A   1      47.404  26.900  39.173  1.00  0.00    -0.237 OA
ATOM     91  O   UNL A   1      47.180  25.059  37.552  1.00  0.00    -0.744 OA
ENDBRANCH  87  88
ENDBRANCH  55  80
BRANCH  67  92
ATOM     92  C   UNL A   1      39.757  33.840  37.578  1.00  0.00     0.058 A 
ATOM     93  C   UNL A   1      40.391  35.079  37.763  1.00  0.00     0.135 A 
ATOM     94  C   UNL A   1      38.922  33.371  38.605  1.00  0.00     0.135 A 
ATOM     95  F   UNL A   1      41.205  35.571  36.816  1.00  0.00    -0.206 F 
ATOM     96  C   UNL A   1      40.222  35.813  38.933  1.00  0.00     0.059 A 
ATOM     97  C   UNL A   1      38.714  34.103  39.770  1.00  0.00     0.059 A 
ATOM     98  F   UNL A   1      38.283  32.198  38.475  1.00  0.00    -0.206 F 
ATOM     99  C   UNL A   1      39.378  35.317  39.930  1.00  0.00     0.060 A 
BRANCH  99 100
ATOM    100  S   UNL A   1      39.141  36.297  41.427  1.00  0.00     0.124 S 
ATOM    101  O   UNL A   1      40.403  36.078  42.126  1.00  0.00    -0.237 OA
ATOM    102  O   UNL A   1      38.938  37.640  40.892  1.00  0.00    -0.237 OA
ATOM    103  O   UNL A   1      37.966  35.691  42.048  1.00  0.00    -0.744 OA
ENDBRANCH  99 100
ENDBRANCH  67  92
ENDBRANCH  41  42
ENDBRANCH  33  36
ENDBRANCH  31  32
ENDBRANCH  30  31
ENDBRANCH  29  30
ENDBRANCH  28  29
ENDBRANCH   1  28
TORSDOF 23
ENDMDL
