MODEL 1
REMARK VINA RESULT:     -11.4      0.000      0.000
REMARK SMILES COCc1cccc(C(=O)N2C[C@@H](O)C[C@@H]2C(=O)NCCCCCCNC(=O)c2ccc(-c3c4nc(c(-c5c(F)cc(S(=O)(=O)[O-])cc5F)c5ccc([nH]5)c(-c5c(F)cc(S(=O)(=O)[O-])cc5F)c5nc(c(-c6c(F)cc(S(=O)(=O)[O-])cc6F)c6ccc3[nH]6)C=C5)C=C4)cc2)c1
REMARK SMILES IDX 22 1 21 2 20 3 19 4 17 5 18 6 16 8 11 9 12 10 13 11 15 12
REMARK SMILES IDX 9 13 10 14 8 15 4 16 5 17 95 18 6 19 7 20 3 21 2 22 1 23
REMARK SMILES IDX 14 24 23 26 24 27 25 28 26 29 27 30 28 32 29 33 30 34 94 35
REMARK SMILES IDX 31 36 93 37 32 38 33 39 34 40 87 41 35 42 92 43 86 44 88 45
REMARK SMILES IDX 36 46 91 47 85 48 84 49 37 51 71 52 50 53 70 54 51 55 54 56
REMARK SMILES IDX 69 57 89 58 52 59 53 60 68 62 90 63 55 64 38 65 39 66 48 67
REMARK SMILES IDX 40 68 41 69 47 70 49 71 42 72 43 73 44 74 45 75 46 76 72 77
REMARK SMILES IDX 73 78 82 79 74 80 75 81 81 82 83 83 76 84 77 85 78 86 79 87
REMARK SMILES IDX 80 88 56 89 57 90 66 91 58 92 59 93 65 94 67 95 60 96 61 97
REMARK SMILES IDX 62 98 63 99 64 100
REMARK H PARENT 19 7 14 25 26 31 88 50 54 61
REMARK Flexibility Score: inf
ROOT
ATOM      1  C   UNL A   1      31.994  28.280  26.450  1.00  0.00     0.002 C 
ENDROOT
BRANCH   1   2
ATOM      2  C   UNL A   1      31.515  27.132  25.555  1.00  0.00     0.021 C 
BRANCH   2   3
ATOM      3  C   UNL A   1      31.493  25.771  26.241  1.00  0.00     0.116 C 
BRANCH   3   4
ATOM      4  N   UNL A   1      32.766  25.089  26.125  1.00  0.00    -0.354 N 
ATOM      5  C   UNL A   1      33.141  24.141  25.216  1.00  0.00     0.242 C 
ATOM      6  O   UNL A   1      34.308  23.745  25.232  1.00  0.00    -0.273 OA
ATOM      7  H   UNL A   1      33.449  25.341  26.787  1.00  0.00     0.163 HD
BRANCH   5   8
ATOM      8  C   UNL A   1      32.113  23.697  24.155  1.00  0.00     0.177 C 
ATOM      9  N   UNL A   1      32.312  22.303  23.769  1.00  0.00    -0.324 N 
ATOM     10  C   UNL A   1      32.557  22.185  22.342  1.00  0.00     0.152 C 
ATOM     11  C   UNL A   1      33.189  23.530  22.001  1.00  0.00     0.136 C 
ATOM     12  C   UNL A   1      32.369  24.494  22.864  1.00  0.00     0.069 C 
BRANCH   9  13
ATOM     13  C   UNL A   1      32.169  21.302  24.709  1.00  0.00     0.254 C 
ATOM     14  O   UNL A   1      31.360  21.397  25.629  1.00  0.00    -0.269 OA
BRANCH  13  15
ATOM     15  C   UNL A   1      33.182  20.196  24.722  1.00  0.00     0.040 A 
ATOM     16  C   UNL A   1      33.845  17.922  24.075  1.00  0.00    -0.022 A 
ATOM     17  C   UNL A   1      35.161  18.224  24.439  1.00  0.00     0.006 A 
ATOM     18  C   UNL A   1      32.882  18.928  24.212  1.00  0.00     0.020 A 
ATOM     19  C   UNL A   1      35.490  19.493  24.929  1.00  0.00     0.001 A 
ATOM     20  C   UNL A   1      34.504  20.475  25.076  1.00  0.00     0.014 A 
BRANCH  16  21
ATOM     21  C   UNL A   1      33.449  16.540  23.601  1.00  0.00     0.195 C 
BRANCH  21  22
ATOM     22  O   UNL A   1      33.671  15.494  24.547  1.00  0.00    -0.380 OA
ATOM     23  C   UNL A   1      32.748  15.453  25.629  1.00  0.00     0.195 C 
ENDBRANCH  21  22
ENDBRANCH  16  21
ENDBRANCH  13  15
ENDBRANCH   9  13
BRANCH  11  24
ATOM     24  O   UNL A   1      33.133  23.847  20.624  1.00  0.00    -0.391 OA
ATOM     25  H   UNL A   1      33.099  24.811  20.516  1.00  0.00     0.211 HD
ENDBRANCH  11  24
ENDBRANCH   5   8
ENDBRANCH   3   4
ENDBRANCH   2   3
ENDBRANCH   1   2
BRANCH   1  26
ATOM     26  C   UNL A   1      33.492  28.275  26.773  1.00  0.00     0.002 C 
BRANCH  26  27
ATOM     27  C   UNL A   1      34.084  29.639  27.133  1.00  0.00     0.021 C 
BRANCH  27  28
ATOM     28  C   UNL A   1      35.405  29.577  27.890  1.00  0.00     0.116 C 
BRANCH  28  29
ATOM     29  N   UNL A   1      35.323  30.228  29.187  1.00  0.00    -0.352 N 
ATOM     30  C   UNL A   1      36.310  30.422  30.124  1.00  0.00     0.251 C 
ATOM     31  H   UNL A   1      34.435  30.580  29.430  1.00  0.00     0.163 HD
ATOM     32  O   UNL A   1      36.025  30.821  31.245  1.00  0.00    -0.269 OA
BRANCH  30  33
ATOM     33  C   UNL A   1      37.717  30.126  29.771  1.00  0.00     0.039 A 
ATOM     34  C   UNL A   1      38.612  29.783  30.787  1.00  0.00     0.014 A 
ATOM     35  C   UNL A   1      38.146  30.178  28.443  1.00  0.00     0.014 A 
ATOM     36  C   UNL A   1      39.925  29.435  30.462  1.00  0.00     0.010 A 
ATOM     37  C   UNL A   1      39.430  29.754  28.113  1.00  0.00     0.010 A 
ATOM     38  C   UNL A   1      40.336  29.385  29.120  1.00  0.00    -0.014 A 
BRANCH  38  39
ATOM     39  C   UNL A   1      41.708  28.957  28.743  1.00  0.00     0.031 A 
ATOM     40  C   UNL A   1      42.823  29.967  28.690  1.00  0.00     0.074 A 
ATOM     41  C   UNL A   1      41.936  27.679  28.380  1.00  0.00     0.049 A 
ATOM     42  N   UNL A   1      44.062  29.810  28.302  1.00  0.00    -0.248 NA
ATOM     43  C   UNL A   1      42.491  31.341  29.098  1.00  0.00     0.031 C 
ATOM     44  C   UNL A   1      40.928  26.617  28.349  1.00  0.00     0.029 A 
ATOM     45  N   UNL A   1      43.084  27.059  27.953  1.00  0.00    -0.354 N 
ATOM     46  C   UNL A   1      44.653  31.064  28.403  1.00  0.00     0.074 A 
ATOM     47  C   UNL A   1      43.620  31.982  28.833  1.00  0.00     0.031 C 
ATOM     48  C   UNL A   1      41.506  25.475  27.944  1.00  0.00     0.029 A 
ATOM     49  C   UNL A   1      42.912  25.730  27.645  1.00  0.00     0.049 A 
ATOM     50  H   UNL A   1      43.948  27.522  27.876  1.00  0.00     0.167 HD
ATOM     51  C   UNL A   1      45.942  31.415  28.181  1.00  0.00     0.037 A 
ATOM     52  C   UNL A   1      43.783  24.822  27.164  1.00  0.00     0.037 A 
ATOM     53  C   UNL A   1      46.967  30.491  27.769  1.00  0.00     0.049 A 
ATOM     54  C   UNL A   1      45.209  25.234  26.913  1.00  0.00     0.074 A 
ATOM     55  C   UNL A   1      48.314  30.733  27.572  1.00  0.00     0.029 A 
ATOM     56  N   UNL A   1      46.757  29.148  27.487  1.00  0.00    -0.354 N 
ATOM     57  N   UNL A   1      45.765  26.411  27.073  1.00  0.00    -0.248 NA
ATOM     58  C   UNL A   1      46.125  24.196  26.423  1.00  0.00     0.031 C 
ATOM     59  C   UNL A   1      48.908  29.552  27.116  1.00  0.00     0.029 A 
ATOM     60  C   UNL A   1      47.945  28.556  27.091  1.00  0.00     0.049 A 
ATOM     61  H   UNL A   1      45.891  28.685  27.558  1.00  0.00     0.167 HD
ATOM     62  C   UNL A   1      47.105  26.248  26.734  1.00  0.00     0.074 A 
ATOM     63  C   UNL A   1      47.274  24.857  26.366  1.00  0.00     0.031 C 
ATOM     64  C   UNL A   1      48.103  27.166  26.733  1.00  0.00     0.037 A 
BRANCH  51  65
ATOM     65  C   UNL A   1      46.311  32.863  28.368  1.00  0.00     0.058 A 
ATOM     66  C   UNL A   1      46.746  33.363  29.607  1.00  0.00     0.135 A 
ATOM     67  C   UNL A   1      46.247  33.761  27.289  1.00  0.00     0.135 A 
ATOM     68  F   UNL A   1      46.815  32.554  30.676  1.00  0.00    -0.206 F 
ATOM     69  C   UNL A   1      47.061  34.707  29.781  1.00  0.00     0.059 A 
ATOM     70  C   UNL A   1      46.590  35.103  27.432  1.00  0.00     0.059 A 
ATOM     71  F   UNL A   1      45.842  33.339  26.082  1.00  0.00    -0.206 F 
ATOM     72  C   UNL A   1      46.978  35.569  28.687  1.00  0.00     0.060 A 
BRANCH  72  73
ATOM     73  S   UNL A   1      47.376  37.313  28.933  1.00  0.00     0.124 S 
ATOM     74  O   UNL A   1      47.647  37.349  30.368  1.00  0.00    -0.237 OA
ATOM     75  O   UNL A   1      48.536  37.492  28.066  1.00  0.00    -0.237 OA
ATOM     76  O   UNL A   1      46.164  38.003  28.506  1.00  0.00    -0.744 OA
ENDBRANCH  72  73
ENDBRANCH  51  65
BRANCH  52  77
ATOM     77  C   UNL A   1      43.329  23.427  26.909  1.00  0.00     0.058 A 
ATOM     78  C   UNL A   1      43.107  22.968  25.602  1.00  0.00     0.135 A 
ATOM     79  C   UNL A   1      43.143  22.518  27.961  1.00  0.00     0.135 A 
ATOM     80  F   UNL A   1      43.263  23.802  24.563  1.00  0.00    -0.206 F 
ATOM     81  C   UNL A   1      42.709  21.660  25.348  1.00  0.00     0.059 A 
ATOM     82  C   UNL A   1      42.773  21.196  27.730  1.00  0.00     0.059 A 
ATOM     83  F   UNL A   1      43.359  22.903  29.229  1.00  0.00    -0.206 F 
ATOM     84  C   UNL A   1      42.553  20.778  26.418  1.00  0.00     0.060 A 
BRANCH  84  85
ATOM     85  S   UNL A   1      42.106  19.063  26.071  1.00  0.00     0.124 S 
ATOM     86  O   UNL A   1      40.675  19.178  25.814  1.00  0.00    -0.237 OA
ATOM     87  O   UNL A   1      42.941  18.759  24.914  1.00  0.00    -0.237 OA
ATOM     88  O   UNL A   1      42.473  18.365  27.299  1.00  0.00    -0.744 OA
ENDBRANCH  84  85
ENDBRANCH  52  77
BRANCH  64  89
ATOM     89  C   UNL A   1      49.484  26.696  26.362  1.00  0.00     0.058 A 
ATOM     90  C   UNL A   1      49.976  26.796  25.052  1.00  0.00     0.135 A 
ATOM     91  C   UNL A   1      50.349  26.199  27.351  1.00  0.00     0.135 A 
ATOM     92  F   UNL A   1      49.189  27.257  24.068  1.00  0.00    -0.206 F 
ATOM     93  C   UNL A   1      51.271  26.403  24.731  1.00  0.00     0.059 A 
ATOM     94  C   UNL A   1      51.659  25.829  27.059  1.00  0.00     0.059 A 
ATOM     95  F   UNL A   1      49.933  26.091  28.623  1.00  0.00    -0.206 F 
ATOM     96  C   UNL A   1      52.108  25.926  25.743  1.00  0.00     0.060 A 
BRANCH  96  97
ATOM     97  S   UNL A   1      53.799  25.462  25.320  1.00  0.00     0.124 S 
ATOM     98  O   UNL A   1      54.554  26.083  26.403  1.00  0.00    -0.237 OA
ATOM     99  O   UNL A   1      53.738  24.005  25.343  1.00  0.00    -0.237 OA
ATOM    100  O   UNL A   1      53.996  26.056  23.999  1.00  0.00    -0.744 OA
ENDBRANCH  96  97
ENDBRANCH  64  89
ENDBRANCH  38  39
ENDBRANCH  30  33
ENDBRANCH  28  29
ENDBRANCH  27  28
ENDBRANCH  26  27
ENDBRANCH   1  26
TORSDOF 21
ENDMDL
MODEL 2
REMARK VINA RESULT:     -11.4      6.493     11.655
REMARK SMILES COCc1cccc(C(=O)N2C[C@@H](O)C[C@@H]2C(=O)NCCCCCCNC(=O)c2ccc(-c3c4nc(c(-c5c(F)cc(S(=O)(=O)[O-])cc5F)c5ccc([nH]5)c(-c5c(F)cc(S(=O)(=O)[O-])cc5F)c5nc(c(-c6c(F)cc(S(=O)(=O)[O-])cc6F)c6ccc3[nH]6)C=C5)C=C4)cc2)c1
REMARK SMILES IDX 22 1 21 2 20 3 19 4 17 5 18 6 16 8 11 9 12 10 13 11 15 12
REMARK SMILES IDX 9 13 10 14 8 15 4 16 5 17 95 18 6 19 7 20 3 21 2 22 1 23
REMARK SMILES IDX 14 24 23 26 24 27 25 28 26 29 27 30 28 32 29 33 30 34 94 35
REMARK SMILES IDX 31 36 93 37 32 38 33 39 34 40 87 41 35 42 92 43 86 44 88 45
REMARK SMILES IDX 36 46 91 47 85 48 84 49 37 51 71 52 50 53 70 54 51 55 54 56
REMARK SMILES IDX 69 57 89 58 52 59 53 60 68 62 90 63 55 64 38 65 39 66 48 67
REMARK SMILES IDX 40 68 41 69 47 70 49 71 42 72 43 73 44 74 45 75 46 76 72 77
REMARK SMILES IDX 73 78 82 79 74 80 75 81 81 82 83 83 76 84 77 85 78 86 79 87
REMARK SMILES IDX 80 88 56 89 57 90 66 91 58 92 59 93 65 94 67 95 60 96 61 97
REMARK SMILES IDX 62 98 63 99 64 100
REMARK H PARENT 19 7 14 25 26 31 88 50 54 61
REMARK Flexibility Score: inf
ROOT
ATOM      1  C   UNL A   1      35.370  24.360  23.954  1.00  0.00     0.002 C 
ENDROOT
BRANCH   1   2
ATOM      2  C   UNL A   1      34.140  23.592  23.457  1.00  0.00     0.021 C 
BRANCH   2   3
ATOM      3  C   UNL A   1      33.484  24.193  22.220  1.00  0.00     0.116 C 
BRANCH   3   4
ATOM      4  N   UNL A   1      32.046  24.288  22.366  1.00  0.00    -0.354 N 
ATOM      5  C   UNL A   1      31.331  24.798  23.411  1.00  0.00     0.242 C 
ATOM      6  O   UNL A   1      30.105  24.867  23.304  1.00  0.00    -0.273 OA
ATOM      7  H   UNL A   1      31.515  23.939  21.614  1.00  0.00     0.163 HD
BRANCH   5   8
ATOM      8  C   UNL A   1      32.104  25.355  24.625  1.00  0.00     0.177 C 
ATOM      9  N   UNL A   1      31.291  25.325  25.837  1.00  0.00    -0.324 N 
ATOM     10  C   UNL A   1      31.145  26.655  26.402  1.00  0.00     0.152 C 
ATOM     11  C   UNL A   1      31.275  27.554  25.177  1.00  0.00     0.136 C 
ATOM     12  C   UNL A   1      32.380  26.849  24.383  1.00  0.00     0.069 C 
BRANCH   9  13
ATOM     13  C   UNL A   1      30.848  24.118  26.338  1.00  0.00     0.254 C 
ATOM     14  O   UNL A   1      29.702  23.980  26.762  1.00  0.00    -0.269 OA
BRANCH  13  15
ATOM     15  C   UNL A   1      31.860  23.036  26.572  1.00  0.00     0.040 A 
ATOM     16  C   UNL A   1      32.998  20.998  25.809  1.00  0.00    -0.022 A 
ATOM     17  C   UNL A   1      33.958  21.185  26.809  1.00  0.00     0.006 A 
ATOM     18  C   UNL A   1      31.973  21.944  25.703  1.00  0.00     0.020 A 
ATOM     19  C   UNL A   1      33.880  22.282  27.674  1.00  0.00     0.001 A 
ATOM     20  C   UNL A   1      32.833  23.203  27.561  1.00  0.00     0.014 A 
BRANCH  16  21
ATOM     21  C   UNL A   1      33.023  19.788  24.900  1.00  0.00     0.195 C 
BRANCH  21  22
ATOM     22  O   UNL A   1      32.078  18.770  25.229  1.00  0.00    -0.380 OA
ATOM     23  C   UNL A   1      32.643  17.518  25.598  1.00  0.00     0.195 C 
ENDBRANCH  21  22
ENDBRANCH  16  21
ENDBRANCH  13  15
ENDBRANCH   9  13
BRANCH  11  24
ATOM     24  O   UNL A   1      31.599  28.894  25.491  1.00  0.00    -0.391 OA
ATOM     25  H   UNL A   1      31.911  28.945  26.408  1.00  0.00     0.211 HD
ENDBRANCH  11  24
ENDBRANCH   5   8
ENDBRANCH   3   4
ENDBRANCH   2   3
ENDBRANCH   1   2
BRANCH   1  26
ATOM     26  C   UNL A   1      35.836  24.000  25.369  1.00  0.00     0.002 C 
BRANCH  26  27
ATOM     27  C   UNL A   1      37.255  23.436  25.461  1.00  0.00     0.021 C 
BRANCH  27  28
ATOM     28  C   UNL A   1      38.187  24.211  26.384  1.00  0.00     0.116 C 
BRANCH  28  29
ATOM     29  N   UNL A   1      39.588  23.957  26.087  1.00  0.00    -0.352 N 
ATOM     30  C   UNL A   1      40.698  24.674  26.464  1.00  0.00     0.251 C 
ATOM     31  H   UNL A   1      39.766  23.159  25.538  1.00  0.00     0.163 HD
ATOM     32  O   UNL A   1      41.788  24.426  25.967  1.00  0.00    -0.269 OA
BRANCH  30  33
ATOM     33  C   UNL A   1      40.559  25.760  27.461  1.00  0.00     0.039 A 
ATOM     34  C   UNL A   1      39.601  25.635  28.470  1.00  0.00     0.014 A 
ATOM     35  C   UNL A   1      41.378  26.890  27.403  1.00  0.00     0.014 A 
ATOM     36  C   UNL A   1      39.505  26.619  29.456  1.00  0.00     0.010 A 
ATOM     37  C   UNL A   1      41.335  27.828  28.430  1.00  0.00     0.010 A 
ATOM     38  C   UNL A   1      40.394  27.707  29.464  1.00  0.00    -0.014 A 
BRANCH  38  39
ATOM     39  C   UNL A   1      40.354  28.734  30.537  1.00  0.00     0.031 A 
ATOM     40  C   UNL A   1      41.271  28.618  31.725  1.00  0.00     0.074 A 
ATOM     41  C   UNL A   1      39.447  29.729  30.478  1.00  0.00     0.049 A 
ATOM     42  N   UNL A   1      41.327  29.360  32.800  1.00  0.00    -0.248 NA
ATOM     43  C   UNL A   1      42.229  27.502  31.714  1.00  0.00     0.031 C 
ATOM     44  C   UNL A   1      38.475  29.925  29.399  1.00  0.00     0.029 A 
ATOM     45  N   UNL A   1      39.183  30.755  31.351  1.00  0.00    -0.354 N 
ATOM     46  C   UNL A   1      42.312  28.792  33.601  1.00  0.00     0.074 A 
ATOM     47  C   UNL A   1      42.785  27.611  32.912  1.00  0.00     0.031 C 
ATOM     48  C   UNL A   1      37.736  31.013  29.667  1.00  0.00     0.029 A 
ATOM     49  C   UNL A   1      38.148  31.568  30.952  1.00  0.00     0.049 A 
ATOM     50  H   UNL A   1      39.688  30.896  32.184  1.00  0.00     0.167 HD
ATOM     51  C   UNL A   1      42.794  29.228  34.789  1.00  0.00     0.037 A 
ATOM     52  C   UNL A   1      37.585  32.632  31.559  1.00  0.00     0.037 A 
ATOM     53  C   UNL A   1      42.328  30.414  35.459  1.00  0.00     0.049 A 
ATOM     54  C   UNL A   1      38.127  33.093  32.884  1.00  0.00     0.074 A 
ATOM     55  C   UNL A   1      42.789  30.973  36.638  1.00  0.00     0.029 A 
ATOM     56  N   UNL A   1      41.292  31.222  35.014  1.00  0.00    -0.354 N 
ATOM     57  N   UNL A   1      39.101  32.581  33.598  1.00  0.00    -0.248 NA
ATOM     58  C   UNL A   1      37.501  34.278  33.483  1.00  0.00     0.031 C 
ATOM     59  C   UNL A   1      41.995  32.086  36.934  1.00  0.00     0.029 A 
ATOM     60  C   UNL A   1      41.081  32.259  35.907  1.00  0.00     0.049 A 
ATOM     61  H   UNL A   1      40.782  31.079  34.183  1.00  0.00     0.167 HD
ATOM     62  C   UNL A   1      39.227  33.400  34.715  1.00  0.00     0.074 A 
ATOM     63  C   UNL A   1      38.232  34.445  34.578  1.00  0.00     0.031 C 
ATOM     64  C   UNL A   1      40.090  33.299  35.756  1.00  0.00     0.037 A 
BRANCH  51  65
ATOM     65  C   UNL A   1      43.875  28.408  35.444  1.00  0.00     0.058 A 
ATOM     66  C   UNL A   1      45.235  28.613  35.160  1.00  0.00     0.135 A 
ATOM     67  C   UNL A   1      43.547  27.415  36.383  1.00  0.00     0.135 A 
ATOM     68  F   UNL A   1      45.608  29.538  34.262  1.00  0.00    -0.206 F 
ATOM     69  C   UNL A   1      46.228  27.835  35.749  1.00  0.00     0.059 A 
ATOM     70  C   UNL A   1      44.526  26.649  37.010  1.00  0.00     0.059 A 
ATOM     71  F   UNL A   1      42.264  27.178  36.696  1.00  0.00    -0.206 F 
ATOM     72  C   UNL A   1      45.862  26.853  36.671  1.00  0.00     0.060 A 
BRANCH  72  73
ATOM     73  S   UNL A   1      47.160  25.844  37.415  1.00  0.00     0.124 S 
ATOM     74  O   UNL A   1      47.386  26.545  38.676  1.00  0.00    -0.237 OA
ATOM     75  O   UNL A   1      46.516  24.539  37.523  1.00  0.00    -0.237 OA
ATOM     76  O   UNL A   1      48.250  25.924  36.449  1.00  0.00    -0.744 OA
ENDBRANCH  72  73
ENDBRANCH  51  65
BRANCH  52  77
ATOM     77  C   UNL A   1      36.454  33.341  30.901  1.00  0.00     0.058 A 
ATOM     78  C   UNL A   1      35.145  33.225  31.392  1.00  0.00     0.135 A 
ATOM     79  C   UNL A   1      36.664  34.176  29.792  1.00  0.00     0.135 A 
ATOM     80  F   UNL A   1      34.892  32.433  32.445  1.00  0.00    -0.206 F 
ATOM     81  C   UNL A   1      34.083  33.905  30.804  1.00  0.00     0.059 A 
ATOM     82  C   UNL A   1      35.622  34.888  29.204  1.00  0.00     0.059 A 
ATOM     83  F   UNL A   1      37.900  34.334  29.294  1.00  0.00    -0.206 F 
ATOM     84  C   UNL A   1      34.334  34.741  29.715  1.00  0.00     0.060 A 
BRANCH  84  85
ATOM     85  S   UNL A   1      32.960  35.674  29.005  1.00  0.00     0.124 S 
ATOM     86  O   UNL A   1      32.179  35.999  30.194  1.00  0.00    -0.237 OA
ATOM     87  O   UNL A   1      33.648  36.792  28.367  1.00  0.00    -0.237 OA
ATOM     88  O   UNL A   1      32.345  34.720  28.087  1.00  0.00    -0.744 OA
ENDBRANCH  84  85
ENDBRANCH  52  77
BRANCH  64  89
ATOM     89  C   UNL A   1      40.034  34.365  36.816  1.00  0.00     0.058 A 
ATOM     90  C   UNL A   1      40.789  35.544  36.726  1.00  0.00     0.135 A 
ATOM     91  C   UNL A   1      39.157  34.231  37.906  1.00  0.00     0.135 A 
ATOM     92  F   UNL A   1      41.647  35.720  35.709  1.00  0.00    -0.206 F 
ATOM     93  C   UNL A   1      40.692  36.544  37.688  1.00  0.00     0.059 A 
ATOM     94  C   UNL A   1      39.021  35.232  38.863  1.00  0.00     0.059 A 
ATOM     95  F   UNL A   1      38.403  33.128  38.036  1.00  0.00    -0.206 F 
ATOM     96  C   UNL A   1      39.801  36.382  38.750  1.00  0.00     0.060 A 
BRANCH  96  97
ATOM     97  S   UNL A   1      39.652  37.708  39.965  1.00  0.00     0.124 S 
ATOM     98  O   UNL A   1      40.926  38.400  39.802  1.00  0.00    -0.237 OA
ATOM     99  O   UNL A   1      38.473  38.429  39.497  1.00  0.00    -0.237 OA
ATOM    100  O   UNL A   1      39.484  36.995  41.229  1.00  0.00    -0.744 OA
ENDBRANCH  96  97
ENDBRANCH  64  89
ENDBRANCH  38  39
ENDBRANCH  30  33
ENDBRANCH  28  29
ENDBRANCH  27  28
ENDBRANCH  26  27
ENDBRANCH   1  26
TORSDOF 21
ENDMDL
MODEL 3
REMARK VINA RESULT:     -11.3      6.468     12.056
REMARK SMILES COCc1cccc(C(=O)N2C[C@@H](O)C[C@@H]2C(=O)NCCCCCCNC(=O)c2ccc(-c3c4nc(c(-c5c(F)cc(S(=O)(=O)[O-])cc5F)c5ccc([nH]5)c(-c5c(F)cc(S(=O)(=O)[O-])cc5F)c5nc(c(-c6c(F)cc(S(=O)(=O)[O-])cc6F)c6ccc3[nH]6)C=C5)C=C4)cc2)c1
REMARK SMILES IDX 22 1 21 2 20 3 19 4 17 5 18 6 16 8 11 9 12 10 13 11 15 12
REMARK SMILES IDX 9 13 10 14 8 15 4 16 5 17 95 18 6 19 7 20 3 21 2 22 1 23
REMARK SMILES IDX 14 24 23 26 24 27 25 28 26 29 27 30 28 32 29 33 30 34 94 35
REMARK SMILES IDX 31 36 93 37 32 38 33 39 34 40 87 41 35 42 92 43 86 44 88 45
REMARK SMILES IDX 36 46 91 47 85 48 84 49 37 51 71 52 50 53 70 54 51 55 54 56
REMARK SMILES IDX 69 57 89 58 52 59 53 60 68 62 90 63 55 64 38 65 39 66 48 67
REMARK SMILES IDX 40 68 41 69 47 70 49 71 42 72 43 73 44 74 45 75 46 76 72 77
REMARK SMILES IDX 73 78 82 79 74 80 75 81 81 82 83 83 76 84 77 85 78 86 79 87
REMARK SMILES IDX 80 88 56 89 57 90 66 91 58 92 59 93 65 94 67 95 60 96 61 97
REMARK SMILES IDX 62 98 63 99 64 100
REMARK H PARENT 19 7 14 25 26 31 88 50 54 61
REMARK Flexibility Score: inf
ROOT
ATOM      1  C   UNL A   1      38.072  21.910  25.966  1.00  0.00     0.002 C 
ENDROOT
BRANCH   1   2
ATOM      2  C   UNL A   1      37.618  23.114  25.134  1.00  0.00     0.021 C 
BRANCH   2   3
ATOM      3  C   UNL A   1      36.451  23.888  25.737  1.00  0.00     0.116 C 
BRANCH   3   4
ATOM      4  N   UNL A   1      35.808  23.147  26.802  1.00  0.00    -0.354 N 
ATOM      5  C   UNL A   1      34.610  22.493  26.777  1.00  0.00     0.242 C 
ATOM      6  O   UNL A   1      34.276  21.843  27.770  1.00  0.00    -0.273 OA
ATOM      7  H   UNL A   1      36.297  23.110  27.656  1.00  0.00     0.163 HD
BRANCH   5   8
ATOM      8  C   UNL A   1      33.789  22.518  25.471  1.00  0.00     0.177 C 
ATOM      9  N   UNL A   1      32.378  22.787  25.730  1.00  0.00    -0.324 N 
ATOM     10  C   UNL A   1      31.539  21.712  25.231  1.00  0.00     0.152 C 
ATOM     11  C   UNL A   1      32.468  20.505  25.302  1.00  0.00     0.136 C 
ATOM     12  C   UNL A   1      33.805  21.106  24.858  1.00  0.00     0.069 C 
BRANCH   9  13
ATOM     13  C   UNL A   1      32.001  23.986  26.301  1.00  0.00     0.254 C 
ATOM     14  O   UNL A   1      31.411  24.026  27.379  1.00  0.00    -0.269 OA
BRANCH  13  15
ATOM     15  C   UNL A   1      32.117  25.231  25.473  1.00  0.00     0.040 A 
ATOM     16  C   UNL A   1      31.096  26.875  23.962  1.00  0.00    -0.022 A 
ATOM     17  C   UNL A   1      32.189  27.721  24.176  1.00  0.00     0.006 A 
ATOM     18  C   UNL A   1      31.078  25.647  24.633  1.00  0.00     0.020 A 
ATOM     19  C   UNL A   1      33.229  27.336  25.030  1.00  0.00     0.001 A 
ATOM     20  C   UNL A   1      33.198  26.094  25.673  1.00  0.00     0.014 A 
BRANCH  16  21
ATOM     21  C   UNL A   1      29.988  27.238  22.996  1.00  0.00     0.195 C 
BRANCH  21  22
ATOM     22  O   UNL A   1      30.305  28.291  22.087  1.00  0.00    -0.380 OA
ATOM     23  C   UNL A   1      29.555  29.487  22.264  1.00  0.00     0.195 C 
ENDBRANCH  21  22
ENDBRANCH  16  21
ENDBRANCH  13  15
ENDBRANCH   9  13
BRANCH  11  24
ATOM     24  O   UNL A   1      32.057  19.426  24.485  1.00  0.00    -0.391 OA
ATOM     25  H   UNL A   1      32.819  18.859  24.290  1.00  0.00     0.211 HD
ENDBRANCH  11  24
ENDBRANCH   5   8
ENDBRANCH   3   4
ENDBRANCH   2   3
ENDBRANCH   1   2
BRANCH   1  26
ATOM     26  C   UNL A   1      39.537  21.500  25.777  1.00  0.00     0.002 C 
BRANCH  26  27
ATOM     27  C   UNL A   1      40.399  21.567  27.038  1.00  0.00     0.021 C 
BRANCH  27  28
ATOM     28  C   UNL A   1      40.862  22.967  27.417  1.00  0.00     0.116 C 
BRANCH  28  29
ATOM     29  N   UNL A   1      41.344  23.715  26.266  1.00  0.00    -0.352 N 
ATOM     30  C   UNL A   1      41.519  25.070  26.125  1.00  0.00     0.251 C 
ATOM     31  H   UNL A   1      41.577  23.173  25.477  1.00  0.00     0.163 HD
ATOM     32  O   UNL A   1      41.753  25.548  25.022  1.00  0.00    -0.269 OA
BRANCH  30  33
ATOM     33  C   UNL A   1      41.403  25.947  27.311  1.00  0.00     0.039 A 
ATOM     34  C   UNL A   1      42.402  26.894  27.554  1.00  0.00     0.014 A 
ATOM     35  C   UNL A   1      40.310  25.840  28.174  1.00  0.00     0.014 A 
ATOM     36  C   UNL A   1      42.272  27.774  28.630  1.00  0.00     0.010 A 
ATOM     37  C   UNL A   1      40.143  26.769  29.197  1.00  0.00     0.010 A 
ATOM     38  C   UNL A   1      41.125  27.741  29.441  1.00  0.00    -0.014 A 
BRANCH  38  39
ATOM     39  C   UNL A   1      40.933  28.706  30.554  1.00  0.00     0.031 A 
ATOM     40  C   UNL A   1      41.763  28.589  31.804  1.00  0.00     0.074 A 
ATOM     41  C   UNL A   1      39.966  29.641  30.471  1.00  0.00     0.049 A 
ATOM     42  N   UNL A   1      41.687  29.276  32.914  1.00  0.00    -0.248 NA
ATOM     43  C   UNL A   1      42.795  27.541  31.817  1.00  0.00     0.031 C 
ATOM     44  C   UNL A   1      39.067  29.828  29.329  1.00  0.00     0.029 A 
ATOM     45  N   UNL A   1      39.566  30.601  31.367  1.00  0.00    -0.354 N 
ATOM     46  C   UNL A   1      42.646  28.734  33.762  1.00  0.00     0.074 A 
ATOM     47  C   UNL A   1      43.251  27.624  33.058  1.00  0.00     0.031 C 
ATOM     48  C   UNL A   1      38.235  30.850  29.588  1.00  0.00     0.029 A 
ATOM     49  C   UNL A   1      38.510  31.363  30.927  1.00  0.00     0.049 A 
ATOM     50  H   UNL A   1      39.995  30.731  32.243  1.00  0.00     0.167 HD
ATOM     51  C   UNL A   1      43.006  29.137  35.004  1.00  0.00     0.037 A 
ATOM     52  C   UNL A   1      37.830  32.354  31.536  1.00  0.00     0.037 A 
ATOM     53  C   UNL A   1      42.409  30.254  35.690  1.00  0.00     0.049 A 
ATOM     54  C   UNL A   1      38.238  32.781  32.920  1.00  0.00     0.074 A 
ATOM     55  C   UNL A   1      42.740  30.780  36.926  1.00  0.00     0.029 A 
ATOM     56  N   UNL A   1      41.355  31.014  35.203  1.00  0.00    -0.354 N 
ATOM     57  N   UNL A   1      39.188  32.298  33.684  1.00  0.00    -0.248 NA
ATOM     58  C   UNL A   1      37.487  33.890  33.523  1.00  0.00     0.031 C 
ATOM     59  C   UNL A   1      41.850  31.821  37.210  1.00  0.00     0.029 A 
ATOM     60  C   UNL A   1      41.006  31.987  36.124  1.00  0.00     0.049 A 
ATOM     61  H   UNL A   1      40.920  30.881  34.329  1.00  0.00     0.167 HD
ATOM     62  C   UNL A   1      39.172  33.064  34.844  1.00  0.00     0.074 A 
ATOM     63  C   UNL A   1      38.120  34.047  34.679  1.00  0.00     0.031 C 
ATOM     64  C   UNL A   1      39.960  32.966  35.944  1.00  0.00     0.037 A 
BRANCH  51  65
ATOM     65  C   UNL A   1      44.088  28.358  35.703  1.00  0.00     0.058 A 
ATOM     66  C   UNL A   1      45.438  28.739  35.635  1.00  0.00     0.135 A 
ATOM     67  C   UNL A   1      43.769  27.222  36.467  1.00  0.00     0.135 A 
ATOM     68  F   UNL A   1      45.804  29.808  34.909  1.00  0.00    -0.206 F 
ATOM     69  C   UNL A   1      46.437  28.000  36.261  1.00  0.00     0.059 A 
ATOM     70  C   UNL A   1      44.749  26.488  37.131  1.00  0.00     0.059 A 
ATOM     71  F   UNL A   1      42.496  26.813  36.571  1.00  0.00    -0.206 F 
ATOM     72  C   UNL A   1      46.082  26.874  37.005  1.00  0.00     0.060 A 
BRANCH  72  73
ATOM     73  S   UNL A   1      47.391  25.918  37.799  1.00  0.00     0.124 S 
ATOM     74  O   UNL A   1      47.090  26.133  39.212  1.00  0.00    -0.237 OA
ATOM     75  O   UNL A   1      47.142  24.572  37.296  1.00  0.00    -0.237 OA
ATOM     76  O   UNL A   1      48.615  26.549  37.317  1.00  0.00    -0.744 OA
ENDBRANCH  72  73
ENDBRANCH  51  65
BRANCH  52  77
ATOM     77  C   UNL A   1      36.705  33.022  30.825  1.00  0.00     0.058 A 
ATOM     78  C   UNL A   1      35.372  32.734  31.153  1.00  0.00     0.135 A 
ATOM     79  C   UNL A   1      36.940  33.984  29.831  1.00  0.00     0.135 A 
ATOM     80  F   UNL A   1      35.095  31.815  32.091  1.00  0.00    -0.206 F 
ATOM     81  C   UNL A   1      34.311  33.370  30.517  1.00  0.00     0.059 A 
ATOM     82  C   UNL A   1      35.896  34.654  29.200  1.00  0.00     0.059 A 
ATOM     83  F   UNL A   1      38.198  34.307  29.492  1.00  0.00    -0.206 F 
ATOM     84  C   UNL A   1      34.584  34.335  29.546  1.00  0.00     0.060 A 
BRANCH  84  85
ATOM     85  S   UNL A   1      33.201  35.206  28.778  1.00  0.00     0.124 S 
ATOM     86  O   UNL A   1      32.461  35.673  29.945  1.00  0.00    -0.237 OA
ATOM     87  O   UNL A   1      33.884  36.235  28.000  1.00  0.00    -0.237 OA
ATOM     88  O   UNL A   1      32.546  34.167  27.989  1.00  0.00    -0.744 OA
ENDBRANCH  84  85
ENDBRANCH  52  77
BRANCH  64  89
ATOM     89  C   UNL A   1      39.749  33.969  37.046  1.00  0.00     0.058 A 
ATOM     90  C   UNL A   1      38.984  33.674  38.184  1.00  0.00     0.135 A 
ATOM     91  C   UNL A   1      40.381  35.223  36.988  1.00  0.00     0.135 A 
ATOM     92  F   UNL A   1      38.353  32.494  38.287  1.00  0.00    -0.206 F 
ATOM     93  C   UNL A   1      38.837  34.593  39.218  1.00  0.00     0.059 A 
ATOM     94  C   UNL A   1      40.273  36.145  38.025  1.00  0.00     0.059 A 
ATOM     95  F   UNL A   1      41.134  35.554  35.926  1.00  0.00    -0.206 F 
ATOM     96  C   UNL A   1      39.490  35.824  39.132  1.00  0.00     0.060 A 
BRANCH  96  97
ATOM     97  S   UNL A   1      39.327  36.987  40.502  1.00  0.00     0.124 S 
ATOM     98  O   UNL A   1      38.714  38.135  39.842  1.00  0.00    -0.237 OA
ATOM     99  O   UNL A   1      38.470  36.257  41.431  1.00  0.00    -0.237 OA
ATOM    100  O   UNL A   1      40.703  37.183  40.950  1.00  0.00    -0.744 OA
ENDBRANCH  96  97
ENDBRANCH  64  89
ENDBRANCH  38  39
ENDBRANCH  30  33
ENDBRANCH  28  29
ENDBRANCH  27  28
ENDBRANCH  26  27
ENDBRANCH   1  26
TORSDOF 21
ENDMDL
