MODEL 1
REMARK VINA RESULT:     -11.0      0.000      0.000
REMARK SMILES CC(C)(C[N@H+]1C[C@@H]2C[NH2+]C[C@H]2C1(C)C)C(=O)NCCCCCCNC(=O)c1ccc(-c2c3nc(c(-c4c(F)cc(S(=O)(=O)[O-])cc4F)c4ccc([nH]4)c(-c4c(F)cc(S(=O)(=O)[O-])cc4F)c4nc(c(-c5c(F)cc(S(=O)(=O)[O-])cc5F)c5ccc2[nH]5)C=C4)C=C3)cc1
REMARK SMILES IDX 21 1 20 2 19 3 18 4 17 5 15 6 16 7 2 9 1 10 3 11 4 12 5 13
REMARK SMILES IDX 6 14 12 15 7 17 11 18 13 19 14 20 8 21 10 22 9 23 22 26
REMARK SMILES IDX 23 27 24 28 25 29 26 31 27 32 28 33 92 34 29 35 91 36 30 37
REMARK SMILES IDX 31 38 32 39 85 40 33 41 90 42 84 43 86 44 34 45 89 46 83 47
REMARK SMILES IDX 82 48 35 50 69 51 48 52 68 53 49 54 52 55 67 56 87 57 50 58
REMARK SMILES IDX 51 59 66 61 88 62 53 63 36 64 37 65 46 66 38 67 39 68 45 69
REMARK SMILES IDX 47 70 40 71 41 72 42 73 43 74 44 75 70 76 71 77 80 78 72 79
REMARK SMILES IDX 73 80 79 81 81 82 74 83 75 84 76 85 77 86 78 87 54 88 55 89
REMARK SMILES IDX 64 90 56 91 57 92 63 93 65 94 58 95 59 96 60 97 61 98 62 99
REMARK H PARENT 17 8 5 16 9 24 9 25 24 30 86 49 52 60
REMARK Flexibility Score: inf
ROOT
ATOM      1  C   UNL A   1      33.630  28.475  24.719  1.00  0.00     0.002 C 
ENDROOT
BRANCH   1   2
ATOM      2  C   UNL A   1      32.788  28.549  23.441  1.00  0.00     0.002 C 
BRANCH   2   3
ATOM      3  C   UNL A   1      31.295  28.261  23.629  1.00  0.00     0.021 C 
BRANCH   3   4
ATOM      4  C   UNL A   1      30.935  26.780  23.643  1.00  0.00     0.116 C 
BRANCH   4   5
ATOM      5  N   UNL A   1      30.225  26.434  24.852  1.00  0.00    -0.355 N 
ATOM      6  C   UNL A   1      30.176  25.309  25.602  1.00  0.00     0.231 C 
ATOM      7  O   UNL A   1      29.400  25.361  26.566  1.00  0.00    -0.274 OA
ATOM      8  H   UNL A   1      29.661  27.162  25.200  1.00  0.00     0.163 HD
BRANCH   6   9
ATOM      9  C   UNL A   1      31.050  24.068  25.337  1.00  0.00     0.092 C 
ATOM     10  C   UNL A   1      30.800  23.674  23.862  1.00  0.00     0.027 C 
ATOM     11  C   UNL A   1      30.508  22.843  26.121  1.00  0.00     0.027 C 
BRANCH   9  12
ATOM     12  C   UNL A   1      32.569  24.267  25.711  1.00  0.00     0.279 C 
BRANCH  12  13
ATOM     13  N   UNL A   1      33.685  23.665  24.949  1.00  0.00    -0.329 N 
ATOM     14  C   UNL A   1      34.908  24.548  24.965  1.00  0.00     0.272 C 
ATOM     15  C   UNL A   1      34.135  22.263  25.275  1.00  0.00     0.101 C 
ATOM     16  H   UNL A   1      33.246  23.590  24.031  1.00  0.00     0.348 HD
ATOM     17  C   UNL A   1      35.921  23.734  25.726  1.00  0.00     0.114 C 
ATOM     18  C   UNL A   1      35.659  22.375  25.136  1.00  0.00     0.119 C 
ATOM     19  C   UNL A   1      33.806  21.715  26.676  1.00  0.00     0.079 C 
ATOM     20  C   UNL A   1      33.618  21.336  24.161  1.00  0.00     0.079 C 
ATOM     21  C   UNL A   1      37.417  23.815  25.585  1.00  0.00     0.270 C 
ATOM     22  C   UNL A   1      36.692  21.534  25.853  1.00  0.00     0.271 C 
ATOM     23  N   UNL A   1      37.848  22.453  26.009  1.00  0.00    -0.345 N 
ATOM     24  H   UNL A   1      38.145  22.473  26.985  1.00  0.00     0.346 HD
ATOM     25  H   UNL A   1      38.632  22.137  25.438  1.00  0.00     0.346 HD
ENDBRANCH  12  13
ENDBRANCH   9  12
ENDBRANCH   6   9
ENDBRANCH   4   5
ENDBRANCH   3   4
ENDBRANCH   2   3
ENDBRANCH   1   2
BRANCH   1  26
ATOM     26  C   UNL A   1      32.837  28.585  26.023  1.00  0.00     0.021 C 
BRANCH  26  27
ATOM     27  C   UNL A   1      33.695  28.755  27.271  1.00  0.00     0.116 C 
BRANCH  27  28
ATOM     28  N   UNL A   1      33.664  30.121  27.768  1.00  0.00    -0.352 N 
ATOM     29  C   UNL A   1      34.618  30.804  28.482  1.00  0.00     0.251 C 
ATOM     30  H   UNL A   1      32.844  30.627  27.566  1.00  0.00     0.163 HD
ATOM     31  O   UNL A   1      34.348  31.874  29.008  1.00  0.00    -0.269 OA
BRANCH  29  32
ATOM     32  C   UNL A   1      35.968  30.217  28.626  1.00  0.00     0.039 A 
ATOM     33  C   UNL A   1      36.812  30.187  27.515  1.00  0.00     0.014 A 
ATOM     34  C   UNL A   1      36.403  29.729  29.861  1.00  0.00     0.014 A 
ATOM     35  C   UNL A   1      38.126  29.736  27.663  1.00  0.00     0.010 A 
ATOM     36  C   UNL A   1      37.732  29.347  30.022  1.00  0.00     0.010 A 
ATOM     37  C   UNL A   1      38.610  29.360  28.927  1.00  0.00    -0.014 A 
BRANCH  37  38
ATOM     38  C   UNL A   1      40.041  29.027  29.136  1.00  0.00     0.031 A 
ATOM     39  C   UNL A   1      41.005  30.076  29.614  1.00  0.00     0.074 A 
ATOM     40  C   UNL A   1      40.483  27.794  28.813  1.00  0.00     0.049 A 
ATOM     41  N   UNL A   1      42.301  29.994  29.770  1.00  0.00    -0.248 NA
ATOM     42  C   UNL A   1      40.442  31.396  29.940  1.00  0.00     0.031 C 
ATOM     43  C   UNL A   1      39.648  26.707  28.298  1.00  0.00     0.029 A 
ATOM     44  N   UNL A   1      41.744  27.253  28.853  1.00  0.00    -0.354 N 
ATOM     45  C   UNL A   1      42.711  31.249  30.203  1.00  0.00     0.074 A 
ATOM     46  C   UNL A   1      41.533  32.088  30.239  1.00  0.00     0.031 C 
ATOM     47  C   UNL A   1      40.414  25.625  28.086  1.00  0.00     0.029 A 
ATOM     48  C   UNL A   1      41.801  25.954  28.401  1.00  0.00     0.049 A 
ATOM     49  H   UNL A   1      42.532  27.746  29.175  1.00  0.00     0.167 HD
ATOM     50  C   UNL A   1      43.954  31.655  30.555  1.00  0.00     0.037 A 
ATOM     51  C   UNL A   1      42.852  25.127  28.237  1.00  0.00     0.037 A 
ATOM     52  C   UNL A   1      45.118  30.807  30.525  1.00  0.00     0.049 A 
ATOM     53  C   UNL A   1      44.228  25.616  28.598  1.00  0.00     0.074 A 
ATOM     54  C   UNL A   1      46.409  31.105  30.922  1.00  0.00     0.029 A 
ATOM     55  N   UNL A   1      45.136  29.499  30.059  1.00  0.00    -0.354 N 
ATOM     56  N   UNL A   1      44.587  26.782  29.081  1.00  0.00    -0.248 NA
ATOM     57  C   UNL A   1      45.343  24.682  28.390  1.00  0.00     0.031 C 
ATOM     58  C   UNL A   1      47.220  30.002  30.641  1.00  0.00     0.029 A 
ATOM     59  C   UNL A   1      46.425  28.993  30.121  1.00  0.00     0.049 A 
ATOM     60  H   UNL A   1      44.351  29.005  29.731  1.00  0.00     0.167 HD
ATOM     61  C   UNL A   1      45.966  26.716  29.250  1.00  0.00     0.074 A 
ATOM     62  C   UNL A   1      46.373  25.388  28.836  1.00  0.00     0.031 C 
ATOM     63  C   UNL A   1      46.817  27.669  29.702  1.00  0.00     0.037 A 
BRANCH  50  64
ATOM     64  C   UNL A   1      44.127  33.083  31.000  1.00  0.00     0.058 A 
ATOM     65  C   UNL A   1      44.317  34.125  30.079  1.00  0.00     0.135 A 
ATOM     66  C   UNL A   1      44.051  33.421  32.361  1.00  0.00     0.135 A 
ATOM     67  F   UNL A   1      44.411  33.860  28.765  1.00  0.00    -0.206 F 
ATOM     68  C   UNL A   1      44.455  35.447  30.492  1.00  0.00     0.059 A 
ATOM     69  C   UNL A   1      44.157  34.739  32.795  1.00  0.00     0.059 A 
ATOM     70  F   UNL A   1      43.870  32.464  33.286  1.00  0.00    -0.206 F 
ATOM     71  C   UNL A   1      44.372  35.743  31.853  1.00  0.00     0.060 A 
BRANCH  71  72
ATOM     72  S   UNL A   1      44.545  37.464  32.371  1.00  0.00     0.124 S 
ATOM     73  O   UNL A   1      44.583  38.152  31.083  1.00  0.00    -0.237 OA
ATOM     74  O   UNL A   1      43.338  37.674  33.164  1.00  0.00    -0.237 OA
ATOM     75  O   UNL A   1      45.796  37.471  33.122  1.00  0.00    -0.744 OA
ENDBRANCH  71  72
ENDBRANCH  50  64
BRANCH  51  76
ATOM     76  C   UNL A   1      42.641  23.756  27.702  1.00  0.00     0.058 A 
ATOM     77  C   UNL A   1      42.576  23.521  26.321  1.00  0.00     0.135 A 
ATOM     78  C   UNL A   1      42.518  22.650  28.558  1.00  0.00     0.135 A 
ATOM     79  F   UNL A   1      42.678  24.547  25.461  1.00  0.00    -0.206 F 
ATOM     80  C   UNL A   1      42.385  22.243  25.807  1.00  0.00     0.059 A 
ATOM     81  C   UNL A   1      42.355  21.359  28.068  1.00  0.00     0.059 A 
ATOM     82  F   UNL A   1      42.590  22.817  29.888  1.00  0.00    -0.206 F 
ATOM     83  C   UNL A   1      42.280  21.167  26.689  1.00  0.00     0.060 A 
BRANCH  83  84
ATOM     84  S   UNL A   1      42.084  19.505  26.009  1.00  0.00     0.124 S 
ATOM     85  O   UNL A   1      42.539  18.678  27.121  1.00  0.00    -0.237 OA
ATOM     86  O   UNL A   1      40.654  19.460  25.721  1.00  0.00    -0.237 OA
ATOM     87  O   UNL A   1      42.953  19.518  24.835  1.00  0.00    -0.744 OA
ENDBRANCH  83  84
ENDBRANCH  51  76
BRANCH  63  88
ATOM     88  C   UNL A   1      48.277  27.318  29.782  1.00  0.00     0.058 A 
ATOM     89  C   UNL A   1      49.170  27.654  28.752  1.00  0.00     0.135 A 
ATOM     90  C   UNL A   1      48.803  26.705  30.932  1.00  0.00     0.135 A 
ATOM     91  F   UNL A   1      48.718  28.229  27.627  1.00  0.00    -0.206 F 
ATOM     92  C   UNL A   1      50.531  27.390  28.857  1.00  0.00     0.059 A 
ATOM     93  C   UNL A   1      50.165  26.458  31.070  1.00  0.00     0.059 A 
ATOM     94  F   UNL A   1      47.993  26.369  31.949  1.00  0.00    -0.206 F 
ATOM     95  C   UNL A   1      51.021  26.800  30.024  1.00  0.00     0.060 A 
BRANCH  95  96
ATOM     96  S   UNL A   1      52.798  26.522  30.169  1.00  0.00     0.124 S 
ATOM     97  O   UNL A   1      52.858  25.529  31.236  1.00  0.00    -0.237 OA
ATOM     98  O   UNL A   1      53.146  26.039  28.836  1.00  0.00    -0.237 OA
ATOM     99  O   UNL A   1      53.323  27.841  30.509  1.00  0.00    -0.744 OA
ENDBRANCH  95  96
ENDBRANCH  63  88
ENDBRANCH  37  38
ENDBRANCH  29  32
ENDBRANCH  27  28
ENDBRANCH  26  27
ENDBRANCH   1  26
TORSDOF 18
ENDMDL
MODEL 2
REMARK VINA RESULT:     -10.9      2.568      3.414
REMARK SMILES CC(C)(C[N@H+]1C[C@@H]2C[NH2+]C[C@H]2C1(C)C)C(=O)NCCCCCCNC(=O)c1ccc(-c2c3nc(c(-c4c(F)cc(S(=O)(=O)[O-])cc4F)c4ccc([nH]4)c(-c4c(F)cc(S(=O)(=O)[O-])cc4F)c4nc(c(-c5c(F)cc(S(=O)(=O)[O-])cc5F)c5ccc2[nH]5)C=C4)C=C3)cc1
REMARK SMILES IDX 21 1 20 2 19 3 18 4 17 5 15 6 16 7 2 9 1 10 3 11 4 12 5 13
REMARK SMILES IDX 6 14 12 15 7 17 11 18 13 19 14 20 8 21 10 22 9 23 22 26
REMARK SMILES IDX 23 27 24 28 25 29 26 31 27 32 28 33 92 34 29 35 91 36 30 37
REMARK SMILES IDX 31 38 32 39 85 40 33 41 90 42 84 43 86 44 34 45 89 46 83 47
REMARK SMILES IDX 82 48 35 50 69 51 48 52 68 53 49 54 52 55 67 56 87 57 50 58
REMARK SMILES IDX 51 59 66 61 88 62 53 63 36 64 37 65 46 66 38 67 39 68 45 69
REMARK SMILES IDX 47 70 40 71 41 72 42 73 43 74 44 75 70 76 71 77 80 78 72 79
REMARK SMILES IDX 73 80 79 81 81 82 74 83 75 84 76 85 77 86 78 87 54 88 55 89
REMARK SMILES IDX 64 90 56 91 57 92 63 93 65 94 58 95 59 96 60 97 61 98 62 99
REMARK H PARENT 17 8 5 16 9 24 9 25 24 30 86 49 52 60
REMARK Flexibility Score: inf
ROOT
ATOM      1  C   UNL A   1      35.118  29.420  27.266  1.00  0.00     0.002 C 
ENDROOT
BRANCH   1   2
ATOM      2  C   UNL A   1      34.030  28.680  26.481  1.00  0.00     0.002 C 
BRANCH   2   3
ATOM      3  C   UNL A   1      32.683  28.553  27.198  1.00  0.00     0.021 C 
BRANCH   3   4
ATOM      4  C   UNL A   1      31.619  27.796  26.412  1.00  0.00     0.116 C 
BRANCH   4   5
ATOM      5  N   UNL A   1      31.436  26.465  26.945  1.00  0.00    -0.355 N 
ATOM      6  C   UNL A   1      31.388  25.242  26.370  1.00  0.00     0.231 C 
ATOM      7  O   UNL A   1      31.160  24.309  27.152  1.00  0.00    -0.274 OA
ATOM      8  H   UNL A   1      31.321  26.444  27.922  1.00  0.00     0.163 HD
BRANCH   6   9
ATOM      9  C   UNL A   1      31.652  24.991  24.873  1.00  0.00     0.092 C 
ATOM     10  C   UNL A   1      32.807  25.941  24.476  1.00  0.00     0.027 C 
ATOM     11  C   UNL A   1      30.465  25.511  24.017  1.00  0.00     0.027 C 
BRANCH   9  12
ATOM     12  C   UNL A   1      31.899  23.476  24.514  1.00  0.00     0.279 C 
BRANCH  12  13
ATOM     13  N   UNL A   1      32.612  22.531  25.402  1.00  0.00    -0.329 N 
ATOM     14  C   UNL A   1      32.077  21.128  25.261  1.00  0.00     0.272 C 
ATOM     15  C   UNL A   1      34.117  22.450  25.343  1.00  0.00     0.101 C 
ATOM     16  H   UNL A   1      32.410  22.959  26.306  1.00  0.00     0.348 HD
ATOM     17  C   UNL A   1      33.239  20.363  24.686  1.00  0.00     0.114 C 
ATOM     18  C   UNL A   1      34.362  20.943  25.501  1.00  0.00     0.119 C 
ATOM     19  C   UNL A   1      34.808  22.930  24.053  1.00  0.00     0.079 C 
ATOM     20  C   UNL A   1      34.671  23.160  26.589  1.00  0.00     0.079 C 
ATOM     21  C   UNL A   1      33.507  18.891  24.851  1.00  0.00     0.270 C 
ATOM     22  C   UNL A   1      35.548  20.165  24.974  1.00  0.00     0.271 C 
ATOM     23  N   UNL A   1      34.986  18.819  24.688  1.00  0.00    -0.345 N 
ATOM     24  H   UNL A   1      35.216  18.545  23.732  1.00  0.00     0.346 HD
ATOM     25  H   UNL A   1      35.379  18.129  25.327  1.00  0.00     0.346 HD
ENDBRANCH  12  13
ENDBRANCH   9  12
ENDBRANCH   6   9
ENDBRANCH   4   5
ENDBRANCH   3   4
ENDBRANCH   2   3
ENDBRANCH   1   2
BRANCH   1  26
ATOM     26  C   UNL A   1      34.732  30.824  27.739  1.00  0.00     0.021 C 
BRANCH  26  27
ATOM     27  C   UNL A   1      35.756  31.486  28.651  1.00  0.00     0.116 C 
BRANCH  27  28
ATOM     28  N   UNL A   1      35.625  31.040  30.028  1.00  0.00    -0.352 N 
ATOM     29  C   UNL A   1      36.531  30.362  30.808  1.00  0.00     0.251 C 
ATOM     30  H   UNL A   1      34.767  31.251  30.461  1.00  0.00     0.163 HD
ATOM     31  O   UNL A   1      36.185  29.874  31.874  1.00  0.00    -0.269 OA
BRANCH  29  32
ATOM     32  C   UNL A   1      37.923  30.213  30.332  1.00  0.00     0.039 A 
ATOM     33  C   UNL A   1      38.957  30.176  31.269  1.00  0.00     0.014 A 
ATOM     34  C   UNL A   1      38.197  30.081  28.968  1.00  0.00     0.014 A 
ATOM     35  C   UNL A   1      40.262  29.927  30.842  1.00  0.00     0.010 A 
ATOM     36  C   UNL A   1      39.487  29.762  28.552  1.00  0.00     0.010 A 
ATOM     37  C   UNL A   1      40.530  29.669  29.486  1.00  0.00    -0.014 A 
BRANCH  37  38
ATOM     38  C   UNL A   1      41.880  29.250  29.034  1.00  0.00     0.031 A 
ATOM     39  C   UNL A   1      42.988  30.257  28.909  1.00  0.00     0.074 A 
ATOM     40  C   UNL A   1      42.078  27.970  28.658  1.00  0.00     0.049 A 
ATOM     41  N   UNL A   1      44.201  30.093  28.450  1.00  0.00    -0.248 NA
ATOM     42  C   UNL A   1      42.686  31.633  29.335  1.00  0.00     0.031 C 
ATOM     43  C   UNL A   1      41.066  26.913  28.694  1.00  0.00     0.029 A 
ATOM     44  N   UNL A   1      43.192  27.344  28.156  1.00  0.00    -0.354 N 
ATOM     45  C   UNL A   1      44.807  31.342  28.523  1.00  0.00     0.074 A 
ATOM     46  C   UNL A   1      43.811  32.264  29.026  1.00  0.00     0.031 C 
ATOM     47  C   UNL A   1      41.607  25.767  28.251  1.00  0.00     0.029 A 
ATOM     48  C   UNL A   1      42.989  26.017  27.853  1.00  0.00     0.049 A 
ATOM     49  H   UNL A   1      44.055  27.800  28.027  1.00  0.00     0.167 HD
ATOM     50  C   UNL A   1      46.082  31.682  28.217  1.00  0.00     0.037 A 
ATOM     51  C   UNL A   1      43.813  25.108  27.295  1.00  0.00     0.037 A 
ATOM     52  C   UNL A   1      47.067  30.752  27.727  1.00  0.00     0.049 A 
ATOM     53  C   UNL A   1      45.212  25.521  26.927  1.00  0.00     0.074 A 
ATOM     54  C   UNL A   1      48.402  30.983  27.448  1.00  0.00     0.029 A 
ATOM     55  N   UNL A   1      46.823  29.418  27.429  1.00  0.00    -0.354 N 
ATOM     56  N   UNL A   1      45.793  26.688  27.077  1.00  0.00    -0.248 NA
ATOM     57  C   UNL A   1      46.068  24.497  26.311  1.00  0.00     0.031 C 
ATOM     58  C   UNL A   1      48.950  29.808  26.925  1.00  0.00     0.029 A 
ATOM     59  C   UNL A   1      47.972  28.826  26.931  1.00  0.00     0.049 A 
ATOM     60  H   UNL A   1      45.960  28.961  27.553  1.00  0.00     0.167 HD
ATOM     61  C   UNL A   1      47.086  26.534  26.589  1.00  0.00     0.074 A 
ATOM     62  C   UNL A   1      47.209  25.156  26.158  1.00  0.00     0.031 C 
ATOM     63  C   UNL A   1      48.079  27.453  26.502  1.00  0.00     0.037 A 
BRANCH  50  64
ATOM     64  C   UNL A   1      46.488  33.120  28.396  1.00  0.00     0.058 A 
ATOM     65  C   UNL A   1      46.365  34.056  27.356  1.00  0.00     0.135 A 
ATOM     66  C   UNL A   1      46.960  33.580  29.636  1.00  0.00     0.135 A 
ATOM     67  F   UNL A   1      45.932  33.671  26.145  1.00  0.00    -0.206 F 
ATOM     68  C   UNL A   1      46.722  35.390  27.532  1.00  0.00     0.059 A 
ATOM     69  C   UNL A   1      47.294  34.914  29.843  1.00  0.00     0.059 A 
ATOM     70  F   UNL A   1      47.097  32.727  30.665  1.00  0.00    -0.206 F 
ATOM     71  C   UNL A   1      47.185  35.809  28.780  1.00  0.00     0.060 A 
BRANCH  71  72
ATOM     72  S   UNL A   1      47.635  37.545  28.991  1.00  0.00     0.124 S 
ATOM     73  O   UNL A   1      49.006  37.431  29.483  1.00  0.00    -0.237 OA
ATOM     74  O   UNL A   1      47.489  38.072  27.638  1.00  0.00    -0.237 OA
ATOM     75  O   UNL A   1      46.661  38.034  29.961  1.00  0.00    -0.744 OA
ENDBRANCH  71  72
ENDBRANCH  50  64
BRANCH  51  76
ATOM     76  C   UNL A   1      43.332  23.722  27.049  1.00  0.00     0.058 A 
ATOM     77  C   UNL A   1      42.979  23.298  25.761  1.00  0.00     0.135 A 
ATOM     78  C   UNL A   1      43.232  22.789  28.094  1.00  0.00     0.135 A 
ATOM     79  F   UNL A   1      43.047  24.155  24.730  1.00  0.00    -0.206 F 
ATOM     80  C   UNL A   1      42.533  22.004  25.516  1.00  0.00     0.059 A 
ATOM     81  C   UNL A   1      42.816  21.481  27.870  1.00  0.00     0.059 A 
ATOM     82  F   UNL A   1      43.574  23.139  29.344  1.00  0.00    -0.206 F 
ATOM     83  C   UNL A   1      42.459  21.101  26.578  1.00  0.00     0.060 A 
BRANCH  83  84
ATOM     84  S   UNL A   1      41.928  19.407  26.240  1.00  0.00     0.124 S 
ATOM     85  O   UNL A   1      40.490  19.579  26.072  1.00  0.00    -0.237 OA
ATOM     86  O   UNL A   1      42.681  19.088  25.031  1.00  0.00    -0.237 OA
ATOM     87  O   UNL A   1      42.342  18.681  27.437  1.00  0.00    -0.744 OA
ENDBRANCH  83  84
ENDBRANCH  51  76
BRANCH  63  88
ATOM     88  C   UNL A   1      49.394  27.004  25.925  1.00  0.00     0.058 A 
ATOM     89  C   UNL A   1      49.681  27.145  24.559  1.00  0.00     0.135 A 
ATOM     90  C   UNL A   1      50.405  26.497  26.759  1.00  0.00     0.135 A 
ATOM     91  F   UNL A   1      48.746  27.613  23.716  1.00  0.00    -0.206 F 
ATOM     92  C   UNL A   1      50.921  26.793  24.038  1.00  0.00     0.059 A 
ATOM     93  C   UNL A   1      51.662  26.166  26.264  1.00  0.00     0.059 A 
ATOM     94  F   UNL A   1      50.184  26.349  28.075  1.00  0.00    -0.206 F 
ATOM     95  C   UNL A   1      51.909  26.314  24.901  1.00  0.00     0.060 A 
BRANCH  95  96
ATOM     96  S   UNL A   1      53.533  25.921  24.218  1.00  0.00     0.124 S 
ATOM     97  O   UNL A   1      53.271  25.967  22.783  1.00  0.00    -0.237 OA
ATOM     98  O   UNL A   1      54.361  27.002  24.744  1.00  0.00    -0.237 OA
ATOM     99  O   UNL A   1      53.820  24.597  24.761  1.00  0.00    -0.744 OA
ENDBRANCH  95  96
ENDBRANCH  63  88
ENDBRANCH  37  38
ENDBRANCH  29  32
ENDBRANCH  27  28
ENDBRANCH  26  27
ENDBRANCH   1  26
TORSDOF 18
ENDMDL
MODEL 3
REMARK VINA RESULT:     -10.6      3.048      9.108
REMARK SMILES CC(C)(C[N@H+]1C[C@@H]2C[NH2+]C[C@H]2C1(C)C)C(=O)NCCCCCCNC(=O)c1ccc(-c2c3nc(c(-c4c(F)cc(S(=O)(=O)[O-])cc4F)c4ccc([nH]4)c(-c4c(F)cc(S(=O)(=O)[O-])cc4F)c4nc(c(-c5c(F)cc(S(=O)(=O)[O-])cc5F)c5ccc2[nH]5)C=C4)C=C3)cc1
REMARK SMILES IDX 21 1 20 2 19 3 18 4 17 5 15 6 16 7 2 9 1 10 3 11 4 12 5 13
REMARK SMILES IDX 6 14 12 15 7 17 11 18 13 19 14 20 8 21 10 22 9 23 22 26
REMARK SMILES IDX 23 27 24 28 25 29 26 31 27 32 28 33 92 34 29 35 91 36 30 37
REMARK SMILES IDX 31 38 32 39 85 40 33 41 90 42 84 43 86 44 34 45 89 46 83 47
REMARK SMILES IDX 82 48 35 50 69 51 48 52 68 53 49 54 52 55 67 56 87 57 50 58
REMARK SMILES IDX 51 59 66 61 88 62 53 63 36 64 37 65 46 66 38 67 39 68 45 69
REMARK SMILES IDX 47 70 40 71 41 72 42 73 43 74 44 75 70 76 71 77 80 78 72 79
REMARK SMILES IDX 73 80 79 81 81 82 74 83 75 84 76 85 77 86 78 87 54 88 55 89
REMARK SMILES IDX 64 90 56 91 57 92 63 93 65 94 58 95 59 96 60 97 61 98 62 99
REMARK H PARENT 17 8 5 16 9 24 9 25 24 30 86 49 52 60
REMARK Flexibility Score: inf
ROOT
ATOM      1  C   UNL A   1      37.179  21.224  24.909  1.00  0.00     0.002 C 
ENDROOT
BRANCH   1   2
ATOM      2  C   UNL A   1      35.712  20.791  24.832  1.00  0.00     0.002 C 
BRANCH   2   3
ATOM      3  C   UNL A   1      34.877  21.097  26.080  1.00  0.00     0.021 C 
BRANCH   3   4
ATOM      4  C   UNL A   1      33.373  20.951  25.883  1.00  0.00     0.116 C 
BRANCH   4   5
ATOM      5  N   UNL A   1      32.650  21.843  26.762  1.00  0.00    -0.355 N 
ATOM      6  C   UNL A   1      32.143  23.086  26.599  1.00  0.00     0.231 C 
ATOM      7  O   UNL A   1      31.619  23.569  27.611  1.00  0.00    -0.274 OA
ATOM      8  H   UNL A   1      32.497  21.470  27.660  1.00  0.00     0.163 HD
BRANCH   6   9
ATOM      9  C   UNL A   1      32.151  23.841  25.256  1.00  0.00     0.092 C 
ATOM     10  C   UNL A   1      31.587  22.855  24.205  1.00  0.00     0.027 C 
ATOM     11  C   UNL A   1      33.607  24.072  24.770  1.00  0.00     0.027 C 
BRANCH   9  12
ATOM     12  C   UNL A   1      31.416  25.235  25.305  1.00  0.00     0.279 C 
BRANCH  12  13
ATOM     13  N   UNL A   1      32.012  26.492  24.801  1.00  0.00    -0.329 N 
ATOM     14  C   UNL A   1      31.209  27.068  23.661  1.00  0.00     0.272 C 
ATOM     15  C   UNL A   1      32.299  27.616  25.765  1.00  0.00     0.101 C 
ATOM     16  H   UNL A   1      32.931  26.148  24.522  1.00  0.00     0.348 HD
ATOM     17  C   UNL A   1      30.687  28.366  24.217  1.00  0.00     0.114 C 
ATOM     18  C   UNL A   1      31.914  28.852  24.941  1.00  0.00     0.119 C 
ATOM     19  C   UNL A   1      31.512  27.640  27.089  1.00  0.00     0.079 C 
ATOM     20  C   UNL A   1      33.818  27.651  26.001  1.00  0.00     0.079 C 
ATOM     21  C   UNL A   1      30.327  29.595  23.427  1.00  0.00     0.270 C 
ATOM     22  C   UNL A   1      31.435  30.180  25.483  1.00  0.00     0.271 C 
ATOM     23  N   UNL A   1      30.519  30.682  24.426  1.00  0.00    -0.345 N 
ATOM     24  H   UNL A   1      29.621  30.935  24.839  1.00  0.00     0.346 HD
ATOM     25  H   UNL A   1      30.915  31.509  23.978  1.00  0.00     0.346 HD
ENDBRANCH  12  13
ENDBRANCH   9  12
ENDBRANCH   6   9
ENDBRANCH   4   5
ENDBRANCH   3   4
ENDBRANCH   2   3
ENDBRANCH   1   2
BRANCH   1  26
ATOM     26  C   UNL A   1      38.179  20.087  25.128  1.00  0.00     0.021 C 
BRANCH  26  27
ATOM     27  C   UNL A   1      39.425  20.484  25.909  1.00  0.00     0.116 C 
BRANCH  27  28
ATOM     28  N   UNL A   1      40.338  19.366  26.079  1.00  0.00    -0.352 N 
ATOM     29  C   UNL A   1      41.707  19.376  26.199  1.00  0.00     0.251 C 
ATOM     30  H   UNL A   1      39.917  18.477  26.112  1.00  0.00     0.163 HD
ATOM     31  O   UNL A   1      42.342  18.335  26.120  1.00  0.00    -0.269 OA
BRANCH  29  32
ATOM     32  C   UNL A   1      42.402  20.665  26.402  1.00  0.00     0.039 A 
ATOM     33  C   UNL A   1      42.941  21.323  25.295  1.00  0.00     0.014 A 
ATOM     34  C   UNL A   1      42.493  21.231  27.677  1.00  0.00     0.014 A 
ATOM     35  C   UNL A   1      43.503  22.591  25.456  1.00  0.00     0.010 A 
ATOM     36  C   UNL A   1      42.990  22.523  27.823  1.00  0.00     0.010 A 
ATOM     37  C   UNL A   1      43.488  23.221  26.712  1.00  0.00    -0.014 A 
BRANCH  37  38
ATOM     38  C   UNL A   1      43.938  24.626  26.875  1.00  0.00     0.031 A 
ATOM     39  C   UNL A   1      45.389  24.984  26.714  1.00  0.00     0.074 A 
ATOM     40  C   UNL A   1      43.044  25.563  27.249  1.00  0.00     0.049 A 
ATOM     41  N   UNL A   1      45.978  26.136  26.902  1.00  0.00    -0.248 NA
ATOM     42  C   UNL A   1      46.299  23.901  26.309  1.00  0.00     0.031 C 
ATOM     43  C   UNL A   1      41.617  25.325  27.477  1.00  0.00     0.029 A 
ATOM     44  N   UNL A   1      43.203  26.900  27.519  1.00  0.00    -0.354 N 
ATOM     45  C   UNL A   1      47.327  25.918  26.648  1.00  0.00     0.074 A 
ATOM     46  C   UNL A   1      47.476  24.513  26.339  1.00  0.00     0.031 C 
ATOM     47  C   UNL A   1      41.029  26.477  27.837  1.00  0.00     0.029 A 
ATOM     48  C   UNL A   1      42.042  27.525  27.913  1.00  0.00     0.049 A 
ATOM     49  H   UNL A   1      44.065  27.367  27.439  1.00  0.00     0.167 HD
ATOM     50  C   UNL A   1      48.342  26.815  26.654  1.00  0.00     0.037 A 
ATOM     51  C   UNL A   1      41.820  28.793  28.313  1.00  0.00     0.037 A 
ATOM     52  C   UNL A   1      48.179  28.214  26.953  1.00  0.00     0.049 A 
ATOM     53  C   UNL A   1      42.973  29.759  28.349  1.00  0.00     0.074 A 
ATOM     54  C   UNL A   1      49.134  29.216  26.924  1.00  0.00     0.029 A 
ATOM     55  N   UNL A   1      46.990  28.809  27.350  1.00  0.00    -0.354 N 
ATOM     56  N   UNL A   1      44.228  29.555  28.029  1.00  0.00    -0.248 NA
ATOM     57  C   UNL A   1      42.682  31.125  28.803  1.00  0.00     0.031 C 
ATOM     58  C   UNL A   1      48.537  30.402  27.361  1.00  0.00     0.029 A 
ATOM     59  C   UNL A   1      47.196  30.155  27.609  1.00  0.00     0.049 A 
ATOM     60  H   UNL A   1      46.127  28.344  27.437  1.00  0.00     0.167 HD
ATOM     61  C   UNL A   1      44.874  30.770  28.228  1.00  0.00     0.074 A 
ATOM     62  C   UNL A   1      43.866  31.709  28.676  1.00  0.00     0.031 C 
ATOM     63  C   UNL A   1      46.183  31.078  28.058  1.00  0.00     0.037 A 
BRANCH  50  64
ATOM     64  C   UNL A   1      49.724  26.312  26.333  1.00  0.00     0.058 A 
ATOM     65  C   UNL A   1      50.251  26.383  25.033  1.00  0.00     0.135 A 
ATOM     66  C   UNL A   1      50.552  25.800  27.345  1.00  0.00     0.135 A 
ATOM     67  F   UNL A   1      49.501  26.852  24.022  1.00  0.00    -0.206 F 
ATOM     68  C   UNL A   1      51.537  25.937  24.742  1.00  0.00     0.059 A 
ATOM     69  C   UNL A   1      51.851  25.375  27.084  1.00  0.00     0.059 A 
ATOM     70  F   UNL A   1      50.099  25.709  28.606  1.00  0.00    -0.206 F 
ATOM     71  C   UNL A   1      52.330  25.436  25.776  1.00  0.00     0.060 A 
BRANCH  71  72
ATOM     72  S   UNL A   1      53.998  24.870  25.383  1.00  0.00     0.124 S 
ATOM     73  O   UNL A   1      53.784  23.436  25.204  1.00  0.00    -0.237 OA
ATOM     74  O   UNL A   1      54.304  25.621  24.169  1.00  0.00    -0.237 OA
ATOM     75  O   UNL A   1      54.772  25.245  26.562  1.00  0.00    -0.744 OA
ENDBRANCH  71  72
ENDBRANCH  50  64
BRANCH  51  76
ATOM     76  C   UNL A   1      40.451  29.216  28.713  1.00  0.00     0.058 A 
ATOM     77  C   UNL A   1      39.462  29.466  27.752  1.00  0.00     0.135 A 
ATOM     78  C   UNL A   1      40.100  29.361  30.065  1.00  0.00     0.135 A 
ATOM     79  F   UNL A   1      39.751  29.351  26.447  1.00  0.00    -0.206 F 
ATOM     80  C   UNL A   1      38.177  29.856  28.113  1.00  0.00     0.059 A 
ATOM     81  C   UNL A   1      38.814  29.722  30.452  1.00  0.00     0.059 A 
ATOM     82  F   UNL A   1      41.005  29.118  31.026  1.00  0.00    -0.206 F 
ATOM     83  C   UNL A   1      37.861  29.977  29.467  1.00  0.00     0.060 A 
BRANCH  83  84
ATOM     84  S   UNL A   1      36.175  30.434  29.927  1.00  0.00     0.124 S 
ATOM     85  O   UNL A   1      35.434  30.067  28.725  1.00  0.00    -0.237 OA
ATOM     86  O   UNL A   1      35.943  29.600  31.101  1.00  0.00    -0.237 OA
ATOM     87  O   UNL A   1      36.276  31.866  30.194  1.00  0.00    -0.744 OA
ENDBRANCH  83  84
ENDBRANCH  51  76
BRANCH  63  88
ATOM     88  C   UNL A   1      46.609  32.491  28.351  1.00  0.00     0.058 A 
ATOM     89  C   UNL A   1      47.145  32.852  29.597  1.00  0.00     0.135 A 
ATOM     90  C   UNL A   1      46.551  33.477  27.352  1.00  0.00     0.135 A 
ATOM     91  F   UNL A   1      47.212  31.951  30.590  1.00  0.00    -0.206 F 
ATOM     92  C   UNL A   1      47.602  34.141  29.844  1.00  0.00     0.059 A 
ATOM     93  C   UNL A   1      47.029  34.765  27.568  1.00  0.00     0.059 A 
ATOM     94  F   UNL A   1      46.053  33.182  26.140  1.00  0.00    -0.206 F 
ATOM     95  C   UNL A   1      47.549  35.089  28.820  1.00  0.00     0.060 A 
BRANCH  95  96
ATOM     96  S   UNL A   1      48.204  36.740  29.139  1.00  0.00     0.124 S 
ATOM     97  O   UNL A   1      48.273  36.755  30.597  1.00  0.00    -0.237 OA
ATOM     98  O   UNL A   1      49.487  36.705  28.444  1.00  0.00    -0.237 OA
ATOM     99  O   UNL A   1      47.202  37.624  28.550  1.00  0.00    -0.744 OA
ENDBRANCH  95  96
ENDBRANCH  63  88
ENDBRANCH  37  38
ENDBRANCH  29  32
ENDBRANCH  27  28
ENDBRANCH  26  27
ENDBRANCH   1  26
TORSDOF 18
ENDMDL
