MODEL 1
REMARK VINA RESULT:     -13.1      0.000      0.000
REMARK SMILES Cc1c(CC(=O)NCCCCCCNC(=O)c2ccc(-c3c4nc(c(-c5c(F)cc(S(=O)(=O)[O-])cc5F)c5ccc([nH]5)c(-c5c(F)cc(S(=O)(=O)[O-])cc5F)c5nc(c(-c6c(F)cc(S(=O)(=O)[O-])cc6F)c6ccc3[nH]6)C=C5)C=C4)cc2)c2ccccc2n1C(=O)c1ccc(Cl)cc1
REMARK SMILES IDX 10 1 9 2 8 3 7 4 5 5 6 6 4 8 3 9 1 10 2 11 89 12 83 13 88 14
REMARK SMILES IDX 84 15 87 16 85 17 86 18 90 19 91 20 92 21 93 22 98 23 94 24
REMARK SMILES IDX 97 25 95 26 96 27 11 28 12 29 13 30 14 31 15 32 16 34 17 35
REMARK SMILES IDX 18 36 82 37 19 38 81 39 20 40 21 41 22 42 75 43 23 44 80 45
REMARK SMILES IDX 74 46 76 47 24 48 79 49 73 50 72 51 25 53 59 54 38 55 58 56
REMARK SMILES IDX 39 57 42 58 57 59 77 60 40 61 41 62 56 64 78 65 43 66 26 67
REMARK SMILES IDX 27 68 36 69 28 70 29 71 35 72 37 73 30 74 31 75 32 76 33 77
REMARK SMILES IDX 34 78 60 79 61 80 70 81 62 82 63 83 69 84 71 85 64 86 65 87
REMARK SMILES IDX 66 88 67 89 68 90 44 91 45 92 54 93 46 94 47 95 53 96 55 97
REMARK SMILES IDX 48 98 49 99 50 100 51 101 52 102
REMARK H PARENT 7 7 14 33 76 52 42 63
REMARK Flexibility Score: inf
ROOT
ATOM      1  C   UNL A   1      30.637  29.616  24.249  1.00  0.00     0.002 C 
ENDROOT
BRANCH   1   2
ATOM      2  C   UNL A   1      30.972  28.977  22.897  1.00  0.00     0.021 C 
BRANCH   2   3
ATOM      3  C   UNL A   1      32.474  28.849  22.641  1.00  0.00     0.116 C 
BRANCH   3   4
ATOM      4  N   UNL A   1      32.795  27.572  22.031  1.00  0.00    -0.356 N 
ATOM      5  C   UNL A   1      33.510  26.535  22.557  1.00  0.00     0.224 C 
ATOM      6  O   UNL A   1      33.745  25.556  21.843  1.00  0.00    -0.275 OA
ATOM      7  H   UNL A   1      32.452  27.437  21.119  1.00  0.00     0.163 HD
BRANCH   5   8
ATOM      8  C   UNL A   1      33.953  26.577  24.011  1.00  0.00     0.138 C 
BRANCH   8   9
ATOM      9  C   UNL A   1      33.503  25.388  24.815  1.00  0.00    -0.010 A 
ATOM     10  C   UNL A   1      35.756  24.119  25.067  1.00  0.00     0.065 C 
ATOM     11  C   UNL A   1      34.283  24.326  25.252  1.00  0.00     0.028 A 
ATOM     12  N   UNL A   1      33.456  23.384  25.882  1.00  0.00    -0.280 N 
ATOM     13  C   UNL A   1      32.187  25.169  25.307  1.00  0.00     0.004 A 
ATOM     14  C   UNL A   1      32.191  23.975  26.037  1.00  0.00     0.056 A 
ATOM     15  C   UNL A   1      30.990  25.914  25.204  1.00  0.00     0.010 A 
ATOM     16  C   UNL A   1      31.029  23.576  26.734  1.00  0.00     0.027 A 
ATOM     17  C   UNL A   1      29.827  25.471  25.831  1.00  0.00     0.001 A 
ATOM     18  C   UNL A   1      29.853  24.320  26.600  1.00  0.00     0.002 A 
BRANCH  12  19
ATOM     19  C   UNL A   1      33.862  22.073  26.278  1.00  0.00     0.262 C 
ATOM     20  O   UNL A   1      34.353  21.913  27.389  1.00  0.00    -0.268 OA
BRANCH  19  21
ATOM     21  C   UNL A   1      33.730  20.846  25.473  1.00  0.00     0.040 A 
ATOM     22  C   UNL A   1      32.505  20.457  24.923  1.00  0.00     0.015 A 
ATOM     23  C   UNL A   1      34.888  20.091  25.246  1.00  0.00     0.015 A 
ATOM     24  C   UNL A   1      32.426  19.252  24.218  1.00  0.00     0.021 A 
ATOM     25  C   UNL A   1      34.805  18.898  24.530  1.00  0.00     0.021 A 
ATOM     26  C   UNL A   1      33.572  18.474  24.037  1.00  0.00     0.041 A 
ATOM     27  Cl  UNL A   1      33.460  16.969  23.209  1.00  0.00    -0.084 Cl
ENDBRANCH  19  21
ENDBRANCH  12  19
ENDBRANCH   8   9
ENDBRANCH   5   8
ENDBRANCH   3   4
ENDBRANCH   2   3
ENDBRANCH   1   2
BRANCH   1  28
ATOM     28  C   UNL A   1      31.584  29.236  25.394  1.00  0.00     0.002 C 
BRANCH  28  29
ATOM     29  C   UNL A   1      31.963  30.383  26.340  1.00  0.00     0.021 C 
BRANCH  29  30
ATOM     30  C   UNL A   1      33.364  30.264  26.939  1.00  0.00     0.116 C 
BRANCH  30  31
ATOM     31  N   UNL A   1      33.636  31.254  27.959  1.00  0.00    -0.352 N 
ATOM     32  C   UNL A   1      34.745  31.647  28.655  1.00  0.00     0.251 C 
ATOM     33  H   UNL A   1      32.833  31.766  28.211  1.00  0.00     0.163 HD
ATOM     34  O   UNL A   1      34.591  32.617  29.403  1.00  0.00    -0.269 OA
BRANCH  32  35
ATOM     35  C   UNL A   1      36.074  30.973  28.616  1.00  0.00     0.039 A 
ATOM     36  C   UNL A   1      36.305  29.643  28.269  1.00  0.00     0.014 A 
ATOM     37  C   UNL A   1      37.169  31.754  29.034  1.00  0.00     0.014 A 
ATOM     38  C   UNL A   1      37.568  29.081  28.435  1.00  0.00     0.010 A 
ATOM     39  C   UNL A   1      38.437  31.204  29.183  1.00  0.00     0.010 A 
ATOM     40  C   UNL A   1      38.623  29.848  28.937  1.00  0.00    -0.014 A 
BRANCH  40  41
ATOM     41  C   UNL A   1      39.909  29.187  29.141  1.00  0.00     0.031 A 
ATOM     42  C   UNL A   1      40.318  29.010  30.566  1.00  0.00     0.074 A 
ATOM     43  C   UNL A   1      40.667  28.706  28.135  1.00  0.00     0.049 A 
ATOM     44  N   UNL A   1      41.315  29.553  31.187  1.00  0.00    -0.248 NA
ATOM     45  C   UNL A   1      39.436  28.216  31.433  1.00  0.00     0.031 C 
ATOM     46  C   UNL A   1      40.326  28.562  26.717  1.00  0.00     0.029 A 
ATOM     47  N   UNL A   1      41.915  28.164  28.202  1.00  0.00    -0.354 N 
ATOM     48  C   UNL A   1      41.301  29.031  32.480  1.00  0.00     0.074 A 
ATOM     49  C   UNL A   1      40.054  28.321  32.612  1.00  0.00     0.031 C 
ATOM     50  C   UNL A   1      41.247  27.777  26.111  1.00  0.00     0.029 A 
ATOM     51  C   UNL A   1      42.314  27.491  27.054  1.00  0.00     0.049 A 
ATOM     52  H   UNL A   1      42.488  28.242  28.999  1.00  0.00     0.167 HD
ATOM     53  C   UNL A   1      42.395  29.074  33.292  1.00  0.00     0.037 A 
ATOM     54  C   UNL A   1      43.421  26.718  26.913  1.00  0.00     0.037 A 
ATOM     55  C   UNL A   1      43.358  30.038  32.831  1.00  0.00     0.049 A 
ATOM     56  C   UNL A   1      44.382  27.134  27.966  1.00  0.00     0.074 A 
ATOM     57  C   UNL A   1      43.364  31.411  32.671  1.00  0.00     0.029 A 
ATOM     58  N   UNL A   1      44.445  29.582  32.128  1.00  0.00    -0.354 N 
ATOM     59  N   UNL A   1      44.970  28.298  27.997  1.00  0.00    -0.248 NA
ATOM     60  C   UNL A   1      44.357  26.415  29.231  1.00  0.00     0.031 C 
ATOM     61  C   UNL A   1      44.142  31.644  31.499  1.00  0.00     0.029 A 
ATOM     62  C   UNL A   1      44.596  30.406  31.042  1.00  0.00     0.049 A 
ATOM     63  H   UNL A   1      45.010  28.809  32.360  1.00  0.00     0.167 HD
ATOM     64  C   UNL A   1      45.008  28.643  29.340  1.00  0.00     0.074 A 
ATOM     65  C   UNL A   1      44.697  27.408  30.056  1.00  0.00     0.031 C 
ATOM     66  C   UNL A   1      45.023  29.950  29.738  1.00  0.00     0.037 A 
BRANCH  53  67
ATOM     67  C   UNL A   1      42.744  28.025  34.325  1.00  0.00     0.058 A 
ATOM     68  C   UNL A   1      42.793  28.381  35.691  1.00  0.00     0.135 A 
ATOM     69  C   UNL A   1      43.313  26.774  34.005  1.00  0.00     0.135 A 
ATOM     70  F   UNL A   1      42.275  29.546  36.115  1.00  0.00    -0.206 F 
ATOM     71  C   UNL A   1      43.440  27.596  36.647  1.00  0.00     0.059 A 
ATOM     72  C   UNL A   1      43.918  25.951  34.951  1.00  0.00     0.059 A 
ATOM     73  F   UNL A   1      43.399  26.331  32.744  1.00  0.00    -0.206 F 
ATOM     74  C   UNL A   1      44.021  26.392  36.259  1.00  0.00     0.060 A 
BRANCH  74  75
ATOM     75  S   UNL A   1      44.982  25.450  37.458  1.00  0.00     0.124 S 
ATOM     76  O   UNL A   1      44.783  24.086  36.982  1.00  0.00    -0.237 OA
ATOM     77  O   UNL A   1      46.319  26.004  37.277  1.00  0.00    -0.237 OA
ATOM     78  O   UNL A   1      44.342  25.774  38.731  1.00  0.00    -0.744 OA
ENDBRANCH  74  75
ENDBRANCH  53  67
BRANCH  54  79
ATOM     79  C   UNL A   1      43.536  25.416  26.200  1.00  0.00     0.058 A 
ATOM     80  C   UNL A   1      44.554  25.191  25.256  1.00  0.00     0.135 A 
ATOM     81  C   UNL A   1      42.843  24.274  26.648  1.00  0.00     0.135 A 
ATOM     82  F   UNL A   1      45.278  26.219  24.786  1.00  0.00    -0.206 F 
ATOM     83  C   UNL A   1      44.907  23.906  24.829  1.00  0.00     0.059 A 
ATOM     84  C   UNL A   1      43.169  22.984  26.232  1.00  0.00     0.059 A 
ATOM     85  F   UNL A   1      41.887  24.365  27.585  1.00  0.00    -0.206 F 
ATOM     86  C   UNL A   1      44.223  22.804  25.344  1.00  0.00     0.060 A 
BRANCH  86  87
ATOM     87  S   UNL A   1      44.797  21.136  24.945  1.00  0.00     0.124 S 
ATOM     88  O   UNL A   1      44.691  21.119  23.491  1.00  0.00    -0.237 OA
ATOM     89  O   UNL A   1      46.152  21.140  25.486  1.00  0.00    -0.237 OA
ATOM     90  O   UNL A   1      43.850  20.275  25.650  1.00  0.00    -0.744 OA
ENDBRANCH  86  87
ENDBRANCH  54  79
BRANCH  66  91
ATOM     91  C   UNL A   1      45.266  31.006  28.688  1.00  0.00     0.058 A 
ATOM     92  C   UNL A   1      44.263  31.543  27.861  1.00  0.00     0.135 A 
ATOM     93  C   UNL A   1      46.538  31.591  28.606  1.00  0.00     0.135 A 
ATOM     94  F   UNL A   1      42.994  31.119  27.952  1.00  0.00    -0.206 F 
ATOM     95  C   UNL A   1      44.523  32.578  26.960  1.00  0.00     0.059 A 
ATOM     96  C   UNL A   1      46.814  32.646  27.738  1.00  0.00     0.059 A 
ATOM     97  F   UNL A   1      47.524  31.171  29.416  1.00  0.00    -0.206 F 
ATOM     98  C   UNL A   1      45.804  33.124  26.905  1.00  0.00     0.060 A 
BRANCH  98  99
ATOM     99  S   UNL A   1      46.122  34.504  25.785  1.00  0.00     0.124 S 
ATOM    100  O   UNL A   1      45.792  35.658  26.615  1.00  0.00    -0.237 OA
ATOM    101  O   UNL A   1      47.537  34.336  25.469  1.00  0.00    -0.237 OA
ATOM    102  O   UNL A   1      45.211  34.257  24.670  1.00  0.00    -0.744 OA
ENDBRANCH  98  99
ENDBRANCH  66  91
ENDBRANCH  40  41
ENDBRANCH  32  35
ENDBRANCH  30  31
ENDBRANCH  29  30
ENDBRANCH  28  29
ENDBRANCH   1  28
TORSDOF 19
ENDMDL
MODEL 2
REMARK VINA RESULT:     -12.3      1.807      3.135
REMARK SMILES Cc1c(CC(=O)NCCCCCCNC(=O)c2ccc(-c3c4nc(c(-c5c(F)cc(S(=O)(=O)[O-])cc5F)c5ccc([nH]5)c(-c5c(F)cc(S(=O)(=O)[O-])cc5F)c5nc(c(-c6c(F)cc(S(=O)(=O)[O-])cc6F)c6ccc3[nH]6)C=C5)C=C4)cc2)c2ccccc2n1C(=O)c1ccc(Cl)cc1
REMARK SMILES IDX 10 1 9 2 8 3 7 4 5 5 6 6 4 8 3 9 1 10 2 11 89 12 83 13 88 14
REMARK SMILES IDX 84 15 87 16 85 17 86 18 90 19 91 20 92 21 93 22 98 23 94 24
REMARK SMILES IDX 97 25 95 26 96 27 11 28 12 29 13 30 14 31 15 32 16 34 17 35
REMARK SMILES IDX 18 36 82 37 19 38 81 39 20 40 21 41 22 42 75 43 23 44 80 45
REMARK SMILES IDX 74 46 76 47 24 48 79 49 73 50 72 51 25 53 59 54 38 55 58 56
REMARK SMILES IDX 39 57 42 58 57 59 77 60 40 61 41 62 56 64 78 65 43 66 26 67
REMARK SMILES IDX 27 68 36 69 28 70 29 71 35 72 37 73 30 74 31 75 32 76 33 77
REMARK SMILES IDX 34 78 60 79 61 80 70 81 62 82 63 83 69 84 71 85 64 86 65 87
REMARK SMILES IDX 66 88 67 89 68 90 44 91 45 92 54 93 46 94 47 95 53 96 55 97
REMARK SMILES IDX 48 98 49 99 50 100 51 101 52 102
REMARK H PARENT 7 7 14 33 76 52 42 63
REMARK Flexibility Score: inf
ROOT
ATOM      1  C   UNL A   1      31.869  28.861  26.415  1.00  0.00     0.002 C 
ENDROOT
BRANCH   1   2
ATOM      2  C   UNL A   1      31.229  27.628  27.065  1.00  0.00     0.021 C 
BRANCH   2   3
ATOM      3  C   UNL A   1      31.115  26.433  26.118  1.00  0.00     0.116 C 
BRANCH   3   4
ATOM      4  N   UNL A   1      31.019  25.188  26.856  1.00  0.00    -0.356 N 
ATOM      5  C   UNL A   1      31.128  23.911  26.386  1.00  0.00     0.224 C 
ATOM      6  O   UNL A   1      30.933  22.974  27.166  1.00  0.00    -0.275 OA
ATOM      7  H   UNL A   1      30.854  25.276  27.822  1.00  0.00     0.163 HD
BRANCH   5   8
ATOM      8  C   UNL A   1      31.534  23.665  24.941  1.00  0.00     0.138 C 
BRANCH   8   9
ATOM      9  C   UNL A   1      32.848  22.946  24.798  1.00  0.00    -0.010 A 
ATOM     10  C   UNL A   1      34.487  24.961  24.846  1.00  0.00     0.065 C 
ATOM     11  C   UNL A   1      34.114  23.513  24.742  1.00  0.00     0.028 A 
ATOM     12  N   UNL A   1      35.056  22.500  24.507  1.00  0.00    -0.280 N 
ATOM     13  C   UNL A   1      33.020  21.535  24.737  1.00  0.00     0.004 A 
ATOM     14  C   UNL A   1      34.391  21.270  24.647  1.00  0.00     0.056 A 
ATOM     15  C   UNL A   1      32.106  20.457  24.777  1.00  0.00     0.010 A 
ATOM     16  C   UNL A   1      34.850  19.935  24.685  1.00  0.00     0.027 A 
ATOM     17  C   UNL A   1      32.566  19.142  24.735  1.00  0.00     0.001 A 
ATOM     18  C   UNL A   1      33.926  18.886  24.704  1.00  0.00     0.002 A 
BRANCH  12  19
ATOM     19  C   UNL A   1      36.430  22.718  24.186  1.00  0.00     0.262 C 
ATOM     20  O   UNL A   1      36.719  23.157  23.080  1.00  0.00    -0.268 OA
BRANCH  19  21
ATOM     21  C   UNL A   1      37.577  22.481  25.081  1.00  0.00     0.040 A 
ATOM     22  C   UNL A   1      38.224  21.244  25.131  1.00  0.00     0.015 A 
ATOM     23  C   UNL A   1      38.024  23.555  25.861  1.00  0.00     0.015 A 
ATOM     24  C   UNL A   1      39.269  21.057  26.042  1.00  0.00     0.021 A 
ATOM     25  C   UNL A   1      39.075  23.366  26.757  1.00  0.00     0.021 A 
ATOM     26  C   UNL A   1      39.680  22.114  26.858  1.00  0.00     0.041 A 
ATOM     27  Cl  UNL A   1      40.935  21.867  28.009  1.00  0.00    -0.084 Cl
ENDBRANCH  19  21
ENDBRANCH  12  19
ENDBRANCH   8   9
ENDBRANCH   5   8
ENDBRANCH   3   4
ENDBRANCH   2   3
ENDBRANCH   1   2
BRANCH   1  28
ATOM     28  C   UNL A   1      33.020  29.485  27.213  1.00  0.00     0.002 C 
BRANCH  28  29
ATOM     29  C   UNL A   1      33.278  30.972  26.938  1.00  0.00     0.021 C 
BRANCH  29  30
ATOM     30  C   UNL A   1      34.525  31.528  27.626  1.00  0.00     0.116 C 
BRANCH  30  31
ATOM     31  N   UNL A   1      34.282  31.964  28.985  1.00  0.00    -0.352 N 
ATOM     32  C   UNL A   1      35.023  32.009  30.133  1.00  0.00     0.251 C 
ATOM     33  H   UNL A   1      33.369  32.310  29.112  1.00  0.00     0.163 HD
ATOM     34  O   UNL A   1      34.475  32.547  31.101  1.00  0.00    -0.269 OA
BRANCH  32  35
ATOM     35  C   UNL A   1      36.382  31.425  30.310  1.00  0.00     0.039 A 
ATOM     36  C   UNL A   1      37.572  32.143  30.413  1.00  0.00     0.014 A 
ATOM     37  C   UNL A   1      36.448  30.018  30.305  1.00  0.00     0.014 A 
ATOM     38  C   UNL A   1      38.797  31.480  30.403  1.00  0.00     0.010 A 
ATOM     39  C   UNL A   1      37.668  29.350  30.315  1.00  0.00     0.010 A 
ATOM     40  C   UNL A   1      38.846  30.087  30.307  1.00  0.00    -0.014 A 
BRANCH  40  41
ATOM     41  C   UNL A   1      40.162  29.454  30.246  1.00  0.00     0.031 A 
ATOM     42  C   UNL A   1      40.795  29.167  31.567  1.00  0.00     0.074 A 
ATOM     43  C   UNL A   1      40.759  29.088  29.095  1.00  0.00     0.049 A 
ATOM     44  N   UNL A   1      41.867  29.688  32.072  1.00  0.00    -0.248 NA
ATOM     45  C   UNL A   1      40.077  28.272  32.486  1.00  0.00     0.031 C 
ATOM     46  C   UNL A   1      40.201  29.056  27.740  1.00  0.00     0.029 A 
ATOM     47  N   UNL A   1      42.013  28.585  28.916  1.00  0.00    -0.354 N 
ATOM     48  C   UNL A   1      42.068  29.054  33.298  1.00  0.00     0.074 A 
ATOM     49  C   UNL A   1      40.872  28.294  33.558  1.00  0.00     0.031 C 
ATOM     50  C   UNL A   1      41.029  28.359  26.928  1.00  0.00     0.029 A 
ATOM     51  C   UNL A   1      42.238  28.028  27.663  1.00  0.00     0.049 A 
ATOM     52  H   UNL A   1      42.703  28.612  29.618  1.00  0.00     0.167 HD
ATOM     53  C   UNL A   1      43.276  29.063  33.930  1.00  0.00     0.037 A 
ATOM     54  C   UNL A   1      43.324  27.308  27.281  1.00  0.00     0.037 A 
ATOM     55  C   UNL A   1      44.134  30.096  33.414  1.00  0.00     0.049 A 
ATOM     56  C   UNL A   1      44.431  27.663  28.204  1.00  0.00     0.074 A 
ATOM     57  C   UNL A   1      44.089  31.477  33.381  1.00  0.00     0.029 A 
ATOM     58  N   UNL A   1      45.105  29.740  32.512  1.00  0.00    -0.354 N 
ATOM     59  N   UNL A   1      44.994  28.839  28.249  1.00  0.00    -0.248 NA
ATOM     60  C   UNL A   1      44.621  26.837  29.387  1.00  0.00     0.031 C 
ATOM     61  C   UNL A   1      44.666  31.837  32.128  1.00  0.00     0.029 A 
ATOM     62  C   UNL A   1      45.066  30.660  31.495  1.00  0.00     0.049 A 
ATOM     63  H   UNL A   1      45.715  28.970  32.580  1.00  0.00     0.167 HD
ATOM     64  C   UNL A   1      45.237  29.067  29.595  1.00  0.00     0.074 A 
ATOM     65  C   UNL A   1      45.068  27.764  30.235  1.00  0.00     0.031 C 
ATOM     66  C   UNL A   1      45.290  30.334  30.104  1.00  0.00     0.037 A 
BRANCH  53  67
ATOM     67  C   UNL A   1      43.805  27.941  34.796  1.00  0.00     0.058 A 
ATOM     68  C   UNL A   1      44.237  28.220  36.111  1.00  0.00     0.135 A 
ATOM     69  C   UNL A   1      44.176  26.676  34.292  1.00  0.00     0.135 A 
ATOM     70  F   UNL A   1      43.937  29.391  36.698  1.00  0.00    -0.206 F 
ATOM     71  C   UNL A   1      45.052  27.347  36.833  1.00  0.00     0.059 A 
ATOM     72  C   UNL A   1      44.945  25.768  35.014  1.00  0.00     0.059 A 
ATOM     73  F   UNL A   1      43.894  26.297  33.039  1.00  0.00    -0.206 F 
ATOM     74  C   UNL A   1      45.420  26.131  36.263  1.00  0.00     0.060 A 
BRANCH  74  75
ATOM     75  S   UNL A   1      46.589  25.068  37.130  1.00  0.00     0.124 S 
ATOM     76  O   UNL A   1      47.688  25.004  36.173  1.00  0.00    -0.237 OA
ATOM     77  O   UNL A   1      46.843  25.828  38.348  1.00  0.00    -0.237 OA
ATOM     78  O   UNL A   1      45.842  23.827  37.315  1.00  0.00    -0.744 OA
ENDBRANCH  74  75
ENDBRANCH  53  67
BRANCH  54  79
ATOM     79  C   UNL A   1      43.349  26.078  26.443  1.00  0.00     0.058 A 
ATOM     80  C   UNL A   1      44.282  25.927  25.401  1.00  0.00     0.135 A 
ATOM     81  C   UNL A   1      42.667  24.910  26.839  1.00  0.00     0.135 A 
ATOM     82  F   UNL A   1      44.990  26.983  24.971  1.00  0.00    -0.206 F 
ATOM     83  C   UNL A   1      44.569  24.682  24.829  1.00  0.00     0.059 A 
ATOM     84  C   UNL A   1      42.929  23.660  26.278  1.00  0.00     0.059 A 
ATOM     85  F   UNL A   1      41.793  24.928  27.856  1.00  0.00    -0.206 F 
ATOM     86  C   UNL A   1      43.903  23.548  25.294  1.00  0.00     0.060 A 
BRANCH  86  87
ATOM     87  S   UNL A   1      44.402  21.915  24.696  1.00  0.00     0.124 S 
ATOM     88  O   UNL A   1      43.318  21.070  25.182  1.00  0.00    -0.237 OA
ATOM     89  O   UNL A   1      44.453  22.121  23.253  1.00  0.00    -0.237 OA
ATOM     90  O   UNL A   1      45.697  21.701  25.338  1.00  0.00    -0.744 OA
ENDBRANCH  86  87
ENDBRANCH  54  79
BRANCH  66  91
ATOM     91  C   UNL A   1      45.343  31.485  29.129  1.00  0.00     0.058 A 
ATOM     92  C   UNL A   1      46.525  31.963  28.535  1.00  0.00     0.135 A 
ATOM     93  C   UNL A   1      44.136  32.038  28.678  1.00  0.00     0.135 A 
ATOM     94  F   UNL A   1      47.713  31.414  28.825  1.00  0.00    -0.206 F 
ATOM     95  C   UNL A   1      46.512  32.978  27.576  1.00  0.00     0.059 A 
ATOM     96  C   UNL A   1      44.095  33.029  27.699  1.00  0.00     0.059 A 
ATOM     97  F   UNL A   1      42.967  31.579  29.155  1.00  0.00    -0.206 F 
ATOM     98  C   UNL A   1      45.290  33.506  27.163  1.00  0.00     0.060 A 
BRANCH  98  99
ATOM     99  S   UNL A   1      45.272  34.773  25.876  1.00  0.00     0.124 S 
ATOM    100  O   UNL A   1      44.090  34.409  25.101  1.00  0.00    -0.237 OA
ATOM    101  O   UNL A   1      45.167  36.007  26.650  1.00  0.00    -0.237 OA
ATOM    102  O   UNL A   1      46.549  34.585  25.193  1.00  0.00    -0.744 OA
ENDBRANCH  98  99
ENDBRANCH  66  91
ENDBRANCH  40  41
ENDBRANCH  32  35
ENDBRANCH  30  31
ENDBRANCH  29  30
ENDBRANCH  28  29
ENDBRANCH   1  28
TORSDOF 19
ENDMDL
MODEL 3
REMARK VINA RESULT:     -12.3      3.128      9.526
REMARK SMILES Cc1c(CC(=O)NCCCCCCNC(=O)c2ccc(-c3c4nc(c(-c5c(F)cc(S(=O)(=O)[O-])cc5F)c5ccc([nH]5)c(-c5c(F)cc(S(=O)(=O)[O-])cc5F)c5nc(c(-c6c(F)cc(S(=O)(=O)[O-])cc6F)c6ccc3[nH]6)C=C5)C=C4)cc2)c2ccccc2n1C(=O)c1ccc(Cl)cc1
REMARK SMILES IDX 10 1 9 2 8 3 7 4 5 5 6 6 4 8 3 9 1 10 2 11 89 12 83 13 88 14
REMARK SMILES IDX 84 15 87 16 85 17 86 18 90 19 91 20 92 21 93 22 98 23 94 24
REMARK SMILES IDX 97 25 95 26 96 27 11 28 12 29 13 30 14 31 15 32 16 34 17 35
REMARK SMILES IDX 18 36 82 37 19 38 81 39 20 40 21 41 22 42 75 43 23 44 80 45
REMARK SMILES IDX 74 46 76 47 24 48 79 49 73 50 72 51 25 53 59 54 38 55 58 56
REMARK SMILES IDX 39 57 42 58 57 59 77 60 40 61 41 62 56 64 78 65 43 66 26 67
REMARK SMILES IDX 27 68 36 69 28 70 29 71 35 72 37 73 30 74 31 75 32 76 33 77
REMARK SMILES IDX 34 78 60 79 61 80 70 81 62 82 63 83 69 84 71 85 64 86 65 87
REMARK SMILES IDX 66 88 67 89 68 90 44 91 45 92 54 93 46 94 47 95 53 96 55 97
REMARK SMILES IDX 48 98 49 99 50 100 51 101 52 102
REMARK H PARENT 7 7 14 33 76 52 42 63
REMARK Flexibility Score: inf
ROOT
ATOM      1  C   UNL A   1      38.150  23.144  25.971  1.00  0.00     0.002 C 
ENDROOT
BRANCH   1   2
ATOM      2  C   UNL A   1      37.484  22.080  25.090  1.00  0.00     0.021 C 
BRANCH   2   3
ATOM      3  C   UNL A   1      36.279  22.606  24.310  1.00  0.00     0.116 C 
BRANCH   3   4
ATOM      4  N   UNL A   1      35.069  22.541  25.109  1.00  0.00    -0.356 N 
ATOM      5  C   UNL A   1      34.067  23.463  25.209  1.00  0.00     0.224 C 
ATOM      6  O   UNL A   1      33.153  23.258  26.013  1.00  0.00    -0.275 OA
ATOM      7  H   UNL A   1      34.958  21.727  25.650  1.00  0.00     0.163 HD
BRANCH   5   8
ATOM      8  C   UNL A   1      34.063  24.684  24.302  1.00  0.00     0.138 C 
BRANCH   8   9
ATOM      9  C   UNL A   1      32.900  25.609  24.539  1.00  0.00    -0.010 A 
ATOM     10  C   UNL A   1      31.071  24.424  23.126  1.00  0.00     0.065 C 
ATOM     11  C   UNL A   1      31.619  25.498  24.016  1.00  0.00     0.028 A 
ATOM     12  N   UNL A   1      30.871  26.618  24.407  1.00  0.00    -0.280 N 
ATOM     13  C   UNL A   1      32.907  26.749  25.389  1.00  0.00     0.004 A 
ATOM     14  C   UNL A   1      31.626  27.311  25.368  1.00  0.00     0.056 A 
ATOM     15  C   UNL A   1      33.908  27.335  26.197  1.00  0.00     0.010 A 
ATOM     16  C   UNL A   1      31.324  28.398  26.218  1.00  0.00     0.027 A 
ATOM     17  C   UNL A   1      33.621  28.456  26.974  1.00  0.00     0.001 A 
ATOM     18  C   UNL A   1      32.337  28.972  26.993  1.00  0.00     0.002 A 
BRANCH  12  19
ATOM     19  C   UNL A   1      29.580  26.959  23.899  1.00  0.00     0.262 C 
ATOM     20  O   UNL A   1      28.646  26.189  24.086  1.00  0.00    -0.268 OA
BRANCH  19  21
ATOM     21  C   UNL A   1      29.235  28.189  23.166  1.00  0.00     0.040 A 
ATOM     22  C   UNL A   1      27.939  28.714  23.182  1.00  0.00     0.015 A 
ATOM     23  C   UNL A   1      30.263  28.842  22.474  1.00  0.00     0.015 A 
ATOM     24  C   UNL A   1      27.655  29.850  22.419  1.00  0.00     0.021 A 
ATOM     25  C   UNL A   1      29.975  29.984  21.727  1.00  0.00     0.021 A 
ATOM     26  C   UNL A   1      28.669  30.471  21.687  1.00  0.00     0.041 A 
ATOM     27  Cl  UNL A   1      28.305  31.843  20.713  1.00  0.00    -0.084 Cl
ENDBRANCH  19  21
ENDBRANCH  12  19
ENDBRANCH   8   9
ENDBRANCH   5   8
ENDBRANCH   3   4
ENDBRANCH   2   3
ENDBRANCH   1   2
BRANCH   1  28
ATOM     28  C   UNL A   1      39.497  22.728  26.574  1.00  0.00     0.002 C 
BRANCH  28  29
ATOM     29  C   UNL A   1      39.906  21.271  26.322  1.00  0.00     0.021 C 
BRANCH  29  30
ATOM     30  C   UNL A   1      41.077  20.792  27.181  1.00  0.00     0.116 C 
BRANCH  30  31
ATOM     31  N   UNL A   1      42.351  20.856  26.497  1.00  0.00    -0.352 N 
ATOM     32  C   UNL A   1      43.352  21.782  26.399  1.00  0.00     0.251 C 
ATOM     33  H   UNL A   1      42.543  20.039  25.981  1.00  0.00     0.163 HD
ATOM     34  O   UNL A   1      44.353  21.423  25.772  1.00  0.00    -0.269 OA
BRANCH  32  35
ATOM     35  C   UNL A   1      43.299  23.172  26.934  1.00  0.00     0.039 A 
ATOM     36  C   UNL A   1      43.634  23.562  28.230  1.00  0.00     0.014 A 
ATOM     37  C   UNL A   1      42.802  24.150  26.050  1.00  0.00     0.014 A 
ATOM     38  C   UNL A   1      43.381  24.861  28.662  1.00  0.00     0.010 A 
ATOM     39  C   UNL A   1      42.566  25.454  26.470  1.00  0.00     0.010 A 
ATOM     40  C   UNL A   1      42.803  25.794  27.797  1.00  0.00    -0.014 A 
BRANCH  40  41
ATOM     41  C   UNL A   1      42.512  27.124  28.326  1.00  0.00     0.031 A 
ATOM     42  C   UNL A   1      43.552  28.160  28.058  1.00  0.00     0.074 A 
ATOM     43  C   UNL A   1      41.365  27.438  28.960  1.00  0.00     0.049 A 
ATOM     44  N   UNL A   1      44.307  28.777  28.910  1.00  0.00    -0.248 NA
ATOM     45  C   UNL A   1      43.868  28.462  26.655  1.00  0.00     0.031 C 
ATOM     46  C   UNL A   1      40.142  26.642  29.095  1.00  0.00     0.029 A 
ATOM     47  N   UNL A   1      41.031  28.609  29.574  1.00  0.00    -0.354 N 
ATOM     48  C   UNL A   1      45.071  29.681  28.173  1.00  0.00     0.074 A 
ATOM     49  C   UNL A   1      44.855  29.352  26.787  1.00  0.00     0.031 C 
ATOM     50  C   UNL A   1      39.140  27.429  29.548  1.00  0.00     0.029 A 
ATOM     51  C   UNL A   1      39.682  28.737  29.877  1.00  0.00     0.049 A 
ATOM     52  H   UNL A   1      41.692  29.307  29.783  1.00  0.00     0.167 HD
ATOM     53  C   UNL A   1      45.691  30.748  28.751  1.00  0.00     0.037 A 
ATOM     54  C   UNL A   1      39.055  29.855  30.322  1.00  0.00     0.037 A 
ATOM     55  C   UNL A   1      45.800  30.587  30.177  1.00  0.00     0.049 A 
ATOM     56  C   UNL A   1      40.093  30.726  30.931  1.00  0.00     0.074 A 
ATOM     57  C   UNL A   1      46.450  29.698  31.012  1.00  0.00     0.029 A 
ATOM     58  N   UNL A   1      44.895  31.243  30.974  1.00  0.00    -0.354 N 
ATOM     59  N   UNL A   1      40.743  30.429  32.022  1.00  0.00    -0.248 NA
ATOM     60  C   UNL A   1      40.723  31.727  30.083  1.00  0.00     0.031 C 
ATOM     61  C   UNL A   1      45.571  29.521  32.121  1.00  0.00     0.029 A 
ATOM     62  C   UNL A   1      44.463  30.344  31.916  1.00  0.00     0.049 A 
ATOM     63  H   UNL A   1      44.608  32.181  30.886  1.00  0.00     0.167 HD
ATOM     64  C   UNL A   1      42.038  30.873  31.798  1.00  0.00     0.074 A 
ATOM     65  C   UNL A   1      41.942  31.740  30.626  1.00  0.00     0.031 C 
ATOM     66  C   UNL A   1      43.107  30.288  32.416  1.00  0.00     0.037 A 
BRANCH  53  67
ATOM     67  C   UNL A   1      45.918  32.084  28.077  1.00  0.00     0.058 A 
ATOM     68  C   UNL A   1      47.227  32.607  27.992  1.00  0.00     0.135 A 
ATOM     69  C   UNL A   1      44.882  32.993  27.779  1.00  0.00     0.135 A 
ATOM     70  F   UNL A   1      48.294  31.831  28.247  1.00  0.00    -0.206 F 
ATOM     71  C   UNL A   1      47.480  33.953  27.723  1.00  0.00     0.059 A 
ATOM     72  C   UNL A   1      45.113  34.328  27.457  1.00  0.00     0.059 A 
ATOM     73  F   UNL A   1      43.589  32.660  27.881  1.00  0.00    -0.206 F 
ATOM     74  C   UNL A   1      46.410  34.811  27.480  1.00  0.00     0.060 A 
BRANCH  74  75
ATOM     75  S   UNL A   1      46.722  36.574  27.278  1.00  0.00     0.124 S 
ATOM     76  O   UNL A   1      47.818  36.567  26.315  1.00  0.00    -0.237 OA
ATOM     77  O   UNL A   1      45.437  37.054  26.781  1.00  0.00    -0.237 OA
ATOM     78  O   UNL A   1      47.070  37.011  28.627  1.00  0.00    -0.744 OA
ENDBRANCH  74  75
ENDBRANCH  53  67
BRANCH  54  79
ATOM     79  C   UNL A   1      37.722  30.376  29.910  1.00  0.00     0.058 A 
ATOM     80  C   UNL A   1      36.886  31.039  30.826  1.00  0.00     0.135 A 
ATOM     81  C   UNL A   1      37.375  30.502  28.550  1.00  0.00     0.135 A 
ATOM     82  F   UNL A   1      37.151  30.989  32.141  1.00  0.00    -0.206 F 
ATOM     83  C   UNL A   1      35.808  31.832  30.415  1.00  0.00     0.059 A 
ATOM     84  C   UNL A   1      36.301  31.278  28.117  1.00  0.00     0.059 A 
ATOM     85  F   UNL A   1      38.131  29.953  27.587  1.00  0.00    -0.206 F 
ATOM     86  C   UNL A   1      35.539  31.966  29.053  1.00  0.00     0.060 A 
BRANCH  86  87
ATOM     87  S   UNL A   1      34.272  33.135  28.507  1.00  0.00     0.124 S 
ATOM     88  O   UNL A   1      33.318  32.258  27.839  1.00  0.00    -0.237 OA
ATOM     89  O   UNL A   1      33.828  33.717  29.769  1.00  0.00    -0.237 OA
ATOM     90  O   UNL A   1      35.005  34.043  27.629  1.00  0.00    -0.744 OA
ENDBRANCH  86  87
ENDBRANCH  54  79
BRANCH  66  91
ATOM     91  C   UNL A   1      42.832  29.328  33.546  1.00  0.00     0.058 A 
ATOM     92  C   UNL A   1      42.697  29.712  34.893  1.00  0.00     0.135 A 
ATOM     93  C   UNL A   1      42.561  27.987  33.237  1.00  0.00     0.135 A 
ATOM     94  F   UNL A   1      42.828  30.994  35.261  1.00  0.00    -0.206 F 
ATOM     95  C   UNL A   1      42.360  28.795  35.892  1.00  0.00     0.059 A 
ATOM     96  C   UNL A   1      42.192  27.062  34.212  1.00  0.00     0.059 A 
ATOM     97  F   UNL A   1      42.605  27.569  31.961  1.00  0.00    -0.206 F 
ATOM     98  C   UNL A   1      42.109  27.470  35.542  1.00  0.00     0.060 A 
BRANCH  98  99
ATOM     99  S   UNL A   1      41.611  26.302  36.826  1.00  0.00     0.124 S 
ATOM    100  O   UNL A   1      41.337  25.094  36.056  1.00  0.00    -0.237 OA
ATOM    101  O   UNL A   1      42.793  26.253  37.683  1.00  0.00    -0.237 OA
ATOM    102  O   UNL A   1      40.442  26.936  37.430  1.00  0.00    -0.744 OA
ENDBRANCH  98  99
ENDBRANCH  66  91
ENDBRANCH  40  41
ENDBRANCH  32  35
ENDBRANCH  30  31
ENDBRANCH  29  30
ENDBRANCH  28  29
ENDBRANCH   1  28
TORSDOF 19
ENDMDL
