MODEL 1
REMARK VINA RESULT:     -12.2      0.000      0.000
REMARK SMILES COc1ccc([C@@H]2[C@H](C(=O)NCCCCCCNC(=O)c3ccc(-c4c5nc(c(-c6c(F)cc(S(=O)(=O)[O-])cc6F)c6ccc([nH]6)c(-c6c(F)cc(S(=O)(=O)[O-])cc6F)c6nc(c(-c7c(F)cc(S(=O)(=O)[O-])cc7F)c7ccc4[nH]7)C=C6)C=C5)cc3)c3ccccc3C(=O)N2C2CC2)cc1
REMARK SMILES IDX 15 1 14 2 13 3 12 4 11 5 9 6 10 7 8 9 7 10 95 11 87 12 93 13
REMARK SMILES IDX 88 14 92 15 94 16 89 17 91 18 90 19 6 20 3 21 4 22 100 23
REMARK SMILES IDX 5 24 99 25 2 26 1 27 96 28 97 29 98 30 16 31 17 32 18 33
REMARK SMILES IDX 19 34 20 36 21 37 22 38 86 39 23 40 85 41 24 42 25 43 26 44
REMARK SMILES IDX 79 45 27 46 84 47 78 48 80 49 28 50 83 51 77 52 76 53 29 55
REMARK SMILES IDX 63 56 42 57 62 58 43 59 46 60 61 61 81 62 44 63 45 64 60 66
REMARK SMILES IDX 82 67 47 68 30 69 31 70 40 71 32 72 33 73 39 74 41 75 34 76
REMARK SMILES IDX 35 77 36 78 37 79 38 80 64 81 65 82 74 83 66 84 67 85 73 86
REMARK SMILES IDX 75 87 68 88 69 89 70 90 71 91 72 92 48 93 49 94 58 95 50 96
REMARK SMILES IDX 51 97 57 98 59 99 52 100 53 101 54 102 55 103 56 104
REMARK H PARENT 11 8 18 35 80 54 46 65
REMARK Flexibility Score: inf
ROOT
ATOM      1  C   UNL A   1      33.281  28.728  24.625  1.00  0.00     0.002 C 
ENDROOT
BRANCH   1   2
ATOM      2  C   UNL A   1      32.472  28.171  23.446  1.00  0.00     0.002 C 
BRANCH   2   3
ATOM      3  C   UNL A   1      33.179  27.094  22.605  1.00  0.00     0.021 C 
BRANCH   3   4
ATOM      4  C   UNL A   1      33.615  25.866  23.405  1.00  0.00     0.116 C 
BRANCH   4   5
ATOM      5  N   UNL A   1      33.743  24.721  22.544  1.00  0.00    -0.355 N 
ATOM      6  C   UNL A   1      33.101  23.538  22.433  1.00  0.00     0.230 C 
ATOM      7  O   UNL A   1      33.593  22.857  21.527  1.00  0.00    -0.274 OA
ATOM      8  H   UNL A   1      34.467  24.823  21.883  1.00  0.00     0.163 HD
BRANCH   6   9
ATOM      9  C   UNL A   1      31.835  23.109  23.214  1.00  0.00     0.136 C 
ATOM     10  C   UNL A   1      32.187  22.041  24.310  1.00  0.00     0.133 C 
ATOM     11  N   UNL A   1      32.835  22.662  25.483  1.00  0.00    -0.327 N 
ATOM     12  C   UNL A   1      31.043  24.215  23.957  1.00  0.00    -0.020 A 
ATOM     13  C   UNL A   1      31.972  23.477  26.224  1.00  0.00     0.254 C 
ATOM     14  C   UNL A   1      30.124  25.035  23.289  1.00  0.00     0.005 A 
ATOM     15  C   UNL A   1      31.126  24.373  25.367  1.00  0.00     0.044 A 
ATOM     16  O   UNL A   1      31.965  23.553  27.435  1.00  0.00    -0.269 OA
ATOM     17  C   UNL A   1      29.469  26.086  23.944  1.00  0.00     0.000 A 
ATOM     18  C   UNL A   1      30.440  25.403  26.027  1.00  0.00     0.014 A 
ATOM     19  C   UNL A   1      29.642  26.283  25.307  1.00  0.00     0.001 A 
BRANCH  10  20
ATOM     20  C   UNL A   1      32.601  20.626  23.888  1.00  0.00    -0.024 A 
ATOM     21  C   UNL A   1      33.134  17.881  23.457  1.00  0.00     0.118 A 
ATOM     22  C   UNL A   1      32.426  18.613  22.514  1.00  0.00     0.047 A 
ATOM     23  C   UNL A   1      33.698  18.527  24.549  1.00  0.00     0.047 A 
ATOM     24  C   UNL A   1      32.169  19.974  22.727  1.00  0.00     0.010 A 
ATOM     25  C   UNL A   1      33.427  19.882  24.763  1.00  0.00     0.010 A 
BRANCH  21  26
ATOM     26  O   UNL A   1      33.249  16.532  23.262  1.00  0.00    -0.497 OA
ATOM     27  C   UNL A   1      33.294  15.835  24.511  1.00  0.00     0.278 C 
ENDBRANCH  21  26
ENDBRANCH  10  20
BRANCH  11  28
ATOM     28  C   UNL A   1      34.231  23.079  25.439  1.00  0.00     0.086 C 
ATOM     29  C   UNL A   1      35.147  22.746  26.612  1.00  0.00     0.027 C 
ATOM     30  C   UNL A   1      35.404  22.142  25.272  1.00  0.00     0.027 C 
ENDBRANCH  11  28
ENDBRANCH   6   9
ENDBRANCH   4   5
ENDBRANCH   3   4
ENDBRANCH   2   3
ENDBRANCH   1   2
BRANCH   1  31
ATOM     31  C   UNL A   1      32.860  28.216  26.005  1.00  0.00     0.021 C 
BRANCH  31  32
ATOM     32  C   UNL A   1      33.837  28.550  27.128  1.00  0.00     0.116 C 
BRANCH  32  33
ATOM     33  N   UNL A   1      33.714  29.933  27.559  1.00  0.00    -0.352 N 
ATOM     34  C   UNL A   1      34.596  30.703  28.278  1.00  0.00     0.251 C 
ATOM     35  H   UNL A   1      32.877  30.383  27.299  1.00  0.00     0.163 HD
ATOM     36  O   UNL A   1      34.232  31.783  28.737  1.00  0.00    -0.269 OA
BRANCH  34  37
ATOM     37  C   UNL A   1      35.979  30.227  28.511  1.00  0.00     0.039 A 
ATOM     38  C   UNL A   1      36.911  30.309  27.473  1.00  0.00     0.014 A 
ATOM     39  C   UNL A   1      36.349  29.681  29.743  1.00  0.00     0.014 A 
ATOM     40  C   UNL A   1      38.230  29.896  27.688  1.00  0.00     0.010 A 
ATOM     41  C   UNL A   1      37.679  29.332  29.976  1.00  0.00     0.010 A 
ATOM     42  C   UNL A   1      38.631  29.431  28.950  1.00  0.00    -0.014 A 
BRANCH  42  43
ATOM     43  C   UNL A   1      40.035  29.025  29.223  1.00  0.00     0.031 A 
ATOM     44  C   UNL A   1      41.004  30.023  29.800  1.00  0.00     0.074 A 
ATOM     45  C   UNL A   1      40.460  27.791  28.881  1.00  0.00     0.049 A 
ATOM     46  N   UNL A   1      42.294  29.912  29.984  1.00  0.00    -0.248 NA
ATOM     47  C   UNL A   1      40.453  31.330  30.196  1.00  0.00     0.031 C 
ATOM     48  C   UNL A   1      39.627  26.743  28.285  1.00  0.00     0.029 A 
ATOM     49  N   UNL A   1      41.704  27.216  28.965  1.00  0.00    -0.354 N 
ATOM     50  C   UNL A   1      42.713  31.138  30.489  1.00  0.00     0.074 A 
ATOM     51  C   UNL A   1      41.546  31.991  30.548  1.00  0.00     0.031 C 
ATOM     52  C   UNL A   1      40.381  25.653  28.067  1.00  0.00     0.029 A 
ATOM     53  C   UNL A   1      41.756  25.935  28.468  1.00  0.00     0.049 A 
ATOM     54  H   UNL A   1      42.485  27.678  29.346  1.00  0.00     0.167 HD
ATOM     55  C   UNL A   1      43.953  31.512  30.885  1.00  0.00     0.037 A 
ATOM     56  C   UNL A   1      42.797  25.089  28.334  1.00  0.00     0.037 A 
ATOM     57  C   UNL A   1      45.102  30.644  30.866  1.00  0.00     0.049 A 
ATOM     58  C   UNL A   1      44.164  25.527  28.790  1.00  0.00     0.074 A 
ATOM     59  C   UNL A   1      46.388  30.912  31.302  1.00  0.00     0.029 A 
ATOM     60  N   UNL A   1      45.102  29.340  30.396  1.00  0.00    -0.354 N 
ATOM     61  N   UNL A   1      44.531  26.674  29.308  1.00  0.00    -0.248 NA
ATOM     62  C   UNL A   1      45.258  24.555  28.648  1.00  0.00     0.031 C 
ATOM     63  C   UNL A   1      47.175  29.783  31.062  1.00  0.00     0.029 A 
ATOM     64  C   UNL A   1      46.369  28.795  30.519  1.00  0.00     0.049 A 
ATOM     65  H   UNL A   1      44.318  28.872  30.028  1.00  0.00     0.167 HD
ATOM     66  C   UNL A   1      45.887  26.547  29.591  1.00  0.00     0.074 A 
ATOM     67  C   UNL A   1      46.276  25.212  29.186  1.00  0.00     0.031 C 
ATOM     68  C   UNL A   1      46.732  27.453  30.141  1.00  0.00     0.037 A 
BRANCH  55  69
ATOM     69  C   UNL A   1      44.139  32.919  31.380  1.00  0.00     0.058 A 
ATOM     70  C   UNL A   1      44.362  33.987  30.497  1.00  0.00     0.135 A 
ATOM     71  C   UNL A   1      44.031  33.213  32.749  1.00  0.00     0.135 A 
ATOM     72  F   UNL A   1      44.489  33.761  29.180  1.00  0.00    -0.206 F 
ATOM     73  C   UNL A   1      44.490  35.294  30.955  1.00  0.00     0.059 A 
ATOM     74  C   UNL A   1      44.130  34.516  33.227  1.00  0.00     0.059 A 
ATOM     75  F   UNL A   1      43.820  32.228  33.637  1.00  0.00    -0.206 F 
ATOM     76  C   UNL A   1      44.369  35.549  32.323  1.00  0.00     0.060 A 
BRANCH  76  77
ATOM     77  S   UNL A   1      44.514  37.254  32.898  1.00  0.00     0.124 S 
ATOM     78  O   UNL A   1      43.162  37.512  33.383  1.00  0.00    -0.237 OA
ATOM     79  O   UNL A   1      45.545  37.150  33.926  1.00  0.00    -0.237 OA
ATOM     80  O   UNL A   1      44.901  37.987  31.698  1.00  0.00    -0.744 OA
ENDBRANCH  76  77
ENDBRANCH  55  69
BRANCH  56  81
ATOM     81  C   UNL A   1      42.593  23.733  27.755  1.00  0.00     0.058 A 
ATOM     82  C   UNL A   1      42.405  22.618  28.584  1.00  0.00     0.135 A 
ATOM     83  C   UNL A   1      42.595  23.524  26.367  1.00  0.00     0.135 A 
ATOM     84  F   UNL A   1      42.402  22.766  29.918  1.00  0.00    -0.206 F 
ATOM     85  C   UNL A   1      42.256  21.337  28.061  1.00  0.00     0.059 A 
ATOM     86  C   UNL A   1      42.421  22.256  25.820  1.00  0.00     0.059 A 
ATOM     87  F   UNL A   1      42.751  24.561  25.530  1.00  0.00    -0.206 F 
ATOM     88  C   UNL A   1      42.268  21.166  26.676  1.00  0.00     0.060 A 
BRANCH  88  89
ATOM     89  S   UNL A   1      42.049  19.505  26.004  1.00  0.00     0.124 S 
ATOM     90  O   UNL A   1      42.907  19.551  24.825  1.00  0.00    -0.237 OA
ATOM     91  O   UNL A   1      42.514  18.664  27.102  1.00  0.00    -0.237 OA
ATOM     92  O   UNL A   1      40.615  19.438  25.740  1.00  0.00    -0.744 OA
ENDBRANCH  88  89
ENDBRANCH  56  81
BRANCH  68  93
ATOM     93  C   UNL A   1      48.147  27.021  30.401  1.00  0.00     0.058 A 
ATOM     94  C   UNL A   1      49.164  27.203  29.452  1.00  0.00     0.135 A 
ATOM     95  C   UNL A   1      48.503  26.488  31.652  1.00  0.00     0.135 A 
ATOM     96  F   UNL A   1      48.876  27.702  28.240  1.00  0.00    -0.206 F 
ATOM     97  C   UNL A   1      50.484  26.859  29.729  1.00  0.00     0.059 A 
ATOM     98  C   UNL A   1      49.819  26.160  31.959  1.00  0.00     0.059 A 
ATOM     99  F   UNL A   1      47.568  26.303  32.597  1.00  0.00    -0.206 F 
ATOM    100  C   UNL A   1      50.803  26.344  30.987  1.00  0.00     0.060 A 
BRANCH 100 101
ATOM    101  S   UNL A   1      52.526  25.954  31.353  1.00  0.00     0.124 S 
ATOM    102  O   UNL A   1      52.413  24.608  31.905  1.00  0.00    -0.237 OA
ATOM    103  O   UNL A   1      53.155  26.051  30.039  1.00  0.00    -0.237 OA
ATOM    104  O   UNL A   1      52.915  26.992  32.304  1.00  0.00    -0.744 OA
ENDBRANCH 100 101
ENDBRANCH  68  93
ENDBRANCH  42  43
ENDBRANCH  34  37
ENDBRANCH  32  33
ENDBRANCH  31  32
ENDBRANCH   1  31
TORSDOF 19
ENDMDL
MODEL 2
REMARK VINA RESULT:     -12.0      4.852     10.526
REMARK SMILES COc1ccc([C@@H]2[C@H](C(=O)NCCCCCCNC(=O)c3ccc(-c4c5nc(c(-c6c(F)cc(S(=O)(=O)[O-])cc6F)c6ccc([nH]6)c(-c6c(F)cc(S(=O)(=O)[O-])cc6F)c6nc(c(-c7c(F)cc(S(=O)(=O)[O-])cc7F)c7ccc4[nH]7)C=C6)C=C5)cc3)c3ccccc3C(=O)N2C2CC2)cc1
REMARK SMILES IDX 15 1 14 2 13 3 12 4 11 5 9 6 10 7 8 9 7 10 95 11 87 12 93 13
REMARK SMILES IDX 88 14 92 15 94 16 89 17 91 18 90 19 6 20 3 21 4 22 100 23
REMARK SMILES IDX 5 24 99 25 2 26 1 27 96 28 97 29 98 30 16 31 17 32 18 33
REMARK SMILES IDX 19 34 20 36 21 37 22 38 86 39 23 40 85 41 24 42 25 43 26 44
REMARK SMILES IDX 79 45 27 46 84 47 78 48 80 49 28 50 83 51 77 52 76 53 29 55
REMARK SMILES IDX 63 56 42 57 62 58 43 59 46 60 61 61 81 62 44 63 45 64 60 66
REMARK SMILES IDX 82 67 47 68 30 69 31 70 40 71 32 72 33 73 39 74 41 75 34 76
REMARK SMILES IDX 35 77 36 78 37 79 38 80 64 81 65 82 74 83 66 84 67 85 73 86
REMARK SMILES IDX 75 87 68 88 69 89 70 90 71 91 72 92 48 93 49 94 58 95 50 96
REMARK SMILES IDX 51 97 57 98 59 99 52 100 53 101 54 102 55 103 56 104
REMARK H PARENT 11 8 18 35 80 54 46 65
REMARK Flexibility Score: inf
ROOT
ATOM      1  C   UNL A   1      36.322  23.804  25.471  1.00  0.00     0.002 C 
ENDROOT
BRANCH   1   2
ATOM      2  C   UNL A   1      34.999  23.151  25.891  1.00  0.00     0.002 C 
BRANCH   2   3
ATOM      3  C   UNL A   1      33.919  24.113  26.414  1.00  0.00     0.021 C 
BRANCH   3   4
ATOM      4  C   UNL A   1      33.836  25.433  25.647  1.00  0.00     0.116 C 
BRANCH   4   5
ATOM      5  N   UNL A   1      32.663  26.169  26.034  1.00  0.00    -0.355 N 
ATOM      6  C   UNL A   1      31.436  26.354  25.499  1.00  0.00     0.230 C 
ATOM      7  O   UNL A   1      30.757  27.103  26.209  1.00  0.00    -0.274 OA
ATOM      8  H   UNL A   1      32.781  26.651  26.885  1.00  0.00     0.163 HD
BRANCH   6   9
ATOM      9  C   UNL A   1      30.869  25.639  24.247  1.00  0.00     0.136 C 
ATOM     10  C   UNL A   1      30.958  26.567  22.984  1.00  0.00     0.133 C 
ATOM     11  N   UNL A   1      32.335  26.635  22.456  1.00  0.00    -0.327 N 
ATOM     12  C   UNL A   1      31.531  24.303  23.824  1.00  0.00    -0.020 A 
ATOM     13  C   UNL A   1      32.770  25.431  21.890  1.00  0.00     0.254 C 
ATOM     14  C   UNL A   1      31.194  23.089  24.438  1.00  0.00     0.005 A 
ATOM     15  C   UNL A   1      32.422  24.230  22.720  1.00  0.00     0.044 A 
ATOM     16  O   UNL A   1      33.454  25.346  20.891  1.00  0.00    -0.269 OA
ATOM     17  C   UNL A   1      31.850  21.896  24.110  1.00  0.00     0.000 A 
ATOM     18  C   UNL A   1      33.052  23.026  22.369  1.00  0.00     0.014 A 
ATOM     19  C   UNL A   1      32.793  21.868  23.091  1.00  0.00     0.001 A 
BRANCH  10  20
ATOM     20  C   UNL A   1      30.057  27.804  22.883  1.00  0.00    -0.024 A 
ATOM     21  C   UNL A   1      28.398  30.012  22.266  1.00  0.00     0.118 A 
ATOM     22  C   UNL A   1      27.915  28.970  23.044  1.00  0.00     0.047 A 
ATOM     23  C   UNL A   1      29.738  30.036  21.902  1.00  0.00     0.047 A 
ATOM     24  C   UNL A   1      28.740  27.881  23.354  1.00  0.00     0.010 A 
ATOM     25  C   UNL A   1      30.553  28.940  22.202  1.00  0.00     0.010 A 
BRANCH  21  26
ATOM     26  O   UNL A   1      27.517  30.987  21.888  1.00  0.00    -0.497 OA
ATOM     27  C   UNL A   1      28.123  32.282  21.958  1.00  0.00     0.278 C 
ENDBRANCH  21  26
ENDBRANCH  10  20
BRANCH  11  28
ATOM     28  C   UNL A   1      33.356  27.437  23.118  1.00  0.00     0.086 C 
ATOM     29  C   UNL A   1      34.062  28.541  22.337  1.00  0.00     0.027 C 
ATOM     30  C   UNL A   1      33.195  28.890  23.501  1.00  0.00     0.027 C 
ENDBRANCH  11  28
ENDBRANCH   6   9
ENDBRANCH   4   5
ENDBRANCH   3   4
ENDBRANCH   2   3
ENDBRANCH   1   2
BRANCH   1  31
ATOM     31  C   UNL A   1      37.586  23.077  25.937  1.00  0.00     0.021 C 
BRANCH  31  32
ATOM     32  C   UNL A   1      38.554  23.941  26.739  1.00  0.00     0.116 C 
BRANCH  32  33
ATOM     33  N   UNL A   1      39.880  23.965  26.145  1.00  0.00    -0.352 N 
ATOM     34  C   UNL A   1      40.912  24.848  26.353  1.00  0.00     0.251 C 
ATOM     35  H   UNL A   1      40.066  23.244  25.499  1.00  0.00     0.163 HD
ATOM     36  O   UNL A   1      41.884  24.840  25.602  1.00  0.00    -0.269 OA
BRANCH  34  37
ATOM     37  C   UNL A   1      40.847  25.817  27.470  1.00  0.00     0.039 A 
ATOM     38  C   UNL A   1      41.845  26.789  27.586  1.00  0.00     0.014 A 
ATOM     39  C   UNL A   1      39.818  25.755  28.414  1.00  0.00     0.014 A 
ATOM     40  C   UNL A   1      41.779  27.734  28.615  1.00  0.00     0.010 A 
ATOM     41  C   UNL A   1      39.718  26.737  29.398  1.00  0.00     0.010 A 
ATOM     42  C   UNL A   1      40.699  27.734  29.512  1.00  0.00    -0.014 A 
BRANCH  42  43
ATOM     43  C   UNL A   1      40.578  28.750  30.590  1.00  0.00     0.031 A 
ATOM     44  C   UNL A   1      41.435  28.638  31.824  1.00  0.00     0.074 A 
ATOM     45  C   UNL A   1      39.646  29.721  30.501  1.00  0.00     0.049 A 
ATOM     46  N   UNL A   1      41.388  29.335  32.929  1.00  0.00    -0.248 NA
ATOM     47  C   UNL A   1      42.463  27.584  31.824  1.00  0.00     0.031 C 
ATOM     48  C   UNL A   1      38.733  29.918  29.372  1.00  0.00     0.029 A 
ATOM     49  N   UNL A   1      39.299  30.714  31.383  1.00  0.00    -0.354 N 
ATOM     50  C   UNL A   1      42.356  28.789  33.765  1.00  0.00     0.074 A 
ATOM     51  C   UNL A   1      42.950  27.679  33.052  1.00  0.00     0.031 C 
ATOM     52  C   UNL A   1      37.937  30.970  29.628  1.00  0.00     0.029 A 
ATOM     53  C   UNL A   1      38.255  31.498  30.951  1.00  0.00     0.049 A 
ATOM     54  H   UNL A   1      39.755  30.852  32.245  1.00  0.00     0.167 HD
ATOM     55  C   UNL A   1      42.728  29.188  35.003  1.00  0.00     0.037 A 
ATOM     56  C   UNL A   1      37.614  32.517  31.560  1.00  0.00     0.037 A 
ATOM     57  C   UNL A   1      42.164  30.322  35.690  1.00  0.00     0.049 A 
ATOM     58  C   UNL A   1      38.053  32.946  32.935  1.00  0.00     0.074 A 
ATOM     59  C   UNL A   1      42.516  30.841  36.923  1.00  0.00     0.029 A 
ATOM     60  N   UNL A   1      41.139  31.115  35.199  1.00  0.00    -0.354 N 
ATOM     61  N   UNL A   1      39.002  32.445  33.689  1.00  0.00    -0.248 NA
ATOM     62  C   UNL A   1      37.339  34.079  33.540  1.00  0.00     0.031 C 
ATOM     63  C   UNL A   1      41.680  31.927  37.195  1.00  0.00     0.029 A 
ATOM     64  C   UNL A   1      40.837  32.112  36.110  1.00  0.00     0.049 A 
ATOM     65  H   UNL A   1      40.692  30.988  34.331  1.00  0.00     0.167 HD
ATOM     66  C   UNL A   1      39.026  33.229  34.838  1.00  0.00     0.074 A 
ATOM     67  C   UNL A   1      37.997  34.235  34.681  1.00  0.00     0.031 C 
ATOM     68  C   UNL A   1      39.831  33.126  35.924  1.00  0.00     0.037 A 
BRANCH  55  69
ATOM     69  C   UNL A   1      43.801  28.401  35.704  1.00  0.00     0.058 A 
ATOM     70  C   UNL A   1      45.163  28.693  35.526  1.00  0.00     0.135 A 
ATOM     71  C   UNL A   1      43.462  27.385  36.612  1.00  0.00     0.135 A 
ATOM     72  F   UNL A   1      45.543  29.644  34.659  1.00  0.00    -0.206 F 
ATOM     73  C   UNL A   1      46.151  27.992  36.209  1.00  0.00     0.059 A 
ATOM     74  C   UNL A   1      44.433  26.689  37.326  1.00  0.00     0.059 A 
ATOM     75  F   UNL A   1      42.174  27.065  36.819  1.00  0.00    -0.206 F 
ATOM     76  C   UNL A   1      45.776  26.994  37.111  1.00  0.00     0.060 A 
BRANCH  76  77
ATOM     77  S   UNL A   1      47.070  26.111  38.007  1.00  0.00     0.124 S 
ATOM     78  O   UNL A   1      46.512  26.070  39.356  1.00  0.00    -0.237 OA
ATOM     79  O   UNL A   1      47.120  24.833  37.305  1.00  0.00    -0.237 OA
ATOM     80  O   UNL A   1      48.242  26.963  37.839  1.00  0.00    -0.744 OA
ENDBRANCH  76  77
ENDBRANCH  55  69
BRANCH  56  81
ATOM     81  C   UNL A   1      36.494  33.215  30.872  1.00  0.00     0.058 A 
ATOM     82  C   UNL A   1      36.739  34.080  29.795  1.00  0.00     0.135 A 
ATOM     83  C   UNL A   1      35.163  33.046  31.285  1.00  0.00     0.135 A 
ATOM     84  F   UNL A   1      37.995  34.279  29.367  1.00  0.00    -0.206 F 
ATOM     85  C   UNL A   1      35.708  34.774  29.169  1.00  0.00     0.059 A 
ATOM     86  C   UNL A   1      34.114  33.709  30.658  1.00  0.00     0.059 A 
ATOM     87  F   UNL A   1      34.874  32.215  32.299  1.00  0.00    -0.206 F 
ATOM     88  C   UNL A   1      34.399  34.585  29.610  1.00  0.00     0.060 A 
BRANCH  88  89
ATOM     89  S   UNL A   1      33.065  35.471  28.777  1.00  0.00     0.124 S 
ATOM     90  O   UNL A   1      32.299  35.979  29.909  1.00  0.00    -0.237 OA
ATOM     91  O   UNL A   1      33.795  36.467  27.999  1.00  0.00    -0.237 OA
ATOM     92  O   UNL A   1      32.412  34.429  27.990  1.00  0.00    -0.744 OA
ENDBRANCH  88  89
ENDBRANCH  56  81
BRANCH  68  93
ATOM     93  C   UNL A   1      39.684  34.161  37.004  1.00  0.00     0.058 A 
ATOM     94  C   UNL A   1      39.025  33.884  38.210  1.00  0.00     0.135 A 
ATOM     95  C   UNL A   1      40.282  35.424  36.856  1.00  0.00     0.135 A 
ATOM     96  F   UNL A   1      38.432  32.695  38.399  1.00  0.00    -0.206 F 
ATOM     97  C   UNL A   1      38.952  34.828  39.230  1.00  0.00     0.059 A 
ATOM     98  C   UNL A   1      40.243  36.374  37.870  1.00  0.00     0.059 A 
ATOM     99  F   UNL A   1      40.933  35.734  35.723  1.00  0.00    -0.206 F 
ATOM    100  C   UNL A   1      39.569  36.069  39.053  1.00  0.00     0.060 A 
BRANCH 100 101
ATOM    101  S   UNL A   1      39.515  37.265  40.404  1.00  0.00     0.124 S 
ATOM    102  O   UNL A   1      38.855  36.494  41.452  1.00  0.00    -0.237 OA
ATOM    103  O   UNL A   1      40.929  37.554  40.623  1.00  0.00    -0.237 OA
ATOM    104  O   UNL A   1      38.735  38.368  39.850  1.00  0.00    -0.744 OA
ENDBRANCH 100 101
ENDBRANCH  68  93
ENDBRANCH  42  43
ENDBRANCH  34  37
ENDBRANCH  32  33
ENDBRANCH  31  32
ENDBRANCH   1  31
TORSDOF 19
ENDMDL
MODEL 3
REMARK VINA RESULT:     -12.0      3.092      9.536
REMARK SMILES COc1ccc([C@@H]2[C@H](C(=O)NCCCCCCNC(=O)c3ccc(-c4c5nc(c(-c6c(F)cc(S(=O)(=O)[O-])cc6F)c6ccc([nH]6)c(-c6c(F)cc(S(=O)(=O)[O-])cc6F)c6nc(c(-c7c(F)cc(S(=O)(=O)[O-])cc7F)c7ccc4[nH]7)C=C6)C=C5)cc3)c3ccccc3C(=O)N2C2CC2)cc1
REMARK SMILES IDX 15 1 14 2 13 3 12 4 11 5 9 6 10 7 8 9 7 10 95 11 87 12 93 13
REMARK SMILES IDX 88 14 92 15 94 16 89 17 91 18 90 19 6 20 3 21 4 22 100 23
REMARK SMILES IDX 5 24 99 25 2 26 1 27 96 28 97 29 98 30 16 31 17 32 18 33
REMARK SMILES IDX 19 34 20 36 21 37 22 38 86 39 23 40 85 41 24 42 25 43 26 44
REMARK SMILES IDX 79 45 27 46 84 47 78 48 80 49 28 50 83 51 77 52 76 53 29 55
REMARK SMILES IDX 63 56 42 57 62 58 43 59 46 60 61 61 81 62 44 63 45 64 60 66
REMARK SMILES IDX 82 67 47 68 30 69 31 70 40 71 32 72 33 73 39 74 41 75 34 76
REMARK SMILES IDX 35 77 36 78 37 79 38 80 64 81 65 82 74 83 66 84 67 85 73 86
REMARK SMILES IDX 75 87 68 88 69 89 70 90 71 91 72 92 48 93 49 94 58 95 50 96
REMARK SMILES IDX 51 97 57 98 59 99 52 100 53 101 54 102 55 103 56 104
REMARK H PARENT 11 8 18 35 80 54 46 65
REMARK Flexibility Score: inf
ROOT
ATOM      1  C   UNL A   1      35.131  22.147  25.852  1.00  0.00     0.002 C 
ENDROOT
BRANCH   1   2
ATOM      2  C   UNL A   1      33.868  22.488  26.654  1.00  0.00     0.002 C 
BRANCH   2   3
ATOM      3  C   UNL A   1      33.395  23.948  26.560  1.00  0.00     0.021 C 
BRANCH   3   4
ATOM      4  C   UNL A   1      31.880  24.122  26.686  1.00  0.00     0.116 C 
BRANCH   4   5
ATOM      5  N   UNL A   1      31.511  25.496  26.477  1.00  0.00    -0.355 N 
ATOM      6  C   UNL A   1      31.062  26.210  25.422  1.00  0.00     0.230 C 
ATOM      7  O   UNL A   1      30.894  27.394  25.734  1.00  0.00    -0.274 OA
ATOM      8  H   UNL A   1      31.608  26.043  27.290  1.00  0.00     0.163 HD
BRANCH   6   9
ATOM      9  C   UNL A   1      30.666  25.642  24.036  1.00  0.00     0.136 C 
ATOM     10  C   UNL A   1      30.892  26.710  22.908  1.00  0.00     0.133 C 
ATOM     11  N   UNL A   1      32.323  26.844  22.567  1.00  0.00    -0.327 N 
ATOM     12  C   UNL A   1      31.400  24.367  23.549  1.00  0.00    -0.020 A 
ATOM     13  C   UNL A   1      32.846  25.716  21.926  1.00  0.00     0.254 C 
ATOM     14  C   UNL A   1      31.013  23.089  23.974  1.00  0.00     0.005 A 
ATOM     15  C   UNL A   1      32.422  24.425  22.563  1.00  0.00     0.044 A 
ATOM     16  O   UNL A   1      33.649  25.750  21.017  1.00  0.00    -0.269 OA
ATOM     17  C   UNL A   1      31.726  21.945  23.597  1.00  0.00     0.000 A 
ATOM     18  C   UNL A   1      33.112  23.273  22.159  1.00  0.00     0.014 A 
ATOM     19  C   UNL A   1      32.787  22.038  22.706  1.00  0.00     0.001 A 
BRANCH  10  20
ATOM     20  C   UNL A   1      29.988  27.946  22.838  1.00  0.00    -0.024 A 
ATOM     21  C   UNL A   1      28.335  30.173  22.274  1.00  0.00     0.118 A 
ATOM     22  C   UNL A   1      27.836  29.095  22.992  1.00  0.00     0.047 A 
ATOM     23  C   UNL A   1      29.684  30.219  21.949  1.00  0.00     0.047 A 
ATOM     24  C   UNL A   1      28.658  27.997  23.275  1.00  0.00     0.010 A 
ATOM     25  C   UNL A   1      30.497  29.114  22.222  1.00  0.00     0.010 A 
BRANCH  21  26
ATOM     26  O   UNL A   1      27.459  31.160  21.916  1.00  0.00    -0.497 OA
ATOM     27  C   UNL A   1      28.052  32.454  22.071  1.00  0.00     0.278 C 
ENDBRANCH  21  26
ENDBRANCH  10  20
BRANCH  11  28
ATOM     28  C   UNL A   1      33.239  27.569  23.438  1.00  0.00     0.086 C 
ATOM     29  C   UNL A   1      34.132  28.655  22.845  1.00  0.00     0.027 C 
ATOM     30  C   UNL A   1      33.081  29.017  23.841  1.00  0.00     0.027 C 
ENDBRANCH  11  28
ENDBRANCH   6   9
ENDBRANCH   4   5
ENDBRANCH   3   4
ENDBRANCH   2   3
ENDBRANCH   1   2
BRANCH   1  31
ATOM     31  C   UNL A   1      35.574  23.215  24.848  1.00  0.00     0.021 C 
BRANCH  31  32
ATOM     32  C   UNL A   1      36.936  23.835  25.145  1.00  0.00     0.116 C 
BRANCH  32  33
ATOM     33  N   UNL A   1      37.949  22.823  25.397  1.00  0.00    -0.352 N 
ATOM     34  C   UNL A   1      39.168  22.947  26.017  1.00  0.00     0.251 C 
ATOM     35  H   UNL A   1      37.729  21.917  25.077  1.00  0.00     0.163 HD
ATOM     36  O   UNL A   1      39.985  22.032  25.948  1.00  0.00    -0.269 OA
BRANCH  34  37
ATOM     37  C   UNL A   1      39.505  24.187  26.754  1.00  0.00     0.039 A 
ATOM     38  C   UNL A   1      39.000  24.369  28.044  1.00  0.00     0.014 A 
ATOM     39  C   UNL A   1      40.297  25.176  26.166  1.00  0.00     0.014 A 
ATOM     40  C   UNL A   1      39.337  25.518  28.767  1.00  0.00     0.010 A 
ATOM     41  C   UNL A   1      40.686  26.288  26.911  1.00  0.00     0.010 A 
ATOM     42  C   UNL A   1      40.206  26.473  28.217  1.00  0.00    -0.014 A 
BRANCH  42  43
ATOM     43  C   UNL A   1      40.618  27.684  28.975  1.00  0.00     0.031 A 
ATOM     44  C   UNL A   1      41.938  27.700  29.701  1.00  0.00     0.074 A 
ATOM     45  C   UNL A   1      39.778  28.734  29.079  1.00  0.00     0.049 A 
ATOM     46  N   UNL A   1      42.419  28.596  30.523  1.00  0.00    -0.248 NA
ATOM     47  C   UNL A   1      42.821  26.540  29.496  1.00  0.00     0.031 C 
ATOM     48  C   UNL A   1      38.458  28.829  28.450  1.00  0.00     0.029 A 
ATOM     49  N   UNL A   1      39.899  29.914  29.770  1.00  0.00    -0.354 N 
ATOM     50  C   UNL A   1      43.644  28.098  30.954  1.00  0.00     0.074 A 
ATOM     51  C   UNL A   1      43.815  26.804  30.331  1.00  0.00     0.031 C 
ATOM     52  C   UNL A   1      37.898  30.005  28.777  1.00  0.00     0.029 A 
ATOM     53  C   UNL A   1      38.797  30.731  29.669  1.00  0.00     0.049 A 
ATOM     54  H   UNL A   1      40.700  30.154  30.290  1.00  0.00     0.167 HD
ATOM     55  C   UNL A   1      44.549  28.675  31.779  1.00  0.00     0.037 A 
ATOM     56  C   UNL A   1      38.533  31.922  30.243  1.00  0.00     0.037 A 
ATOM     57  C   UNL A   1      44.393  29.983  32.360  1.00  0.00     0.049 A 
ATOM     58  C   UNL A   1      39.561  32.545  31.150  1.00  0.00     0.074 A 
ATOM     59  C   UNL A   1      45.282  30.678  33.161  1.00  0.00     0.029 A 
ATOM     60  N   UNL A   1      43.281  30.795  32.197  1.00  0.00    -0.354 N 
ATOM     61  N   UNL A   1      40.733  32.079  31.508  1.00  0.00    -0.248 NA
ATOM     62  C   UNL A   1      39.235  33.857  31.727  1.00  0.00     0.031 C 
ATOM     63  C   UNL A   1      44.693  31.896  33.512  1.00  0.00     0.029 A 
ATOM     64  C   UNL A   1      43.456  31.979  32.892  1.00  0.00     0.049 A 
ATOM     65  H   UNL A   1      42.485  30.563  31.666  1.00  0.00     0.167 HD
ATOM     66  C   UNL A   1      41.300  33.059  32.317  1.00  0.00     0.074 A 
ATOM     67  C   UNL A   1      40.343  34.142  32.397  1.00  0.00     0.031 C 
ATOM     68  C   UNL A   1      42.507  33.061  32.935  1.00  0.00     0.037 A 
BRANCH  55  69
ATOM     69  C   UNL A   1      45.798  27.904  32.102  1.00  0.00     0.058 A 
ATOM     70  C   UNL A   1      45.859  27.021  33.192  1.00  0.00     0.135 A 
ATOM     71  C   UNL A   1      46.929  28.000  31.275  1.00  0.00     0.135 A 
ATOM     72  F   UNL A   1      44.812  26.902  34.024  1.00  0.00    -0.206 F 
ATOM     73  C   UNL A   1      47.002  26.277  33.462  1.00  0.00     0.059 A 
ATOM     74  C   UNL A   1      48.074  27.245  31.511  1.00  0.00     0.059 A 
ATOM     75  F   UNL A   1      46.926  28.830  30.219  1.00  0.00    -0.206 F 
ATOM     76  C   UNL A   1      48.104  26.392  32.613  1.00  0.00     0.060 A 
BRANCH  76  77
ATOM     77  S   UNL A   1      49.571  25.400  32.963  1.00  0.00     0.124 S 
ATOM     78  O   UNL A   1      49.005  24.319  33.763  1.00  0.00    -0.237 OA
ATOM     79  O   UNL A   1      50.023  25.028  31.626  1.00  0.00    -0.237 OA
ATOM     80  O   UNL A   1      50.442  26.323  33.683  1.00  0.00    -0.744 OA
ENDBRANCH  76  77
ENDBRANCH  55  69
BRANCH  56  81
ATOM     81  C   UNL A   1      37.245  32.616  29.972  1.00  0.00     0.058 A 
ATOM     82  C   UNL A   1      37.181  33.685  29.066  1.00  0.00     0.135 A 
ATOM     83  C   UNL A   1      36.060  32.237  30.620  1.00  0.00     0.135 A 
ATOM     84  F   UNL A   1      38.289  34.089  28.425  1.00  0.00    -0.206 F 
ATOM     85  C   UNL A   1      35.995  34.374  28.832  1.00  0.00     0.059 A 
ATOM     86  C   UNL A   1      34.856  32.893  30.384  1.00  0.00     0.059 A 
ATOM     87  F   UNL A   1      36.063  31.208  31.482  1.00  0.00    -0.206 F 
ATOM     88  C   UNL A   1      34.837  33.972  29.499  1.00  0.00     0.060 A 
BRANCH  88  89
ATOM     89  S   UNL A   1      33.296  34.855  29.174  1.00  0.00     0.124 S 
ATOM     90  O   UNL A   1      32.700  34.903  30.504  1.00  0.00    -0.237 OA
ATOM     91  O   UNL A   1      33.776  36.126  28.640  1.00  0.00    -0.237 OA
ATOM     92  O   UNL A   1      32.617  33.995  28.207  1.00  0.00    -0.744 OA
ENDBRANCH  88  89
ENDBRANCH  56  81
BRANCH  68  93
ATOM     93  C   UNL A   1      42.897  34.294  33.701  1.00  0.00     0.058 A 
ATOM     94  C   UNL A   1      42.685  34.406  35.083  1.00  0.00     0.135 A 
ATOM     95  C   UNL A   1      43.565  35.346  33.050  1.00  0.00     0.135 A 
ATOM     96  F   UNL A   1      42.047  33.432  35.750  1.00  0.00    -0.206 F 
ATOM     97  C   UNL A   1      43.111  35.524  35.793  1.00  0.00     0.059 A 
ATOM     98  C   UNL A   1      44.020  36.461  33.744  1.00  0.00     0.059 A 
ATOM     99  F   UNL A   1      43.799  35.282  31.730  1.00  0.00    -0.206 F 
ATOM    100  C   UNL A   1      43.782  36.545  35.116  1.00  0.00     0.060 A 
BRANCH 100 101
ATOM    101  S   UNL A   1      44.378  37.965  36.058  1.00  0.00     0.124 S 
ATOM    102  O   UNL A   1      45.793  37.645  36.209  1.00  0.00    -0.237 OA
ATOM    103  O   UNL A   1      44.070  39.081  35.169  1.00  0.00    -0.237 OA
ATOM    104  O   UNL A   1      43.588  37.914  37.285  1.00  0.00    -0.744 OA
ENDBRANCH 100 101
ENDBRANCH  68  93
ENDBRANCH  42  43
ENDBRANCH  34  37
ENDBRANCH  32  33
ENDBRANCH  31  32
ENDBRANCH   1  31
TORSDOF 19
ENDMDL
