MODEL 1
REMARK VINA RESULT:     -12.0      0.000      0.000
REMARK SMILES O=C(COc1ccc(NC(=O)c2ccc(Br)cc2)cc1-c1nc2ccccc2o1)NCCCCCCNC(=O)c1ccc(-c2c3nc(c(-c4c(F)cc(S(=O)(=O)[O-])cc4F)c4ccc([nH]4)c(-c4c(F)cc(S(=O)(=O)[O-])cc4F)c4nc(c(-c5c(F)cc(S(=O)(=O)[O-])cc5F)c5ccc2[nH]5)C=C4)C=C3)cc1
REMARK SMILES IDX 33 1 32 2 31 3 30 4 1 5 2 6 3 8 4 9 5 10 6 11 20 12 7 13
REMARK SMILES IDX 19 14 8 15 21 16 22 17 29 18 23 19 28 20 24 21 27 22 25 23
REMARK SMILES IDX 26 24 9 25 10 26 11 28 12 29 13 30 18 31 14 32 17 33 15 34
REMARK SMILES IDX 16 35 34 36 35 37 36 38 37 39 38 40 39 42 40 43 41 44 105 45
REMARK SMILES IDX 42 46 104 47 43 48 44 49 45 50 98 51 46 52 103 53 97 54
REMARK SMILES IDX 99 55 47 56 102 57 96 58 95 59 48 61 82 62 61 63 81 64 62 65
REMARK SMILES IDX 65 66 80 67 100 68 63 69 64 70 79 72 101 73 66 74 49 75
REMARK SMILES IDX 50 76 59 77 51 78 52 79 58 80 60 81 53 82 54 83 55 84 56 85
REMARK SMILES IDX 57 86 83 87 84 88 93 89 85 90 86 91 92 92 94 93 87 94 88 95
REMARK SMILES IDX 89 96 90 97 91 98 67 99 68 100 77 101 69 102 70 103 76 104
REMARK SMILES IDX 78 105 71 106 72 107 73 108 74 109 75 110
REMARK H PARENT 30 7 9 27 37 41 99 60 65 71
REMARK Flexibility Score: inf
ROOT
ATOM      1  C   UNL A   1      35.283  32.298  28.809  1.00  0.00     0.002 C 
ENDROOT
BRANCH   1   2
ATOM      2  C   UNL A   1      35.725  31.387  27.668  1.00  0.00     0.021 C 
BRANCH   2   3
ATOM      3  C   UNL A   1      35.456  29.929  27.960  1.00  0.00     0.116 C 
BRANCH   3   4
ATOM      4  N   UNL A   1      34.052  29.591  27.962  1.00  0.00    -0.353 N 
ATOM      5  O   UNL A   1      33.282  30.047  25.833  1.00  0.00    -0.271 OA
ATOM      6  C   UNL A   1      33.446  29.256  26.753  1.00  0.00     0.257 C 
ATOM      7  H   UNL A   1      33.534  29.598  28.799  1.00  0.00     0.163 HD
BRANCH   6   8
ATOM      8  C   UNL A   1      33.041  27.779  26.705  1.00  0.00     0.329 C 
BRANCH   8   9
ATOM      9  O   UNL A   1      31.725  27.819  26.141  1.00  0.00    -0.483 OA
BRANCH   9  10
ATOM     10  C   UNL A   1      31.279  26.746  25.434  1.00  0.00     0.132 A 
ATOM     11  C   UNL A   1      31.715  25.556  26.001  1.00  0.00     0.049 A 
ATOM     12  C   UNL A   1      30.788  26.798  24.109  1.00  0.00     0.081 A 
ATOM     13  C   UNL A   1      31.688  24.390  25.262  1.00  0.00     0.030 A 
ATOM     14  C   UNL A   1      30.752  25.587  23.381  1.00  0.00     0.043 A 
ATOM     15  C   UNL A   1      31.174  24.375  23.967  1.00  0.00     0.042 A 
BRANCH  12  16
ATOM     16  C   UNL A   1      30.355  28.073  23.522  1.00  0.00     0.231 A 
ATOM     17  N   UNL A   1      29.901  28.268  22.300  1.00  0.00    -0.209 NA
ATOM     18  O   UNL A   1      30.306  29.197  24.321  1.00  0.00    -0.436 OA
ATOM     19  C   UNL A   1      29.371  29.525  22.323  1.00  0.00     0.110 A 
ATOM     20  C   UNL A   1      29.638  30.120  23.545  1.00  0.00     0.155 A 
ATOM     21  C   UNL A   1      28.577  30.189  21.379  1.00  0.00     0.032 A 
ATOM     22  C   UNL A   1      29.214  31.402  23.883  1.00  0.00     0.049 A 
ATOM     23  C   UNL A   1      28.080  31.454  21.709  1.00  0.00     0.003 A 
ATOM     24  C   UNL A   1      28.411  32.056  22.930  1.00  0.00     0.004 A 
ENDBRANCH  12  16
BRANCH  15  25
ATOM     25  N   UNL A   1      31.129  23.184  23.210  1.00  0.00    -0.322 N 
ATOM     26  C   UNL A   1      32.159  22.354  22.795  1.00  0.00     0.255 C 
ATOM     27  H   UNL A   1      30.227  22.898  22.936  1.00  0.00     0.170 HD
ATOM     28  O   UNL A   1      31.988  21.551  21.881  1.00  0.00    -0.269 OA
BRANCH  26  29
ATOM     29  C   UNL A   1      33.472  22.362  23.490  1.00  0.00     0.040 A 
ATOM     30  C   UNL A   1      33.713  21.439  24.516  1.00  0.00     0.015 A 
ATOM     31  C   UNL A   1      34.484  23.249  23.093  1.00  0.00     0.015 A 
ATOM     32  C   UNL A   1      34.985  21.354  25.090  1.00  0.00     0.016 A 
ATOM     33  C   UNL A   1      35.755  23.156  23.662  1.00  0.00     0.016 A 
ATOM     34  C   UNL A   1      36.003  22.202  24.649  1.00  0.00     0.018 A 
ATOM     35  Br  UNL A   1      37.740  22.046  25.381  1.00  0.00    -0.051 Br
ENDBRANCH  26  29
ENDBRANCH  15  25
ENDBRANCH   9  10
ENDBRANCH   8   9
ENDBRANCH   6   8
ENDBRANCH   3   4
ENDBRANCH   2   3
ENDBRANCH   1   2
BRANCH   1  36
ATOM     36  C   UNL A   1      35.716  33.762  28.659  1.00  0.00     0.002 C 
BRANCH  36  37
ATOM     37  C   UNL A   1      34.571  34.766  28.500  1.00  0.00     0.021 C 
BRANCH  37  38
ATOM     38  C   UNL A   1      33.248  34.317  29.115  1.00  0.00     0.116 C 
BRANCH  38  39
ATOM     39  N   UNL A   1      32.781  35.249  30.132  1.00  0.00    -0.352 N 
ATOM     40  C   UNL A   1      33.170  35.391  31.432  1.00  0.00     0.251 C 
ATOM     41  H   UNL A   1      32.077  35.871  29.836  1.00  0.00     0.163 HD
ATOM     42  O   UNL A   1      32.510  36.095  32.200  1.00  0.00    -0.269 OA
BRANCH  40  43
ATOM     43  C   UNL A   1      34.374  34.695  31.911  1.00  0.00     0.039 A 
ATOM     44  C   UNL A   1      34.259  33.380  32.361  1.00  0.00     0.014 A 
ATOM     45  C   UNL A   1      35.610  35.351  31.931  1.00  0.00     0.014 A 
ATOM     46  C   UNL A   1      35.395  32.704  32.798  1.00  0.00     0.010 A 
ATOM     47  C   UNL A   1      36.753  34.653  32.300  1.00  0.00     0.010 A 
ATOM     48  C   UNL A   1      36.652  33.330  32.751  1.00  0.00    -0.014 A 
BRANCH  48  49
ATOM     49  C   UNL A   1      37.872  32.615  33.192  1.00  0.00     0.031 A 
ATOM     50  C   UNL A   1      38.521  32.973  34.499  1.00  0.00     0.074 A 
ATOM     51  C   UNL A   1      38.415  31.681  32.388  1.00  0.00     0.049 A 
ATOM     52  N   UNL A   1      39.597  32.475  35.050  1.00  0.00    -0.248 NA
ATOM     53  C   UNL A   1      37.894  34.054  35.276  1.00  0.00     0.031 C 
ATOM     54  C   UNL A   1      37.895  31.290  31.075  1.00  0.00     0.029 A 
ATOM     55  N   UNL A   1      39.520  30.889  32.557  1.00  0.00    -0.354 N 
ATOM     56  C   UNL A   1      39.788  33.192  36.224  1.00  0.00     0.074 A 
ATOM     57  C   UNL A   1      38.745  34.194  36.282  1.00  0.00     0.031 C 
ATOM     58  C   UNL A   1      38.660  30.307  30.576  1.00  0.00     0.029 A 
ATOM     59  C   UNL A   1      39.738  30.020  31.516  1.00  0.00     0.049 A 
ATOM     60  H   UNL A   1      40.103  30.939  33.350  1.00  0.00     0.167 HD
ATOM     61  C   UNL A   1      40.733  33.016  37.178  1.00  0.00     0.037 A 
ATOM     62  C   UNL A   1      40.697  29.090  31.348  1.00  0.00     0.037 A 
ATOM     63  C   UNL A   1      41.744  31.993  37.122  1.00  0.00     0.049 A 
ATOM     64  C   UNL A   1      41.726  28.901  32.427  1.00  0.00     0.074 A 
ATOM     65  C   UNL A   1      42.701  31.675  38.069  1.00  0.00     0.029 A 
ATOM     66  N   UNL A   1      41.933  31.126  36.055  1.00  0.00    -0.354 N 
ATOM     67  N   UNL A   1      41.849  29.536  33.570  1.00  0.00    -0.248 NA
ATOM     68  C   UNL A   1      42.743  27.868  32.198  1.00  0.00     0.031 C 
ATOM     69  C   UNL A   1      43.495  30.642  37.556  1.00  0.00     0.029 A 
ATOM     70  C   UNL A   1      43.005  30.288  36.308  1.00  0.00     0.049 A 
ATOM     71  H   UNL A   1      41.384  31.110  35.238  1.00  0.00     0.167 HD
ATOM     72  C   UNL A   1      42.940  28.960  34.208  1.00  0.00     0.074 A 
ATOM     73  C   UNL A   1      43.436  27.921  33.328  1.00  0.00     0.031 C 
ATOM     74  C   UNL A   1      43.482  29.261  35.416  1.00  0.00     0.037 A 
BRANCH  61  75
ATOM     75  C   UNL A   1      40.714  33.956  38.353  1.00  0.00     0.058 A 
ATOM     76  C   UNL A   1      41.504  35.118  38.384  1.00  0.00     0.135 A 
ATOM     77  C   UNL A   1      39.900  33.690  39.464  1.00  0.00     0.135 A 
ATOM     78  F   UNL A   1      42.313  35.413  37.355  1.00  0.00    -0.206 F 
ATOM     79  C   UNL A   1      41.519  35.958  39.493  1.00  0.00     0.059 A 
ATOM     80  C   UNL A   1      39.877  34.532  40.572  1.00  0.00     0.059 A 
ATOM     81  F   UNL A   1      39.124  32.594  39.489  1.00  0.00    -0.206 F 
ATOM     82  C   UNL A   1      40.707  35.653  40.587  1.00  0.00     0.060 A 
BRANCH  82  83
ATOM     83  S   UNL A   1      40.754  36.737  42.029  1.00  0.00     0.124 S 
ATOM     84  O   UNL A   1      41.105  38.015  41.418  1.00  0.00    -0.237 OA
ATOM     85  O   UNL A   1      39.392  36.634  42.543  1.00  0.00    -0.237 OA
ATOM     86  O   UNL A   1      41.786  36.139  42.870  1.00  0.00    -0.744 OA
ENDBRANCH  82  83
ENDBRANCH  61  75
BRANCH  62  87
ATOM     87  C   UNL A   1      40.690  28.233  30.134  1.00  0.00     0.058 A 
ATOM     88  C   UNL A   1      41.615  28.448  29.103  1.00  0.00     0.135 A 
ATOM     89  C   UNL A   1      39.788  27.167  29.994  1.00  0.00     0.135 A 
ATOM     90  F   UNL A   1      42.496  29.457  29.192  1.00  0.00    -0.206 F 
ATOM     91  C   UNL A   1      41.644  27.643  27.968  1.00  0.00     0.059 A 
ATOM     92  C   UNL A   1      39.810  26.335  28.878  1.00  0.00     0.059 A 
ATOM     93  F   UNL A   1      38.895  26.908  30.961  1.00  0.00    -0.206 F 
ATOM     94  C   UNL A   1      40.737  26.587  27.867  1.00  0.00     0.060 A 
BRANCH  94  95
ATOM     95  S   UNL A   1      40.823  25.512  26.418  1.00  0.00     0.124 S 
ATOM     96  O   UNL A   1      41.276  26.441  25.390  1.00  0.00    -0.237 OA
ATOM     97  O   UNL A   1      41.789  24.503  26.840  1.00  0.00    -0.237 OA
ATOM     98  O   UNL A   1      39.451  25.033  26.276  1.00  0.00    -0.744 OA
ENDBRANCH  94  95
ENDBRANCH  62  87
BRANCH  74  99
ATOM     99  C   UNL A   1      44.656  28.435  35.860  1.00  0.00     0.058 A 
ATOM    100  C   UNL A   1      45.973  28.791  35.533  1.00  0.00     0.135 A 
ATOM    101  C   UNL A   1      44.462  27.292  36.651  1.00  0.00     0.135 A 
ATOM    102  F   UNL A   1      46.213  29.872  34.773  1.00  0.00    -0.206 F 
ATOM    103  C   UNL A   1      47.056  28.024  35.948  1.00  0.00     0.059 A 
ATOM    104  C   UNL A   1      45.531  26.525  37.101  1.00  0.00     0.059 A 
ATOM    105  F   UNL A   1      43.222  26.915  37.003  1.00  0.00    -0.206 F 
ATOM    106  C   UNL A   1      46.825  26.891  36.730  1.00  0.00     0.060 A 
BRANCH 106 107
ATOM    107  S   UNL A   1      48.239  25.912  37.279  1.00  0.00     0.124 S 
ATOM    108  O   UNL A   1      49.348  26.818  36.999  1.00  0.00    -0.237 OA
ATOM    109  O   UNL A   1      47.940  25.693  38.691  1.00  0.00    -0.237 OA
ATOM    110  O   UNL A   1      48.172  24.720  36.439  1.00  0.00    -0.744 OA
ENDBRANCH 106 107
ENDBRANCH  74  99
ENDBRANCH  48  49
ENDBRANCH  40  43
ENDBRANCH  38  39
ENDBRANCH  37  38
ENDBRANCH  36  37
ENDBRANCH   1  36
TORSDOF 21
ENDMDL
MODEL 2
REMARK VINA RESULT:     -11.5      5.903      7.904
REMARK SMILES O=C(COc1ccc(NC(=O)c2ccc(Br)cc2)cc1-c1nc2ccccc2o1)NCCCCCCNC(=O)c1ccc(-c2c3nc(c(-c4c(F)cc(S(=O)(=O)[O-])cc4F)c4ccc([nH]4)c(-c4c(F)cc(S(=O)(=O)[O-])cc4F)c4nc(c(-c5c(F)cc(S(=O)(=O)[O-])cc5F)c5ccc2[nH]5)C=C4)C=C3)cc1
REMARK SMILES IDX 33 1 32 2 31 3 30 4 1 5 2 6 3 8 4 9 5 10 6 11 20 12 7 13
REMARK SMILES IDX 19 14 8 15 21 16 22 17 29 18 23 19 28 20 24 21 27 22 25 23
REMARK SMILES IDX 26 24 9 25 10 26 11 28 12 29 13 30 18 31 14 32 17 33 15 34
REMARK SMILES IDX 16 35 34 36 35 37 36 38 37 39 38 40 39 42 40 43 41 44 105 45
REMARK SMILES IDX 42 46 104 47 43 48 44 49 45 50 98 51 46 52 103 53 97 54
REMARK SMILES IDX 99 55 47 56 102 57 96 58 95 59 48 61 82 62 61 63 81 64 62 65
REMARK SMILES IDX 65 66 80 67 100 68 63 69 64 70 79 72 101 73 66 74 49 75
REMARK SMILES IDX 50 76 59 77 51 78 52 79 58 80 60 81 53 82 54 83 55 84 56 85
REMARK SMILES IDX 57 86 83 87 84 88 93 89 85 90 86 91 92 92 94 93 87 94 88 95
REMARK SMILES IDX 89 96 90 97 91 98 67 99 68 100 77 101 69 102 70 103 76 104
REMARK SMILES IDX 78 105 71 106 72 107 73 108 74 109 75 110
REMARK H PARENT 30 7 9 27 37 41 99 60 65 71
REMARK Flexibility Score: inf
ROOT
ATOM      1  C   UNL A   1      36.523  29.934  27.784  1.00  0.00     0.002 C 
ENDROOT
BRANCH   1   2
ATOM      2  C   UNL A   1      35.272  30.806  27.786  1.00  0.00     0.021 C 
BRANCH   2   3
ATOM      3  C   UNL A   1      34.210  30.289  26.843  1.00  0.00     0.116 C 
BRANCH   3   4
ATOM      4  N   UNL A   1      33.191  29.503  27.498  1.00  0.00    -0.353 N 
ATOM      5  O   UNL A   1      31.413  29.409  26.027  1.00  0.00    -0.271 OA
ATOM      6  C   UNL A   1      32.254  28.838  26.710  1.00  0.00     0.257 C 
ATOM      7  H   UNL A   1      33.158  29.439  28.479  1.00  0.00     0.163 HD
BRANCH   6   8
ATOM      8  C   UNL A   1      32.424  27.317  26.779  1.00  0.00     0.329 C 
BRANCH   8   9
ATOM      9  O   UNL A   1      31.087  26.831  26.612  1.00  0.00    -0.483 OA
BRANCH   9  10
ATOM     10  C   UNL A   1      30.898  25.594  26.078  1.00  0.00     0.132 A 
ATOM     11  C   UNL A   1      31.505  24.615  26.853  1.00  0.00     0.049 A 
ATOM     12  C   UNL A   1      30.502  25.341  24.745  1.00  0.00     0.081 A 
ATOM     13  C   UNL A   1      31.746  23.365  26.320  1.00  0.00     0.030 A 
ATOM     14  C   UNL A   1      30.743  24.047  24.229  1.00  0.00     0.043 A 
ATOM     15  C   UNL A   1      31.338  23.048  25.026  1.00  0.00     0.042 A 
BRANCH  12  16
ATOM     16  C   UNL A   1      29.884  26.400  23.935  1.00  0.00     0.231 A 
ATOM     17  N   UNL A   1      28.597  26.662  23.823  1.00  0.00    -0.209 NA
ATOM     18  O   UNL A   1      30.696  27.304  23.281  1.00  0.00    -0.436 OA
ATOM     19  C   UNL A   1      28.543  27.880  23.212  1.00  0.00     0.110 A 
ATOM     20  C   UNL A   1      29.819  28.274  22.845  1.00  0.00     0.155 A 
ATOM     21  C   UNL A   1      27.459  28.746  23.017  1.00  0.00     0.032 A 
ATOM     22  C   UNL A   1      30.097  29.483  22.213  1.00  0.00     0.049 A 
ATOM     23  C   UNL A   1      27.710  29.996  22.441  1.00  0.00     0.003 A 
ATOM     24  C   UNL A   1      29.002  30.347  22.029  1.00  0.00     0.004 A 
ENDBRANCH  12  16
BRANCH  15  25
ATOM     25  N   UNL A   1      31.568  21.767  24.478  1.00  0.00    -0.322 N 
ATOM     26  C   UNL A   1      32.739  21.201  23.998  1.00  0.00     0.255 C 
ATOM     27  H   UNL A   1      30.774  21.185  24.431  1.00  0.00     0.170 HD
ATOM     28  O   UNL A   1      32.705  20.215  23.265  1.00  0.00    -0.269 OA
BRANCH  26  29
ATOM     29  C   UNL A   1      34.065  21.725  24.414  1.00  0.00     0.040 A 
ATOM     30  C   UNL A   1      34.673  22.736  23.658  1.00  0.00     0.015 A 
ATOM     31  C   UNL A   1      34.685  21.255  25.582  1.00  0.00     0.015 A 
ATOM     32  C   UNL A   1      35.859  23.325  24.109  1.00  0.00     0.016 A 
ATOM     33  C   UNL A   1      35.865  21.849  26.033  1.00  0.00     0.016 A 
ATOM     34  C   UNL A   1      36.439  22.888  25.302  1.00  0.00     0.018 A 
ATOM     35  Br  UNL A   1      38.009  23.726  25.944  1.00  0.00    -0.051 Br
ENDBRANCH  26  29
ENDBRANCH  15  25
ENDBRANCH   9  10
ENDBRANCH   8   9
ENDBRANCH   6   8
ENDBRANCH   3   4
ENDBRANCH   2   3
ENDBRANCH   1   2
BRANCH   1  36
ATOM     36  C   UNL A   1      36.988  29.485  29.175  1.00  0.00     0.002 C 
BRANCH  36  37
ATOM     37  C   UNL A   1      35.995  29.749  30.310  1.00  0.00     0.021 C 
BRANCH  37  38
ATOM     38  C   UNL A   1      36.624  29.819  31.698  1.00  0.00     0.116 C 
BRANCH  38  39
ATOM     39  N   UNL A   1      36.878  31.192  32.109  1.00  0.00    -0.352 N 
ATOM     40  C   UNL A   1      38.056  31.876  32.197  1.00  0.00     0.251 C 
ATOM     41  H   UNL A   1      36.077  31.706  32.363  1.00  0.00     0.163 HD
ATOM     42  O   UNL A   1      38.094  32.967  32.768  1.00  0.00    -0.269 OA
BRANCH  40  43
ATOM     43  C   UNL A   1      39.277  31.299  31.612  1.00  0.00     0.039 A 
ATOM     44  C   UNL A   1      39.533  31.500  30.255  1.00  0.00     0.014 A 
ATOM     45  C   UNL A   1      40.154  30.548  32.401  1.00  0.00     0.014 A 
ATOM     46  C   UNL A   1      40.696  30.977  29.694  1.00  0.00     0.010 A 
ATOM     47  C   UNL A   1      41.346  30.087  31.856  1.00  0.00     0.010 A 
ATOM     48  C   UNL A   1      41.618  30.285  30.495  1.00  0.00    -0.014 A 
BRANCH  48  49
ATOM     49  C   UNL A   1      42.869  29.742  29.916  1.00  0.00     0.031 A 
ATOM     50  C   UNL A   1      44.114  30.584  29.897  1.00  0.00     0.074 A 
ATOM     51  C   UNL A   1      42.862  28.513  29.368  1.00  0.00     0.049 A 
ATOM     52  N   UNL A   1      45.298  30.296  29.424  1.00  0.00    -0.248 NA
ATOM     53  C   UNL A   1      44.005  31.941  30.458  1.00  0.00     0.031 C 
ATOM     54  C   UNL A   1      41.697  27.630  29.288  1.00  0.00     0.029 A 
ATOM     55  N   UNL A   1      43.867  27.793  28.778  1.00  0.00    -0.354 N 
ATOM     56  C   UNL A   1      46.068  31.436  29.610  1.00  0.00     0.074 A 
ATOM     57  C   UNL A   1      45.204  32.440  30.194  1.00  0.00     0.031 C 
ATOM     58  C   UNL A   1      42.063  26.472  28.717  1.00  0.00     0.029 A 
ATOM     59  C   UNL A   1      43.476  26.542  28.364  1.00  0.00     0.049 A 
ATOM     60  H   UNL A   1      44.781  28.139  28.660  1.00  0.00     0.167 HD
ATOM     61  C   UNL A   1      47.382  31.622  29.340  1.00  0.00     0.037 A 
ATOM     62  C   UNL A   1      44.186  25.562  27.774  1.00  0.00     0.037 A 
ATOM     63  C   UNL A   1      48.237  30.604  28.789  1.00  0.00     0.049 A 
ATOM     64  C   UNL A   1      45.647  25.784  27.498  1.00  0.00     0.074 A 
ATOM     65  C   UNL A   1      49.598  30.658  28.549  1.00  0.00     0.029 A 
ATOM     66  N   UNL A   1      47.809  29.346  28.386  1.00  0.00    -0.354 N 
ATOM     67  N   UNL A   1      46.381  26.843  27.750  1.00  0.00    -0.248 NA
ATOM     68  C   UNL A   1      46.376  24.680  26.863  1.00  0.00     0.031 C 
ATOM     69  C   UNL A   1      49.986  29.448  27.963  1.00  0.00     0.029 A 
ATOM     70  C   UNL A   1      48.875  28.623  27.878  1.00  0.00     0.049 A 
ATOM     71  H   UNL A   1      46.884  29.017  28.453  1.00  0.00     0.167 HD
ATOM     72  C   UNL A   1      47.666  26.521  27.330  1.00  0.00     0.074 A 
ATOM     73  C   UNL A   1      47.609  25.167  26.816  1.00  0.00     0.031 C 
ATOM     74  C   UNL A   1      48.793  27.276  27.369  1.00  0.00     0.037 A 
BRANCH  61  75
ATOM     75  C   UNL A   1      47.964  32.979  29.632  1.00  0.00     0.058 A 
ATOM     76  C   UNL A   1      47.928  34.018  28.687  1.00  0.00     0.135 A 
ATOM     77  C   UNL A   1      48.568  33.243  30.870  1.00  0.00     0.135 A 
ATOM     78  F   UNL A   1      47.377  33.816  27.480  1.00  0.00    -0.206 F 
ATOM     79  C   UNL A   1      48.511  35.256  28.944  1.00  0.00     0.059 A 
ATOM     80  C   UNL A   1      49.130  34.483  31.160  1.00  0.00     0.059 A 
ATOM     81  F   UNL A   1      48.629  32.287  31.812  1.00  0.00    -0.206 F 
ATOM     82  C   UNL A   1      49.116  35.477  30.182  1.00  0.00     0.060 A 
BRANCH  82  83
ATOM     83  S   UNL A   1      49.889  37.078  30.495  1.00  0.00     0.124 S 
ATOM     84  O   UNL A   1      48.720  37.947  30.600  1.00  0.00    -0.237 OA
ATOM     85  O   UNL A   1      50.614  36.839  31.738  1.00  0.00    -0.237 OA
ATOM     86  O   UNL A   1      50.723  37.288  29.316  1.00  0.00    -0.744 OA
ENDBRANCH  82  83
ENDBRANCH  61  75
BRANCH  62  87
ATOM     87  C   UNL A   1      43.534  24.264  27.460  1.00  0.00     0.058 A 
ATOM     88  C   UNL A   1      43.293  23.322  28.470  1.00  0.00     0.135 A 
ATOM     89  C   UNL A   1      43.109  23.952  26.159  1.00  0.00     0.135 A 
ATOM     90  F   UNL A   1      43.684  23.575  29.729  1.00  0.00    -0.206 F 
ATOM     91  C   UNL A   1      42.663  22.111  28.204  1.00  0.00     0.059 A 
ATOM     92  C   UNL A   1      42.457  22.756  25.871  1.00  0.00     0.059 A 
ATOM     93  F   UNL A   1      43.300  24.827  25.160  1.00  0.00    -0.206 F 
ATOM     94  C   UNL A   1      42.247  21.839  26.900  1.00  0.00     0.060 A 
BRANCH  94  95
ATOM     95  S   UNL A   1      41.376  20.289  26.578  1.00  0.00     0.124 S 
ATOM     96  O   UNL A   1      41.706  19.514  27.768  1.00  0.00    -0.237 OA
ATOM     97  O   UNL A   1      39.990  20.733  26.467  1.00  0.00    -0.237 OA
ATOM     98  O   UNL A   1      41.977  19.822  25.332  1.00  0.00    -0.744 OA
ENDBRANCH  94  95
ENDBRANCH  62  87
BRANCH  74  99
ATOM     99  C   UNL A   1      50.057  26.640  26.863  1.00  0.00     0.058 A 
ATOM    100  C   UNL A   1      50.380  26.625  25.498  1.00  0.00     0.135 A 
ATOM    101  C   UNL A   1      50.972  26.068  27.761  1.00  0.00     0.135 A 
ATOM    102  F   UNL A   1      49.535  27.154  24.598  1.00  0.00    -0.206 F 
ATOM    103  C   UNL A   1      51.551  26.036  25.035  1.00  0.00     0.059 A 
ATOM    104  C   UNL A   1      52.163  25.497  27.324  1.00  0.00     0.059 A 
ATOM    105  F   UNL A   1      50.717  26.067  29.079  1.00  0.00    -0.206 F 
ATOM    106  C   UNL A   1      52.436  25.472  25.956  1.00  0.00     0.060 A 
BRANCH 106 107
ATOM    107  S   UNL A   1      53.963  24.726  25.348  1.00  0.00     0.124 S 
ATOM    108  O   UNL A   1      54.263  25.572  24.197  1.00  0.00    -0.237 OA
ATOM    109  O   UNL A   1      54.860  24.869  26.491  1.00  0.00    -0.237 OA
ATOM    110  O   UNL A   1      53.570  23.356  25.035  1.00  0.00    -0.744 OA
ENDBRANCH 106 107
ENDBRANCH  74  99
ENDBRANCH  48  49
ENDBRANCH  40  43
ENDBRANCH  38  39
ENDBRANCH  37  38
ENDBRANCH  36  37
ENDBRANCH   1  36
TORSDOF 21
ENDMDL
MODEL 3
REMARK VINA RESULT:     -11.0      6.415     12.061
REMARK SMILES O=C(COc1ccc(NC(=O)c2ccc(Br)cc2)cc1-c1nc2ccccc2o1)NCCCCCCNC(=O)c1ccc(-c2c3nc(c(-c4c(F)cc(S(=O)(=O)[O-])cc4F)c4ccc([nH]4)c(-c4c(F)cc(S(=O)(=O)[O-])cc4F)c4nc(c(-c5c(F)cc(S(=O)(=O)[O-])cc5F)c5ccc2[nH]5)C=C4)C=C3)cc1
REMARK SMILES IDX 33 1 32 2 31 3 30 4 1 5 2 6 3 8 4 9 5 10 6 11 20 12 7 13
REMARK SMILES IDX 19 14 8 15 21 16 22 17 29 18 23 19 28 20 24 21 27 22 25 23
REMARK SMILES IDX 26 24 9 25 10 26 11 28 12 29 13 30 18 31 14 32 17 33 15 34
REMARK SMILES IDX 16 35 34 36 35 37 36 38 37 39 38 40 39 42 40 43 41 44 105 45
REMARK SMILES IDX 42 46 104 47 43 48 44 49 45 50 98 51 46 52 103 53 97 54
REMARK SMILES IDX 99 55 47 56 102 57 96 58 95 59 48 61 82 62 61 63 81 64 62 65
REMARK SMILES IDX 65 66 80 67 100 68 63 69 64 70 79 72 101 73 66 74 49 75
REMARK SMILES IDX 50 76 59 77 51 78 52 79 58 80 60 81 53 82 54 83 55 84 56 85
REMARK SMILES IDX 57 86 83 87 84 88 93 89 85 90 86 91 92 92 94 93 87 94 88 95
REMARK SMILES IDX 89 96 90 97 91 98 67 99 68 100 77 101 69 102 70 103 76 104
REMARK SMILES IDX 78 105 71 106 72 107 73 108 74 109 75 110
REMARK H PARENT 30 7 9 27 37 41 99 60 65 71
REMARK Flexibility Score: inf
ROOT
ATOM      1  C   UNL A   1      38.279  23.621  26.167  1.00  0.00     0.002 C 
ENDROOT
BRANCH   1   2
ATOM      2  C   UNL A   1      37.210  22.897  25.356  1.00  0.00     0.021 C 
BRANCH   2   3
ATOM      3  C   UNL A   1      35.832  23.048  25.959  1.00  0.00     0.116 C 
BRANCH   3   4
ATOM      4  N   UNL A   1      35.487  21.991  26.881  1.00  0.00    -0.353 N 
ATOM      5  O   UNL A   1      34.103  22.948  28.463  1.00  0.00    -0.271 OA
ATOM      6  C   UNL A   1      34.301  22.098  27.603  1.00  0.00     0.257 C 
ATOM      7  H   UNL A   1      36.077  21.212  26.996  1.00  0.00     0.163 HD
BRANCH   6   8
ATOM      8  C   UNL A   1      33.270  21.049  27.173  1.00  0.00     0.329 C 
BRANCH   8   9
ATOM      9  O   UNL A   1      32.140  21.840  26.788  1.00  0.00    -0.483 OA
BRANCH   9  10
ATOM     10  C   UNL A   1      32.249  22.663  25.710  1.00  0.00     0.132 A 
ATOM     11  C   UNL A   1      31.722  23.918  25.982  1.00  0.00     0.049 A 
ATOM     12  C   UNL A   1      32.486  22.231  24.385  1.00  0.00     0.081 A 
ATOM     13  C   UNL A   1      31.404  24.771  24.944  1.00  0.00     0.030 A 
ATOM     14  C   UNL A   1      32.170  23.131  23.342  1.00  0.00     0.043 A 
ATOM     15  C   UNL A   1      31.657  24.414  23.621  1.00  0.00     0.042 A 
BRANCH  12  16
ATOM     16  C   UNL A   1      33.021  20.888  24.120  1.00  0.00     0.231 A 
ATOM     17  N   UNL A   1      34.221  20.439  24.432  1.00  0.00    -0.209 NA
ATOM     18  O   UNL A   1      32.191  19.929  23.579  1.00  0.00    -0.436 OA
ATOM     19  C   UNL A   1      34.143  19.089  24.251  1.00  0.00     0.110 A 
ATOM     20  C   UNL A   1      32.916  18.764  23.699  1.00  0.00     0.155 A 
ATOM     21  C   UNL A   1      35.039  18.075  24.614  1.00  0.00     0.032 A 
ATOM     22  C   UNL A   1      32.527  17.459  23.408  1.00  0.00     0.049 A 
ATOM     23  C   UNL A   1      34.656  16.748  24.395  1.00  0.00     0.003 A 
ATOM     24  C   UNL A   1      33.432  16.449  23.784  1.00  0.00     0.004 A 
ENDBRANCH  12  16
BRANCH  15  25
ATOM     25  N   UNL A   1      31.349  25.287  22.555  1.00  0.00    -0.322 N 
ATOM     26  C   UNL A   1      31.276  26.672  22.531  1.00  0.00     0.255 C 
ATOM     27  H   UNL A   1      31.157  24.846  21.696  1.00  0.00     0.170 HD
ATOM     28  O   UNL A   1      30.684  27.254  21.626  1.00  0.00    -0.269 OA
BRANCH  26  29
ATOM     29  C   UNL A   1      31.972  27.489  23.559  1.00  0.00     0.040 A 
ATOM     30  C   UNL A   1      31.218  28.153  24.535  1.00  0.00     0.015 A 
ATOM     31  C   UNL A   1      33.373  27.557  23.588  1.00  0.00     0.015 A 
ATOM     32  C   UNL A   1      31.866  28.821  25.579  1.00  0.00     0.016 A 
ATOM     33  C   UNL A   1      34.017  28.218  24.636  1.00  0.00     0.016 A 
ATOM     34  C   UNL A   1      33.261  28.836  25.632  1.00  0.00     0.018 A 
ATOM     35  Br  UNL A   1      34.138  29.684  27.077  1.00  0.00    -0.051 Br
ENDBRANCH  26  29
ENDBRANCH  15  25
ENDBRANCH   9  10
ENDBRANCH   8   9
ENDBRANCH   6   8
ENDBRANCH   3   4
ENDBRANCH   2   3
ENDBRANCH   1   2
BRANCH   1  36
ATOM     36  C   UNL A   1      39.503  22.764  26.515  1.00  0.00     0.002 C 
BRANCH  36  37
ATOM     37  C   UNL A   1      39.489  21.346  25.938  1.00  0.00     0.021 C 
BRANCH  37  38
ATOM     38  C   UNL A   1      40.055  20.278  26.870  1.00  0.00     0.116 C 
BRANCH  38  39
ATOM     39  N   UNL A   1      41.117  19.512  26.233  1.00  0.00    -0.352 N 
ATOM     40  C   UNL A   1      42.325  19.926  25.750  1.00  0.00     0.251 C 
ATOM     41  H   UNL A   1      40.937  18.550  26.136  1.00  0.00     0.163 HD
ATOM     42  O   UNL A   1      43.003  19.168  25.054  1.00  0.00    -0.269 OA
BRANCH  40  43
ATOM     43  C   UNL A   1      42.808  21.281  26.061  1.00  0.00     0.039 A 
ATOM     44  C   UNL A   1      42.962  22.196  25.020  1.00  0.00     0.014 A 
ATOM     45  C   UNL A   1      43.122  21.636  27.377  1.00  0.00     0.014 A 
ATOM     46  C   UNL A   1      43.398  23.488  25.304  1.00  0.00     0.010 A 
ATOM     47  C   UNL A   1      43.490  22.944  27.667  1.00  0.00     0.010 A 
ATOM     48  C   UNL A   1      43.646  23.875  26.631  1.00  0.00    -0.014 A 
BRANCH  48  49
ATOM     49  C   UNL A   1      44.089  25.252  26.949  1.00  0.00     0.031 A 
ATOM     50  C   UNL A   1      45.512  25.660  26.693  1.00  0.00     0.074 A 
ATOM     51  C   UNL A   1      43.218  26.111  27.512  1.00  0.00     0.049 A 
ATOM     52  N   UNL A   1      46.094  26.809  26.917  1.00  0.00    -0.248 NA
ATOM     53  C   UNL A   1      46.408  24.631  26.139  1.00  0.00     0.031 C 
ATOM     54  C   UNL A   1      41.826  25.803  27.850  1.00  0.00     0.029 A 
ATOM     55  N   UNL A   1      43.373  27.416  27.896  1.00  0.00    -0.354 N 
ATOM     56  C   UNL A   1      47.423  26.639  26.551  1.00  0.00     0.074 A 
ATOM     57  C   UNL A   1      47.575  25.259  26.139  1.00  0.00     0.031 C 
ATOM     58  C   UNL A   1      41.246  26.902  28.356  1.00  0.00     0.029 A 
ATOM     59  C   UNL A   1      42.228  27.979  28.407  1.00  0.00     0.049 A 
ATOM     60  H   UNL A   1      44.224  27.905  27.814  1.00  0.00     0.167 HD
ATOM     61  C   UNL A   1      48.421  27.554  26.540  1.00  0.00     0.037 A 
ATOM     62  C   UNL A   1      42.000  29.227  28.857  1.00  0.00     0.037 A 
ATOM     63  C   UNL A   1      48.248  28.931  26.922  1.00  0.00     0.049 A 
ATOM     64  C   UNL A   1      43.118  30.231  28.819  1.00  0.00     0.074 A 
ATOM     65  C   UNL A   1      49.169  29.961  26.874  1.00  0.00     0.029 A 
ATOM     66  N   UNL A   1      47.073  29.467  27.430  1.00  0.00    -0.354 N 
ATOM     67  N   UNL A   1      44.352  30.075  28.399  1.00  0.00    -0.248 NA
ATOM     68  C   UNL A   1      42.813  31.579  29.312  1.00  0.00     0.031 C 
ATOM     69  C   UNL A   1      48.563  31.112  27.392  1.00  0.00     0.029 A 
ATOM     70  C   UNL A   1      47.251  30.809  27.722  1.00  0.00     0.049 A 
ATOM     71  H   UNL A   1      46.236  28.967  27.563  1.00  0.00     0.167 HD
ATOM     72  C   UNL A   1      44.963  31.314  28.550  1.00  0.00     0.074 A 
ATOM     73  C   UNL A   1      43.960  32.209  29.093  1.00  0.00     0.031 C 
ATOM     74  C   UNL A   1      46.238  31.680  28.264  1.00  0.00     0.037 A 
BRANCH  61  75
ATOM     75  C   UNL A   1      49.784  27.087  26.106  1.00  0.00     0.058 A 
ATOM     76  C   UNL A   1      50.194  27.144  24.764  1.00  0.00     0.135 A 
ATOM     77  C   UNL A   1      50.692  26.573  27.044  1.00  0.00     0.135 A 
ATOM     78  F   UNL A   1      49.360  27.611  23.822  1.00  0.00    -0.206 F 
ATOM     79  C   UNL A   1      51.437  26.666  24.361  1.00  0.00     0.059 A 
ATOM     80  C   UNL A   1      51.953  26.117  26.669  1.00  0.00     0.059 A 
ATOM     81  F   UNL A   1      50.354  26.495  28.342  1.00  0.00    -0.206 F 
ATOM     82  C   UNL A   1      52.308  26.147  25.320  1.00  0.00     0.060 A 
BRANCH  82  83
ATOM     83  S   UNL A   1      53.909  25.509  24.783  1.00  0.00     0.124 S 
ATOM     84  O   UNL A   1      54.113  26.250  23.542  1.00  0.00    -0.237 OA
ATOM     85  O   UNL A   1      54.782  25.879  25.891  1.00  0.00    -0.237 OA
ATOM     86  O   UNL A   1      53.668  24.078  24.627  1.00  0.00    -0.744 OA
ENDBRANCH  82  83
ENDBRANCH  61  75
BRANCH  62  87
ATOM     87  C   UNL A   1      40.642  29.606  29.326  1.00  0.00     0.058 A 
ATOM     88  C   UNL A   1      40.386  29.802  30.690  1.00  0.00     0.135 A 
ATOM     89  C   UNL A   1      39.586  29.813  28.425  1.00  0.00     0.135 A 
ATOM     90  F   UNL A   1      41.365  29.613  31.589  1.00  0.00    -0.206 F 
ATOM     91  C   UNL A   1      39.130  30.181  31.150  1.00  0.00     0.059 A 
ATOM     92  C   UNL A   1      38.325  30.213  28.858  1.00  0.00     0.059 A 
ATOM     93  F   UNL A   1      39.784  29.657  27.107  1.00  0.00    -0.206 F 
ATOM     94  C   UNL A   1      38.105  30.387  30.225  1.00  0.00     0.060 A 
BRANCH  94  95
ATOM     95  S   UNL A   1      36.494  30.937  30.828  1.00  0.00     0.124 S 
ATOM     96  O   UNL A   1      36.877  31.945  31.809  1.00  0.00    -0.237 OA
ATOM     97  O   UNL A   1      35.863  31.435  29.610  1.00  0.00    -0.237 OA
ATOM     98  O   UNL A   1      35.907  29.715  31.373  1.00  0.00    -0.744 OA
ENDBRANCH  94  95
ENDBRANCH  62  87
BRANCH  74  99
ATOM     99  C   UNL A   1      46.606  33.116  28.509  1.00  0.00     0.058 A 
ATOM    100  C   UNL A   1      46.436  34.099  27.523  1.00  0.00     0.135 A 
ATOM    101  C   UNL A   1      47.105  33.518  29.758  1.00  0.00     0.135 A 
ATOM    102  F   UNL A   1      45.969  33.765  26.309  1.00  0.00    -0.206 F 
ATOM    103  C   UNL A   1      46.777  35.427  27.755  1.00  0.00     0.059 A 
ATOM    104  C   UNL A   1      47.427  34.845  30.022  1.00  0.00     0.059 A 
ATOM    105  F   UNL A   1      47.275  32.619  30.741  1.00  0.00    -0.206 F 
ATOM    106  C   UNL A   1      47.275  35.790  29.008  1.00  0.00     0.060 A 
BRANCH 106 107
ATOM    107  S   UNL A   1      47.697  37.519  29.306  1.00  0.00     0.124 S 
ATOM    108  O   UNL A   1      48.864  37.687  28.446  1.00  0.00    -0.237 OA
ATOM    109  O   UNL A   1      46.489  38.217  28.879  1.00  0.00    -0.237 OA
ATOM    110  O   UNL A   1      47.963  37.560  30.741  1.00  0.00    -0.744 OA
ENDBRANCH 106 107
ENDBRANCH  74  99
ENDBRANCH  48  49
ENDBRANCH  40  43
ENDBRANCH  38  39
ENDBRANCH  37  38
ENDBRANCH  36  37
ENDBRANCH   1  36
TORSDOF 21
ENDMDL
