MODEL 1
REMARK VINA RESULT:     -10.8      0.000      0.000
REMARK SMILES C[C@@H]1CC[C@H]([N@@H+](CC(=O)NCCCCCCNC(=O)c2ccc(-c3c4nc(c(-c5c(F)cc(S(=O)(=O)[O-])cc5F)c5ccc([nH]5)c(-c5c(F)cc(S(=O)(=O)[O-])cc5F)c5nc(c(-c6c(F)cc(S(=O)(=O)[O-])cc6F)c6ccc3[nH]6)C=C5)C=C4)cc2)CC(F)(F)F)C[C@@H]1C
REMARK SMILES IDX 13 1 12 2 11 3 10 4 8 5 9 6 7 8 6 9 5 11 1 12 2 13 3 14
REMARK SMILES IDX 92 15 4 16 91 17 93 18 86 19 87 20 88 21 89 22 90 23 14 24
REMARK SMILES IDX 15 25 16 26 17 27 18 28 19 30 20 31 21 32 85 33 22 34 84 35
REMARK SMILES IDX 23 36 24 37 25 38 78 39 26 40 83 41 77 42 79 43 27 44 82 45
REMARK SMILES IDX 76 46 75 47 28 49 62 50 41 51 61 52 42 53 45 54 60 55 80 56
REMARK SMILES IDX 43 57 44 58 59 60 81 61 46 62 29 63 30 64 39 65 31 66 32 67
REMARK SMILES IDX 38 68 40 69 33 70 34 71 35 72 36 73 37 74 63 75 64 76 73 77
REMARK SMILES IDX 65 78 66 79 72 80 74 81 67 82 68 83 69 84 70 85 71 86 47 87
REMARK SMILES IDX 48 88 57 89 49 90 50 91 56 92 58 93 51 94 52 95 53 96 54 97
REMARK SMILES IDX 55 98
REMARK H PARENT 10 7 6 10 17 29 79 48 45 59
REMARK Flexibility Score: inf
ROOT
ATOM      1  C   UNL A   1      33.719  29.101  26.336  1.00  0.00     0.002 C 
ENDROOT
BRANCH   1   2
ATOM      2  C   UNL A   1      33.280  28.042  25.309  1.00  0.00     0.021 C 
BRANCH   2   3
ATOM      3  C   UNL A   1      33.510  28.383  23.823  1.00  0.00     0.116 C 
BRANCH   3   4
ATOM      4  N   UNL A   1      32.311  28.437  22.995  1.00  0.00    -0.351 N 
ATOM      5  C   UNL A   1      31.506  27.472  22.455  1.00  0.00     0.275 C 
ATOM      6  O   UNL A   1      30.425  27.855  21.998  1.00  0.00    -0.269 OA
ATOM      7  H   UNL A   1      32.023  29.353  22.781  1.00  0.00     0.163 HD
BRANCH   5   8
ATOM      8  C   UNL A   1      31.928  25.994  22.370  1.00  0.00     0.364 C 
BRANCH   8   9
ATOM      9  N   UNL A   1      31.993  25.277  23.671  1.00  0.00    -0.317 N 
ATOM     10  H   UNL A   1      32.452  25.927  24.311  1.00  0.00     0.349 HD
BRANCH   9  11
ATOM     11  C   UNL A   1      32.923  24.152  23.674  1.00  0.00     0.184 C 
ATOM     12  C   UNL A   1      35.266  21.744  25.693  1.00  0.00     0.008 C 
ATOM     13  C   UNL A   1      34.802  21.925  24.249  1.00  0.00    -0.011 C 
ATOM     14  C   UNL A   1      35.286  23.288  23.687  1.00  0.00     0.010 C 
ATOM     15  C   UNL A   1      33.280  21.738  24.071  1.00  0.00    -0.006 C 
ATOM     16  C   UNL A   1      34.381  24.494  24.017  1.00  0.00     0.065 C 
ATOM     17  C   UNL A   1      32.503  22.961  24.537  1.00  0.00     0.068 C 
ATOM     18  C   UNL A   1      32.686  20.460  24.649  1.00  0.00     0.008 C 
ENDBRANCH   9  11
BRANCH   9  19
ATOM     19  C   UNL A   1      30.723  25.149  24.420  1.00  0.00     0.379 C 
BRANCH  19  20
ATOM     20  C   UNL A   1      30.416  25.750  25.816  1.00  0.00     0.438 C 
ATOM     21  F   UNL A   1      30.469  27.096  25.842  1.00  0.00    -0.165 F 
ATOM     22  F   UNL A   1      29.143  25.418  26.170  1.00  0.00    -0.165 F 
ATOM     23  F   UNL A   1      31.216  25.268  26.784  1.00  0.00    -0.165 F 
ENDBRANCH  19  20
ENDBRANCH   9  19
ENDBRANCH   8   9
ENDBRANCH   5   8
ENDBRANCH   3   4
ENDBRANCH   2   3
ENDBRANCH   1   2
BRANCH   1  24
ATOM     24  C   UNL A   1      32.615  29.716  27.191  1.00  0.00     0.002 C 
BRANCH  24  25
ATOM     25  C   UNL A   1      32.362  31.207  26.951  1.00  0.00     0.021 C 
BRANCH  25  26
ATOM     26  C   UNL A   1      33.386  32.175  27.547  1.00  0.00     0.116 C 
BRANCH  26  27
ATOM     27  N   UNL A   1      32.861  33.515  27.774  1.00  0.00    -0.352 N 
ATOM     28  C   UNL A   1      33.290  34.450  28.690  1.00  0.00     0.251 C 
ATOM     29  H   UNL A   1      32.107  33.786  27.202  1.00  0.00     0.163 HD
ATOM     30  O   UNL A   1      32.695  35.512  28.839  1.00  0.00    -0.269 OA
BRANCH  28  31
ATOM     31  C   UNL A   1      34.470  34.131  29.518  1.00  0.00     0.039 A 
ATOM     32  C   UNL A   1      34.282  33.518  30.757  1.00  0.00     0.014 A 
ATOM     33  C   UNL A   1      35.756  34.342  29.010  1.00  0.00     0.014 A 
ATOM     34  C   UNL A   1      35.392  33.042  31.456  1.00  0.00     0.010 A 
ATOM     35  C   UNL A   1      36.853  33.808  29.680  1.00  0.00     0.010 A 
ATOM     36  C   UNL A   1      36.682  33.145  30.904  1.00  0.00    -0.014 A 
BRANCH  36  37
ATOM     37  C   UNL A   1      37.844  32.530  31.596  1.00  0.00     0.031 A 
ATOM     38  C   UNL A   1      38.306  33.056  32.927  1.00  0.00     0.074 A 
ATOM     39  C   UNL A   1      38.503  31.512  31.005  1.00  0.00     0.049 A 
ATOM     40  N   UNL A   1      39.259  32.608  33.704  1.00  0.00    -0.248 NA
ATOM     41  C   UNL A   1      37.629  34.257  33.440  1.00  0.00     0.031 C 
ATOM     42  C   UNL A   1      38.204  30.969  29.677  1.00  0.00     0.029 A 
ATOM     43  N   UNL A   1      39.553  30.746  31.444  1.00  0.00    -0.354 N 
ATOM     44  C   UNL A   1      39.293  33.468  34.795  1.00  0.00     0.074 A 
ATOM     45  C   UNL A   1      38.312  34.502  34.549  1.00  0.00     0.031 C 
ATOM     46  C   UNL A   1      39.022  29.935  29.429  1.00  0.00     0.029 A 
ATOM     47  C   UNL A   1      39.916  29.750  30.567  1.00  0.00     0.049 A 
ATOM     48  H   UNL A   1      40.005  30.895  32.305  1.00  0.00     0.167 HD
ATOM     49  C   UNL A   1      40.050  33.384  35.916  1.00  0.00     0.037 A 
ATOM     50  C   UNL A   1      40.848  28.783  30.679  1.00  0.00     0.037 A 
ATOM     51  C   UNL A   1      41.013  32.342  36.162  1.00  0.00     0.049 A 
ATOM     52  C   UNL A   1      41.649  28.688  31.950  1.00  0.00     0.074 A 
ATOM     53  C   UNL A   1      41.787  32.131  37.288  1.00  0.00     0.029 A 
ATOM     54  N   UNL A   1      41.335  31.335  35.263  1.00  0.00    -0.354 N 
ATOM     55  N   UNL A   1      41.604  29.456  33.012  1.00  0.00    -0.248 NA
ATOM     56  C   UNL A   1      42.614  27.585  32.043  1.00  0.00     0.031 C 
ATOM     57  C   UNL A   1      42.606  31.020  37.056  1.00  0.00     0.029 A 
ATOM     58  C   UNL A   1      42.309  30.511  35.801  1.00  0.00     0.049 A 
ATOM     59  H   UNL A   1      40.931  31.224  34.371  1.00  0.00     0.167 HD
ATOM     60  C   UNL A   1      42.521  28.918  33.909  1.00  0.00     0.074 A 
ATOM     61  C   UNL A   1      43.086  27.746  33.272  1.00  0.00     0.031 C 
ATOM     62  C   UNL A   1      42.867  29.355  35.146  1.00  0.00     0.037 A 
BRANCH  49  63
ATOM     63  C   UNL A   1      39.851  34.444  36.966  1.00  0.00     0.058 A 
ATOM     64  C   UNL A   1      40.483  35.695  36.876  1.00  0.00     0.135 A 
ATOM     65  C   UNL A   1      39.004  34.217  38.063  1.00  0.00     0.135 A 
ATOM     66  F   UNL A   1      41.316  35.960  35.857  1.00  0.00    -0.206 F 
ATOM     67  C   UNL A   1      40.309  36.672  37.852  1.00  0.00     0.059 A 
ATOM     68  C   UNL A   1      38.794  35.190  39.036  1.00  0.00     0.059 A 
ATOM     69  F   UNL A   1      38.375  33.039  38.201  1.00  0.00    -0.206 F 
ATOM     70  C   UNL A   1      39.463  36.409  38.930  1.00  0.00     0.060 A 
BRANCH  70  71
ATOM     71  S   UNL A   1      39.247  37.687  40.186  1.00  0.00     0.124 S 
ATOM     72  O   UNL A   1      40.567  38.311  40.196  1.00  0.00    -0.237 OA
ATOM     73  O   UNL A   1      38.168  38.495  39.628  1.00  0.00    -0.237 OA
ATOM     74  O   UNL A   1      38.903  36.930  41.385  1.00  0.00    -0.744 OA
ENDBRANCH  70  71
ENDBRANCH  49  63
BRANCH  50  75
ATOM     75  C   UNL A   1      41.039  27.799  29.579  1.00  0.00     0.058 A 
ATOM     76  C   UNL A   1      42.150  27.876  28.725  1.00  0.00     0.135 A 
ATOM     77  C   UNL A   1      40.125  26.757  29.367  1.00  0.00     0.135 A 
ATOM     78  F   UNL A   1      43.051  28.857  28.884  1.00  0.00    -0.206 F 
ATOM     79  C   UNL A   1      42.338  26.968  27.688  1.00  0.00     0.059 A 
ATOM     80  C   UNL A   1      40.304  25.821  28.352  1.00  0.00     0.059 A 
ATOM     81  F   UNL A   1      39.055  26.626  30.168  1.00  0.00    -0.206 F 
ATOM     82  C   UNL A   1      41.409  25.941  27.511  1.00  0.00     0.060 A 
BRANCH  82  83
ATOM     83  S   UNL A   1      41.689  24.735  26.195  1.00  0.00     0.124 S 
ATOM     84  O   UNL A   1      40.546  23.846  26.363  1.00  0.00    -0.237 OA
ATOM     85  O   UNL A   1      41.677  25.574  25.001  1.00  0.00    -0.237 OA
ATOM     86  O   UNL A   1      42.990  24.165  26.538  1.00  0.00    -0.744 OA
ENDBRANCH  82  83
ENDBRANCH  50  75
BRANCH  62  87
ATOM     87  C   UNL A   1      43.896  28.548  35.888  1.00  0.00     0.058 A 
ATOM     88  C   UNL A   1      45.267  28.836  35.791  1.00  0.00     0.135 A 
ATOM     89  C   UNL A   1      43.507  27.481  36.714  1.00  0.00     0.135 A 
ATOM     90  F   UNL A   1      45.693  29.843  35.013  1.00  0.00    -0.206 F 
ATOM     91  C   UNL A   1      46.219  28.064  36.448  1.00  0.00     0.059 A 
ATOM     92  C   UNL A   1      44.440  26.715  37.405  1.00  0.00     0.059 A 
ATOM     93  F   UNL A   1      42.208  27.175  36.855  1.00  0.00    -0.206 F 
ATOM     94  C   UNL A   1      45.796  27.000  37.247  1.00  0.00     0.060 A 
BRANCH  94  95
ATOM     95  S   UNL A   1      47.040  25.997  38.088  1.00  0.00     0.124 S 
ATOM     96  O   UNL A   1      47.814  27.019  38.786  1.00  0.00    -0.237 OA
ATOM     97  O   UNL A   1      46.227  25.130  38.934  1.00  0.00    -0.237 OA
ATOM     98  O   UNL A   1      47.729  25.325  36.991  1.00  0.00    -0.744 OA
ENDBRANCH  94  95
ENDBRANCH  62  87
ENDBRANCH  36  37
ENDBRANCH  28  31
ENDBRANCH  26  27
ENDBRANCH  25  26
ENDBRANCH  24  25
ENDBRANCH   1  24
TORSDOF 20
ENDMDL
MODEL 2
REMARK VINA RESULT:     -10.4      0.849      8.252
REMARK SMILES C[C@@H]1CC[C@H]([N@@H+](CC(=O)NCCCCCCNC(=O)c2ccc(-c3c4nc(c(-c5c(F)cc(S(=O)(=O)[O-])cc5F)c5ccc([nH]5)c(-c5c(F)cc(S(=O)(=O)[O-])cc5F)c5nc(c(-c6c(F)cc(S(=O)(=O)[O-])cc6F)c6ccc3[nH]6)C=C5)C=C4)cc2)CC(F)(F)F)C[C@@H]1C
REMARK SMILES IDX 13 1 12 2 11 3 10 4 8 5 9 6 7 8 6 9 5 11 1 12 2 13 3 14
REMARK SMILES IDX 92 15 4 16 91 17 93 18 86 19 87 20 88 21 89 22 90 23 14 24
REMARK SMILES IDX 15 25 16 26 17 27 18 28 19 30 20 31 21 32 85 33 22 34 84 35
REMARK SMILES IDX 23 36 24 37 25 38 78 39 26 40 83 41 77 42 79 43 27 44 82 45
REMARK SMILES IDX 76 46 75 47 28 49 62 50 41 51 61 52 42 53 45 54 60 55 80 56
REMARK SMILES IDX 43 57 44 58 59 60 81 61 46 62 29 63 30 64 39 65 31 66 32 67
REMARK SMILES IDX 38 68 40 69 33 70 34 71 35 72 36 73 37 74 63 75 64 76 73 77
REMARK SMILES IDX 65 78 66 79 72 80 74 81 67 82 68 83 69 84 70 85 71 86 47 87
REMARK SMILES IDX 48 88 57 89 49 90 50 91 56 92 58 93 51 94 52 95 53 96 54 97
REMARK SMILES IDX 55 98
REMARK H PARENT 10 7 6 10 17 29 79 48 45 59
REMARK Flexibility Score: inf
ROOT
ATOM      1  C   UNL A   1      33.684  29.509  26.299  1.00  0.00     0.002 C 
ENDROOT
BRANCH   1   2
ATOM      2  C   UNL A   1      33.272  28.480  25.230  1.00  0.00     0.021 C 
BRANCH   2   3
ATOM      3  C   UNL A   1      33.494  28.885  23.759  1.00  0.00     0.116 C 
BRANCH   3   4
ATOM      4  N   UNL A   1      32.457  28.464  22.825  1.00  0.00    -0.351 N 
ATOM      5  C   UNL A   1      31.962  27.240  22.471  1.00  0.00     0.275 C 
ATOM      6  O   UNL A   1      30.912  27.240  21.821  1.00  0.00    -0.269 OA
ATOM      7  H   UNL A   1      32.025  29.213  22.354  1.00  0.00     0.163 HD
BRANCH   5   8
ATOM      8  C   UNL A   1      32.685  25.924  22.813  1.00  0.00     0.364 C 
BRANCH   8   9
ATOM      9  N   UNL A   1      32.404  25.381  24.169  1.00  0.00    -0.317 N 
ATOM     10  H   UNL A   1      32.439  26.188  24.792  1.00  0.00     0.349 HD
BRANCH   9  11
ATOM     11  C   UNL A   1      33.481  24.550  24.700  1.00  0.00     0.184 C 
ATOM     12  C   UNL A   1      35.091  20.998  25.095  1.00  0.00     0.008 C 
ATOM     13  C   UNL A   1      35.414  22.437  25.490  1.00  0.00    -0.011 C 
ATOM     14  C   UNL A   1      34.345  22.986  26.472  1.00  0.00     0.010 C 
ATOM     15  C   UNL A   1      35.612  23.371  24.277  1.00  0.00    -0.006 C 
ATOM     16  C   UNL A   1      33.077  23.565  25.808  1.00  0.00     0.065 C 
ATOM     17  C   UNL A   1      34.285  23.777  23.653  1.00  0.00     0.068 C 
ATOM     18  C   UNL A   1      36.593  22.894  23.214  1.00  0.00     0.008 C 
ENDBRANCH   9  11
BRANCH   9  19
ATOM     19  C   UNL A   1      31.004  24.992  24.449  1.00  0.00     0.379 C 
BRANCH  19  20
ATOM     20  C   UNL A   1      30.004  25.755  25.356  1.00  0.00     0.438 C 
ATOM     21  F   UNL A   1      29.704  25.096  26.493  1.00  0.00    -0.165 F 
ATOM     22  F   UNL A   1      30.569  26.932  25.744  1.00  0.00    -0.165 F 
ATOM     23  F   UNL A   1      28.859  26.074  24.727  1.00  0.00    -0.165 F 
ENDBRANCH  19  20
ENDBRANCH   9  19
ENDBRANCH   8   9
ENDBRANCH   5   8
ENDBRANCH   3   4
ENDBRANCH   2   3
ENDBRANCH   1   2
BRANCH   1  24
ATOM     24  C   UNL A   1      32.566  30.057  27.180  1.00  0.00     0.002 C 
BRANCH  24  25
ATOM     25  C   UNL A   1      32.259  31.546  26.989  1.00  0.00     0.021 C 
BRANCH  25  26
ATOM     26  C   UNL A   1      33.323  32.528  27.480  1.00  0.00     0.116 C 
BRANCH  26  27
ATOM     27  N   UNL A   1      32.813  33.871  27.722  1.00  0.00    -0.352 N 
ATOM     28  C   UNL A   1      33.203  34.765  28.695  1.00  0.00     0.251 C 
ATOM     29  H   UNL A   1      32.102  34.179  27.114  1.00  0.00     0.163 HD
ATOM     30  O   UNL A   1      32.621  35.834  28.844  1.00  0.00    -0.269 OA
BRANCH  28  31
ATOM     31  C   UNL A   1      34.322  34.391  29.582  1.00  0.00     0.039 A 
ATOM     32  C   UNL A   1      34.042  33.780  30.804  1.00  0.00     0.014 A 
ATOM     33  C   UNL A   1      35.641  34.551  29.146  1.00  0.00     0.014 A 
ATOM     34  C   UNL A   1      35.092  33.253  31.558  1.00  0.00     0.010 A 
ATOM     35  C   UNL A   1      36.677  33.967  29.869  1.00  0.00     0.010 A 
ATOM     36  C   UNL A   1      36.413  33.305  31.078  1.00  0.00    -0.014 A 
BRANCH  36  37
ATOM     37  C   UNL A   1      37.509  32.637  31.826  1.00  0.00     0.031 A 
ATOM     38  C   UNL A   1      38.202  31.433  31.251  1.00  0.00     0.074 A 
ATOM     39  C   UNL A   1      37.859  33.104  33.042  1.00  0.00     0.049 A 
ATOM     40  N   UNL A   1      39.216  30.759  31.731  1.00  0.00    -0.248 NA
ATOM     41  C   UNL A   1      37.670  30.898  29.988  1.00  0.00     0.031 C 
ATOM     42  C   UNL A   1      37.205  34.213  33.743  1.00  0.00     0.029 A 
ATOM     43  N   UNL A   1      38.854  32.713  33.902  1.00  0.00    -0.354 N 
ATOM     44  C   UNL A   1      39.445  29.727  30.830  1.00  0.00     0.074 A 
ATOM     45  C   UNL A   1      38.423  29.822  29.810  1.00  0.00     0.031 C 
ATOM     46  C   UNL A   1      37.842  34.438  34.903  1.00  0.00     0.029 A 
ATOM     47  C   UNL A   1      38.935  33.481  35.040  1.00  0.00     0.049 A 
ATOM     48  H   UNL A   1      39.454  31.954  33.722  1.00  0.00     0.167 HD
ATOM     49  C   UNL A   1      40.437  28.804  30.833  1.00  0.00     0.037 A 
ATOM     50  C   UNL A   1      39.807  33.434  36.067  1.00  0.00     0.037 A 
ATOM     51  C   UNL A   1      41.461  28.726  31.842  1.00  0.00     0.049 A 
ATOM     52  C   UNL A   1      40.923  32.424  36.029  1.00  0.00     0.074 A 
ATOM     53  C   UNL A   1      42.545  27.869  31.907  1.00  0.00     0.029 A 
ATOM     54  N   UNL A   1      41.527  29.537  32.966  1.00  0.00    -0.354 N 
ATOM     55  N   UNL A   1      41.179  31.513  35.122  1.00  0.00    -0.248 NA
ATOM     56  C   UNL A   1      41.877  32.449  37.145  1.00  0.00     0.031 C 
ATOM     57  C   UNL A   1      43.244  28.135  33.091  1.00  0.00     0.029 A 
ATOM     58  C   UNL A   1      42.621  29.188  33.741  1.00  0.00     0.049 A 
ATOM     59  H   UNL A   1      40.887  30.254  33.183  1.00  0.00     0.167 HD
ATOM     60  C   UNL A   1      42.335  30.868  35.546  1.00  0.00     0.074 A 
ATOM     61  C   UNL A   1      42.740  31.511  36.780  1.00  0.00     0.031 C 
ATOM     62  C   UNL A   1      43.000  29.834  34.972  1.00  0.00     0.037 A 
BRANCH  49  63
ATOM     63  C   UNL A   1      40.466  27.815  29.699  1.00  0.00     0.058 A 
ATOM     64  C   UNL A   1      39.578  26.728  29.649  1.00  0.00     0.135 A 
ATOM     65  C   UNL A   1      41.375  27.964  28.639  1.00  0.00     0.135 A 
ATOM     66  F   UNL A   1      38.697  26.528  30.643  1.00  0.00    -0.206 F 
ATOM     67  C   UNL A   1      39.610  25.807  28.607  1.00  0.00     0.059 A 
ATOM     68  C   UNL A   1      41.407  27.069  27.573  1.00  0.00     0.059 A 
ATOM     69  F   UNL A   1      42.249  28.983  28.635  1.00  0.00    -0.206 F 
ATOM     70  C   UNL A   1      40.531  25.985  27.574  1.00  0.00     0.060 A 
BRANCH  70  71
ATOM     71  S   UNL A   1      40.559  24.781  26.229  1.00  0.00     0.124 S 
ATOM     72  O   UNL A   1      41.353  23.707  26.818  1.00  0.00    -0.237 OA
ATOM     73  O   UNL A   1      39.142  24.491  26.038  1.00  0.00    -0.237 OA
ATOM     74  O   UNL A   1      41.200  25.507  25.137  1.00  0.00    -0.744 OA
ENDBRANCH  70  71
ENDBRANCH  49  63
BRANCH  50  75
ATOM     75  C   UNL A   1      39.690  34.402  37.191  1.00  0.00     0.058 A 
ATOM     76  C   UNL A   1      40.326  35.652  37.138  1.00  0.00     0.135 A 
ATOM     77  C   UNL A   1      38.932  34.104  38.333  1.00  0.00     0.135 A 
ATOM     78  F   UNL A   1      41.066  35.982  36.069  1.00  0.00    -0.206 F 
ATOM     79  C   UNL A   1      40.232  36.565  38.184  1.00  0.00     0.059 A 
ATOM     80  C   UNL A   1      38.802  35.010  39.382  1.00  0.00     0.059 A 
ATOM     81  F   UNL A   1      38.288  32.930  38.426  1.00  0.00    -0.206 F 
ATOM     82  C   UNL A   1      39.465  36.234  39.303  1.00  0.00     0.060 A 
BRANCH  82  83
ATOM     83  S   UNL A   1      39.304  37.446  40.633  1.00  0.00     0.124 S 
ATOM     84  O   UNL A   1      38.784  36.623  41.719  1.00  0.00    -0.237 OA
ATOM     85  O   UNL A   1      40.676  37.917  40.788  1.00  0.00    -0.237 OA
ATOM     86  O   UNL A   1      38.372  38.426  40.080  1.00  0.00    -0.744 OA
ENDBRANCH  82  83
ENDBRANCH  50  75
BRANCH  62  87
ATOM     87  C   UNL A   1      44.241  29.351  35.672  1.00  0.00     0.058 A 
ATOM     88  C   UNL A   1      45.500  29.915  35.409  1.00  0.00     0.135 A 
ATOM     89  C   UNL A   1      44.169  28.320  36.622  1.00  0.00     0.135 A 
ATOM     90  F   UNL A   1      45.625  30.902  34.508  1.00  0.00    -0.206 F 
ATOM     91  C   UNL A   1      46.651  29.440  36.029  1.00  0.00     0.059 A 
ATOM     92  C   UNL A   1      45.304  27.850  37.276  1.00  0.00     0.059 A 
ATOM     93  F   UNL A   1      42.988  27.759  36.922  1.00  0.00    -0.206 F 
ATOM     94  C   UNL A   1      46.543  28.402  36.956  1.00  0.00     0.060 A 
BRANCH  94  95
ATOM     95  S   UNL A   1      48.045  27.786  37.747  1.00  0.00     0.124 S 
ATOM     96  O   UNL A   1      48.995  28.848  37.435  1.00  0.00    -0.237 OA
ATOM     97  O   UNL A   1      47.644  27.684  39.147  1.00  0.00    -0.237 OA
ATOM     98  O   UNL A   1      48.282  26.512  37.076  1.00  0.00    -0.744 OA
ENDBRANCH  94  95
ENDBRANCH  62  87
ENDBRANCH  36  37
ENDBRANCH  28  31
ENDBRANCH  26  27
ENDBRANCH  25  26
ENDBRANCH  24  25
ENDBRANCH   1  24
TORSDOF 20
ENDMDL
MODEL 3
REMARK VINA RESULT:     -10.4      6.737     12.187
REMARK SMILES C[C@@H]1CC[C@H]([N@@H+](CC(=O)NCCCCCCNC(=O)c2ccc(-c3c4nc(c(-c5c(F)cc(S(=O)(=O)[O-])cc5F)c5ccc([nH]5)c(-c5c(F)cc(S(=O)(=O)[O-])cc5F)c5nc(c(-c6c(F)cc(S(=O)(=O)[O-])cc6F)c6ccc3[nH]6)C=C5)C=C4)cc2)CC(F)(F)F)C[C@@H]1C
REMARK SMILES IDX 13 1 12 2 11 3 10 4 8 5 9 6 7 8 6 9 5 11 1 12 2 13 3 14
REMARK SMILES IDX 92 15 4 16 91 17 93 18 86 19 87 20 88 21 89 22 90 23 14 24
REMARK SMILES IDX 15 25 16 26 17 27 18 28 19 30 20 31 21 32 85 33 22 34 84 35
REMARK SMILES IDX 23 36 24 37 25 38 78 39 26 40 83 41 77 42 79 43 27 44 82 45
REMARK SMILES IDX 76 46 75 47 28 49 62 50 41 51 61 52 42 53 45 54 60 55 80 56
REMARK SMILES IDX 43 57 44 58 59 60 81 61 46 62 29 63 30 64 39 65 31 66 32 67
REMARK SMILES IDX 38 68 40 69 33 70 34 71 35 72 36 73 37 74 63 75 64 76 73 77
REMARK SMILES IDX 65 78 66 79 72 80 74 81 67 82 68 83 69 84 70 85 71 86 47 87
REMARK SMILES IDX 48 88 57 89 49 90 50 91 56 92 58 93 51 94 52 95 53 96 54 97
REMARK SMILES IDX 55 98
REMARK H PARENT 10 7 6 10 17 29 79 48 45 59
REMARK Flexibility Score: inf
ROOT
ATOM      1  C   UNL A   1      40.733  22.343  26.743  1.00  0.00     0.002 C 
ENDROOT
BRANCH   1   2
ATOM      2  C   UNL A   1      39.392  23.038  26.445  1.00  0.00     0.021 C 
BRANCH   2   3
ATOM      3  C   UNL A   1      38.237  22.136  25.966  1.00  0.00     0.116 C 
BRANCH   3   4
ATOM      4  N   UNL A   1      37.823  22.323  24.581  1.00  0.00    -0.351 N 
ATOM      5  C   UNL A   1      36.712  22.877  24.007  1.00  0.00     0.275 C 
ATOM      6  O   UNL A   1      36.775  23.097  22.794  1.00  0.00    -0.269 OA
ATOM      7  H   UNL A   1      38.474  21.981  23.927  1.00  0.00     0.163 HD
BRANCH   5   8
ATOM      8  C   UNL A   1      35.428  23.172  24.803  1.00  0.00     0.364 C 
BRANCH   8   9
ATOM      9  N   UNL A   1      34.178  23.211  23.997  1.00  0.00    -0.317 N 
ATOM     10  H   UNL A   1      34.488  23.236  23.025  1.00  0.00     0.349 HD
BRANCH   9  11
ATOM     11  C   UNL A   1      33.449  24.471  24.108  1.00  0.00     0.184 C 
ATOM     12  C   UNL A   1      30.826  26.669  26.019  1.00  0.00     0.008 C 
ATOM     13  C   UNL A   1      31.763  26.810  24.821  1.00  0.00    -0.011 C 
ATOM     14  C   UNL A   1      31.365  25.818  23.697  1.00  0.00     0.010 C 
ATOM     15  C   UNL A   1      33.255  26.682  25.198  1.00  0.00    -0.006 C 
ATOM     16  C   UNL A   1      31.938  24.393  23.843  1.00  0.00     0.065 C 
ATOM     17  C   UNL A   1      33.659  25.231  25.419  1.00  0.00     0.068 C 
ATOM     18  C   UNL A   1      33.739  27.565  26.341  1.00  0.00     0.008 C 
ENDBRANCH   9  11
BRANCH   9  19
ATOM     19  C   UNL A   1      33.406  21.950  23.912  1.00  0.00     0.379 C 
BRANCH  19  20
ATOM     20  C   UNL A   1      32.919  21.091  25.108  1.00  0.00     0.438 C 
ATOM     21  F   UNL A   1      33.848  20.222  25.554  1.00  0.00    -0.165 F 
ATOM     22  F   UNL A   1      32.641  21.913  26.157  1.00  0.00    -0.165 F 
ATOM     23  F   UNL A   1      31.787  20.416  24.844  1.00  0.00    -0.165 F 
ENDBRANCH  19  20
ENDBRANCH   9  19
ENDBRANCH   8   9
ENDBRANCH   5   8
ENDBRANCH   3   4
ENDBRANCH   2   3
ENDBRANCH   1   2
BRANCH   1  24
ATOM     24  C   UNL A   1      40.660  20.872  27.142  1.00  0.00     0.002 C 
BRANCH  24  25
ATOM     25  C   UNL A   1      41.145  19.885  26.076  1.00  0.00     0.021 C 
BRANCH  25  26
ATOM     26  C   UNL A   1      42.419  19.104  26.402  1.00  0.00     0.116 C 
BRANCH  26  27
ATOM     27  N   UNL A   1      43.300  18.918  25.256  1.00  0.00    -0.352 N 
ATOM     28  C   UNL A   1      44.070  19.864  24.616  1.00  0.00     0.251 C 
ATOM     29  H   UNL A   1      43.353  18.004  24.895  1.00  0.00     0.163 HD
ATOM     30  O   UNL A   1      44.698  19.589  23.599  1.00  0.00    -0.269 OA
BRANCH  28  31
ATOM     31  C   UNL A   1      44.095  21.235  25.163  1.00  0.00     0.039 A 
ATOM     32  C   UNL A   1      44.552  21.437  26.465  1.00  0.00     0.014 A 
ATOM     33  C   UNL A   1      43.770  22.319  24.342  1.00  0.00     0.014 A 
ATOM     34  C   UNL A   1      44.759  22.740  26.921  1.00  0.00     0.010 A 
ATOM     35  C   UNL A   1      44.039  23.614  24.778  1.00  0.00     0.010 A 
ATOM     36  C   UNL A   1      44.545  23.837  26.067  1.00  0.00    -0.014 A 
BRANCH  36  37
ATOM     37  C   UNL A   1      44.881  25.212  26.516  1.00  0.00     0.031 A 
ATOM     38  C   UNL A   1      46.290  25.726  26.413  1.00  0.00     0.074 A 
ATOM     39  C   UNL A   1      43.914  25.990  27.047  1.00  0.00     0.049 A 
ATOM     40  N   UNL A   1      46.756  26.915  26.698  1.00  0.00    -0.248 NA
ATOM     41  C   UNL A   1      47.314  24.774  25.958  1.00  0.00     0.031 C 
ATOM     42  C   UNL A   1      42.527  25.575  27.278  1.00  0.00     0.029 A 
ATOM     43  N   UNL A   1      43.944  27.291  27.481  1.00  0.00    -0.354 N 
ATOM     44  C   UNL A   1      48.123  26.854  26.453  1.00  0.00     0.074 A 
ATOM     45  C   UNL A   1      48.422  25.494  26.062  1.00  0.00     0.031 C 
ATOM     46  C   UNL A   1      41.833  26.613  27.771  1.00  0.00     0.029 A 
ATOM     47  C   UNL A   1      42.724  27.760  27.910  1.00  0.00     0.049 A 
ATOM     48  H   UNL A   1      44.763  27.838  27.485  1.00  0.00     0.167 HD
ATOM     49  C   UNL A   1      49.040  27.850  26.516  1.00  0.00     0.037 A 
ATOM     50  C   UNL A   1      42.361  28.983  28.344  1.00  0.00     0.037 A 
ATOM     51  C   UNL A   1      48.732  29.206  26.890  1.00  0.00     0.049 A 
ATOM     52  C   UNL A   1      43.389  30.082  28.370  1.00  0.00     0.074 A 
ATOM     53  C   UNL A   1      49.574  30.304  26.928  1.00  0.00     0.029 A 
ATOM     54  N   UNL A   1      47.481  29.650  27.294  1.00  0.00    -0.354 N 
ATOM     55  N   UNL A   1      44.659  30.030  28.047  1.00  0.00    -0.248 NA
ATOM     56  C   UNL A   1      42.930  31.409  28.800  1.00  0.00     0.031 C 
ATOM     57  C   UNL A   1      48.841  31.402  27.392  1.00  0.00     0.029 A 
ATOM     58  C   UNL A   1      47.532  31.000  27.600  1.00  0.00     0.049 A 
ATOM     59  H   UNL A   1      46.674  29.087  27.354  1.00  0.00     0.167 HD
ATOM     60  C   UNL A   1      45.149  31.320  28.217  1.00  0.00     0.074 A 
ATOM     61  C   UNL A   1      44.029  32.134  28.647  1.00  0.00     0.031 C 
ATOM     62  C   UNL A   1      46.408  31.790  28.038  1.00  0.00     0.037 A 
BRANCH  49  63
ATOM     63  C   UNL A   1      50.460  27.506  26.157  1.00  0.00     0.058 A 
ATOM     64  C   UNL A   1      50.921  27.580  24.832  1.00  0.00     0.135 A 
ATOM     65  C   UNL A   1      51.378  27.119  27.147  1.00  0.00     0.135 A 
ATOM     66  F   UNL A   1      50.083  27.929  23.843  1.00  0.00    -0.206 F 
ATOM     67  C   UNL A   1      52.231  27.251  24.497  1.00  0.00     0.059 A 
ATOM     68  C   UNL A   1      52.700  26.812  26.838  1.00  0.00     0.059 A 
ATOM     69  F   UNL A   1      50.992  27.029  28.430  1.00  0.00    -0.206 F 
ATOM     70  C   UNL A   1      53.113  26.866  25.507  1.00  0.00     0.060 A 
BRANCH  70  71
ATOM     71  S   UNL A   1      54.809  26.445  25.055  1.00  0.00     0.124 S 
ATOM     72  O   UNL A   1      54.712  24.998  24.883  1.00  0.00    -0.237 OA
ATOM     73  O   UNL A   1      55.008  27.217  23.833  1.00  0.00    -0.237 OA
ATOM     74  O   UNL A   1      55.588  26.889  26.207  1.00  0.00    -0.744 OA
ENDBRANCH  70  71
ENDBRANCH  49  63
BRANCH  50  75
ATOM     75  C   UNL A   1      40.951  29.245  28.743  1.00  0.00     0.058 A 
ATOM     76  C   UNL A   1      39.944  29.402  27.778  1.00  0.00     0.135 A 
ATOM     77  C   UNL A   1      40.580  29.333  30.093  1.00  0.00     0.135 A 
ATOM     78  F   UNL A   1      40.250  29.331  26.473  1.00  0.00    -0.206 F 
ATOM     79  C   UNL A   1      38.624  29.655  28.134  1.00  0.00     0.059 A 
ATOM     80  C   UNL A   1      39.262  29.561  30.476  1.00  0.00     0.059 A 
ATOM     81  F   UNL A   1      41.501  29.172  31.056  1.00  0.00    -0.206 F 
ATOM     82  C   UNL A   1      38.292  29.731  29.489  1.00  0.00     0.060 A 
BRANCH  82  83
ATOM     83  S   UNL A   1      36.565  30.007  29.944  1.00  0.00     0.124 S 
ATOM     84  O   UNL A   1      36.459  29.234  31.176  1.00  0.00    -0.237 OA
ATOM     85  O   UNL A   1      36.515  31.457  30.093  1.00  0.00    -0.237 OA
ATOM     86  O   UNL A   1      35.830  29.476  28.800  1.00  0.00    -0.744 OA
ENDBRANCH  82  83
ENDBRANCH  50  75
BRANCH  62  87
ATOM     87  C   UNL A   1      46.631  33.255  28.296  1.00  0.00     0.058 A 
ATOM     88  C   UNL A   1      47.012  33.729  29.562  1.00  0.00     0.135 A 
ATOM     89  C   UNL A   1      46.471  34.194  27.265  1.00  0.00     0.135 A 
ATOM     90  F   UNL A   1      47.176  32.873  30.583  1.00  0.00    -0.206 F 
ATOM     91  C   UNL A   1      47.179  35.087  29.808  1.00  0.00     0.059 A 
ATOM     92  C   UNL A   1      46.662  35.555  27.481  1.00  0.00     0.059 A 
ATOM     93  F   UNL A   1      46.124  33.792  26.032  1.00  0.00    -0.206 F 
ATOM     94  C   UNL A   1      46.995  35.994  28.762  1.00  0.00     0.060 A 
BRANCH  94  95
ATOM     95  S   UNL A   1      47.204  37.756  29.094  1.00  0.00     0.124 S 
ATOM     96  O   UNL A   1      47.679  37.738  30.474  1.00  0.00    -0.237 OA
ATOM     97  O   UNL A   1      48.187  38.151  28.091  1.00  0.00    -0.237 OA
ATOM     98  O   UNL A   1      45.864  38.299  28.897  1.00  0.00    -0.744 OA
ENDBRANCH  94  95
ENDBRANCH  62  87
ENDBRANCH  36  37
ENDBRANCH  28  31
ENDBRANCH  26  27
ENDBRANCH  25  26
ENDBRANCH  24  25
ENDBRANCH   1  24
TORSDOF 20
ENDMDL
