MODEL 1
REMARK VINA RESULT:      -8.3      0.000      0.000
REMARK SMILES Cc1ccc(N2C(=O)/C(=C\c3ccccc3O[C@H](C)C(=O)NCCCCCCNC(=O)c3ccc(-c4c5nc(c(-c6c(F)cc(S(=O)(=O)[O-])cc6F)c6ccc([nH]6)c(-c6c(F)cc(S(=O)(=O)[O-])cc6F)c6nc(c(-c7c(F)cc(S(=O)(=O)[O-])cc7F)c7ccc4[nH]7)C=C6)C=C5)cc3)SC2=S)c(C)c1
REMARK SMILES IDX 25 1 24 2 23 3 22 4 20 5 21 6 18 8 19 9 17 10 16 11 11 12
REMARK SMILES IDX 12 13 13 14 15 15 14 16 10 17 6 18 7 19 99 20 8 21 9 22
REMARK SMILES IDX 98 23 100 24 5 25 1 26 2 27 3 28 103 29 4 30 101 31 102 32
REMARK SMILES IDX 26 33 27 34 28 35 29 36 30 37 31 39 32 40 33 41 97 42 34 43
REMARK SMILES IDX 96 44 35 45 36 46 37 47 90 48 38 49 95 50 89 51 91 52 39 53
REMARK SMILES IDX 94 54 88 55 87 56 40 58 74 59 53 60 73 61 54 62 57 63 72 64
REMARK SMILES IDX 92 65 55 66 56 67 71 69 93 70 58 71 41 72 42 73 51 74 43 75
REMARK SMILES IDX 44 76 50 77 52 78 45 79 46 80 47 81 48 82 49 83 75 84 76 85
REMARK SMILES IDX 85 86 77 87 78 88 84 89 86 90 79 91 80 92 81 93 82 94 83 95
REMARK SMILES IDX 59 96 60 97 69 98 61 99 62 100 68 101 70 102 63 103 64 104
REMARK SMILES IDX 65 105 66 106 67 107
REMARK H PARENT 22 7 29 38 91 57 57 68
REMARK Flexibility Score: inf
ROOT
ATOM      1  C   UNL A   1      43.872  35.498  29.079  1.00  0.00     0.002 C 
ENDROOT
BRANCH   1   2
ATOM      2  C   UNL A   1      43.092  35.261  30.373  1.00  0.00     0.021 C 
BRANCH   2   3
ATOM      3  C   UNL A   1      43.651  34.145  31.251  1.00  0.00     0.116 C 
BRANCH   3   4
ATOM      4  N   UNL A   1      42.765  33.821  32.359  1.00  0.00    -0.353 N 
ATOM      5  C   UNL A   1      42.990  33.002  33.438  1.00  0.00     0.260 C 
ATOM      6  O   UNL A   1      42.105  32.909  34.292  1.00  0.00    -0.271 OA
ATOM      7  H   UNL A   1      41.879  34.250  32.331  1.00  0.00     0.163 HD
BRANCH   5   8
ATOM      8  C   UNL A   1      44.301  32.201  33.542  1.00  0.00     0.258 C 
ATOM      9  C   UNL A   1      44.819  32.309  34.974  1.00  0.00     0.064 C 
BRANCH   8  10
ATOM     10  O   UNL A   1      43.916  30.913  33.075  1.00  0.00    -0.480 OA
BRANCH  10  11
ATOM     11  C   UNL A   1      44.650  30.110  32.262  1.00  0.00     0.127 A 
ATOM     12  C   UNL A   1      44.189  28.775  32.192  1.00  0.00     0.018 A 
ATOM     13  C   UNL A   1      44.940  27.810  31.510  1.00  0.00     0.012 A 
ATOM     14  C   UNL A   1      46.115  28.177  30.858  1.00  0.00     0.001 A 
ATOM     15  C   UNL A   1      45.791  30.476  31.558  1.00  0.00     0.047 A 
ATOM     16  C   UNL A   1      46.526  29.509  30.865  1.00  0.00     0.004 A 
BRANCH  12  17
ATOM     17  C   UNL A   1      42.916  28.365  32.811  1.00  0.00     0.033 C 
ATOM     18  N   UNL A   1      43.409  26.232  35.752  1.00  0.00    -0.261 N 
ATOM     19  C   UNL A   1      43.921  27.048  34.747  1.00  0.00     0.270 C 
ATOM     20  C   UNL A   1      42.030  26.120  35.820  1.00  0.00     0.152 C 
ATOM     21  O   UNL A   1      45.106  27.291  34.549  1.00  0.00    -0.268 OA
ATOM     22  C   UNL A   1      42.810  27.598  33.908  1.00  0.00     0.081 C 
ATOM     23  S   UNL A   1      41.292  27.072  34.530  1.00  0.00    -0.054 SA
ATOM     24  S   UNL A   1      41.079  25.334  36.951  1.00  0.00    -0.051 S 
BRANCH  18  25
ATOM     25  C   UNL A   1      44.316  25.523  36.599  1.00  0.00     0.054 A 
ATOM     26  C   UNL A   1      46.731  23.368  39.471  1.00  0.00     0.044 C 
ATOM     27  C   UNL A   1      45.918  24.136  38.471  1.00  0.00    -0.051 A 
ATOM     28  C   UNL A   1      45.571  25.467  38.693  1.00  0.00     0.005 A 
ATOM     29  C   UNL A   1      45.478  23.507  37.302  1.00  0.00     0.009 A 
ATOM     30  C   UNL A   1      44.776  26.152  37.770  1.00  0.00     0.027 A 
ATOM     31  C   UNL A   1      44.694  24.186  36.351  1.00  0.00    -0.027 A 
ATOM     32  C   UNL A   1      44.302  23.423  35.112  1.00  0.00     0.046 C 
ENDBRANCH  18  25
ENDBRANCH  12  17
ENDBRANCH  10  11
ENDBRANCH   8  10
ENDBRANCH   5   8
ENDBRANCH   3   4
ENDBRANCH   2   3
ENDBRANCH   1   2
BRANCH   1  33
ATOM     33  C   UNL A   1      43.781  36.916  28.507  1.00  0.00     0.002 C 
BRANCH  33  34
ATOM     34  C   UNL A   1      44.681  37.960  29.177  1.00  0.00     0.021 C 
BRANCH  34  35
ATOM     35  C   UNL A   1      45.912  37.396  29.881  1.00  0.00     0.116 C 
BRANCH  35  36
ATOM     36  N   UNL A   1      47.121  37.562  29.091  1.00  0.00    -0.352 N 
ATOM     37  C   UNL A   1      47.867  36.619  28.429  1.00  0.00     0.251 C 
ATOM     38  H   UNL A   1      47.453  38.485  29.020  1.00  0.00     0.163 HD
ATOM     39  O   UNL A   1      48.962  36.924  27.967  1.00  0.00    -0.269 OA
BRANCH  37  40
ATOM     40  C   UNL A   1      47.362  35.234  28.289  1.00  0.00     0.039 A 
ATOM     41  C   UNL A   1      46.835  34.831  27.059  1.00  0.00     0.014 A 
ATOM     42  C   UNL A   1      47.379  34.346  29.368  1.00  0.00     0.014 A 
ATOM     43  C   UNL A   1      46.374  33.522  26.895  1.00  0.00     0.010 A 
ATOM     44  C   UNL A   1      46.979  33.023  29.186  1.00  0.00     0.010 A 
ATOM     45  C   UNL A   1      46.466  32.599  27.950  1.00  0.00    -0.014 A 
BRANCH  45  46
ATOM     46  C   UNL A   1      46.016  31.193  27.782  1.00  0.00     0.031 A 
ATOM     47  C   UNL A   1      44.581  30.822  28.044  1.00  0.00     0.074 A 
ATOM     48  C   UNL A   1      46.910  30.242  27.447  1.00  0.00     0.049 A 
ATOM     49  N   UNL A   1      44.013  29.643  28.010  1.00  0.00    -0.248 NA
ATOM     50  C   UNL A   1      43.671  31.915  28.421  1.00  0.00     0.031 C 
ATOM     51  C   UNL A   1      48.338  30.468  27.213  1.00  0.00     0.029 A 
ATOM     52  N   UNL A   1      46.753  28.893  27.255  1.00  0.00    -0.354 N 
ATOM     53  C   UNL A   1      42.688  29.850  28.373  1.00  0.00     0.074 A 
ATOM     54  C   UNL A   1      42.548  31.258  28.674  1.00  0.00     0.031 C 
ATOM     55  C   UNL A   1      48.921  29.301  26.890  1.00  0.00     0.029 A 
ATOM     56  C   UNL A   1      47.919  28.241  26.926  1.00  0.00     0.049 A 
ATOM     57  H   UNL A   1      45.887  28.433  27.344  1.00  0.00     0.167 HD
ATOM     58  C   UNL A   1      41.674  28.952  28.430  1.00  0.00     0.037 A 
ATOM     59  C   UNL A   1      48.154  26.937  26.684  1.00  0.00     0.037 A 
ATOM     60  C   UNL A   1      41.812  27.558  28.099  1.00  0.00     0.049 A 
ATOM     61  C   UNL A   1      47.010  25.961  26.741  1.00  0.00     0.074 A 
ATOM     62  C   UNL A   1      40.833  26.581  28.064  1.00  0.00     0.029 A 
ATOM     63  N   UNL A   1      43.004  26.942  27.743  1.00  0.00    -0.354 N 
ATOM     64  N   UNL A   1      45.750  26.184  27.025  1.00  0.00    -0.248 NA
ATOM     65  C   UNL A   1      47.318  24.556  26.438  1.00  0.00     0.031 C 
ATOM     66  C   UNL A   1      41.439  25.367  27.725  1.00  0.00     0.029 A 
ATOM     67  C   UNL A   1      42.788  25.595  27.506  1.00  0.00     0.049 A 
ATOM     68  H   UNL A   1      43.874  27.396  27.672  1.00  0.00     0.167 HD
ATOM     69  C   UNL A   1      45.110  24.955  26.911  1.00  0.00     0.074 A 
ATOM     70  C   UNL A   1      46.120  23.993  26.521  1.00  0.00     0.031 C 
ATOM     71  C   UNL A   1      43.803  24.652  27.111  1.00  0.00     0.037 A 
BRANCH  58  72
ATOM     72  C   UNL A   1      40.323  29.455  28.859  1.00  0.00     0.058 A 
ATOM     73  C   UNL A   1      39.279  29.638  27.936  1.00  0.00     0.135 A 
ATOM     74  C   UNL A   1      40.057  29.728  30.210  1.00  0.00     0.135 A 
ATOM     75  F   UNL A   1      39.482  29.405  26.630  1.00  0.00    -0.206 F 
ATOM     76  C   UNL A   1      38.032  30.105  28.334  1.00  0.00     0.059 A 
ATOM     77  C   UNL A   1      38.807  30.171  30.634  1.00  0.00     0.059 A 
ATOM     78  F   UNL A   1      41.018  29.570  31.133  1.00  0.00    -0.206 F 
ATOM     79  C   UNL A   1      37.805  30.372  29.685  1.00  0.00     0.060 A 
BRANCH  79  80
ATOM     80  S   UNL A   1      36.181  30.981  30.185  1.00  0.00     0.124 S 
ATOM     81  O   UNL A   1      35.894  30.132  31.337  1.00  0.00    -0.237 OA
ATOM     82  O   UNL A   1      36.450  32.384  30.483  1.00  0.00    -0.237 OA
ATOM     83  O   UNL A   1      35.353  30.743  29.007  1.00  0.00    -0.744 OA
ENDBRANCH  79  80
ENDBRANCH  58  72
BRANCH  59  84
ATOM     84  C   UNL A   1      49.527  26.482  26.341  1.00  0.00     0.058 A 
ATOM     85  C   UNL A   1      50.347  25.875  27.304  1.00  0.00     0.135 A 
ATOM     86  C   UNL A   1      50.041  26.630  25.044  1.00  0.00     0.135 A 
ATOM     87  F   UNL A   1      49.901  25.718  28.560  1.00  0.00    -0.206 F 
ATOM     88  C   UNL A   1      51.634  25.445  26.999  1.00  0.00     0.059 A 
ATOM     89  C   UNL A   1      51.316  26.186  24.708  1.00  0.00     0.059 A 
ATOM     90  F   UNL A   1      49.290  27.189  24.082  1.00  0.00    -0.206 F 
ATOM     91  C   UNL A   1      52.109  25.602  25.696  1.00  0.00     0.060 A 
BRANCH  91  92
ATOM     92  S   UNL A   1      53.763  24.994  25.296  1.00  0.00     0.124 S 
ATOM     93  O   UNL A   1      54.075  25.761  24.096  1.00  0.00    -0.237 OA
ATOM     94  O   UNL A   1      54.517  25.345  26.494  1.00  0.00    -0.237 OA
ATOM     95  O   UNL A   1      53.551  23.563  25.095  1.00  0.00    -0.744 OA
ENDBRANCH  91  92
ENDBRANCH  59  84
BRANCH  71  96
ATOM     96  C   UNL A   1      43.381  23.228  26.882  1.00  0.00     0.058 A 
ATOM     97  C   UNL A   1      43.277  22.689  25.590  1.00  0.00     0.135 A 
ATOM     98  C   UNL A   1      43.134  22.376  27.970  1.00  0.00     0.135 A 
ATOM     99  F   UNL A   1      43.496  23.464  24.516  1.00  0.00    -0.206 F 
ATOM    100  C   UNL A   1      42.926  21.359  25.385  1.00  0.00     0.059 A 
ATOM    101  C   UNL A   1      42.806  21.036  27.789  1.00  0.00     0.059 A 
ATOM    102  F   UNL A   1      43.230  22.840  29.227  1.00  0.00    -0.206 F 
ATOM    103  C   UNL A   1      42.694  20.539  26.491  1.00  0.00     0.060 A 
BRANCH 103 104
ATOM    104  S   UNL A   1      42.281  18.804  26.213  1.00  0.00     0.124 S 
ATOM    105  O   UNL A   1      40.857  18.887  25.907  1.00  0.00    -0.237 OA
ATOM    106  O   UNL A   1      43.150  18.450  25.095  1.00  0.00    -0.237 OA
ATOM    107  O   UNL A   1      42.614  18.168  27.484  1.00  0.00    -0.744 OA
ENDBRANCH 103 104
ENDBRANCH  71  96
ENDBRANCH  45  46
ENDBRANCH  37  40
ENDBRANCH  35  36
ENDBRANCH  34  35
ENDBRANCH  33  34
ENDBRANCH   1  33
TORSDOF 20
ENDMDL
MODEL 2
REMARK VINA RESULT:      -8.2      3.012      9.149
REMARK SMILES Cc1ccc(N2C(=O)/C(=C\c3ccccc3O[C@H](C)C(=O)NCCCCCCNC(=O)c3ccc(-c4c5nc(c(-c6c(F)cc(S(=O)(=O)[O-])cc6F)c6ccc([nH]6)c(-c6c(F)cc(S(=O)(=O)[O-])cc6F)c6nc(c(-c7c(F)cc(S(=O)(=O)[O-])cc7F)c7ccc4[nH]7)C=C6)C=C5)cc3)SC2=S)c(C)c1
REMARK SMILES IDX 25 1 24 2 23 3 22 4 20 5 21 6 18 8 19 9 17 10 16 11 11 12
REMARK SMILES IDX 12 13 13 14 15 15 14 16 10 17 6 18 7 19 99 20 8 21 9 22
REMARK SMILES IDX 98 23 100 24 5 25 1 26 2 27 3 28 103 29 4 30 101 31 102 32
REMARK SMILES IDX 26 33 27 34 28 35 29 36 30 37 31 39 32 40 33 41 97 42 34 43
REMARK SMILES IDX 96 44 35 45 36 46 37 47 90 48 38 49 95 50 89 51 91 52 39 53
REMARK SMILES IDX 94 54 88 55 87 56 40 58 74 59 53 60 73 61 54 62 57 63 72 64
REMARK SMILES IDX 92 65 55 66 56 67 71 69 93 70 58 71 41 72 42 73 51 74 43 75
REMARK SMILES IDX 44 76 50 77 52 78 45 79 46 80 47 81 48 82 49 83 75 84 76 85
REMARK SMILES IDX 85 86 77 87 78 88 84 89 86 90 79 91 80 92 81 93 82 94 83 95
REMARK SMILES IDX 59 96 60 97 69 98 61 99 62 100 68 101 70 102 63 103 64 104
REMARK SMILES IDX 65 105 66 106 67 107
REMARK H PARENT 22 7 29 38 91 57 57 68
REMARK Flexibility Score: inf
ROOT
ATOM      1  C   UNL A   1      34.684  34.196  32.918  1.00  0.00     0.002 C 
ENDROOT
BRANCH   1   2
ATOM      2  C   UNL A   1      35.834  34.398  33.906  1.00  0.00     0.021 C 
BRANCH   2   3
ATOM      3  C   UNL A   1      36.385  33.107  34.505  1.00  0.00     0.116 C 
BRANCH   3   4
ATOM      4  N   UNL A   1      37.156  33.348  35.715  1.00  0.00    -0.353 N 
ATOM      5  C   UNL A   1      38.237  32.656  36.206  1.00  0.00     0.260 C 
ATOM      6  O   UNL A   1      38.771  33.070  37.238  1.00  0.00    -0.271 OA
ATOM      7  H   UNL A   1      36.861  34.113  36.259  1.00  0.00     0.163 HD
BRANCH   5   8
ATOM      8  C   UNL A   1      38.730  31.382  35.495  1.00  0.00     0.258 C 
ATOM      9  C   UNL A   1      38.934  31.704  34.018  1.00  0.00     0.064 C 
BRANCH   8  10
ATOM     10  O   UNL A   1      39.877  31.026  36.258  1.00  0.00    -0.480 OA
BRANCH  10  11
ATOM     11  C   UNL A   1      40.885  30.212  35.847  1.00  0.00     0.127 A 
ATOM     12  C   UNL A   1      42.129  30.862  35.685  1.00  0.00     0.018 A 
ATOM     13  C   UNL A   1      43.211  30.173  35.124  1.00  0.00     0.012 A 
ATOM     14  C   UNL A   1      43.074  28.832  34.774  1.00  0.00     0.001 A 
ATOM     15  C   UNL A   1      40.777  28.859  35.550  1.00  0.00     0.047 A 
ATOM     16  C   UNL A   1      41.868  28.173  35.005  1.00  0.00     0.004 A 
BRANCH  12  17
ATOM     17  C   UNL A   1      42.330  32.260  36.109  1.00  0.00     0.033 C 
ATOM     18  N   UNL A   1      42.479  34.577  33.271  1.00  0.00    -0.261 N 
ATOM     19  C   UNL A   1      42.255  33.303  33.785  1.00  0.00     0.270 C 
ATOM     20  C   UNL A   1      42.739  35.581  34.190  1.00  0.00     0.152 C 
ATOM     21  O   UNL A   1      41.983  32.301  33.134  1.00  0.00    -0.268 OA
ATOM     22  C   UNL A   1      42.404  33.309  35.274  1.00  0.00     0.081 C 
ATOM     23  S   UNL A   1      42.738  34.909  35.822  1.00  0.00    -0.054 SA
ATOM     24  S   UNL A   1      42.935  37.226  33.945  1.00  0.00    -0.051 S 
BRANCH  18  25
ATOM     25  C   UNL A   1      42.488  34.762  31.854  1.00  0.00     0.054 A 
ATOM     26  C   UNL A   1      42.284  35.704  27.635  1.00  0.00     0.044 C 
ATOM     27  C   UNL A   1      42.345  35.347  29.091  1.00  0.00    -0.051 A 
ATOM     28  C   UNL A   1      41.200  34.970  29.790  1.00  0.00     0.005 A 
ATOM     29  C   UNL A   1      43.564  35.412  29.774  1.00  0.00     0.009 A 
ATOM     30  C   UNL A   1      41.269  34.685  31.156  1.00  0.00     0.027 A 
ATOM     31  C   UNL A   1      43.658  35.108  31.145  1.00  0.00    -0.027 A 
ATOM     32  C   UNL A   1      45.026  35.178  31.772  1.00  0.00     0.046 C 
ENDBRANCH  18  25
ENDBRANCH  12  17
ENDBRANCH  10  11
ENDBRANCH   8  10
ENDBRANCH   5   8
ENDBRANCH   3   4
ENDBRANCH   2   3
ENDBRANCH   1   2
BRANCH   1  33
ATOM     33  C   UNL A   1      35.088  34.142  31.441  1.00  0.00     0.002 C 
BRANCH  33  34
ATOM     34  C   UNL A   1      36.591  34.250  31.161  1.00  0.00     0.021 C 
BRANCH  34  35
ATOM     35  C   UNL A   1      37.266  32.947  30.745  1.00  0.00     0.116 C 
BRANCH  35  36
ATOM     36  N   UNL A   1      36.446  31.784  31.039  1.00  0.00    -0.352 N 
ATOM     37  C   UNL A   1      36.688  30.458  30.782  1.00  0.00     0.251 C 
ATOM     38  H   UNL A   1      35.591  31.976  31.487  1.00  0.00     0.163 HD
ATOM     39  O   UNL A   1      35.792  29.634  30.938  1.00  0.00    -0.269 OA
BRANCH  37  40
ATOM     40  C   UNL A   1      38.019  30.024  30.302  1.00  0.00     0.039 A 
ATOM     41  C   UNL A   1      38.269  30.012  28.927  1.00  0.00     0.014 A 
ATOM     42  C   UNL A   1      39.009  29.603  31.196  1.00  0.00     0.014 A 
ATOM     43  C   UNL A   1      39.525  29.629  28.450  1.00  0.00     0.010 A 
ATOM     44  C   UNL A   1      40.281  29.284  30.724  1.00  0.00     0.010 A 
ATOM     45  C   UNL A   1      40.550  29.286  29.347  1.00  0.00    -0.014 A 
BRANCH  45  46
ATOM     46  C   UNL A   1      41.903  28.913  28.859  1.00  0.00     0.031 A 
ATOM     47  C   UNL A   1      42.983  29.956  28.752  1.00  0.00     0.074 A 
ATOM     48  C   UNL A   1      42.144  27.647  28.461  1.00  0.00     0.049 A 
ATOM     49  N   UNL A   1      44.203  29.838  28.295  1.00  0.00    -0.248 NA
ATOM     50  C   UNL A   1      42.636  31.318  29.191  1.00  0.00     0.031 C 
ATOM     51  C   UNL A   1      41.167  26.557  28.471  1.00  0.00     0.029 A 
ATOM     52  N   UNL A   1      43.283  27.067  27.961  1.00  0.00    -0.354 N 
ATOM     53  C   UNL A   1      44.763  31.108  28.377  1.00  0.00     0.074 A 
ATOM     54  C   UNL A   1      43.734  31.991  28.879  1.00  0.00     0.031 C 
ATOM     55  C   UNL A   1      41.753  25.436  28.019  1.00  0.00     0.029 A 
ATOM     56  C   UNL A   1      43.135  25.734  27.655  1.00  0.00     0.049 A 
ATOM     57  H   UNL A   1      44.126  27.558  27.833  1.00  0.00     0.167 HD
ATOM     58  C   UNL A   1      46.027  31.497  28.082  1.00  0.00     0.037 A 
ATOM     59  C   UNL A   1      44.013  24.853  27.137  1.00  0.00     0.037 A 
ATOM     60  C   UNL A   1      47.056  30.608  27.612  1.00  0.00     0.049 A 
ATOM     61  C   UNL A   1      45.414  25.306  26.829  1.00  0.00     0.074 A 
ATOM     62  C   UNL A   1      48.384  30.893  27.345  1.00  0.00     0.029 A 
ATOM     63  N   UNL A   1      46.875  29.259  27.341  1.00  0.00    -0.354 N 
ATOM     64  N   UNL A   1      45.945  26.497  26.972  1.00  0.00    -0.248 NA
ATOM     65  C   UNL A   1      46.339  24.296  26.295  1.00  0.00     0.031 C 
ATOM     66  C   UNL A   1      48.996  29.726  26.876  1.00  0.00     0.029 A 
ATOM     67  C   UNL A   1      48.061  28.702  26.892  1.00  0.00     0.049 A 
ATOM     68  H   UNL A   1      46.028  28.770  27.451  1.00  0.00     0.167 HD
ATOM     69  C   UNL A   1      47.270  26.373  26.570  1.00  0.00     0.074 A 
ATOM     70  C   UNL A   1      47.464  24.990  26.188  1.00  0.00     0.031 C 
ATOM     71  C   UNL A   1      48.239  27.321  26.523  1.00  0.00     0.037 A 
BRANCH  58  72
ATOM     72  C   UNL A   1      46.368  32.951  28.267  1.00  0.00     0.058 A 
ATOM     73  C   UNL A   1      47.096  33.399  29.382  1.00  0.00     0.135 A 
ATOM     74  C   UNL A   1      45.990  33.902  27.307  1.00  0.00     0.135 A 
ATOM     75  F   UNL A   1      47.471  32.534  30.337  1.00  0.00    -0.206 F 
ATOM     76  C   UNL A   1      47.408  34.743  29.553  1.00  0.00     0.059 A 
ATOM     77  C   UNL A   1      46.316  35.249  27.445  1.00  0.00     0.059 A 
ATOM     78  F   UNL A   1      45.294  33.528  26.222  1.00  0.00    -0.206 F 
ATOM     79  C   UNL A   1      47.011  35.662  28.580  1.00  0.00     0.060 A 
BRANCH  79  80
ATOM     80  S   UNL A   1      47.421  37.403  28.819  1.00  0.00     0.124 S 
ATOM     81  O   UNL A   1      48.191  37.354  30.058  1.00  0.00    -0.237 OA
ATOM     82  O   UNL A   1      48.183  37.714  27.613  1.00  0.00    -0.237 OA
ATOM     83  O   UNL A   1      46.116  38.049  28.915  1.00  0.00    -0.744 OA
ENDBRANCH  79  80
ENDBRANCH  58  72
BRANCH  59  84
ATOM     84  C   UNL A   1      43.598  23.445  26.900  1.00  0.00     0.058 A 
ATOM     85  C   UNL A   1      43.395  22.963  25.598  1.00  0.00     0.135 A 
ATOM     86  C   UNL A   1      43.412  22.551  27.966  1.00  0.00     0.135 A 
ATOM     87  F   UNL A   1      43.556  23.782  24.548  1.00  0.00    -0.206 F 
ATOM     88  C   UNL A   1      43.007  21.649  25.360  1.00  0.00     0.059 A 
ATOM     89  C   UNL A   1      43.047  21.226  27.751  1.00  0.00     0.059 A 
ATOM     90  F   UNL A   1      43.610  22.960  29.228  1.00  0.00    -0.206 F 
ATOM     91  C   UNL A   1      42.837  20.786  26.445  1.00  0.00     0.060 A 
BRANCH  91  92
ATOM     92  S   UNL A   1      42.383  19.068  26.123  1.00  0.00     0.124 S 
ATOM     93  O   UNL A   1      42.653  18.446  27.414  1.00  0.00    -0.237 OA
ATOM     94  O   UNL A   1      40.977  19.186  25.751  1.00  0.00    -0.237 OA
ATOM     95  O   UNL A   1      43.280  18.683  25.037  1.00  0.00    -0.744 OA
ENDBRANCH  91  92
ENDBRANCH  59  84
BRANCH  71  96
ATOM     96  C   UNL A   1      49.606  26.890  26.070  1.00  0.00     0.058 A 
ATOM     97  C   UNL A   1      50.506  26.260  26.943  1.00  0.00     0.135 A 
ATOM     98  C   UNL A   1      49.998  27.058  24.732  1.00  0.00     0.135 A 
ATOM     99  F   UNL A   1      50.182  26.082  28.233  1.00  0.00    -0.206 F 
ATOM    100  C   UNL A   1      51.754  25.826  26.509  1.00  0.00     0.059 A 
ATOM    101  C   UNL A   1      51.231  26.610  24.271  1.00  0.00     0.059 A 
ATOM    102  F   UNL A   1      49.170  27.647  23.854  1.00  0.00    -0.206 F 
ATOM    103  C   UNL A   1      52.107  26.004  25.170  1.00  0.00     0.060 A 
BRANCH 103 104
ATOM    104  S   UNL A   1      53.713  25.399  24.610  1.00  0.00     0.124 S 
ATOM    105  O   UNL A   1      53.526  23.954  24.688  1.00  0.00    -0.237 OA
ATOM    106  O   UNL A   1      53.804  25.953  23.262  1.00  0.00    -0.237 OA
ATOM    107  O   UNL A   1      54.646  25.964  25.579  1.00  0.00    -0.744 OA
ENDBRANCH 103 104
ENDBRANCH  71  96
ENDBRANCH  45  46
ENDBRANCH  37  40
ENDBRANCH  35  36
ENDBRANCH  34  35
ENDBRANCH  33  34
ENDBRANCH   1  33
TORSDOF 20
ENDMDL
MODEL 3
REMARK VINA RESULT:      -8.2      1.242      7.941
REMARK SMILES Cc1ccc(N2C(=O)/C(=C\c3ccccc3O[C@H](C)C(=O)NCCCCCCNC(=O)c3ccc(-c4c5nc(c(-c6c(F)cc(S(=O)(=O)[O-])cc6F)c6ccc([nH]6)c(-c6c(F)cc(S(=O)(=O)[O-])cc6F)c6nc(c(-c7c(F)cc(S(=O)(=O)[O-])cc7F)c7ccc4[nH]7)C=C6)C=C5)cc3)SC2=S)c(C)c1
REMARK SMILES IDX 25 1 24 2 23 3 22 4 20 5 21 6 18 8 19 9 17 10 16 11 11 12
REMARK SMILES IDX 12 13 13 14 15 15 14 16 10 17 6 18 7 19 99 20 8 21 9 22
REMARK SMILES IDX 98 23 100 24 5 25 1 26 2 27 3 28 103 29 4 30 101 31 102 32
REMARK SMILES IDX 26 33 27 34 28 35 29 36 30 37 31 39 32 40 33 41 97 42 34 43
REMARK SMILES IDX 96 44 35 45 36 46 37 47 90 48 38 49 95 50 89 51 91 52 39 53
REMARK SMILES IDX 94 54 88 55 87 56 40 58 74 59 53 60 73 61 54 62 57 63 72 64
REMARK SMILES IDX 92 65 55 66 56 67 71 69 93 70 58 71 41 72 42 73 51 74 43 75
REMARK SMILES IDX 44 76 50 77 52 78 45 79 46 80 47 81 48 82 49 83 75 84 76 85
REMARK SMILES IDX 85 86 77 87 78 88 84 89 86 90 79 91 80 92 81 93 82 94 83 95
REMARK SMILES IDX 59 96 60 97 69 98 61 99 62 100 68 101 70 102 63 103 64 104
REMARK SMILES IDX 65 105 66 106 67 107
REMARK H PARENT 22 7 29 38 91 57 57 68
REMARK Flexibility Score: inf
ROOT
ATOM      1  C   UNL A   1      46.014  35.325  32.864  1.00  0.00     0.002 C 
ENDROOT
BRANCH   1   2
ATOM      2  C   UNL A   1      44.806  34.453  32.519  1.00  0.00     0.021 C 
BRANCH   2   3
ATOM      3  C   UNL A   1      45.066  32.952  32.607  1.00  0.00     0.116 C 
BRANCH   3   4
ATOM      4  N   UNL A   1      44.416  32.347  33.760  1.00  0.00    -0.353 N 
ATOM      5  C   UNL A   1      44.935  31.483  34.693  1.00  0.00     0.260 C 
ATOM      6  O   UNL A   1      44.208  31.130  35.625  1.00  0.00    -0.271 OA
ATOM      7  H   UNL A   1      43.471  32.591  33.888  1.00  0.00     0.163 HD
BRANCH   5   8
ATOM      8  C   UNL A   1      46.373  30.953  34.543  1.00  0.00     0.258 C 
ATOM      9  C   UNL A   1      47.106  31.170  35.864  1.00  0.00     0.064 C 
BRANCH   8  10
ATOM     10  O   UNL A   1      46.166  29.612  34.115  1.00  0.00    -0.480 OA
BRANCH  10  11
ATOM     11  C   UNL A   1      46.375  29.136  32.860  1.00  0.00     0.127 A 
ATOM     12  C   UNL A   1      45.299  28.385  32.335  1.00  0.00     0.018 A 
ATOM     13  C   UNL A   1      45.444  27.713  31.115  1.00  0.00     0.012 A 
ATOM     14  C   UNL A   1      46.631  27.827  30.396  1.00  0.00     0.001 A 
ATOM     15  C   UNL A   1      47.532  29.291  32.106  1.00  0.00     0.047 A 
ATOM     16  C   UNL A   1      47.663  28.630  30.880  1.00  0.00     0.004 A 
BRANCH  12  17
ATOM     17  C   UNL A   1      44.005  28.298  33.035  1.00  0.00     0.033 C 
ATOM     18  N   UNL A   1      43.665  25.205  34.976  1.00  0.00    -0.261 N 
ATOM     19  C   UNL A   1      44.431  26.073  34.202  1.00  0.00     0.270 C 
ATOM     20  C   UNL A   1      42.378  25.618  35.282  1.00  0.00     0.152 C 
ATOM     21  O   UNL A   1      45.594  25.895  33.857  1.00  0.00    -0.268 OA
ATOM     22  C   UNL A   1      43.630  27.280  33.827  1.00  0.00     0.081 C 
ATOM     23  S   UNL A   1      42.064  27.189  34.541  1.00  0.00    -0.054 SA
ATOM     24  S   UNL A   1      41.235  24.897  36.271  1.00  0.00    -0.051 S 
BRANCH  18  25
ATOM     25  C   UNL A   1      44.215  23.940  35.349  1.00  0.00     0.054 A 
ATOM     26  C   UNL A   1      46.178  20.168  36.146  1.00  0.00     0.044 C 
ATOM     27  C   UNL A   1      45.468  21.460  35.871  1.00  0.00    -0.051 A 
ATOM     28  C   UNL A   1      44.711  21.636  34.714  1.00  0.00     0.005 A 
ATOM     29  C   UNL A   1      45.580  22.522  36.775  1.00  0.00     0.009 A 
ATOM     30  C   UNL A   1      44.095  22.862  34.454  1.00  0.00     0.027 A 
ATOM     31  C   UNL A   1      44.949  23.758  36.540  1.00  0.00    -0.027 A 
ATOM     32  C   UNL A   1      45.109  24.821  37.595  1.00  0.00     0.046 C 
ENDBRANCH  18  25
ENDBRANCH  12  17
ENDBRANCH  10  11
ENDBRANCH   8  10
ENDBRANCH   5   8
ENDBRANCH   3   4
ENDBRANCH   2   3
ENDBRANCH   1   2
BRANCH   1  33
ATOM     33  C   UNL A   1      45.702  36.800  33.138  1.00  0.00     0.002 C 
BRANCH  33  34
ATOM     34  C   UNL A   1      46.384  37.806  32.205  1.00  0.00     0.021 C 
BRANCH  34  35
ATOM     35  C   UNL A   1      46.302  37.469  30.719  1.00  0.00     0.116 C 
BRANCH  35  36
ATOM     36  N   UNL A   1      47.567  37.685  30.036  1.00  0.00    -0.352 N 
ATOM     37  C   UNL A   1      48.365  36.785  29.374  1.00  0.00     0.251 C 
ATOM     38  H   UNL A   1      47.900  38.610  30.052  1.00  0.00     0.163 HD
ATOM     39  O   UNL A   1      49.491  37.119  29.018  1.00  0.00    -0.269 OA
BRANCH  37  40
ATOM     40  C   UNL A   1      47.877  35.414  29.105  1.00  0.00     0.039 A 
ATOM     41  C   UNL A   1      48.029  34.439  30.095  1.00  0.00     0.014 A 
ATOM     42  C   UNL A   1      47.299  35.079  27.876  1.00  0.00     0.014 A 
ATOM     43  C   UNL A   1      47.555  33.143  29.875  1.00  0.00     0.010 A 
ATOM     44  C   UNL A   1      46.770  33.805  27.682  1.00  0.00     0.010 A 
ATOM     45  C   UNL A   1      46.899  32.822  28.675  1.00  0.00    -0.014 A 
BRANCH  45  46
ATOM     46  C   UNL A   1      46.355  31.459  28.439  1.00  0.00     0.031 A 
ATOM     47  C   UNL A   1      47.224  30.393  27.828  1.00  0.00     0.074 A 
ATOM     48  C   UNL A   1      45.063  31.198  28.723  1.00  0.00     0.049 A 
ATOM     49  N   UNL A   1      46.914  29.167  27.492  1.00  0.00    -0.248 NA
ATOM     50  C   UNL A   1      48.618  30.762  27.533  1.00  0.00     0.031 C 
ATOM     51  C   UNL A   1      44.106  32.161  29.272  1.00  0.00     0.029 A 
ATOM     52  N   UNL A   1      44.329  30.047  28.579  1.00  0.00    -0.354 N 
ATOM     53  C   UNL A   1      48.066  28.625  26.933  1.00  0.00     0.074 A 
ATOM     54  C   UNL A   1      49.065  29.670  26.929  1.00  0.00     0.031 C 
ATOM     55  C   UNL A   1      42.918  31.555  29.437  1.00  0.00     0.029 A 
ATOM     56  C   UNL A   1      43.018  30.174  28.975  1.00  0.00     0.049 A 
ATOM     57  H   UNL A   1      44.706  29.209  28.224  1.00  0.00     0.167 HD
ATOM     58  C   UNL A   1      48.278  27.364  26.485  1.00  0.00     0.037 A 
ATOM     59  C   UNL A   1      42.011  29.280  28.964  1.00  0.00     0.037 A 
ATOM     60  C   UNL A   1      47.289  26.318  26.520  1.00  0.00     0.049 A 
ATOM     61  C   UNL A   1      42.274  27.882  28.474  1.00  0.00     0.074 A 
ATOM     62  C   UNL A   1      47.425  24.993  26.149  1.00  0.00     0.029 A 
ATOM     63  N   UNL A   1      45.981  26.479  26.956  1.00  0.00    -0.354 N 
ATOM     64  N   UNL A   1      43.386  27.369  28.007  1.00  0.00    -0.248 NA
ATOM     65  C   UNL A   1      41.146  26.939  28.513  1.00  0.00     0.031 C 
ATOM     66  C   UNL A   1      46.189  24.360  26.323  1.00  0.00     0.029 A 
ATOM     67  C   UNL A   1      45.295  25.281  26.844  1.00  0.00     0.049 A 
ATOM     68  H   UNL A   1      45.598  27.321  27.293  1.00  0.00     0.167 HD
ATOM     69  C   UNL A   1      43.101  26.038  27.722  1.00  0.00     0.074 A 
ATOM     70  C   UNL A   1      41.714  25.822  28.078  1.00  0.00     0.031 C 
ATOM     71  C   UNL A   1      43.915  25.082  27.211  1.00  0.00     0.037 A 
BRANCH  58  72
ATOM     72  C   UNL A   1      49.636  27.044  25.924  1.00  0.00     0.058 A 
ATOM     73  C   UNL A   1      50.678  26.574  26.742  1.00  0.00     0.135 A 
ATOM     74  C   UNL A   1      49.893  27.180  24.551  1.00  0.00     0.135 A 
ATOM     75  F   UNL A   1      50.491  26.438  28.064  1.00  0.00    -0.206 F 
ATOM     76  C   UNL A   1      51.934  26.281  26.222  1.00  0.00     0.059 A 
ATOM     77  C   UNL A   1      51.136  26.866  24.005  1.00  0.00     0.059 A 
ATOM     78  F   UNL A   1      48.934  27.624  23.724  1.00  0.00    -0.206 F 
ATOM     79  C   UNL A   1      52.155  26.433  24.852  1.00  0.00     0.060 A 
BRANCH  79  80
ATOM     80  S   UNL A   1      53.791  26.052  24.194  1.00  0.00     0.124 S 
ATOM     81  O   UNL A   1      53.629  26.407  22.787  1.00  0.00    -0.237 OA
ATOM     82  O   UNL A   1      54.656  26.933  24.973  1.00  0.00    -0.237 OA
ATOM     83  O   UNL A   1      53.944  24.627  24.469  1.00  0.00    -0.744 OA
ENDBRANCH  79  80
ENDBRANCH  58  72
BRANCH  59  84
ATOM     84  C   UNL A   1      40.665  29.674  29.458  1.00  0.00     0.058 A 
ATOM     85  C   UNL A   1      40.438  29.909  30.823  1.00  0.00     0.135 A 
ATOM     86  C   UNL A   1      39.585  29.841  28.577  1.00  0.00     0.135 A 
ATOM     87  F   UNL A   1      41.439  29.756  31.704  1.00  0.00    -0.206 F 
ATOM     88  C   UNL A   1      39.185  30.277  31.300  1.00  0.00     0.059 A 
ATOM     89  C   UNL A   1      38.329  30.232  29.028  1.00  0.00     0.059 A 
ATOM     90  F   UNL A   1      39.755  29.645  27.261  1.00  0.00    -0.206 F 
ATOM     91  C   UNL A   1      38.136  30.440  30.394  1.00  0.00     0.060 A 
BRANCH  91  92
ATOM     92  S   UNL A   1      36.525  30.969  31.017  1.00  0.00     0.124 S 
ATOM     93  O   UNL A   1      36.129  29.818  31.820  1.00  0.00    -0.237 OA
ATOM     94  O   UNL A   1      36.864  32.179  31.757  1.00  0.00    -0.237 OA
ATOM     95  O   UNL A   1      35.751  31.185  29.797  1.00  0.00    -0.744 OA
ENDBRANCH  91  92
ENDBRANCH  59  84
BRANCH  71  96
ATOM     96  C   UNL A   1      43.339  23.705  27.034  1.00  0.00     0.058 A 
ATOM     97  C   UNL A   1      42.893  23.249  25.784  1.00  0.00     0.135 A 
ATOM     98  C   UNL A   1      43.288  22.811  28.116  1.00  0.00     0.135 A 
ATOM     99  F   UNL A   1      42.914  24.066  24.720  1.00  0.00    -0.206 F 
ATOM    100  C   UNL A   1      42.398  21.959  25.617  1.00  0.00     0.059 A 
ATOM    101  C   UNL A   1      42.821  21.509  27.966  1.00  0.00     0.059 A 
ATOM    102  F   UNL A   1      43.712  23.195  29.331  1.00  0.00    -0.206 F 
ATOM    103  C   UNL A   1      42.368  21.096  26.714  1.00  0.00     0.060 A 
BRANCH 103 104
ATOM    104  S   UNL A   1      41.765  19.411  26.475  1.00  0.00     0.124 S 
ATOM    105  O   UNL A   1      42.011  18.822  27.787  1.00  0.00    -0.237 OA
ATOM    106  O   UNL A   1      40.363  19.627  26.131  1.00  0.00    -0.237 OA
ATOM    107  O   UNL A   1      42.599  18.902  25.391  1.00  0.00    -0.744 OA
ENDBRANCH 103 104
ENDBRANCH  71  96
ENDBRANCH  45  46
ENDBRANCH  37  40
ENDBRANCH  35  36
ENDBRANCH  34  35
ENDBRANCH  33  34
ENDBRANCH   1  33
TORSDOF 20
ENDMDL
