MODEL 1
REMARK VINA RESULT:     -11.7      0.000      0.000
REMARK SMILES O=C(NCCCCCCNC(=O)[C@@H](c1cccc(O)c1)[NH+]1CC[NH+](C2CCCC2)CC1)c1ccc(-c2c3nc(c(-c4c(F)cc(S(=O)(=O)[O-])cc4F)c4ccc([nH]4)c(-c4c(F)cc(S(=O)(=O)[O-])cc4F)c4nc(c(-c5c(F)cc(S(=O)(=O)[O-])cc5F)c5ccc2[nH]5)C=C4)C=C3)cc1
REMARK SMILES IDX 6 1 5 2 4 3 3 4 1 5 2 6 32 8 33 9 97 10 34 11 96 12 35 13
REMARK SMILES IDX 36 14 37 15 90 16 38 17 95 18 89 19 91 20 39 21 94 22 88 23
REMARK SMILES IDX 87 24 40 26 74 27 53 28 73 29 54 30 57 31 72 32 92 33 55 34
REMARK SMILES IDX 56 35 71 37 93 38 58 39 41 40 42 41 51 42 43 43 44 44 50 45
REMARK SMILES IDX 52 46 45 47 46 48 47 49 48 50 49 51 75 52 76 53 85 54 77 55
REMARK SMILES IDX 78 56 84 57 86 58 79 59 80 60 81 61 82 62 83 63 59 64 60 65
REMARK SMILES IDX 69 66 61 67 62 68 68 69 70 70 63 71 64 72 65 73 66 74 67 75
REMARK SMILES IDX 7 76 8 77 9 78 10 79 11 80 12 82 13 83 14 84 15 85 20 86
REMARK SMILES IDX 16 87 18 88 17 89 19 90 21 92 22 93 31 94 23 96 30 97 24 98
REMARK SMILES IDX 25 100 26 101 29 102 27 103 28 104
REMARK H PARENT 3 7 91 25 57 36 10 81 19 91 21 95 24 99
REMARK Flexibility Score: inf
ROOT
ATOM      1  C   UNL A   1      32.118  28.715  25.670  1.00  0.00     0.002 C 
ENDROOT
BRANCH   1   2
ATOM      2  C   UNL A   1      32.740  28.201  26.966  1.00  0.00     0.021 C 
BRANCH   2   3
ATOM      3  C   UNL A   1      34.073  28.851  27.309  1.00  0.00     0.116 C 
BRANCH   3   4
ATOM      4  N   UNL A   1      33.891  30.159  27.915  1.00  0.00    -0.352 N 
ATOM      5  O   UNL A   1      34.402  31.845  29.325  1.00  0.00    -0.269 OA
ATOM      6  C   UNL A   1      34.772  30.862  28.697  1.00  0.00     0.251 C 
ATOM      7  H   UNL A   1      33.025  30.595  27.745  1.00  0.00     0.163 HD
BRANCH   6   8
ATOM      8  C   UNL A   1      36.174  30.402  28.767  1.00  0.00     0.039 A 
ATOM      9  C   UNL A   1      37.022  30.578  27.670  1.00  0.00     0.014 A 
ATOM     10  C   UNL A   1      36.637  29.790  29.934  1.00  0.00     0.014 A 
ATOM     11  C   UNL A   1      38.305  30.052  27.699  1.00  0.00     0.010 A 
ATOM     12  C   UNL A   1      37.956  29.339  29.992  1.00  0.00     0.010 A 
ATOM     13  C   UNL A   1      38.798  29.464  28.874  1.00  0.00    -0.014 A 
BRANCH  13  14
ATOM     14  C   UNL A   1      40.235  29.113  28.960  1.00  0.00     0.031 A 
ATOM     15  C   UNL A   1      40.736  27.761  28.547  1.00  0.00     0.074 A 
ATOM     16  C   UNL A   1      41.080  30.043  29.450  1.00  0.00     0.049 A 
ATOM     17  N   UNL A   1      41.951  27.284  28.616  1.00  0.00    -0.248 NA
ATOM     18  C   UNL A   1      39.752  26.818  27.992  1.00  0.00     0.031 C 
ATOM     19  C   UNL A   1      40.687  31.383  29.900  1.00  0.00     0.029 A 
ATOM     20  N   UNL A   1      42.433  30.009  29.663  1.00  0.00    -0.354 N 
ATOM     21  C   UNL A   1      41.879  25.980  28.142  1.00  0.00     0.074 A 
ATOM     22  C   UNL A   1      40.495  25.735  27.792  1.00  0.00     0.031 C 
ATOM     23  C   UNL A   1      41.774  32.046  30.316  1.00  0.00     0.029 A 
ATOM     24  C   UNL A   1      42.924  31.158  30.237  1.00  0.00     0.049 A 
ATOM     25  H   UNL A   1      42.999  29.238  29.428  1.00  0.00     0.167 HD
ATOM     26  C   UNL A   1      42.881  25.078  28.016  1.00  0.00     0.037 A 
ATOM     27  C   UNL A   1      44.156  31.452  30.695  1.00  0.00     0.037 A 
ATOM     28  C   UNL A   1      44.256  25.352  28.353  1.00  0.00     0.049 A 
ATOM     29  C   UNL A   1      45.235  30.416  30.572  1.00  0.00     0.074 A 
ATOM     30  C   UNL A   1      45.358  24.530  28.187  1.00  0.00     0.029 A 
ATOM     31  N   UNL A   1      44.715  26.521  28.942  1.00  0.00    -0.354 N 
ATOM     32  N   UNL A   1      45.166  29.216  30.046  1.00  0.00    -0.248 NA
ATOM     33  C   UNL A   1      46.557  30.766  31.108  1.00  0.00     0.031 C 
ATOM     34  C   UNL A   1      46.470  25.176  28.735  1.00  0.00     0.029 A 
ATOM     35  C   UNL A   1      46.075  26.424  29.189  1.00  0.00     0.049 A 
ATOM     36  H   UNL A   1      44.156  27.304  29.153  1.00  0.00     0.167 HD
ATOM     37  C   UNL A   1      46.437  28.672  30.178  1.00  0.00     0.074 A 
ATOM     38  C   UNL A   1      47.261  29.682  30.810  1.00  0.00     0.031 C 
ATOM     39  C   UNL A   1      46.879  27.443  29.817  1.00  0.00     0.037 A 
BRANCH  26  40
ATOM     40  C   UNL A   1      42.546  23.699  27.518  1.00  0.00     0.058 A 
ATOM     41  C   UNL A   1      42.523  23.386  26.151  1.00  0.00     0.135 A 
ATOM     42  C   UNL A   1      42.342  22.650  28.432  1.00  0.00     0.135 A 
ATOM     43  F   UNL A   1      42.698  24.349  25.233  1.00  0.00    -0.206 F 
ATOM     44  C   UNL A   1      42.303  22.084  25.707  1.00  0.00     0.059 A 
ATOM     45  C   UNL A   1      42.145  21.338  28.011  1.00  0.00     0.059 A 
ATOM     46  F   UNL A   1      42.352  22.894  29.752  1.00  0.00    -0.206 F 
ATOM     47  C   UNL A   1      42.123  21.066  26.645  1.00  0.00     0.060 A 
BRANCH  47  48
ATOM     48  S   UNL A   1      41.880  19.378  26.050  1.00  0.00     0.124 S 
ATOM     49  O   UNL A   1      42.271  18.597  27.221  1.00  0.00    -0.237 OA
ATOM     50  O   UNL A   1      40.457  19.364  25.728  1.00  0.00    -0.237 OA
ATOM     51  O   UNL A   1      42.782  19.285  24.907  1.00  0.00    -0.744 OA
ENDBRANCH  47  48
ENDBRANCH  26  40
BRANCH  27  52
ATOM     52  C   UNL A   1      44.411  32.760  31.353  1.00  0.00     0.058 A 
ATOM     53  C   UNL A   1      44.197  32.936  32.727  1.00  0.00     0.135 A 
ATOM     54  C   UNL A   1      44.879  33.861  30.617  1.00  0.00     0.135 A 
ATOM     55  F   UNL A   1      43.749  31.914  33.473  1.00  0.00    -0.206 F 
ATOM     56  C   UNL A   1      44.410  34.163  33.345  1.00  0.00     0.059 A 
ATOM     57  C   UNL A   1      45.133  35.089  31.218  1.00  0.00     0.059 A 
ATOM     58  F   UNL A   1      45.121  33.740  29.303  1.00  0.00    -0.206 F 
ATOM     59  C   UNL A   1      44.876  35.235  32.580  1.00  0.00     0.060 A 
BRANCH  59  60
ATOM     60  S   UNL A   1      45.167  36.820  33.395  1.00  0.00     0.124 S 
ATOM     61  O   UNL A   1      45.247  36.417  34.794  1.00  0.00    -0.237 OA
ATOM     62  O   UNL A   1      46.418  37.254  32.781  1.00  0.00    -0.237 OA
ATOM     63  O   UNL A   1      43.992  37.605  33.029  1.00  0.00    -0.744 OA
ENDBRANCH  59  60
ENDBRANCH  27  52
BRANCH  39  64
ATOM     64  C   UNL A   1      48.324  27.125  30.081  1.00  0.00     0.058 A 
ATOM     65  C   UNL A   1      49.333  27.493  29.177  1.00  0.00     0.135 A 
ATOM     66  C   UNL A   1      48.711  26.509  31.282  1.00  0.00     0.135 A 
ATOM     67  F   UNL A   1      49.014  28.071  28.008  1.00  0.00    -0.206 F 
ATOM     68  C   UNL A   1      50.674  27.253  29.450  1.00  0.00     0.059 A 
ATOM     69  C   UNL A   1      50.048  26.287  31.591  1.00  0.00     0.059 A 
ATOM     70  F   UNL A   1      47.784  26.143  32.182  1.00  0.00    -0.206 F 
ATOM     71  C   UNL A   1      51.023  26.658  30.664  1.00  0.00     0.060 A 
BRANCH  71  72
ATOM     72  S   UNL A   1      52.773  26.411  31.033  1.00  0.00     0.124 S 
ATOM     73  O   UNL A   1      52.737  25.193  31.834  1.00  0.00    -0.237 OA
ATOM     74  O   UNL A   1      53.354  26.278  29.701  1.00  0.00    -0.237 OA
ATOM     75  O   UNL A   1      53.142  27.626  31.754  1.00  0.00    -0.744 OA
ENDBRANCH  71  72
ENDBRANCH  39  64
ENDBRANCH  13  14
ENDBRANCH   6   8
ENDBRANCH   3   4
ENDBRANCH   2   3
ENDBRANCH   1   2
BRANCH   1  76
ATOM     76  C   UNL A   1      33.122  29.328  24.687  1.00  0.00     0.002 C 
BRANCH  76  77
ATOM     77  C   UNL A   1      32.888  28.943  23.222  1.00  0.00     0.021 C 
BRANCH  77  78
ATOM     78  C   UNL A   1      33.962  28.012  22.668  1.00  0.00     0.116 C 
BRANCH  78  79
ATOM     79  N   UNL A   1      33.400  27.173  21.626  1.00  0.00    -0.351 N 
ATOM     80  C   UNL A   1      33.175  25.825  21.647  1.00  0.00     0.283 C 
ATOM     81  H   UNL A   1      33.147  27.636  20.795  1.00  0.00     0.163 HD
ATOM     82  O   UNL A   1      32.750  25.296  20.614  1.00  0.00    -0.268 OA
BRANCH  80  83
ATOM     83  C   UNL A   1      33.388  24.996  22.952  1.00  0.00     0.306 C 
BRANCH  83  84
ATOM     84  C   UNL A   1      32.189  25.200  23.915  1.00  0.00     0.023 A 
ATOM     85  C   UNL A   1      32.370  25.022  25.303  1.00  0.00     0.011 A 
ATOM     86  C   UNL A   1      30.897  25.558  23.485  1.00  0.00     0.056 A 
ATOM     87  C   UNL A   1      31.323  25.231  26.210  1.00  0.00     0.004 A 
ATOM     88  C   UNL A   1      29.845  25.703  24.388  1.00  0.00     0.116 A 
ATOM     89  C   UNL A   1      30.050  25.560  25.752  1.00  0.00     0.046 A 
BRANCH  88  90
ATOM     90  O   UNL A   1      28.612  25.986  23.880  1.00  0.00    -0.508 OA
ATOM     91  H   UNL A   1      27.858  25.953  24.434  1.00  0.00     0.293 HD
ENDBRANCH  88  90
ENDBRANCH  83  84
BRANCH  83  92
ATOM     92  N   UNL A   1      33.715  23.569  22.632  1.00  0.00    -0.312 N 
ATOM     93  C   UNL A   1      34.775  22.934  23.459  1.00  0.00     0.325 C 
ATOM     94  C   UNL A   1      32.501  22.717  22.597  1.00  0.00     0.325 C 
ATOM     95  H   UNL A   1      34.120  23.629  21.698  1.00  0.00     0.349 HD
ATOM     96  C   UNL A   1      34.353  22.106  24.698  1.00  0.00     0.324 C 
ATOM     97  C   UNL A   1      32.116  22.041  23.922  1.00  0.00     0.324 C 
ATOM     98  N   UNL A   1      33.185  21.233  24.511  1.00  0.00    -0.323 N 
ATOM     99  H   UNL A   1      32.849  20.894  25.412  1.00  0.00     0.348 HD
BRANCH  98 100
ATOM    100  C   UNL A   1      33.478  19.938  23.876  1.00  0.00     0.184 C 
ATOM    101  C   UNL A   1      34.110  18.864  24.774  1.00  0.00     0.065 C 
ATOM    102  C   UNL A   1      32.377  19.156  23.135  1.00  0.00     0.065 C 
ATOM    103  C   UNL A   1      34.127  17.630  23.885  1.00  0.00     0.006 C 
ATOM    104  C   UNL A   1      32.806  17.688  23.136  1.00  0.00     0.006 C 
ENDBRANCH  98 100
ENDBRANCH  83  92
ENDBRANCH  80  83
ENDBRANCH  78  79
ENDBRANCH  77  78
ENDBRANCH  76  77
ENDBRANCH   1  76
TORSDOF 20
ENDMDL
MODEL 2
REMARK VINA RESULT:     -11.7      2.974      8.755
REMARK SMILES O=C(NCCCCCCNC(=O)[C@@H](c1cccc(O)c1)[NH+]1CC[NH+](C2CCCC2)CC1)c1ccc(-c2c3nc(c(-c4c(F)cc(S(=O)(=O)[O-])cc4F)c4ccc([nH]4)c(-c4c(F)cc(S(=O)(=O)[O-])cc4F)c4nc(c(-c5c(F)cc(S(=O)(=O)[O-])cc5F)c5ccc2[nH]5)C=C4)C=C3)cc1
REMARK SMILES IDX 6 1 5 2 4 3 3 4 1 5 2 6 32 8 33 9 97 10 34 11 96 12 35 13
REMARK SMILES IDX 36 14 37 15 90 16 38 17 95 18 89 19 91 20 39 21 94 22 88 23
REMARK SMILES IDX 87 24 40 26 74 27 53 28 73 29 54 30 57 31 72 32 92 33 55 34
REMARK SMILES IDX 56 35 71 37 93 38 58 39 41 40 42 41 51 42 43 43 44 44 50 45
REMARK SMILES IDX 52 46 45 47 46 48 47 49 48 50 49 51 75 52 76 53 85 54 77 55
REMARK SMILES IDX 78 56 84 57 86 58 79 59 80 60 81 61 82 62 83 63 59 64 60 65
REMARK SMILES IDX 69 66 61 67 62 68 68 69 70 70 63 71 64 72 65 73 66 74 67 75
REMARK SMILES IDX 7 76 8 77 9 78 10 79 11 80 12 82 13 83 14 84 15 85 20 86
REMARK SMILES IDX 16 87 18 88 17 89 19 90 21 92 22 93 31 94 23 96 30 97 24 98
REMARK SMILES IDX 25 100 26 101 29 102 27 103 28 104
REMARK H PARENT 3 7 91 25 57 36 10 81 19 91 21 95 24 99
REMARK Flexibility Score: inf
ROOT
ATOM      1  C   UNL A   1      34.310  31.776  28.312  1.00  0.00     0.002 C 
ENDROOT
BRANCH   1   2
ATOM      2  C   UNL A   1      35.375  32.871  28.344  1.00  0.00     0.021 C 
BRANCH   2   3
ATOM      3  C   UNL A   1      36.502  32.603  29.332  1.00  0.00     0.116 C 
BRANCH   3   4
ATOM      4  N   UNL A   1      36.082  31.701  30.391  1.00  0.00    -0.352 N 
ATOM      5  O   UNL A   1      36.104  29.768  31.555  1.00  0.00    -0.269 OA
ATOM      6  C   UNL A   1      36.687  30.543  30.809  1.00  0.00     0.251 C 
ATOM      7  H   UNL A   1      35.258  31.953  30.868  1.00  0.00     0.163 HD
BRANCH   6   8
ATOM      8  C   UNL A   1      38.055  30.251  30.334  1.00  0.00     0.039 A 
ATOM      9  C   UNL A   1      39.117  30.215  31.242  1.00  0.00     0.014 A 
ATOM     10  C   UNL A   1      38.273  30.018  28.974  1.00  0.00     0.014 A 
ATOM     11  C   UNL A   1      40.413  30.046  30.780  1.00  0.00     0.010 A 
ATOM     12  C   UNL A   1      39.568  29.761  28.523  1.00  0.00     0.010 A 
ATOM     13  C   UNL A   1      40.647  29.777  29.423  1.00  0.00    -0.014 A 
BRANCH  13  14
ATOM     14  C   UNL A   1      42.006  29.377  28.988  1.00  0.00     0.031 A 
ATOM     15  C   UNL A   1      43.118  30.378  28.877  1.00  0.00     0.074 A 
ATOM     16  C   UNL A   1      42.208  28.083  28.666  1.00  0.00     0.049 A 
ATOM     17  N   UNL A   1      44.343  30.195  28.458  1.00  0.00    -0.248 NA
ATOM     18  C   UNL A   1      42.822  31.762  29.280  1.00  0.00     0.031 C 
ATOM     19  C   UNL A   1      41.183  27.034  28.720  1.00  0.00     0.029 A 
ATOM     20  N   UNL A   1      43.325  27.426  28.223  1.00  0.00    -0.354 N 
ATOM     21  C   UNL A   1      44.958  31.439  28.518  1.00  0.00     0.074 A 
ATOM     22  C   UNL A   1      43.969  32.375  29.009  1.00  0.00     0.031 C 
ATOM     23  C   UNL A   1      41.724  25.868  28.345  1.00  0.00     0.029 A 
ATOM     24  C   UNL A   1      43.106  26.097  27.950  1.00  0.00     0.049 A 
ATOM     25  H   UNL A   1      44.201  27.864  28.111  1.00  0.00     0.167 HD
ATOM     26  C   UNL A   1      46.232  31.761  28.189  1.00  0.00     0.037 A 
ATOM     27  C   UNL A   1      43.914  25.171  27.399  1.00  0.00     0.037 A 
ATOM     28  C   UNL A   1      47.206  30.806  27.720  1.00  0.00     0.049 A 
ATOM     29  C   UNL A   1      45.308  25.569  27.013  1.00  0.00     0.074 A 
ATOM     30  C   UNL A   1      48.544  31.018  27.436  1.00  0.00     0.029 A 
ATOM     31  N   UNL A   1      46.946  29.472  27.445  1.00  0.00    -0.354 N 
ATOM     32  N   UNL A   1      45.898  26.733  27.153  1.00  0.00    -0.248 NA
ATOM     33  C   UNL A   1      46.146  24.537  26.390  1.00  0.00     0.031 C 
ATOM     34  C   UNL A   1      49.076  29.829  26.927  1.00  0.00     0.029 A 
ATOM     35  C   UNL A   1      48.086  28.860  26.950  1.00  0.00     0.049 A 
ATOM     36  H   UNL A   1      46.079  29.025  27.581  1.00  0.00     0.167 HD
ATOM     37  C   UNL A   1      47.180  26.569  26.644  1.00  0.00     0.074 A 
ATOM     38  C   UNL A   1      47.288  25.189  26.217  1.00  0.00     0.031 C 
ATOM     39  C   UNL A   1      48.175  27.482  26.533  1.00  0.00     0.037 A 
BRANCH  26  40
ATOM     40  C   UNL A   1      46.659  33.199  28.294  1.00  0.00     0.058 A 
ATOM     41  C   UNL A   1      47.259  33.715  29.452  1.00  0.00     0.135 A 
ATOM     42  C   UNL A   1      46.553  34.048  27.178  1.00  0.00     0.135 A 
ATOM     43  F   UNL A   1      47.374  32.955  30.551  1.00  0.00    -0.206 F 
ATOM     44  C   UNL A   1      47.734  35.024  29.502  1.00  0.00     0.059 A 
ATOM     45  C   UNL A   1      47.044  35.350  27.198  1.00  0.00     0.059 A 
ATOM     46  F   UNL A   1      45.986  33.605  26.045  1.00  0.00    -0.206 F 
ATOM     47  C   UNL A   1      47.629  35.831  28.367  1.00  0.00     0.060 A 
BRANCH  47  48
ATOM     48  S   UNL A   1      48.287  37.511  28.440  1.00  0.00     0.124 S 
ATOM     49  O   UNL A   1      48.721  37.714  27.060  1.00  0.00    -0.237 OA
ATOM     50  O   UNL A   1      47.122  38.284  28.857  1.00  0.00    -0.237 OA
ATOM     51  O   UNL A   1      49.361  37.415  29.425  1.00  0.00    -0.744 OA
ENDBRANCH  47  48
ENDBRANCH  26  40
BRANCH  27  52
ATOM     52  C   UNL A   1      43.400  23.801  27.136  1.00  0.00     0.058 A 
ATOM     53  C   UNL A   1      43.279  22.859  28.167  1.00  0.00     0.135 A 
ATOM     54  C   UNL A   1      43.014  23.409  25.843  1.00  0.00     0.135 A 
ATOM     55  F   UNL A   1      43.635  23.186  29.419  1.00  0.00    -0.206 F 
ATOM     56  C   UNL A   1      42.821  21.569  27.924  1.00  0.00     0.059 A 
ATOM     57  C   UNL A   1      42.521  22.135  25.580  1.00  0.00     0.059 A 
ATOM     58  F   UNL A   1      43.089  24.279  24.824  1.00  0.00    -0.206 F 
ATOM     59  C   UNL A   1      42.447  21.216  26.625  1.00  0.00     0.060 A 
BRANCH  59  60
ATOM     60  S   UNL A   1      41.838  19.544  26.323  1.00  0.00     0.124 S 
ATOM     61  O   UNL A   1      40.400  19.770  26.230  1.00  0.00    -0.237 OA
ATOM     62  O   UNL A   1      42.513  19.194  25.077  1.00  0.00    -0.237 OA
ATOM     63  O   UNL A   1      42.287  18.805  27.499  1.00  0.00    -0.744 OA
ENDBRANCH  59  60
ENDBRANCH  27  52
BRANCH  39  64
ATOM     64  C   UNL A   1      49.475  27.016  25.940  1.00  0.00     0.058 A 
ATOM     65  C   UNL A   1      49.755  27.170  24.574  1.00  0.00     0.135 A 
ATOM     66  C   UNL A   1      50.478  26.473  26.759  1.00  0.00     0.135 A 
ATOM     67  F   UNL A   1      48.824  27.669  23.745  1.00  0.00    -0.206 F 
ATOM     68  C   UNL A   1      50.981  26.794  24.038  1.00  0.00     0.059 A 
ATOM     69  C   UNL A   1      51.723  26.119  26.251  1.00  0.00     0.059 A 
ATOM     70  F   UNL A   1      50.262  26.310  28.074  1.00  0.00    -0.206 F 
ATOM     71  C   UNL A   1      51.962  26.277  24.886  1.00  0.00     0.060 A 
BRANCH  71  72
ATOM     72  S   UNL A   1      53.571  25.854  24.187  1.00  0.00     0.124 S 
ATOM     73  O   UNL A   1      53.307  25.956  22.756  1.00  0.00    -0.237 OA
ATOM     74  O   UNL A   1      54.435  26.886  24.749  1.00  0.00    -0.237 OA
ATOM     75  O   UNL A   1      53.813  24.502  24.685  1.00  0.00    -0.744 OA
ENDBRANCH  71  72
ENDBRANCH  39  64
ENDBRANCH  13  14
ENDBRANCH   6   8
ENDBRANCH   3   4
ENDBRANCH   2   3
ENDBRANCH   1   2
BRANCH   1  76
ATOM     76  C   UNL A   1      34.688  30.552  27.471  1.00  0.00     0.002 C 
BRANCH  76  77
ATOM     77  C   UNL A   1      33.556  30.020  26.584  1.00  0.00     0.021 C 
BRANCH  77  78
ATOM     78  C   UNL A   1      33.963  28.802  25.761  1.00  0.00     0.116 C 
BRANCH  78  79
ATOM     79  N   UNL A   1      33.777  29.076  24.348  1.00  0.00    -0.351 N 
ATOM     80  C   UNL A   1      32.697  28.794  23.560  1.00  0.00     0.283 C 
ATOM     81  H   UNL A   1      34.530  29.523  23.898  1.00  0.00     0.163 HD
ATOM     82  O   UNL A   1      32.780  29.052  22.354  1.00  0.00    -0.268 OA
BRANCH  80  83
ATOM     83  C   UNL A   1      31.381  28.225  24.177  1.00  0.00     0.306 C 
BRANCH  83  84
ATOM     84  C   UNL A   1      30.166  29.073  23.716  1.00  0.00     0.023 A 
ATOM     85  C   UNL A   1      29.073  28.443  23.085  1.00  0.00     0.011 A 
ATOM     86  C   UNL A   1      30.081  30.468  23.887  1.00  0.00     0.056 A 
ATOM     87  C   UNL A   1      27.942  29.165  22.687  1.00  0.00     0.004 A 
ATOM     88  C   UNL A   1      28.978  31.190  23.431  1.00  0.00     0.116 A 
ATOM     89  C   UNL A   1      27.897  30.548  22.847  1.00  0.00     0.046 A 
BRANCH  88  90
ATOM     90  O   UNL A   1      29.007  32.545  23.579  1.00  0.00    -0.508 OA
ATOM     91  H   UNL A   1      29.826  32.998  23.581  1.00  0.00     0.293 HD
ENDBRANCH  88  90
ENDBRANCH  83  84
BRANCH  83  92
ATOM     92  N   UNL A   1      31.265  26.752  23.925  1.00  0.00    -0.312 N 
ATOM     93  C   UNL A   1      32.293  26.151  23.036  1.00  0.00     0.325 C 
ATOM     94  C   UNL A   1      31.152  25.982  25.188  1.00  0.00     0.325 C 
ATOM     95  H   UNL A   1      30.395  26.677  23.398  1.00  0.00     0.349 HD
ATOM     96  C   UNL A   1      33.543  25.502  23.682  1.00  0.00     0.324 C 
ATOM     97  C   UNL A   1      32.474  25.491  25.796  1.00  0.00     0.324 C 
ATOM     98  N   UNL A   1      33.289  24.690  24.880  1.00  0.00    -0.323 N 
ATOM     99  H   UNL A   1      34.166  24.480  25.357  1.00  0.00     0.348 HD
BRANCH  98 100
ATOM    100  C   UNL A   1      32.843  23.314  24.610  1.00  0.00     0.184 C 
ATOM    101  C   UNL A   1      32.599  22.951  23.137  1.00  0.00     0.065 C 
ATOM    102  C   UNL A   1      33.649  22.108  25.128  1.00  0.00     0.065 C 
ATOM    103  C   UNL A   1      32.321  21.456  23.187  1.00  0.00     0.006 C 
ATOM    104  C   UNL A   1      33.301  20.926  24.221  1.00  0.00     0.006 C 
ENDBRANCH  98 100
ENDBRANCH  83  92
ENDBRANCH  80  83
ENDBRANCH  78  79
ENDBRANCH  77  78
ENDBRANCH  76  77
ENDBRANCH   1  76
TORSDOF 20
ENDMDL
MODEL 3
REMARK VINA RESULT:     -11.7      4.943     10.463
REMARK SMILES O=C(NCCCCCCNC(=O)[C@@H](c1cccc(O)c1)[NH+]1CC[NH+](C2CCCC2)CC1)c1ccc(-c2c3nc(c(-c4c(F)cc(S(=O)(=O)[O-])cc4F)c4ccc([nH]4)c(-c4c(F)cc(S(=O)(=O)[O-])cc4F)c4nc(c(-c5c(F)cc(S(=O)(=O)[O-])cc5F)c5ccc2[nH]5)C=C4)C=C3)cc1
REMARK SMILES IDX 6 1 5 2 4 3 3 4 1 5 2 6 32 8 33 9 97 10 34 11 96 12 35 13
REMARK SMILES IDX 36 14 37 15 90 16 38 17 95 18 89 19 91 20 39 21 94 22 88 23
REMARK SMILES IDX 87 24 40 26 74 27 53 28 73 29 54 30 57 31 72 32 92 33 55 34
REMARK SMILES IDX 56 35 71 37 93 38 58 39 41 40 42 41 51 42 43 43 44 44 50 45
REMARK SMILES IDX 52 46 45 47 46 48 47 49 48 50 49 51 75 52 76 53 85 54 77 55
REMARK SMILES IDX 78 56 84 57 86 58 79 59 80 60 81 61 82 62 83 63 59 64 60 65
REMARK SMILES IDX 69 66 61 67 62 68 68 69 70 70 63 71 64 72 65 73 66 74 67 75
REMARK SMILES IDX 7 76 8 77 9 78 10 79 11 80 12 82 13 83 14 84 15 85 20 86
REMARK SMILES IDX 16 87 18 88 17 89 19 90 21 92 22 93 31 94 23 96 30 97 24 98
REMARK SMILES IDX 25 100 26 101 29 102 27 103 28 104
REMARK H PARENT 3 7 91 25 57 36 10 81 19 91 21 95 24 99
REMARK Flexibility Score: inf
ROOT
ATOM      1  C   UNL A   1      40.423  22.321  27.555  1.00  0.00     0.002 C 
ENDROOT
BRANCH   1   2
ATOM      2  C   UNL A   1      41.945  22.217  27.465  1.00  0.00     0.021 C 
BRANCH   2   3
ATOM      3  C   UNL A   1      42.649  23.565  27.389  1.00  0.00     0.116 C 
BRANCH   3   4
ATOM      4  N   UNL A   1      42.288  24.290  26.182  1.00  0.00    -0.352 N 
ATOM      5  O   UNL A   1      41.173  25.851  24.995  1.00  0.00    -0.269 OA
ATOM      6  C   UNL A   1      41.604  25.474  26.076  1.00  0.00     0.251 C 
ATOM      7  H   UNL A   1      42.570  23.878  25.333  1.00  0.00     0.163 HD
BRANCH   6   8
ATOM      8  C   UNL A   1      41.393  26.278  27.297  1.00  0.00     0.039 A 
ATOM      9  C   UNL A   1      42.253  27.340  27.590  1.00  0.00     0.014 A 
ATOM     10  C   UNL A   1      40.334  25.963  28.151  1.00  0.00     0.014 A 
ATOM     11  C   UNL A   1      42.117  28.026  28.789  1.00  0.00     0.010 A 
ATOM     12  C   UNL A   1      40.146  26.711  29.314  1.00  0.00     0.010 A 
ATOM     13  C   UNL A   1      41.039  27.745  29.642  1.00  0.00    -0.014 A 
BRANCH  13  14
ATOM     14  C   UNL A   1      40.782  28.634  30.799  1.00  0.00     0.031 A 
ATOM     15  C   UNL A   1      39.689  29.661  30.769  1.00  0.00     0.074 A 
ATOM     16  C   UNL A   1      41.583  28.510  31.878  1.00  0.00     0.049 A 
ATOM     17  N   UNL A   1      39.376  30.549  31.676  1.00  0.00    -0.248 NA
ATOM     18  C   UNL A   1      38.840  29.706  29.567  1.00  0.00     0.031 C 
ATOM     19  C   UNL A   1      42.689  27.554  31.997  1.00  0.00     0.029 A 
ATOM     20  N   UNL A   1      41.604  29.186  33.069  1.00  0.00    -0.354 N 
ATOM     21  C   UNL A   1      38.317  31.278  31.151  1.00  0.00     0.074 A 
ATOM     22  C   UNL A   1      38.041  30.732  29.838  1.00  0.00     0.031 C 
ATOM     23  C   UNL A   1      43.266  27.693  33.198  1.00  0.00     0.029 A 
ATOM     24  C   UNL A   1      42.625  28.794  33.901  1.00  0.00     0.049 A 
ATOM     25  H   UNL A   1      40.951  29.884  33.306  1.00  0.00     0.167 HD
ATOM     26  C   UNL A   1      37.645  32.306  31.719  1.00  0.00     0.037 A 
ATOM     27  C   UNL A   1      43.034  29.295  35.083  1.00  0.00     0.037 A 
ATOM     28  C   UNL A   1      37.925  32.819  33.037  1.00  0.00     0.049 A 
ATOM     29  C   UNL A   1      42.289  30.458  35.668  1.00  0.00     0.074 A 
ATOM     30  C   UNL A   1      37.249  33.806  33.734  1.00  0.00     0.029 A 
ATOM     31  N   UNL A   1      38.973  32.406  33.847  1.00  0.00    -0.354 N 
ATOM     32  N   UNL A   1      41.237  31.084  35.193  1.00  0.00    -0.248 NA
ATOM     33  C   UNL A   1      42.784  30.992  36.943  1.00  0.00     0.031 C 
ATOM     34  C   UNL A   1      37.927  34.035  34.935  1.00  0.00     0.029 A 
ATOM     35  C   UNL A   1      38.991  33.151  35.015  1.00  0.00     0.049 A 
ATOM     36  H   UNL A   1      39.611  31.690  33.624  1.00  0.00     0.167 HD
ATOM     37  C   UNL A   1      40.939  32.077  36.116  1.00  0.00     0.074 A 
ATOM     38  C   UNL A   1      41.904  31.954  37.189  1.00  0.00     0.031 C 
ATOM     39  C   UNL A   1      39.959  33.012  36.075  1.00  0.00     0.037 A 
BRANCH  26  40
ATOM     40  C   UNL A   1      36.554  32.975  30.928  1.00  0.00     0.058 A 
ATOM     41  C   UNL A   1      35.196  32.780  31.219  1.00  0.00     0.135 A 
ATOM     42  C   UNL A   1      36.881  33.904  29.925  1.00  0.00     0.135 A 
ATOM     43  F   UNL A   1      34.825  31.896  32.158  1.00  0.00    -0.206 F 
ATOM     44  C   UNL A   1      34.200  33.478  30.540  1.00  0.00     0.059 A 
ATOM     45  C   UNL A   1      35.903  34.630  29.251  1.00  0.00     0.059 A 
ATOM     46  F   UNL A   1      38.165  34.128  29.605  1.00  0.00    -0.206 F 
ATOM     47  C   UNL A   1      34.564  34.406  29.562  1.00  0.00     0.060 A 
BRANCH  47  48
ATOM     48  S   UNL A   1      33.260  35.329  28.721  1.00  0.00     0.124 S 
ATOM     49  O   UNL A   1      34.039  36.235  27.881  1.00  0.00    -0.237 OA
ATOM     50  O   UNL A   1      32.539  34.275  28.015  1.00  0.00    -0.237 OA
ATOM     51  O   UNL A   1      32.530  35.964  29.815  1.00  0.00    -0.744 OA
ENDBRANCH  47  48
ENDBRANCH  26  40
BRANCH  27  52
ATOM     52  C   UNL A   1      44.234  28.729  35.753  1.00  0.00     0.058 A 
ATOM     53  C   UNL A   1      44.127  27.667  36.660  1.00  0.00     0.135 A 
ATOM     54  C   UNL A   1      45.517  29.241  35.493  1.00  0.00     0.135 A 
ATOM     55  F   UNL A   1      42.923  27.144  36.942  1.00  0.00    -0.206 F 
ATOM     56  C   UNL A   1      45.243  27.148  37.308  1.00  0.00     0.059 A 
ATOM     57  C   UNL A   1      46.652  28.717  36.102  1.00  0.00     0.059 A 
ATOM     58  F   UNL A   1      45.677  30.244  34.616  1.00  0.00    -0.206 F 
ATOM     59  C   UNL A   1      46.501  27.682  37.023  1.00  0.00     0.060 A 
BRANCH  59  60
ATOM     60  S   UNL A   1      47.945  26.991  37.857  1.00  0.00     0.124 S 
ATOM     61  O   UNL A   1      48.446  28.153  38.583  1.00  0.00    -0.237 OA
ATOM     62  O   UNL A   1      47.352  25.934  38.671  1.00  0.00    -0.237 OA
ATOM     63  O   UNL A   1      48.781  26.528  36.753  1.00  0.00    -0.744 OA
ENDBRANCH  59  60
ENDBRANCH  27  52
BRANCH  39  64
ATOM     64  C   UNL A   1      39.870  33.968  37.231  1.00  0.00     0.058 A 
ATOM     65  C   UNL A   1      40.493  35.225  37.193  1.00  0.00     0.135 A 
ATOM     66  C   UNL A   1      39.095  33.652  38.359  1.00  0.00     0.135 A 
ATOM     67  F   UNL A   1      41.257  35.569  36.143  1.00  0.00    -0.206 F 
ATOM     68  C   UNL A   1      40.359  36.132  38.237  1.00  0.00     0.059 A 
ATOM     69  C   UNL A   1      38.923  34.556  39.401  1.00  0.00     0.059 A 
ATOM     70  F   UNL A   1      38.475  32.464  38.441  1.00  0.00    -0.206 F 
ATOM     71  C   UNL A   1      39.564  35.792  39.333  1.00  0.00     0.060 A 
BRANCH  71  72
ATOM     72  S   UNL A   1      39.349  37.006  40.651  1.00  0.00     0.124 S 
ATOM     73  O   UNL A   1      38.759  38.127  39.927  1.00  0.00    -0.237 OA
ATOM     74  O   UNL A   1      38.459  36.308  41.574  1.00  0.00    -0.237 OA
ATOM     75  O   UNL A   1      40.707  37.221  41.141  1.00  0.00    -0.744 OA
ENDBRANCH  71  72
ENDBRANCH  39  64
ENDBRANCH  13  14
ENDBRANCH   6   8
ENDBRANCH   3   4
ENDBRANCH   2   3
ENDBRANCH   1   2
BRANCH   1  76
ATOM     76  C   UNL A   1      39.688  21.957  26.261  1.00  0.00     0.002 C 
BRANCH  76  77
ATOM     77  C   UNL A   1      38.490  22.859  25.940  1.00  0.00     0.021 C 
BRANCH  77  78
ATOM     78  C   UNL A   1      37.279  22.086  25.428  1.00  0.00     0.116 C 
BRANCH  78  79
ATOM     79  N   UNL A   1      36.295  21.949  26.486  1.00  0.00    -0.351 N 
ATOM     80  C   UNL A   1      34.955  21.710  26.376  1.00  0.00     0.283 C 
ATOM     81  H   UNL A   1      36.640  22.040  27.403  1.00  0.00     0.163 HD
ATOM     82  O   UNL A   1      34.284  21.701  27.415  1.00  0.00    -0.268 OA
BRANCH  80  83
ATOM     83  C   UNL A   1      34.306  21.395  24.993  1.00  0.00     0.306 C 
BRANCH  83  84
ATOM     84  C   UNL A   1      34.124  19.863  24.825  1.00  0.00     0.023 A 
ATOM     85  C   UNL A   1      35.249  19.049  24.577  1.00  0.00     0.011 A 
ATOM     86  C   UNL A   1      32.877  19.214  24.902  1.00  0.00     0.056 A 
ATOM     87  C   UNL A   1      35.134  17.658  24.455  1.00  0.00     0.004 A 
ATOM     88  C   UNL A   1      32.761  17.837  24.717  1.00  0.00     0.116 A 
ATOM     89  C   UNL A   1      33.883  17.048  24.512  1.00  0.00     0.046 A 
BRANCH  88  90
ATOM     90  O   UNL A   1      31.509  17.300  24.742  1.00  0.00    -0.508 OA
ATOM     91  H   UNL A   1      31.380  16.426  25.053  1.00  0.00     0.293 HD
ENDBRANCH  88  90
ENDBRANCH  83  84
BRANCH  83  92
ATOM     92  N   UNL A   1      33.067  22.212  24.783  1.00  0.00    -0.312 N 
ATOM     93  C   UNL A   1      33.026  23.534  25.462  1.00  0.00     0.325 C 
ATOM     94  C   UNL A   1      32.734  22.353  23.345  1.00  0.00     0.325 C 
ATOM     95  H   UNL A   1      32.347  21.661  25.250  1.00  0.00     0.349 HD
ATOM     96  C   UNL A   1      33.465  24.789  24.667  1.00  0.00     0.324 C 
ATOM     97  C   UNL A   1      33.327  23.579  22.635  1.00  0.00     0.324 C 
ATOM     98  N   UNL A   1      32.998  24.854  23.275  1.00  0.00    -0.323 N 
ATOM     99  H   UNL A   1      33.497  25.586  22.769  1.00  0.00     0.348 HD
BRANCH  98 100
ATOM    100  C   UNL A   1      31.625  25.358  23.108  1.00  0.00     0.184 C 
ATOM    101  C   UNL A   1      30.720  25.297  24.347  1.00  0.00     0.065 C 
ATOM    102  C   UNL A   1      31.365  26.776  22.566  1.00  0.00     0.065 C 
ATOM    103  C   UNL A   1      29.463  26.027  23.898  1.00  0.00     0.006 C 
ATOM    104  C   UNL A   1      29.980  27.189  23.066  1.00  0.00     0.006 C 
ENDBRANCH  98 100
ENDBRANCH  83  92
ENDBRANCH  80  83
ENDBRANCH  78  79
ENDBRANCH  77  78
ENDBRANCH  76  77
ENDBRANCH   1  76
TORSDOF 20
ENDMDL
