MODEL 1
REMARK VINA RESULT:     -12.2      0.000      0.000
REMARK SMILES CCN(CC)C(=O)COc1cc(C)ccc1C(=O)NCCCCCCNC(=O)c1ccc(-c2c3nc(c(-c4c(F)cc(S(=O)(=O)[O-])cc4F)c4ccc([nH]4)c(-c4c(F)cc(S(=O)(=O)[O-])cc4F)c4nc(c(-c5c(F)cc(S(=O)(=O)[O-])cc5F)c5ccc2[nH]5)C=C4)C=C3)cc1
REMARK SMILES IDX 22 1 21 2 20 3 19 4 17 5 18 6 16 8 10 9 11 10 12 11 15 12
REMARK SMILES IDX 13 13 14 14 9 15 8 16 6 17 3 18 7 19 2 20 1 21 4 22 5 23
REMARK SMILES IDX 23 24 24 25 25 26 26 27 27 28 28 30 29 31 30 32 94 33 31 34
REMARK SMILES IDX 93 35 32 36 33 37 34 38 87 39 35 40 92 41 86 42 88 43 36 44
REMARK SMILES IDX 91 45 85 46 84 47 37 49 71 50 50 51 70 52 51 53 54 54 69 55
REMARK SMILES IDX 89 56 52 57 53 58 68 60 90 61 55 62 38 63 39 64 48 65 40 66
REMARK SMILES IDX 41 67 47 68 49 69 42 70 43 71 44 72 45 73 46 74 72 75 73 76
REMARK SMILES IDX 82 77 74 78 75 79 81 80 83 81 76 82 77 83 78 84 79 85 80 86
REMARK SMILES IDX 56 87 57 88 66 89 58 90 59 91 65 92 67 93 60 94 61 95 62 96
REMARK SMILES IDX 63 97 64 98
REMARK H PARENT 19 7 26 29 88 48 54 59
REMARK Flexibility Score: inf
ROOT
ATOM      1  C   UNL A   1      31.113  29.096  24.673  1.00  0.00     0.002 C 
ENDROOT
BRANCH   1   2
ATOM      2  C   UNL A   1      30.671  27.670  24.337  1.00  0.00     0.021 C 
BRANCH   2   3
ATOM      3  C   UNL A   1      31.615  26.508  24.633  1.00  0.00     0.116 C 
BRANCH   3   4
ATOM      4  N   UNL A   1      31.263  25.634  25.720  1.00  0.00    -0.352 N 
ATOM      5  C   UNL A   1      31.942  24.558  26.246  1.00  0.00     0.255 C 
ATOM      6  O   UNL A   1      31.459  24.048  27.263  1.00  0.00    -0.269 OA
ATOM      7  H   UNL A   1      30.403  25.837  26.156  1.00  0.00     0.163 HD
BRANCH   5   8
ATOM      8  C   UNL A   1      33.170  23.915  25.661  1.00  0.00     0.081 A 
ATOM      9  C   UNL A   1      33.253  22.864  24.732  1.00  0.00     0.133 A 
ATOM     10  C   UNL A   1      34.505  22.491  24.199  1.00  0.00     0.050 A 
ATOM     11  C   UNL A   1      35.694  23.104  24.602  1.00  0.00    -0.047 A 
ATOM     12  C   UNL A   1      34.383  24.531  26.049  1.00  0.00     0.018 A 
ATOM     13  C   UNL A   1      37.007  22.692  24.004  1.00  0.00     0.044 C 
ATOM     14  C   UNL A   1      35.624  24.131  25.537  1.00  0.00     0.004 A 
BRANCH   9  15
ATOM     15  O   UNL A   1      32.130  22.271  24.221  1.00  0.00    -0.483 OA
BRANCH  15  16
ATOM     16  C   UNL A   1      31.953  20.909  24.619  1.00  0.00     0.329 C 
BRANCH  16  17
ATOM     17  C   UNL A   1      32.262  19.805  23.604  1.00  0.00     0.260 C 
ATOM     18  N   UNL A   1      32.683  18.560  24.056  1.00  0.00    -0.340 N 
ATOM     19  O   UNL A   1      32.120  20.042  22.400  1.00  0.00    -0.271 OA
BRANCH  18  20
ATOM     20  C   UNL A   1      32.817  17.502  23.056  1.00  0.00     0.116 C 
ATOM     21  C   UNL A   1      34.231  16.931  23.042  1.00  0.00     0.027 C 
ENDBRANCH  18  20
BRANCH  18  22
ATOM     22  C   UNL A   1      32.966  18.215  25.452  1.00  0.00     0.116 C 
ATOM     23  C   UNL A   1      32.566  16.786  25.792  1.00  0.00     0.027 C 
ENDBRANCH  18  22
ENDBRANCH  16  17
ENDBRANCH  15  16
ENDBRANCH   9  15
ENDBRANCH   5   8
ENDBRANCH   3   4
ENDBRANCH   2   3
ENDBRANCH   1   2
BRANCH   1  24
ATOM     24  C   UNL A   1      32.546  29.352  25.155  1.00  0.00     0.002 C 
BRANCH  24  25
ATOM     25  C   UNL A   1      32.749  29.919  26.559  1.00  0.00     0.021 C 
BRANCH  25  26
ATOM     26  C   UNL A   1      34.135  29.723  27.161  1.00  0.00     0.116 C 
BRANCH  26  27
ATOM     27  N   UNL A   1      34.775  30.972  27.561  1.00  0.00    -0.352 N 
ATOM     28  C   UNL A   1      36.016  31.140  28.159  1.00  0.00     0.251 C 
ATOM     29  H   UNL A   1      34.265  31.794  27.385  1.00  0.00     0.163 HD
ATOM     30  O   UNL A   1      36.401  32.227  28.552  1.00  0.00    -0.269 OA
BRANCH  28  31
ATOM     31  C   UNL A   1      36.889  29.950  28.248  1.00  0.00     0.039 A 
ATOM     32  C   UNL A   1      37.070  29.361  29.503  1.00  0.00     0.014 A 
ATOM     33  C   UNL A   1      37.701  29.610  27.170  1.00  0.00     0.014 A 
ATOM     34  C   UNL A   1      38.201  28.578  29.732  1.00  0.00     0.010 A 
ATOM     35  C   UNL A   1      38.865  28.908  27.424  1.00  0.00     0.010 A 
ATOM     36  C   UNL A   1      39.145  28.437  28.719  1.00  0.00    -0.014 A 
BRANCH  36  37
ATOM     37  C   UNL A   1      40.496  27.912  28.921  1.00  0.00     0.031 A 
ATOM     38  C   UNL A   1      40.810  26.500  28.596  1.00  0.00     0.074 A 
ATOM     39  C   UNL A   1      41.503  28.746  29.265  1.00  0.00     0.049 A 
ATOM     40  N   UNL A   1      41.927  25.909  28.865  1.00  0.00    -0.248 NA
ATOM     41  C   UNL A   1      39.835  25.613  27.978  1.00  0.00     0.031 C 
ATOM     42  C   UNL A   1      42.933  28.514  29.090  1.00  0.00     0.029 A 
ATOM     43  N   UNL A   1      41.433  29.893  30.054  1.00  0.00    -0.354 N 
ATOM     44  C   UNL A   1      41.930  24.683  28.237  1.00  0.00     0.074 A 
ATOM     45  C   UNL A   1      40.579  24.527  27.753  1.00  0.00     0.031 C 
ATOM     46  C   UNL A   1      43.610  29.314  29.926  1.00  0.00     0.029 A 
ATOM     47  C   UNL A   1      42.641  29.973  30.779  1.00  0.00     0.049 A 
ATOM     48  H   UNL A   1      40.682  30.528  30.098  1.00  0.00     0.167 HD
ATOM     49  C   UNL A   1      43.111  24.004  28.116  1.00  0.00     0.037 A 
ATOM     50  C   UNL A   1      42.640  29.909  32.145  1.00  0.00     0.037 A 
ATOM     51  C   UNL A   1      44.161  24.617  28.938  1.00  0.00     0.049 A 
ATOM     52  C   UNL A   1      43.331  28.693  32.730  1.00  0.00     0.074 A 
ATOM     53  C   UNL A   1      45.250  25.440  28.699  1.00  0.00     0.029 A 
ATOM     54  N   UNL A   1      44.006  24.590  30.311  1.00  0.00    -0.354 N 
ATOM     55  N   UNL A   1      43.934  27.773  32.028  1.00  0.00    -0.248 NA
ATOM     56  C   UNL A   1      43.329  28.379  34.162  1.00  0.00     0.031 C 
ATOM     57  C   UNL A   1      45.720  25.934  29.954  1.00  0.00     0.029 A 
ATOM     58  C   UNL A   1      44.917  25.408  30.949  1.00  0.00     0.049 A 
ATOM     59  H   UNL A   1      43.327  24.052  30.779  1.00  0.00     0.167 HD
ATOM     60  C   UNL A   1      44.300  26.741  32.851  1.00  0.00     0.074 A 
ATOM     61  C   UNL A   1      43.938  27.181  34.184  1.00  0.00     0.031 C 
ATOM     62  C   UNL A   1      44.815  25.567  32.389  1.00  0.00     0.037 A 
BRANCH  49  63
ATOM     63  C   UNL A   1      43.381  22.900  27.103  1.00  0.00     0.058 A 
ATOM     64  C   UNL A   1      42.699  21.664  27.187  1.00  0.00     0.135 A 
ATOM     65  C   UNL A   1      44.343  22.952  26.074  1.00  0.00     0.135 A 
ATOM     66  F   UNL A   1      41.686  21.479  28.045  1.00  0.00    -0.206 F 
ATOM     67  C   UNL A   1      43.026  20.551  26.405  1.00  0.00     0.059 A 
ATOM     68  C   UNL A   1      44.726  21.841  25.316  1.00  0.00     0.059 A 
ATOM     69  F   UNL A   1      44.920  24.097  25.702  1.00  0.00    -0.206 F 
ATOM     70  C   UNL A   1      44.072  20.636  25.499  1.00  0.00     0.060 A 
BRANCH  70  71
ATOM     71  S   UNL A   1      44.551  19.176  24.561  1.00  0.00     0.124 S 
ATOM     72  O   UNL A   1      43.529  18.211  24.952  1.00  0.00    -0.237 OA
ATOM     73  O   UNL A   1      44.479  19.658  23.186  1.00  0.00    -0.237 OA
ATOM     74  O   UNL A   1      45.896  18.883  25.049  1.00  0.00    -0.744 OA
ENDBRANCH  70  71
ENDBRANCH  49  63
BRANCH  50  75
ATOM     75  C   UNL A   1      41.475  30.622  32.738  1.00  0.00     0.058 A 
ATOM     76  C   UNL A   1      41.594  32.017  32.894  1.00  0.00     0.135 A 
ATOM     77  C   UNL A   1      40.187  30.077  32.679  1.00  0.00     0.135 A 
ATOM     78  F   UNL A   1      42.810  32.584  32.976  1.00  0.00    -0.206 F 
ATOM     79  C   UNL A   1      40.491  32.854  32.793  1.00  0.00     0.059 A 
ATOM     80  C   UNL A   1      39.063  30.899  32.593  1.00  0.00     0.059 A 
ATOM     81  F   UNL A   1      40.017  28.753  32.538  1.00  0.00    -0.206 F 
ATOM     82  C   UNL A   1      39.241  32.284  32.564  1.00  0.00     0.060 A 
BRANCH  82  83
ATOM     83  S   UNL A   1      37.910  33.377  32.013  1.00  0.00     0.124 S 
ATOM     84  O   UNL A   1      36.722  32.583  32.303  1.00  0.00    -0.237 OA
ATOM     85  O   UNL A   1      38.122  34.539  32.871  1.00  0.00    -0.237 OA
ATOM     86  O   UNL A   1      38.207  33.576  30.599  1.00  0.00    -0.744 OA
ENDBRANCH  82  83
ENDBRANCH  50  75
BRANCH  62  87
ATOM     87  C   UNL A   1      45.242  24.453  33.296  1.00  0.00     0.058 A 
ATOM     88  C   UNL A   1      46.560  24.351  33.767  1.00  0.00     0.135 A 
ATOM     89  C   UNL A   1      44.377  23.384  33.602  1.00  0.00     0.135 A 
ATOM     90  F   UNL A   1      47.455  25.318  33.505  1.00  0.00    -0.206 F 
ATOM     91  C   UNL A   1      46.997  23.250  34.506  1.00  0.00     0.059 A 
ATOM     92  C   UNL A   1      44.801  22.257  34.300  1.00  0.00     0.059 A 
ATOM     93  F   UNL A   1      43.083  23.416  33.244  1.00  0.00    -0.206 F 
ATOM     94  C   UNL A   1      46.111  22.204  34.760  1.00  0.00     0.060 A 
BRANCH  94  95
ATOM     95  S   UNL A   1      46.682  20.749  35.660  1.00  0.00     0.124 S 
ATOM     96  O   UNL A   1      46.748  19.728  34.618  1.00  0.00    -0.237 OA
ATOM     97  O   UNL A   1      47.968  21.211  36.171  1.00  0.00    -0.237 OA
ATOM     98  O   UNL A   1      45.641  20.544  36.661  1.00  0.00    -0.744 OA
ENDBRANCH  94  95
ENDBRANCH  62  87
ENDBRANCH  36  37
ENDBRANCH  28  31
ENDBRANCH  26  27
ENDBRANCH  25  26
ENDBRANCH  24  25
ENDBRANCH   1  24
TORSDOF 21
ENDMDL
MODEL 2
REMARK VINA RESULT:     -12.1      1.913      2.669
REMARK SMILES CCN(CC)C(=O)COc1cc(C)ccc1C(=O)NCCCCCCNC(=O)c1ccc(-c2c3nc(c(-c4c(F)cc(S(=O)(=O)[O-])cc4F)c4ccc([nH]4)c(-c4c(F)cc(S(=O)(=O)[O-])cc4F)c4nc(c(-c5c(F)cc(S(=O)(=O)[O-])cc5F)c5ccc2[nH]5)C=C4)C=C3)cc1
REMARK SMILES IDX 22 1 21 2 20 3 19 4 17 5 18 6 16 8 10 9 11 10 12 11 15 12
REMARK SMILES IDX 13 13 14 14 9 15 8 16 6 17 3 18 7 19 2 20 1 21 4 22 5 23
REMARK SMILES IDX 23 24 24 25 25 26 26 27 27 28 28 30 29 31 30 32 94 33 31 34
REMARK SMILES IDX 93 35 32 36 33 37 34 38 87 39 35 40 92 41 86 42 88 43 36 44
REMARK SMILES IDX 91 45 85 46 84 47 37 49 71 50 50 51 70 52 51 53 54 54 69 55
REMARK SMILES IDX 89 56 52 57 53 58 68 60 90 61 55 62 38 63 39 64 48 65 40 66
REMARK SMILES IDX 41 67 47 68 49 69 42 70 43 71 44 72 45 73 46 74 72 75 73 76
REMARK SMILES IDX 82 77 74 78 75 79 81 80 83 81 76 82 77 83 78 84 79 85 80 86
REMARK SMILES IDX 56 87 57 88 66 89 58 90 59 91 65 92 67 93 60 94 61 95 62 96
REMARK SMILES IDX 63 97 64 98
REMARK H PARENT 19 7 26 29 88 48 54 59
REMARK Flexibility Score: inf
ROOT
ATOM      1  C   UNL A   1      31.394  27.038  25.309  1.00  0.00     0.002 C 
ENDROOT
BRANCH   1   2
ATOM      2  C   UNL A   1      32.354  26.059  25.990  1.00  0.00     0.021 C 
BRANCH   2   3
ATOM      3  C   UNL A   1      32.499  24.647  25.430  1.00  0.00     0.116 C 
BRANCH   3   4
ATOM      4  N   UNL A   1      32.844  24.522  24.040  1.00  0.00    -0.352 N 
ATOM      5  C   UNL A   1      33.837  23.783  23.438  1.00  0.00     0.255 C 
ATOM      6  O   UNL A   1      33.839  23.771  22.202  1.00  0.00    -0.269 OA
ATOM      7  H   UNL A   1      32.283  25.047  23.423  1.00  0.00     0.163 HD
BRANCH   5   8
ATOM      8  C   UNL A   1      34.947  23.051  24.143  1.00  0.00     0.081 A 
ATOM      9  C   UNL A   1      34.920  21.778  24.737  1.00  0.00     0.133 A 
ATOM     10  C   UNL A   1      36.111  21.206  25.231  1.00  0.00     0.050 A 
ATOM     11  C   UNL A   1      37.330  21.887  25.197  1.00  0.00    -0.047 A 
ATOM     12  C   UNL A   1      36.192  23.721  24.108  1.00  0.00     0.018 A 
ATOM     13  C   UNL A   1      38.581  21.242  25.720  1.00  0.00     0.044 C 
ATOM     14  C   UNL A   1      37.362  23.157  24.631  1.00  0.00     0.004 A 
BRANCH   9  15
ATOM     15  O   UNL A   1      33.786  21.009  24.732  1.00  0.00    -0.483 OA
BRANCH  15  16
ATOM     16  C   UNL A   1      34.018  19.624  24.466  1.00  0.00     0.329 C 
BRANCH  16  17
ATOM     17  C   UNL A   1      33.083  18.592  25.102  1.00  0.00     0.260 C 
ATOM     18  N   UNL A   1      33.412  17.243  25.040  1.00  0.00    -0.340 N 
ATOM     19  O   UNL A   1      32.057  18.981  25.668  1.00  0.00    -0.271 OA
BRANCH  18  20
ATOM     20  C   UNL A   1      32.565  16.318  25.792  1.00  0.00     0.116 C 
ATOM     21  C   UNL A   1      32.857  14.870  25.413  1.00  0.00     0.027 C 
ENDBRANCH  18  20
BRANCH  18  22
ATOM     22  C   UNL A   1      34.556  16.680  24.316  1.00  0.00     0.116 C 
ATOM     23  C   UNL A   1      34.332  16.642  22.811  1.00  0.00     0.027 C 
ENDBRANCH  18  22
ENDBRANCH  16  17
ENDBRANCH  15  16
ENDBRANCH   9  15
ENDBRANCH   5   8
ENDBRANCH   3   4
ENDBRANCH   2   3
ENDBRANCH   1   2
BRANCH   1  24
ATOM     24  C   UNL A   1      31.695  28.542  25.341  1.00  0.00     0.002 C 
BRANCH  24  25
ATOM     25  C   UNL A   1      31.929  29.206  26.697  1.00  0.00     0.021 C 
BRANCH  25  26
ATOM     26  C   UNL A   1      33.386  29.392  27.104  1.00  0.00     0.116 C 
BRANCH  26  27
ATOM     27  N   UNL A   1      33.718  30.769  27.453  1.00  0.00    -0.352 N 
ATOM     28  C   UNL A   1      34.840  31.231  28.126  1.00  0.00     0.251 C 
ATOM     29  H   UNL A   1      33.066  31.454  27.179  1.00  0.00     0.163 HD
ATOM     30  O   UNL A   1      34.958  32.395  28.463  1.00  0.00    -0.269 OA
BRANCH  28  31
ATOM     31  C   UNL A   1      35.928  30.259  28.368  1.00  0.00     0.039 A 
ATOM     32  C   UNL A   1      36.022  29.681  29.638  1.00  0.00     0.014 A 
ATOM     33  C   UNL A   1      36.965  30.144  27.447  1.00  0.00     0.014 A 
ATOM     34  C   UNL A   1      37.243  29.158  30.061  1.00  0.00     0.010 A 
ATOM     35  C   UNL A   1      38.196  29.705  27.900  1.00  0.00     0.010 A 
ATOM     36  C   UNL A   1      38.352  29.263  29.225  1.00  0.00    -0.014 A 
BRANCH  36  37
ATOM     37  C   UNL A   1      39.733  29.041  29.658  1.00  0.00     0.031 A 
ATOM     38  C   UNL A   1      40.452  27.805  29.269  1.00  0.00     0.074 A 
ATOM     39  C   UNL A   1      40.411  30.025  30.290  1.00  0.00     0.049 A 
ATOM     40  N   UNL A   1      41.615  27.455  29.710  1.00  0.00    -0.248 NA
ATOM     41  C   UNL A   1      39.868  26.819  28.372  1.00  0.00     0.031 C 
ATOM     42  C   UNL A   1      41.860  30.159  30.403  1.00  0.00     0.029 A 
ATOM     43  N   UNL A   1      39.906  30.993  31.156  1.00  0.00    -0.354 N 
ATOM     44  C   UNL A   1      42.048  26.371  28.979  1.00  0.00     0.074 A 
ATOM     45  C   UNL A   1      40.893  25.980  28.204  1.00  0.00     0.031 C 
ATOM     46  C   UNL A   1      42.144  30.960  31.439  1.00  0.00     0.029 A 
ATOM     47  C   UNL A   1      40.900  31.243  32.126  1.00  0.00     0.049 A 
ATOM     48  H   UNL A   1      39.022  31.423  31.101  1.00  0.00     0.167 HD
ATOM     49  C   UNL A   1      43.365  26.009  29.046  1.00  0.00     0.037 A 
ATOM     50  C   UNL A   1      40.665  30.977  33.448  1.00  0.00     0.037 A 
ATOM     51  C   UNL A   1      44.054  26.719  30.130  1.00  0.00     0.049 A 
ATOM     52  C   UNL A   1      41.527  29.881  34.043  1.00  0.00     0.074 A 
ATOM     53  C   UNL A   1      44.920  27.799  30.213  1.00  0.00     0.029 A 
ATOM     54  N   UNL A   1      43.663  26.453  31.430  1.00  0.00    -0.354 N 
ATOM     55  N   UNL A   1      42.464  29.241  33.398  1.00  0.00    -0.248 NA
ATOM     56  C   UNL A   1      41.345  29.365  35.403  1.00  0.00     0.031 C 
ATOM     57  C   UNL A   1      45.010  28.195  31.582  1.00  0.00     0.029 A 
ATOM     58  C   UNL A   1      44.201  27.355  32.325  1.00  0.00     0.049 A 
ATOM     59  H   UNL A   1      43.072  25.709  31.686  1.00  0.00     0.167 HD
ATOM     60  C   UNL A   1      42.926  28.211  34.174  1.00  0.00     0.074 A 
ATOM     61  C   UNL A   1      42.226  28.351  35.436  1.00  0.00     0.031 C 
ATOM     62  C   UNL A   1      43.801  27.271  33.718  1.00  0.00     0.037 A 
BRANCH  49  63
ATOM     63  C   UNL A   1      44.090  25.162  28.010  1.00  0.00     0.058 A 
ATOM     64  C   UNL A   1      44.574  25.745  26.817  1.00  0.00     0.135 A 
ATOM     65  C   UNL A   1      44.279  23.768  28.082  1.00  0.00     0.135 A 
ATOM     66  F   UNL A   1      44.562  27.072  26.628  1.00  0.00    -0.206 F 
ATOM     67  C   UNL A   1      45.086  24.998  25.749  1.00  0.00     0.059 A 
ATOM     68  C   UNL A   1      44.737  22.992  27.012  1.00  0.00     0.059 A 
ATOM     69  F   UNL A   1      44.093  23.085  29.215  1.00  0.00    -0.206 F 
ATOM     70  C   UNL A   1      45.124  23.616  25.840  1.00  0.00     0.060 A 
BRANCH  70  71
ATOM     71  S   UNL A   1      45.696  22.652  24.429  1.00  0.00     0.124 S 
ATOM     72  O   UNL A   1      46.327  21.506  25.076  1.00  0.00    -0.237 OA
ATOM     73  O   UNL A   1      44.450  22.378  23.722  1.00  0.00    -0.237 OA
ATOM     74  O   UNL A   1      46.614  23.559  23.746  1.00  0.00    -0.744 OA
ENDBRANCH  70  71
ENDBRANCH  49  63
BRANCH  50  75
ATOM     75  C   UNL A   1      39.269  31.304  33.846  1.00  0.00     0.058 A 
ATOM     76  C   UNL A   1      38.993  32.651  34.155  1.00  0.00     0.135 A 
ATOM     77  C   UNL A   1      38.197  30.488  33.464  1.00  0.00     0.135 A 
ATOM     78  F   UNL A   1      39.986  33.467  34.547  1.00  0.00    -0.206 F 
ATOM     79  C   UNL A   1      37.749  33.212  33.903  1.00  0.00     0.059 A 
ATOM     80  C   UNL A   1      36.935  31.028  33.220  1.00  0.00     0.059 A 
ATOM     81  F   UNL A   1      38.403  29.196  33.164  1.00  0.00    -0.206 F 
ATOM     82  C   UNL A   1      36.751  32.406  33.361  1.00  0.00     0.060 A 
BRANCH  82  83
ATOM     83  S   UNL A   1      35.306  33.225  32.648  1.00  0.00     0.124 S 
ATOM     84  O   UNL A   1      34.549  33.599  33.836  1.00  0.00    -0.237 OA
ATOM     85  O   UNL A   1      35.933  34.327  31.922  1.00  0.00    -0.237 OA
ATOM     86  O   UNL A   1      34.708  32.184  31.820  1.00  0.00    -0.744 OA
ENDBRANCH  82  83
ENDBRANCH  50  75
BRANCH  62  87
ATOM     87  C   UNL A   1      44.326  26.163  34.581  1.00  0.00     0.058 A 
ATOM     88  C   UNL A   1      45.666  26.126  34.997  1.00  0.00     0.135 A 
ATOM     89  C   UNL A   1      43.537  25.039  34.894  1.00  0.00     0.135 A 
ATOM     90  F   UNL A   1      46.494  27.148  34.724  1.00  0.00    -0.206 F 
ATOM     91  C   UNL A   1      46.194  25.036  35.691  1.00  0.00     0.059 A 
ATOM     92  C   UNL A   1      44.051  23.923  35.548  1.00  0.00     0.059 A 
ATOM     93  F   UNL A   1      42.229  25.005  34.589  1.00  0.00    -0.206 F 
ATOM     94  C   UNL A   1      45.380  23.935  35.955  1.00  0.00     0.060 A 
BRANCH  94  95
ATOM     95  S   UNL A   1      46.068  22.496  36.796  1.00  0.00     0.124 S 
ATOM     96  O   UNL A   1      47.494  22.598  36.497  1.00  0.00    -0.237 OA
ATOM     97  O   UNL A   1      45.695  22.764  38.181  1.00  0.00    -0.237 OA
ATOM     98  O   UNL A   1      45.382  21.377  36.161  1.00  0.00    -0.744 OA
ENDBRANCH  94  95
ENDBRANCH  62  87
ENDBRANCH  36  37
ENDBRANCH  28  31
ENDBRANCH  26  27
ENDBRANCH  25  26
ENDBRANCH  24  25
ENDBRANCH   1  24
TORSDOF 21
ENDMDL
MODEL 3
REMARK VINA RESULT:     -11.6      2.236      3.640
REMARK SMILES CCN(CC)C(=O)COc1cc(C)ccc1C(=O)NCCCCCCNC(=O)c1ccc(-c2c3nc(c(-c4c(F)cc(S(=O)(=O)[O-])cc4F)c4ccc([nH]4)c(-c4c(F)cc(S(=O)(=O)[O-])cc4F)c4nc(c(-c5c(F)cc(S(=O)(=O)[O-])cc5F)c5ccc2[nH]5)C=C4)C=C3)cc1
REMARK SMILES IDX 22 1 21 2 20 3 19 4 17 5 18 6 16 8 10 9 11 10 12 11 15 12
REMARK SMILES IDX 13 13 14 14 9 15 8 16 6 17 3 18 7 19 2 20 1 21 4 22 5 23
REMARK SMILES IDX 23 24 24 25 25 26 26 27 27 28 28 30 29 31 30 32 94 33 31 34
REMARK SMILES IDX 93 35 32 36 33 37 34 38 87 39 35 40 92 41 86 42 88 43 36 44
REMARK SMILES IDX 91 45 85 46 84 47 37 49 71 50 50 51 70 52 51 53 54 54 69 55
REMARK SMILES IDX 89 56 52 57 53 58 68 60 90 61 55 62 38 63 39 64 48 65 40 66
REMARK SMILES IDX 41 67 47 68 49 69 42 70 43 71 44 72 45 73 46 74 72 75 73 76
REMARK SMILES IDX 82 77 74 78 75 79 81 80 83 81 76 82 77 83 78 84 79 85 80 86
REMARK SMILES IDX 56 87 57 88 66 89 58 90 59 91 65 92 67 93 60 94 61 95 62 96
REMARK SMILES IDX 63 97 64 98
REMARK H PARENT 19 7 26 29 88 48 54 59
REMARK Flexibility Score: inf
ROOT
ATOM      1  C   UNL A   1      31.278  26.817  26.500  1.00  0.00     0.002 C 
ENDROOT
BRANCH   1   2
ATOM      2  C   UNL A   1      32.127  25.544  26.432  1.00  0.00     0.021 C 
BRANCH   2   3
ATOM      3  C   UNL A   1      32.031  24.650  25.199  1.00  0.00     0.116 C 
BRANCH   3   4
ATOM      4  N   UNL A   1      33.023  24.832  24.175  1.00  0.00    -0.352 N 
ATOM      5  C   UNL A   1      33.801  23.904  23.520  1.00  0.00     0.255 C 
ATOM      6  O   UNL A   1      34.500  24.329  22.594  1.00  0.00    -0.269 OA
ATOM      7  H   UNL A   1      33.170  25.767  23.899  1.00  0.00     0.163 HD
BRANCH   5   8
ATOM      8  C   UNL A   1      33.923  22.445  23.872  1.00  0.00     0.081 A 
ATOM      9  C   UNL A   1      34.956  21.794  24.566  1.00  0.00     0.133 A 
ATOM     10  C   UNL A   1      34.819  20.434  24.918  1.00  0.00     0.050 A 
ATOM     11  C   UNL A   1      33.699  19.684  24.556  1.00  0.00    -0.047 A 
ATOM     12  C   UNL A   1      32.791  21.673  23.523  1.00  0.00     0.018 A 
ATOM     13  C   UNL A   1      33.579  18.243  24.959  1.00  0.00     0.044 C 
ATOM     14  C   UNL A   1      32.680  20.315  23.850  1.00  0.00     0.004 A 
BRANCH   9  15
ATOM     15  O   UNL A   1      36.047  22.476  25.033  1.00  0.00    -0.483 OA
BRANCH  15  16
ATOM     16  C   UNL A   1      37.097  21.639  25.523  1.00  0.00     0.329 C 
BRANCH  16  17
ATOM     17  C   UNL A   1      38.405  22.296  25.972  1.00  0.00     0.260 C 
ATOM     18  N   UNL A   1      39.563  21.530  26.049  1.00  0.00    -0.340 N 
ATOM     19  O   UNL A   1      38.408  23.499  26.248  1.00  0.00    -0.271 OA
BRANCH  18  20
ATOM     20  C   UNL A   1      40.809  22.238  26.335  1.00  0.00     0.116 C 
ATOM     21  C   UNL A   1      41.029  22.383  27.837  1.00  0.00     0.027 C 
ENDBRANCH  18  20
BRANCH  18  22
ATOM     22  C   UNL A   1      39.639  20.082  25.830  1.00  0.00     0.116 C 
ATOM     23  C   UNL A   1      41.020  19.519  26.130  1.00  0.00     0.027 C 
ENDBRANCH  18  22
ENDBRANCH  16  17
ENDBRANCH  15  16
ENDBRANCH   9  15
ENDBRANCH   5   8
ENDBRANCH   3   4
ENDBRANCH   2   3
ENDBRANCH   1   2
BRANCH   1  24
ATOM     24  C   UNL A   1      31.480  27.920  25.454  1.00  0.00     0.002 C 
BRANCH  24  25
ATOM     25  C   UNL A   1      31.784  29.335  25.941  1.00  0.00     0.021 C 
BRANCH  25  26
ATOM     26  C   UNL A   1      32.887  29.455  26.986  1.00  0.00     0.116 C 
BRANCH  26  27
ATOM     27  N   UNL A   1      33.175  30.834  27.368  1.00  0.00    -0.352 N 
ATOM     28  C   UNL A   1      34.274  31.313  28.065  1.00  0.00     0.251 C 
ATOM     29  H   UNL A   1      32.508  31.505  27.098  1.00  0.00     0.163 HD
ATOM     30  O   UNL A   1      34.354  32.473  28.427  1.00  0.00    -0.269 OA
BRANCH  28  31
ATOM     31  C   UNL A   1      35.387  30.368  28.303  1.00  0.00     0.039 A 
ATOM     32  C   UNL A   1      35.622  29.948  29.617  1.00  0.00     0.014 A 
ATOM     33  C   UNL A   1      36.316  30.131  27.296  1.00  0.00     0.014 A 
ATOM     34  C   UNL A   1      36.884  29.469  29.964  1.00  0.00     0.010 A 
ATOM     35  C   UNL A   1      37.591  29.739  27.661  1.00  0.00     0.010 A 
ATOM     36  C   UNL A   1      37.894  29.460  29.005  1.00  0.00    -0.014 A 
BRANCH  36  37
ATOM     37  C   UNL A   1      39.314  29.279  29.307  1.00  0.00     0.031 A 
ATOM     38  C   UNL A   1      39.987  27.992  29.013  1.00  0.00     0.074 A 
ATOM     39  C   UNL A   1      40.058  30.330  29.720  1.00  0.00     0.049 A 
ATOM     40  N   UNL A   1      41.192  27.688  29.365  1.00  0.00    -0.248 NA
ATOM     41  C   UNL A   1      39.307  26.901  28.329  1.00  0.00     0.031 C 
ATOM     42  C   UNL A   1      41.511  30.458  29.652  1.00  0.00     0.029 A 
ATOM     43  N   UNL A   1      39.652  31.414  30.497  1.00  0.00    -0.354 N 
ATOM     44  C   UNL A   1      41.542  26.510  28.745  1.00  0.00     0.074 A 
ATOM     45  C   UNL A   1      40.308  26.033  28.164  1.00  0.00     0.031 C 
ATOM     46  C   UNL A   1      41.909  31.387  30.531  1.00  0.00     0.029 A 
ATOM     47  C   UNL A   1      40.749  31.778  31.308  1.00  0.00     0.049 A 
ATOM     48  H   UNL A   1      38.767  31.845  30.483  1.00  0.00     0.167 HD
ATOM     49  C   UNL A   1      42.858  26.142  28.714  1.00  0.00     0.037 A 
ATOM     50  C   UNL A   1      40.664  31.697  32.671  1.00  0.00     0.037 A 
ATOM     51  C   UNL A   1      43.664  26.982  29.608  1.00  0.00     0.049 A 
ATOM     52  C   UNL A   1      41.588  30.679  33.310  1.00  0.00     0.074 A 
ATOM     53  C   UNL A   1      44.532  28.050  29.446  1.00  0.00     0.029 A 
ATOM     54  N   UNL A   1      43.422  26.900  30.966  1.00  0.00    -0.354 N 
ATOM     55  N   UNL A   1      42.448  29.945  32.658  1.00  0.00    -0.248 NA
ATOM     56  C   UNL A   1      41.561  30.355  34.739  1.00  0.00     0.031 C 
ATOM     57  C   UNL A   1      44.775  28.627  30.729  1.00  0.00     0.029 A 
ATOM     58  C   UNL A   1      44.056  27.907  31.665  1.00  0.00     0.049 A 
ATOM     59  H   UNL A   1      42.864  26.206  31.386  1.00  0.00     0.167 HD
ATOM     60  C   UNL A   1      42.995  29.023  33.511  1.00  0.00     0.074 A 
ATOM     61  C   UNL A   1      42.441  29.343  34.812  1.00  0.00     0.031 C 
ATOM     62  C   UNL A   1      43.815  28.017  33.093  1.00  0.00     0.037 A 
BRANCH  49  63
ATOM     63  C   UNL A   1      43.463  25.152  27.729  1.00  0.00     0.058 A 
ATOM     64  C   UNL A   1      44.303  24.109  28.182  1.00  0.00     0.135 A 
ATOM     65  C   UNL A   1      43.327  25.207  26.327  1.00  0.00     0.135 A 
ATOM     66  F   UNL A   1      44.464  23.854  29.488  1.00  0.00    -0.206 F 
ATOM     67  C   UNL A   1      45.031  23.279  27.322  1.00  0.00     0.059 A 
ATOM     68  C   UNL A   1      44.082  24.427  25.445  1.00  0.00     0.059 A 
ATOM     69  F   UNL A   1      42.408  25.972  25.735  1.00  0.00    -0.206 F 
ATOM     70  C   UNL A   1      44.947  23.474  25.952  1.00  0.00     0.060 A 
BRANCH  70  71
ATOM     71  S   UNL A   1      45.956  22.467  24.851  1.00  0.00     0.124 S 
ATOM     72  O   UNL A   1      46.103  21.232  25.614  1.00  0.00    -0.237 OA
ATOM     73  O   UNL A   1      45.118  22.384  23.660  1.00  0.00    -0.237 OA
ATOM     74  O   UNL A   1      47.180  23.249  24.700  1.00  0.00    -0.744 OA
ENDBRANCH  70  71
ENDBRANCH  49  63
BRANCH  50  75
ATOM     75  C   UNL A   1      39.321  32.095  33.174  1.00  0.00     0.058 A 
ATOM     76  C   UNL A   1      39.017  33.471  33.161  1.00  0.00     0.135 A 
ATOM     77  C   UNL A   1      38.253  31.189  33.180  1.00  0.00     0.135 A 
ATOM     78  F   UNL A   1      40.009  34.378  33.176  1.00  0.00    -0.206 F 
ATOM     79  C   UNL A   1      37.721  33.925  32.961  1.00  0.00     0.059 A 
ATOM     80  C   UNL A   1      36.941  31.625  32.995  1.00  0.00     0.059 A 
ATOM     81  F   UNL A   1      38.486  29.868  33.198  1.00  0.00    -0.206 F 
ATOM     82  C   UNL A   1      36.704  32.988  32.801  1.00  0.00     0.060 A 
BRANCH  82  83
ATOM     83  S   UNL A   1      35.131  33.566  32.122  1.00  0.00     0.124 S 
ATOM     84  O   UNL A   1      35.553  34.235  30.898  1.00  0.00    -0.237 OA
ATOM     85  O   UNL A   1      34.417  32.304  31.943  1.00  0.00    -0.237 OA
ATOM     86  O   UNL A   1      34.615  34.437  33.173  1.00  0.00    -0.744 OA
ENDBRANCH  82  83
ENDBRANCH  50  75
BRANCH  62  87
ATOM     87  C   UNL A   1      44.435  27.030  34.035  1.00  0.00     0.058 A 
ATOM     88  C   UNL A   1      45.800  27.076  34.357  1.00  0.00     0.135 A 
ATOM     89  C   UNL A   1      43.707  25.927  34.526  1.00  0.00     0.135 A 
ATOM     90  F   UNL A   1      46.572  28.082  33.913  1.00  0.00    -0.206 F 
ATOM     91  C   UNL A   1      46.411  26.086  35.129  1.00  0.00     0.059 A 
ATOM     92  C   UNL A   1      44.303  24.907  35.262  1.00  0.00     0.059 A 
ATOM     93  F   UNL A   1      42.385  25.824  34.319  1.00  0.00    -0.206 F 
ATOM     94  C   UNL A   1      45.654  25.001  35.570  1.00  0.00     0.060 A 
BRANCH  94  95
ATOM     95  S   UNL A   1      46.447  23.686  36.516  1.00  0.00     0.124 S 
ATOM     96  O   UNL A   1      47.307  23.047  35.524  1.00  0.00    -0.237 OA
ATOM     97  O   UNL A   1      47.139  24.449  37.549  1.00  0.00    -0.237 OA
ATOM     98  O   UNL A   1      45.323  22.877  36.973  1.00  0.00    -0.744 OA
ENDBRANCH  94  95
ENDBRANCH  62  87
ENDBRANCH  36  37
ENDBRANCH  28  31
ENDBRANCH  26  27
ENDBRANCH  25  26
ENDBRANCH  24  25
ENDBRANCH   1  24
TORSDOF 21
ENDMDL
