MODEL 1
REMARK VINA RESULT:     -11.8      0.000      0.000
REMARK SMILES C#Cc1cc(Cl)cc2c1O[C@H](C(F)(F)F)C(C(=O)NCCCCCCNC(=O)c1ccc(-c3c4nc(c(-c5c(F)cc(S(=O)(=O)[O-])cc5F)c5ccc([nH]5)c(-c5c(F)cc(S(=O)(=O)[O-])cc5F)c5nc(c(-c6c(F)cc(S(=O)(=O)[O-])cc6F)c6ccc3[nH]6)C=C5)C=C4)cc1)=C2
REMARK SMILES IDX 23 1 22 2 21 3 20 4 19 5 17 6 18 7 16 9 3 10 4 11 9 12 5 13
REMARK SMILES IDX 8 14 10 15 6 16 7 17 95 18 11 19 2 20 1 21 12 22 13 23 14 24
REMARK SMILES IDX 15 25 24 26 25 27 26 28 27 29 28 31 29 32 30 33 94 34 31 35
REMARK SMILES IDX 93 36 32 37 33 38 34 39 87 40 35 41 92 42 86 43 88 44 36 45
REMARK SMILES IDX 91 46 85 47 84 48 37 50 71 51 50 52 70 53 51 54 54 55 69 56
REMARK SMILES IDX 89 57 52 58 53 59 68 61 90 62 55 63 38 64 39 65 48 66 40 67
REMARK SMILES IDX 41 68 47 69 49 70 42 71 43 72 44 73 45 74 46 75 72 76 73 77
REMARK SMILES IDX 82 78 74 79 75 80 81 81 83 82 76 83 77 84 78 85 79 86 80 87
REMARK SMILES IDX 56 88 57 89 66 90 58 91 59 92 65 93 67 94 60 95 61 96 62 97
REMARK SMILES IDX 63 98 64 99
REMARK H PARENT 19 8 26 30 88 49 54 60
REMARK Flexibility Score: inf
ROOT
ATOM      1  C   UNL A   1      31.506  28.429  25.949  1.00  0.00     0.002 C 
ENDROOT
BRANCH   1   2
ATOM      2  C   UNL A   1      31.565  27.929  24.498  1.00  0.00     0.002 C 
BRANCH   2   3
ATOM      3  C   UNL A   1      30.271  27.287  23.996  1.00  0.00     0.021 C 
BRANCH   3   4
ATOM      4  C   UNL A   1      30.493  25.907  23.392  1.00  0.00     0.116 C 
BRANCH   4   5
ATOM      5  N   UNL A   1      31.434  25.950  22.286  1.00  0.00    -0.352 N 
ATOM      6  C   UNL A   1      32.553  25.285  21.910  1.00  0.00     0.251 C 
ATOM      7  O   UNL A   1      33.049  25.637  20.835  1.00  0.00    -0.270 OA
ATOM      8  H   UNL A   1      31.195  26.648  21.635  1.00  0.00     0.163 HD
BRANCH   6   9
ATOM      9  C   UNL A   1      33.197  24.192  22.698  1.00  0.00     0.067 C 
ATOM     10  C   UNL A   1      35.049  20.976  24.674  1.00  0.00     0.068 A 
ATOM     11  C   UNL A   1      34.364  19.774  24.841  1.00  0.00     0.041 A 
ATOM     12  C   UNL A   1      34.434  22.035  23.993  1.00  0.00     0.143 A 
ATOM     13  C   UNL A   1      33.075  19.643  24.321  1.00  0.00     0.043 A 
ATOM     14  C   UNL A   1      33.146  21.902  23.465  1.00  0.00     0.020 A 
ATOM     15  O   UNL A   1      35.170  23.169  23.829  1.00  0.00    -0.474 OA
ATOM     16  Cl  UNL A   1      32.232  18.155  24.518  1.00  0.00    -0.084 Cl
ATOM     17  C   UNL A   1      32.464  20.695  23.633  1.00  0.00     0.032 A 
ATOM     18  C   UNL A   1      32.561  23.006  22.710  1.00  0.00     0.025 C 
ATOM     19  C   UNL A   1      34.467  24.378  23.473  1.00  0.00     0.314 C 
BRANCH  10  20
ATOM     20  C   UNL A   1      36.375  21.130  25.196  1.00  0.00    -0.067 C 
ATOM     21  C   UNL A   1      37.498  21.317  25.582  1.00  0.00     0.010 C 
ENDBRANCH  10  20
BRANCH  19  22
ATOM     22  C   UNL A   1      34.273  25.243  24.732  1.00  0.00     0.429 C 
ATOM     23  F   UNL A   1      33.068  24.995  25.300  1.00  0.00    -0.167 F 
ATOM     24  F   UNL A   1      35.203  24.998  25.685  1.00  0.00    -0.167 F 
ATOM     25  F   UNL A   1      34.334  26.567  24.460  1.00  0.00    -0.167 F 
ENDBRANCH  19  22
ENDBRANCH   6   9
ENDBRANCH   4   5
ENDBRANCH   3   4
ENDBRANCH   2   3
ENDBRANCH   1   2
BRANCH   1  26
ATOM     26  C   UNL A   1      32.377  27.645  26.934  1.00  0.00     0.021 C 
BRANCH  26  27
ATOM     27  C   UNL A   1      33.729  28.290  27.208  1.00  0.00     0.116 C 
BRANCH  27  28
ATOM     28  N   UNL A   1      33.589  29.705  27.511  1.00  0.00    -0.352 N 
ATOM     29  C   UNL A   1      34.469  30.542  28.149  1.00  0.00     0.251 C 
ATOM     30  H   UNL A   1      32.745  30.120  27.219  1.00  0.00     0.163 HD
ATOM     31  O   UNL A   1      34.095  31.638  28.554  1.00  0.00    -0.269 OA
BRANCH  29  32
ATOM     32  C   UNL A   1      35.861  30.100  28.349  1.00  0.00     0.039 A 
ATOM     33  C   UNL A   1      36.757  30.174  27.280  1.00  0.00     0.014 A 
ATOM     34  C   UNL A   1      36.279  29.622  29.595  1.00  0.00     0.014 A 
ATOM     35  C   UNL A   1      38.088  29.812  27.478  1.00  0.00     0.010 A 
ATOM     36  C   UNL A   1      37.623  29.343  29.812  1.00  0.00     0.010 A 
ATOM     37  C   UNL A   1      38.537  29.421  28.752  1.00  0.00    -0.014 A 
BRANCH  37  38
ATOM     38  C   UNL A   1      39.958  29.062  28.982  1.00  0.00     0.031 A 
ATOM     39  C   UNL A   1      40.898  30.074  29.577  1.00  0.00     0.074 A 
ATOM     40  C   UNL A   1      40.401  27.837  28.634  1.00  0.00     0.049 A 
ATOM     41  N   UNL A   1      42.176  29.962  29.827  1.00  0.00    -0.248 NA
ATOM     42  C   UNL A   1      40.334  31.391  29.921  1.00  0.00     0.031 C 
ATOM     43  C   UNL A   1      39.585  26.785  28.022  1.00  0.00     0.029 A 
ATOM     44  N   UNL A   1      41.643  27.267  28.746  1.00  0.00    -0.354 N 
ATOM     45  C   UNL A   1      42.565  31.184  30.360  1.00  0.00     0.074 A 
ATOM     46  C   UNL A   1      41.406  32.048  30.335  1.00  0.00     0.031 C 
ATOM     47  C   UNL A   1      40.339  25.688  27.849  1.00  0.00     0.029 A 
ATOM     48  C   UNL A   1      41.701  25.970  28.291  1.00  0.00     0.049 A 
ATOM     49  H   UNL A   1      42.422  27.741  29.118  1.00  0.00     0.167 HD
ATOM     50  C   UNL A   1      43.771  31.542  30.858  1.00  0.00     0.037 A 
ATOM     51  C   UNL A   1      42.736  25.108  28.231  1.00  0.00     0.037 A 
ATOM     52  C   UNL A   1      44.912  30.667  30.898  1.00  0.00     0.049 A 
ATOM     53  C   UNL A   1      44.081  25.552  28.746  1.00  0.00     0.074 A 
ATOM     54  C   UNL A   1      46.170  30.924  31.413  1.00  0.00     0.029 A 
ATOM     55  N   UNL A   1      44.938  29.369  30.408  1.00  0.00    -0.354 N 
ATOM     56  N   UNL A   1      44.418  26.696  29.295  1.00  0.00    -0.248 NA
ATOM     57  C   UNL A   1      45.187  24.591  28.636  1.00  0.00     0.031 C 
ATOM     58  C   UNL A   1      46.974  29.806  31.180  1.00  0.00     0.029 A 
ATOM     59  C   UNL A   1      46.198  28.825  30.581  1.00  0.00     0.049 A 
ATOM     60  H   UNL A   1      44.172  28.905  29.998  1.00  0.00     0.167 HD
ATOM     61  C   UNL A   1      45.765  26.579  29.621  1.00  0.00     0.074 A 
ATOM     62  C   UNL A   1      46.176  25.248  29.225  1.00  0.00     0.031 C 
ATOM     63  C   UNL A   1      46.589  27.493  30.192  1.00  0.00     0.037 A 
BRANCH  50  64
ATOM     64  C   UNL A   1      43.924  32.926  31.424  1.00  0.00     0.058 A 
ATOM     65  C   UNL A   1      44.203  34.028  30.599  1.00  0.00     0.135 A 
ATOM     66  C   UNL A   1      43.700  33.170  32.789  1.00  0.00     0.135 A 
ATOM     67  F   UNL A   1      44.447  33.850  29.291  1.00  0.00    -0.206 F 
ATOM     68  C   UNL A   1      44.255  35.321  31.108  1.00  0.00     0.059 A 
ATOM     69  C   UNL A   1      43.717  34.458  33.314  1.00  0.00     0.059 A 
ATOM     70  F   UNL A   1      43.437  32.151  33.623  1.00  0.00    -0.206 F 
ATOM     71  C   UNL A   1      43.998  35.528  32.464  1.00  0.00     0.060 A 
BRANCH  71  72
ATOM     72  S   UNL A   1      44.019  37.220  33.090  1.00  0.00     0.124 S 
ATOM     73  O   UNL A   1      43.835  37.988  31.863  1.00  0.00    -0.237 OA
ATOM     74  O   UNL A   1      42.891  37.220  34.014  1.00  0.00    -0.237 OA
ATOM     75  O   UNL A   1      45.336  37.338  33.710  1.00  0.00    -0.744 OA
ENDBRANCH  71  72
ENDBRANCH  50  64
BRANCH  51  76
ATOM     76  C   UNL A   1      42.543  23.739  27.680  1.00  0.00     0.058 A 
ATOM     77  C   UNL A   1      42.379  22.633  28.529  1.00  0.00     0.135 A 
ATOM     78  C   UNL A   1      42.521  23.503  26.296  1.00  0.00     0.135 A 
ATOM     79  F   UNL A   1      42.399  22.802  29.860  1.00  0.00    -0.206 F 
ATOM     80  C   UNL A   1      42.229  21.344  28.029  1.00  0.00     0.059 A 
ATOM     81  C   UNL A   1      42.338  22.227  25.772  1.00  0.00     0.059 A 
ATOM     82  F   UNL A   1      42.657  24.525  25.437  1.00  0.00    -0.206 F 
ATOM     83  C   UNL A   1      42.206  21.151  26.647  1.00  0.00     0.060 A 
BRANCH  83  84
ATOM     84  S   UNL A   1      41.984  19.475  26.013  1.00  0.00     0.124 S 
ATOM     85  O   UNL A   1      42.819  19.501  24.817  1.00  0.00    -0.237 OA
ATOM     86  O   UNL A   1      42.477  18.665  27.121  1.00  0.00    -0.237 OA
ATOM     87  O   UNL A   1      40.546  19.394  25.775  1.00  0.00    -0.744 OA
ENDBRANCH  83  84
ENDBRANCH  51  76
BRANCH  63  88
ATOM     88  C   UNL A   1      48.014  27.087  30.451  1.00  0.00     0.058 A 
ATOM     89  C   UNL A   1      49.041  27.384  29.542  1.00  0.00     0.135 A 
ATOM     90  C   UNL A   1      48.370  26.472  31.663  1.00  0.00     0.135 A 
ATOM     91  F   UNL A   1      48.756  27.969  28.368  1.00  0.00    -0.206 F 
ATOM     92  C   UNL A   1      50.367  27.069  29.816  1.00  0.00     0.059 A 
ATOM     93  C   UNL A   1      49.694  26.180  31.974  1.00  0.00     0.059 A 
ATOM     94  F   UNL A   1      47.429  26.177  32.575  1.00  0.00    -0.206 F 
ATOM     95  C   UNL A   1      50.686  26.475  31.039  1.00  0.00     0.060 A 
BRANCH  95  96
ATOM     96  S   UNL A   1      52.418  26.114  31.394  1.00  0.00     0.124 S 
ATOM     97  O   UNL A   1      53.013  26.192  30.065  1.00  0.00    -0.237 OA
ATOM     98  O   UNL A   1      52.774  27.191  32.313  1.00  0.00    -0.237 OA
ATOM     99  O   UNL A   1      52.375  24.781  31.985  1.00  0.00    -0.744 OA
ENDBRANCH  95  96
ENDBRANCH  63  88
ENDBRANCH  37  38
ENDBRANCH  29  32
ENDBRANCH  27  28
ENDBRANCH  26  27
ENDBRANCH   1  26
TORSDOF 18
ENDMDL
MODEL 2
REMARK VINA RESULT:     -11.3      2.954      3.930
REMARK SMILES C#Cc1cc(Cl)cc2c1O[C@H](C(F)(F)F)C(C(=O)NCCCCCCNC(=O)c1ccc(-c3c4nc(c(-c5c(F)cc(S(=O)(=O)[O-])cc5F)c5ccc([nH]5)c(-c5c(F)cc(S(=O)(=O)[O-])cc5F)c5nc(c(-c6c(F)cc(S(=O)(=O)[O-])cc6F)c6ccc3[nH]6)C=C5)C=C4)cc1)=C2
REMARK SMILES IDX 23 1 22 2 21 3 20 4 19 5 17 6 18 7 16 9 3 10 4 11 9 12 5 13
REMARK SMILES IDX 8 14 10 15 6 16 7 17 95 18 11 19 2 20 1 21 12 22 13 23 14 24
REMARK SMILES IDX 15 25 24 26 25 27 26 28 27 29 28 31 29 32 30 33 94 34 31 35
REMARK SMILES IDX 93 36 32 37 33 38 34 39 87 40 35 41 92 42 86 43 88 44 36 45
REMARK SMILES IDX 91 46 85 47 84 48 37 50 71 51 50 52 70 53 51 54 54 55 69 56
REMARK SMILES IDX 89 57 52 58 53 59 68 61 90 62 55 63 38 64 39 65 48 66 40 67
REMARK SMILES IDX 41 68 47 69 49 70 42 71 43 72 44 73 45 74 46 75 72 76 73 77
REMARK SMILES IDX 82 78 74 79 75 80 81 81 83 82 76 83 77 84 78 85 79 86 80 87
REMARK SMILES IDX 56 88 57 89 66 90 58 91 59 92 65 93 67 94 60 95 61 96 62 97
REMARK SMILES IDX 63 98 64 99
REMARK H PARENT 19 8 26 30 88 49 54 60
REMARK Flexibility Score: inf
ROOT
ATOM      1  C   UNL A   1      32.801  29.997  27.040  1.00  0.00     0.002 C 
ENDROOT
BRANCH   1   2
ATOM      2  C   UNL A   1      32.119  29.856  25.671  1.00  0.00     0.002 C 
BRANCH   2   3
ATOM      3  C   UNL A   1      32.950  29.116  24.623  1.00  0.00     0.021 C 
BRANCH   3   4
ATOM      4  C   UNL A   1      32.226  27.909  24.042  1.00  0.00     0.116 C 
BRANCH   4   5
ATOM      5  N   UNL A   1      31.325  27.307  25.009  1.00  0.00    -0.352 N 
ATOM      6  C   UNL A   1      31.217  26.124  25.661  1.00  0.00     0.251 C 
ATOM      7  O   UNL A   1      30.273  26.033  26.452  1.00  0.00    -0.270 OA
ATOM      8  H   UNL A   1      30.598  27.922  25.258  1.00  0.00     0.163 HD
BRANCH   6   9
ATOM      9  C   UNL A   1      32.141  24.965  25.478  1.00  0.00     0.067 C 
ATOM     10  C   UNL A   1      34.770  21.693  25.242  1.00  0.00     0.068 A 
ATOM     11  C   UNL A   1      36.131  21.874  25.481  1.00  0.00     0.041 A 
ATOM     12  C   UNL A   1      33.897  22.784  25.347  1.00  0.00     0.143 A 
ATOM     13  C   UNL A   1      36.602  23.142  25.826  1.00  0.00     0.043 A 
ATOM     14  C   UNL A   1      34.367  24.052  25.700  1.00  0.00     0.020 A 
ATOM     15  O   UNL A   1      32.574  22.533  25.139  1.00  0.00    -0.474 OA
ATOM     16  Cl  UNL A   1      38.282  23.365  26.130  1.00  0.00    -0.084 Cl
ATOM     17  C   UNL A   1      35.731  24.229  25.939  1.00  0.00     0.032 A 
ATOM     18  C   UNL A   1      33.419  25.151  25.857  1.00  0.00     0.025 C 
ATOM     19  C   UNL A   1      31.712  23.660  24.878  1.00  0.00     0.314 C 
BRANCH  10  20
ATOM     20  C   UNL A   1      34.265  20.397  24.892  1.00  0.00    -0.067 C 
ATOM     21  C   UNL A   1      33.915  19.289  24.587  1.00  0.00     0.010 C 
ENDBRANCH  10  20
BRANCH  19  22
ATOM     22  C   UNL A   1      31.452  23.760  23.363  1.00  0.00     0.429 C 
ATOM     23  F   UNL A   1      30.172  24.135  23.122  1.00  0.00    -0.167 F 
ATOM     24  F   UNL A   1      32.241  24.679  22.757  1.00  0.00    -0.167 F 
ATOM     25  F   UNL A   1      31.663  22.586  22.726  1.00  0.00    -0.167 F 
ENDBRANCH  19  22
ENDBRANCH   6   9
ENDBRANCH   4   5
ENDBRANCH   3   4
ENDBRANCH   2   3
ENDBRANCH   1   2
BRANCH   1  26
ATOM     26  C   UNL A   1      33.841  28.918  27.353  1.00  0.00     0.021 C 
BRANCH  26  27
ATOM     27  C   UNL A   1      35.229  29.471  27.651  1.00  0.00     0.116 C 
BRANCH  27  28
ATOM     28  N   UNL A   1      35.261  30.159  28.930  1.00  0.00    -0.352 N 
ATOM     29  C   UNL A   1      36.269  30.207  29.860  1.00  0.00     0.251 C 
ATOM     30  H   UNL A   1      34.447  30.662  29.163  1.00  0.00     0.163 HD
ATOM     31  O   UNL A   1      36.043  30.614  30.994  1.00  0.00    -0.269 OA
BRANCH  29  32
ATOM     32  C   UNL A   1      37.618  29.751  29.478  1.00  0.00     0.039 A 
ATOM     33  C   UNL A   1      37.998  29.806  28.136  1.00  0.00     0.014 A 
ATOM     34  C   UNL A   1      38.506  29.279  30.450  1.00  0.00     0.014 A 
ATOM     35  C   UNL A   1      39.291  29.430  27.776  1.00  0.00     0.010 A 
ATOM     36  C   UNL A   1      39.819  28.987  30.101  1.00  0.00     0.010 A 
ATOM     37  C   UNL A   1      40.220  29.045  28.760  1.00  0.00    -0.014 A 
BRANCH  37  38
ATOM     38  C   UNL A   1      41.608  28.672  28.392  1.00  0.00     0.031 A 
ATOM     39  C   UNL A   1      42.685  29.721  28.380  1.00  0.00     0.074 A 
ATOM     40  C   UNL A   1      41.887  27.398  28.050  1.00  0.00     0.049 A 
ATOM     41  N   UNL A   1      43.947  29.600  28.061  1.00  0.00    -0.248 NA
ATOM     42  C   UNL A   1      42.293  31.089  28.759  1.00  0.00     0.031 C 
ATOM     43  C   UNL A   1      40.915  26.303  27.999  1.00  0.00     0.029 A 
ATOM     44  N   UNL A   1      43.069  26.807  27.684  1.00  0.00    -0.354 N 
ATOM     45  C   UNL A   1      44.496  30.868  28.206  1.00  0.00     0.074 A 
ATOM     46  C   UNL A   1      43.420  31.759  28.575  1.00  0.00     0.031 C 
ATOM     47  C   UNL A   1      41.547  25.169  27.660  1.00  0.00     0.029 A 
ATOM     48  C   UNL A   1      42.958  25.460  27.424  1.00  0.00     0.049 A 
ATOM     49  H   UNL A   1      43.919  27.299  27.613  1.00  0.00     0.167 HD
ATOM     50  C   UNL A   1      45.789  31.247  28.077  1.00  0.00     0.037 A 
ATOM     51  C   UNL A   1      43.886  24.565  27.033  1.00  0.00     0.037 A 
ATOM     52  C   UNL A   1      46.857  30.347  27.730  1.00  0.00     0.049 A 
ATOM     53  C   UNL A   1      45.308  25.026  26.846  1.00  0.00     0.074 A 
ATOM     54  C   UNL A   1      48.206  30.627  27.607  1.00  0.00     0.029 A 
ATOM     55  N   UNL A   1      46.701  28.996  27.453  1.00  0.00    -0.354 N 
ATOM     56  N   UNL A   1      45.820  26.220  27.039  1.00  0.00    -0.248 NA
ATOM     57  C   UNL A   1      46.281  24.023  26.393  1.00  0.00     0.031 C 
ATOM     58  C   UNL A   1      48.857  29.461  27.196  1.00  0.00     0.029 A 
ATOM     59  C   UNL A   1      47.925  28.437  27.129  1.00  0.00     0.049 A 
ATOM     60  H   UNL A   1      45.846  28.509  27.482  1.00  0.00     0.167 HD
ATOM     61  C   UNL A   1      47.177  26.101  26.758  1.00  0.00     0.074 A 
ATOM     62  C   UNL A   1      47.410  24.718  26.401  1.00  0.00     0.031 C 
ATOM     63  C   UNL A   1      48.143  27.054  26.787  1.00  0.00     0.037 A 
BRANCH  50  64
ATOM     64  C   UNL A   1      46.136  32.687  28.333  1.00  0.00     0.058 A 
ATOM     65  C   UNL A   1      46.546  33.127  29.602  1.00  0.00     0.135 A 
ATOM     66  C   UNL A   1      46.151  33.617  27.281  1.00  0.00     0.135 A 
ATOM     67  F   UNL A   1      46.530  32.286  30.648  1.00  0.00    -0.206 F 
ATOM     68  C   UNL A   1      46.955  34.439  29.818  1.00  0.00     0.059 A 
ATOM     69  C   UNL A   1      46.586  34.925  27.467  1.00  0.00     0.059 A 
ATOM     70  F   UNL A   1      45.762  33.250  26.049  1.00  0.00    -0.206 F 
ATOM     71  C   UNL A   1      46.984  35.327  28.742  1.00  0.00     0.060 A 
BRANCH  71  72
ATOM     72  S   UNL A   1      47.569  37.008  29.037  1.00  0.00     0.124 S 
ATOM     73  O   UNL A   1      48.698  37.090  28.117  1.00  0.00    -0.237 OA
ATOM     74  O   UNL A   1      46.401  37.807  28.681  1.00  0.00    -0.237 OA
ATOM     75  O   UNL A   1      47.917  37.005  30.455  1.00  0.00    -0.744 OA
ENDBRANCH  71  72
ENDBRANCH  50  64
BRANCH  51  76
ATOM     76  C   UNL A   1      43.509  23.142  26.806  1.00  0.00     0.058 A 
ATOM     77  C   UNL A   1      43.450  22.607  25.510  1.00  0.00     0.135 A 
ATOM     78  C   UNL A   1      43.196  22.288  27.875  1.00  0.00     0.135 A 
ATOM     79  F   UNL A   1      43.733  23.382  24.451  1.00  0.00    -0.206 F 
ATOM     80  C   UNL A   1      43.070  21.288  25.280  1.00  0.00     0.059 A 
ATOM     81  C   UNL A   1      42.846  20.957  27.674  1.00  0.00     0.059 A 
ATOM     82  F   UNL A   1      43.251  22.742  29.138  1.00  0.00    -0.206 F 
ATOM     83  C   UNL A   1      42.773  20.469  26.371  1.00  0.00     0.060 A 
BRANCH  83  84
ATOM     84  S   UNL A   1      42.306  18.753  26.059  1.00  0.00     0.124 S 
ATOM     85  O   UNL A   1      43.215  18.393  24.977  1.00  0.00    -0.237 OA
ATOM     86  O   UNL A   1      42.568  18.129  27.351  1.00  0.00    -0.237 OA
ATOM     87  O   UNL A   1      40.896  18.850  25.691  1.00  0.00    -0.744 OA
ENDBRANCH  83  84
ENDBRANCH  51  76
BRANCH  63  88
ATOM     88  C   UNL A   1      49.549  26.638  26.450  1.00  0.00     0.058 A 
ATOM     89  C   UNL A   1      50.361  25.971  27.379  1.00  0.00     0.135 A 
ATOM     90  C   UNL A   1      50.058  26.832  25.156  1.00  0.00     0.135 A 
ATOM     91  F   UNL A   1      49.926  25.762  28.632  1.00  0.00    -0.206 F 
ATOM     92  C   UNL A   1      51.635  25.527  27.043  1.00  0.00     0.059 A 
ATOM     93  C   UNL A   1      51.315  26.365  24.786  1.00  0.00     0.059 A 
ATOM     94  F   UNL A   1      49.317  27.454  24.223  1.00  0.00    -0.206 F 
ATOM     95  C   UNL A   1      52.100  25.721  25.741  1.00  0.00     0.060 A 
BRANCH  95  96
ATOM     96  S   UNL A   1      53.739  25.098  25.311  1.00  0.00     0.124 S 
ATOM     97  O   UNL A   1      53.534  23.655  25.386  1.00  0.00    -0.237 OA
ATOM     98  O   UNL A   1      53.933  25.642  23.971  1.00  0.00    -0.237 OA
ATOM     99  O   UNL A   1      54.601  25.662  26.344  1.00  0.00    -0.744 OA
ENDBRANCH  95  96
ENDBRANCH  63  88
ENDBRANCH  37  38
ENDBRANCH  29  32
ENDBRANCH  27  28
ENDBRANCH  26  27
ENDBRANCH   1  26
TORSDOF 18
ENDMDL
MODEL 3
REMARK VINA RESULT:     -11.3      3.034      8.764
REMARK SMILES C#Cc1cc(Cl)cc2c1O[C@H](C(F)(F)F)C(C(=O)NCCCCCCNC(=O)c1ccc(-c3c4nc(c(-c5c(F)cc(S(=O)(=O)[O-])cc5F)c5ccc([nH]5)c(-c5c(F)cc(S(=O)(=O)[O-])cc5F)c5nc(c(-c6c(F)cc(S(=O)(=O)[O-])cc6F)c6ccc3[nH]6)C=C5)C=C4)cc1)=C2
REMARK SMILES IDX 23 1 22 2 21 3 20 4 19 5 17 6 18 7 16 9 3 10 4 11 9 12 5 13
REMARK SMILES IDX 8 14 10 15 6 16 7 17 95 18 11 19 2 20 1 21 12 22 13 23 14 24
REMARK SMILES IDX 15 25 24 26 25 27 26 28 27 29 28 31 29 32 30 33 94 34 31 35
REMARK SMILES IDX 93 36 32 37 33 38 34 39 87 40 35 41 92 42 86 43 88 44 36 45
REMARK SMILES IDX 91 46 85 47 84 48 37 50 71 51 50 52 70 53 51 54 54 55 69 56
REMARK SMILES IDX 89 57 52 58 53 59 68 61 90 62 55 63 38 64 39 65 48 66 40 67
REMARK SMILES IDX 41 68 47 69 49 70 42 71 43 72 44 73 45 74 46 75 72 76 73 77
REMARK SMILES IDX 82 78 74 79 75 80 81 81 83 82 76 83 77 84 78 85 79 86 80 87
REMARK SMILES IDX 56 88 57 89 66 90 58 91 59 92 65 93 67 94 60 95 61 96 62 97
REMARK SMILES IDX 63 98 64 99
REMARK H PARENT 19 8 26 30 88 49 54 60
REMARK Flexibility Score: inf
ROOT
ATOM      1  C   UNL A   1      32.925  29.900  26.960  1.00  0.00     0.002 C 
ENDROOT
BRANCH   1   2
ATOM      2  C   UNL A   1      32.185  29.771  25.620  1.00  0.00     0.002 C 
BRANCH   2   3
ATOM      3  C   UNL A   1      32.944  28.987  24.549  1.00  0.00     0.021 C 
BRANCH   3   4
ATOM      4  C   UNL A   1      32.118  27.857  23.949  1.00  0.00     0.116 C 
BRANCH   4   5
ATOM      5  N   UNL A   1      31.230  27.261  24.931  1.00  0.00    -0.352 N 
ATOM      6  C   UNL A   1      31.142  26.089  25.605  1.00  0.00     0.251 C 
ATOM      7  O   UNL A   1      30.204  26.000  26.403  1.00  0.00    -0.270 OA
ATOM      8  H   UNL A   1      30.497  27.871  25.173  1.00  0.00     0.163 HD
BRANCH   6   9
ATOM      9  C   UNL A   1      32.081  24.940  25.439  1.00  0.00     0.067 C 
ATOM     10  C   UNL A   1      34.754  21.700  25.250  1.00  0.00     0.068 A 
ATOM     11  C   UNL A   1      36.113  21.904  25.477  1.00  0.00     0.041 A 
ATOM     12  C   UNL A   1      33.866  22.780  25.339  1.00  0.00     0.143 A 
ATOM     13  C   UNL A   1      36.569  23.185  25.796  1.00  0.00     0.043 A 
ATOM     14  C   UNL A   1      34.321  24.061  25.665  1.00  0.00     0.020 A 
ATOM     15  O   UNL A   1      32.546  22.508  25.143  1.00  0.00    -0.474 OA
ATOM     16  Cl  UNL A   1      38.247  23.437  26.086  1.00  0.00    -0.084 Cl
ATOM     17  C   UNL A   1      35.683  24.261  25.893  1.00  0.00     0.032 A 
ATOM     18  C   UNL A   1      33.359  25.150  25.807  1.00  0.00     0.025 C 
ATOM     19  C   UNL A   1      31.667  23.617  24.865  1.00  0.00     0.314 C 
BRANCH  10  20
ATOM     20  C   UNL A   1      34.264  20.391  24.926  1.00  0.00    -0.067 C 
ATOM     21  C   UNL A   1      33.870  19.311  24.580  1.00  0.00     0.010 C 
ENDBRANCH  10  20
BRANCH  19  22
ATOM     22  C   UNL A   1      31.398  23.686  23.350  1.00  0.00     0.429 C 
ATOM     23  F   UNL A   1      30.065  23.693  23.102  1.00  0.00    -0.167 F 
ATOM     24  F   UNL A   1      31.899  24.808  22.780  1.00  0.00    -0.167 F 
ATOM     25  F   UNL A   1      31.935  22.639  22.685  1.00  0.00    -0.167 F 
ENDBRANCH  19  22
ENDBRANCH   6   9
ENDBRANCH   4   5
ENDBRANCH   3   4
ENDBRANCH   2   3
ENDBRANCH   1   2
BRANCH   1  26
ATOM     26  C   UNL A   1      33.947  28.794  27.237  1.00  0.00     0.021 C 
BRANCH  26  27
ATOM     27  C   UNL A   1      35.344  29.312  27.554  1.00  0.00     0.116 C 
BRANCH  27  28
ATOM     28  N   UNL A   1      35.352  30.100  28.776  1.00  0.00    -0.352 N 
ATOM     29  C   UNL A   1      36.358  30.257  29.694  1.00  0.00     0.251 C 
ATOM     30  H   UNL A   1      34.519  30.589  28.971  1.00  0.00     0.163 HD
ATOM     31  O   UNL A   1      36.119  30.744  30.795  1.00  0.00    -0.269 OA
BRANCH  29  32
ATOM     32  C   UNL A   1      37.722  29.822  29.344  1.00  0.00     0.039 A 
ATOM     33  C   UNL A   1      38.130  29.875  28.010  1.00  0.00     0.014 A 
ATOM     34  C   UNL A   1      38.598  29.373  30.337  1.00  0.00     0.014 A 
ATOM     35  C   UNL A   1      39.436  29.519  27.680  1.00  0.00     0.010 A 
ATOM     36  C   UNL A   1      39.923  29.102  30.019  1.00  0.00     0.010 A 
ATOM     37  C   UNL A   1      40.351  29.158  28.685  1.00  0.00    -0.014 A 
BRANCH  37  38
ATOM     38  C   UNL A   1      41.753  28.806  28.349  1.00  0.00     0.031 A 
ATOM     39  C   UNL A   1      42.103  27.386  27.998  1.00  0.00     0.074 A 
ATOM     40  C   UNL A   1      42.705  29.759  28.384  1.00  0.00     0.049 A 
ATOM     41  N   UNL A   1      43.270  26.876  27.704  1.00  0.00    -0.248 NA
ATOM     42  C   UNL A   1      41.003  26.407  27.992  1.00  0.00     0.031 C 
ATOM     43  C   UNL A   1      42.485  31.163  28.740  1.00  0.00     0.029 A 
ATOM     44  N   UNL A   1      44.048  29.694  28.115  1.00  0.00    -0.354 N 
ATOM     45  C   UNL A   1      43.044  25.525  27.473  1.00  0.00     0.074 A 
ATOM     46  C   UNL A   1      41.643  25.277  27.728  1.00  0.00     0.031 C 
ATOM     47  C   UNL A   1      43.643  31.832  28.630  1.00  0.00     0.029 A 
ATOM     48  C   UNL A   1      44.698  30.900  28.243  1.00  0.00     0.049 A 
ATOM     49  H   UNL A   1      44.506  28.863  27.853  1.00  0.00     0.167 HD
ATOM     50  C   UNL A   1      43.920  24.583  27.053  1.00  0.00     0.037 A 
ATOM     51  C   UNL A   1      45.997  31.217  28.074  1.00  0.00     0.037 A 
ATOM     52  C   UNL A   1      45.309  24.845  26.782  1.00  0.00     0.049 A 
ATOM     53  C   UNL A   1      46.961  30.136  27.656  1.00  0.00     0.074 A 
ATOM     54  C   UNL A   1      46.271  23.965  26.321  1.00  0.00     0.029 A 
ATOM     55  N   UNL A   1      45.933  26.072  26.945  1.00  0.00    -0.354 N 
ATOM     56  N   UNL A   1      46.719  28.873  27.392  1.00  0.00    -0.248 NA
ATOM     57  C   UNL A   1      48.371  30.519  27.511  1.00  0.00     0.031 C 
ATOM     58  C   UNL A   1      47.490  24.643  26.263  1.00  0.00     0.029 A 
ATOM     59  C   UNL A   1      47.275  25.965  26.623  1.00  0.00     0.049 A 
ATOM     60  H   UNL A   1      45.488  26.898  27.246  1.00  0.00     0.167 HD
ATOM     61  C   UNL A   1      47.941  28.321  27.022  1.00  0.00     0.074 A 
ATOM     62  C   UNL A   1      48.915  29.390  27.078  1.00  0.00     0.031 C 
ATOM     63  C   UNL A   1      48.231  27.043  26.672  1.00  0.00     0.037 A 
BRANCH  50  64
ATOM     64  C   UNL A   1      43.410  23.186  26.834  1.00  0.00     0.058 A 
ATOM     65  C   UNL A   1      43.230  22.667  25.542  1.00  0.00     0.135 A 
ATOM     66  C   UNL A   1      43.189  22.326  27.922  1.00  0.00     0.135 A 
ATOM     67  F   UNL A   1      43.406  23.450  24.467  1.00  0.00    -0.206 F 
ATOM     68  C   UNL A   1      42.846  21.345  25.338  1.00  0.00     0.059 A 
ATOM     69  C   UNL A   1      42.835  20.993  27.741  1.00  0.00     0.059 A 
ATOM     70  F   UNL A   1      43.341  22.774  29.179  1.00  0.00    -0.206 F 
ATOM     71  C   UNL A   1      42.664  20.513  26.443  1.00  0.00     0.060 A 
BRANCH  71  72
ATOM     72  S   UNL A   1      42.219  18.789  26.150  1.00  0.00     0.124 S 
ATOM     73  O   UNL A   1      43.154  18.420  25.093  1.00  0.00    -0.237 OA
ATOM     74  O   UNL A   1      42.462  18.183  27.454  1.00  0.00    -0.237 OA
ATOM     75  O   UNL A   1      40.817  18.863  25.746  1.00  0.00    -0.744 OA
ENDBRANCH  71  72
ENDBRANCH  50  64
BRANCH  51  76
ATOM     76  C   UNL A   1      46.463  32.616  28.283  1.00  0.00     0.058 A 
ATOM     77  C   UNL A   1      46.957  33.036  29.527  1.00  0.00     0.135 A 
ATOM     78  C   UNL A   1      46.422  33.563  27.248  1.00  0.00     0.135 A 
ATOM     79  F   UNL A   1      47.012  32.172  30.553  1.00  0.00    -0.206 F 
ATOM     80  C   UNL A   1      47.368  34.347  29.746  1.00  0.00     0.059 A 
ATOM     81  C   UNL A   1      46.858  34.871  27.432  1.00  0.00     0.059 A 
ATOM     82  F   UNL A   1      45.973  33.213  26.031  1.00  0.00    -0.206 F 
ATOM     83  C   UNL A   1      47.317  35.258  28.689  1.00  0.00     0.060 A 
BRANCH  83  84
ATOM     84  S   UNL A   1      47.877  36.949  28.981  1.00  0.00     0.124 S 
ATOM     85  O   UNL A   1      46.741  37.723  28.492  1.00  0.00    -0.237 OA
ATOM     86  O   UNL A   1      48.082  36.955  30.426  1.00  0.00    -0.237 OA
ATOM     87  O   UNL A   1      49.095  37.043  28.180  1.00  0.00    -0.744 OA
ENDBRANCH  83  84
ENDBRANCH  51  76
BRANCH  63  88
ATOM     88  C   UNL A   1      49.653  26.724  26.296  1.00  0.00     0.058 A 
ATOM     89  C   UNL A   1      50.565  26.217  27.233  1.00  0.00     0.135 A 
ATOM     90  C   UNL A   1      50.080  26.844  24.964  1.00  0.00     0.135 A 
ATOM     91  F   UNL A   1      50.210  26.085  28.521  1.00  0.00    -0.206 F 
ATOM     92  C   UNL A   1      51.858  25.859  26.867  1.00  0.00     0.059 A 
ATOM     93  C   UNL A   1      51.357  26.458  24.567  1.00  0.00     0.059 A 
ATOM     94  F   UNL A   1      49.242  27.311  24.023  1.00  0.00    -0.206 F 
ATOM     95  C   UNL A   1      52.242  25.974  25.530  1.00  0.00     0.060 A 
BRANCH  95  96
ATOM     96  S   UNL A   1      53.910  25.462  25.067  1.00  0.00     0.124 S 
ATOM     97  O   UNL A   1      54.666  25.804  26.266  1.00  0.00    -0.237 OA
ATOM     98  O   UNL A   1      53.734  24.036  24.812  1.00  0.00    -0.237 OA
ATOM     99  O   UNL A   1      54.202  26.273  23.889  1.00  0.00    -0.744 OA
ENDBRANCH  95  96
ENDBRANCH  63  88
ENDBRANCH  37  38
ENDBRANCH  29  32
ENDBRANCH  27  28
ENDBRANCH  26  27
ENDBRANCH   1  26
TORSDOF 18
ENDMDL
