MODEL 1
REMARK VINA RESULT:     -12.8      0.000      0.000
REMARK SMILES O=C(NCCCCCCNC(=O)[C@H]1CC2=c3ccccc3=N[C@H]2[C@@H](c2ccccc2)[NH2+]1)c1ccc(-c2c3nc(c(-c4c(F)cc(S(=O)(=O)[O-])cc4F)c4ccc([nH]4)c(-c4c(F)cc(S(=O)(=O)[O-])cc4F)c4nc(c(-c5c(F)cc(S(=O)(=O)[O-])cc5F)c5ccc2[nH]5)C=C4)C=C3)cc1
REMARK SMILES IDX 5 1 4 2 3 3 1 4 2 5 32 7 33 8 97 9 34 10 96 11 35 12 36 13
REMARK SMILES IDX 37 14 90 15 38 16 95 17 89 18 91 19 39 20 94 21 88 22 87 23
REMARK SMILES IDX 40 25 74 26 53 27 73 28 54 29 57 30 72 31 92 32 55 33 56 34
REMARK SMILES IDX 71 36 93 37 58 38 41 39 42 40 51 41 43 42 44 43 50 44 52 45
REMARK SMILES IDX 45 46 46 47 47 48 48 49 49 50 75 51 76 52 85 53 77 54 78 55
REMARK SMILES IDX 84 56 86 57 79 58 80 59 81 60 82 61 83 62 59 63 60 64 69 65
REMARK SMILES IDX 61 66 62 67 68 68 70 69 63 70 64 71 65 72 66 73 67 74 6 75
REMARK SMILES IDX 7 76 8 77 9 78 10 79 11 80 12 82 13 83 14 84 31 85 15 86
REMARK SMILES IDX 24 87 16 90 23 91 17 92 21 93 22 94 18 95 20 96 19 97 25 98
REMARK SMILES IDX 26 99 30 100 27 101 29 102 28 103
REMARK H PARENT 3 6 91 24 57 35 10 81 31 88 31 89
REMARK Flexibility Score: inf
ROOT
ATOM      1  C   UNL A   1      32.116  27.908  26.741  1.00  0.00     0.021 C 
ENDROOT
BRANCH   1   2
ATOM      2  C   UNL A   1      33.461  28.429  27.245  1.00  0.00     0.116 C 
BRANCH   2   3
ATOM      3  N   UNL A   1      33.409  29.845  27.558  1.00  0.00    -0.352 N 
ATOM      4  O   UNL A   1      34.047  31.773  28.520  1.00  0.00    -0.269 OA
ATOM      5  C   UNL A   1      34.356  30.641  28.146  1.00  0.00     0.251 C 
ATOM      6  H   UNL A   1      32.570  30.300  27.313  1.00  0.00     0.163 HD
BRANCH   5   7
ATOM      7  C   UNL A   1      35.741  30.157  28.335  1.00  0.00     0.039 A 
ATOM      8  C   UNL A   1      36.121  29.688  29.596  1.00  0.00     0.014 A 
ATOM      9  C   UNL A   1      36.683  30.234  27.303  1.00  0.00     0.014 A 
ATOM     10  C   UNL A   1      37.439  29.282  29.821  1.00  0.00     0.010 A 
ATOM     11  C   UNL A   1      37.987  29.788  27.517  1.00  0.00     0.010 A 
ATOM     12  C   UNL A   1      38.381  29.324  28.782  1.00  0.00    -0.014 A 
BRANCH  12  13
ATOM     13  C   UNL A   1      39.801  28.959  29.019  1.00  0.00     0.031 A 
ATOM     14  C   UNL A   1      40.733  29.969  29.636  1.00  0.00     0.074 A 
ATOM     15  C   UNL A   1      40.257  27.741  28.669  1.00  0.00     0.049 A 
ATOM     16  N   UNL A   1      42.026  29.897  29.819  1.00  0.00    -0.248 NA
ATOM     17  C   UNL A   1      40.131  31.232  30.096  1.00  0.00     0.031 C 
ATOM     18  C   UNL A   1      39.451  26.671  28.077  1.00  0.00     0.029 A 
ATOM     19  N   UNL A   1      41.515  27.198  28.758  1.00  0.00    -0.354 N 
ATOM     20  C   UNL A   1      42.393  31.101  30.408  1.00  0.00     0.074 A 
ATOM     21  C   UNL A   1      41.194  31.903  30.516  1.00  0.00     0.031 C 
ATOM     22  C   UNL A   1      40.230  25.595  27.876  1.00  0.00     0.029 A 
ATOM     23  C   UNL A   1      41.595  25.909  28.287  1.00  0.00     0.049 A 
ATOM     24  H   UNL A   1      42.286  27.685  29.127  1.00  0.00     0.167 HD
ATOM     25  C   UNL A   1      43.614  31.493  30.841  1.00  0.00     0.037 A 
ATOM     26  C   UNL A   1      42.653  25.080  28.191  1.00  0.00     0.037 A 
ATOM     27  C   UNL A   1      44.801  30.683  30.757  1.00  0.00     0.049 A 
ATOM     28  C   UNL A   1      44.007  25.555  28.651  1.00  0.00     0.074 A 
ATOM     29  C   UNL A   1      46.091  31.002  31.145  1.00  0.00     0.029 A 
ATOM     30  N   UNL A   1      44.838  29.383  30.278  1.00  0.00    -0.354 N 
ATOM     31  N   UNL A   1      44.341  26.713  29.168  1.00  0.00    -0.248 NA
ATOM     32  C   UNL A   1      45.125  24.610  28.514  1.00  0.00     0.031 C 
ATOM     33  C   UNL A   1      46.913  29.900  30.887  1.00  0.00     0.029 A 
ATOM     34  C   UNL A   1      46.127  28.883  30.370  1.00  0.00     0.049 A 
ATOM     35  H   UNL A   1      44.064  28.889  29.924  1.00  0.00     0.167 HD
ATOM     36  C   UNL A   1      45.700  26.622  29.451  1.00  0.00     0.074 A 
ATOM     37  C   UNL A   1      46.125  25.296  29.051  1.00  0.00     0.031 C 
ATOM     38  C   UNL A   1      46.522  27.552  29.995  1.00  0.00     0.037 A 
BRANCH  25  39
ATOM     39  C   UNL A   1      43.735  32.853  31.466  1.00  0.00     0.058 A 
ATOM     40  C   UNL A   1      44.111  33.970  30.704  1.00  0.00     0.135 A 
ATOM     41  C   UNL A   1      43.395  33.059  32.812  1.00  0.00     0.135 A 
ATOM     42  F   UNL A   1      44.468  33.823  29.419  1.00  0.00    -0.206 F 
ATOM     43  C   UNL A   1      44.145  35.246  31.256  1.00  0.00     0.059 A 
ATOM     44  C   UNL A   1      43.400  34.330  33.378  1.00  0.00     0.059 A 
ATOM     45  F   UNL A   1      43.034  32.022  33.584  1.00  0.00    -0.206 F 
ATOM     46  C   UNL A   1      43.780  35.418  32.592  1.00  0.00     0.060 A 
BRANCH  46  47
ATOM     47  S   UNL A   1      43.781  37.088  33.276  1.00  0.00     0.124 S 
ATOM     48  O   UNL A   1      42.627  37.037  34.170  1.00  0.00    -0.237 OA
ATOM     49  O   UNL A   1      45.084  37.158  33.928  1.00  0.00    -0.237 OA
ATOM     50  O   UNL A   1      43.624  37.938  32.100  1.00  0.00    -0.744 OA
ENDBRANCH  46  47
ENDBRANCH  25  39
BRANCH  26  51
ATOM     51  C   UNL A   1      42.486  23.705  27.651  1.00  0.00     0.058 A 
ATOM     52  C   UNL A   1      42.388  22.603  28.514  1.00  0.00     0.135 A 
ATOM     53  C   UNL A   1      42.449  23.461  26.270  1.00  0.00     0.135 A 
ATOM     54  F   UNL A   1      42.425  22.789  29.843  1.00  0.00    -0.206 F 
ATOM     55  C   UNL A   1      42.288  21.304  28.030  1.00  0.00     0.059 A 
ATOM     56  C   UNL A   1      42.327  22.172  25.761  1.00  0.00     0.059 A 
ATOM     57  F   UNL A   1      42.524  24.483  25.403  1.00  0.00    -0.206 F 
ATOM     58  C   UNL A   1      42.263  21.098  26.649  1.00  0.00     0.060 A 
BRANCH  58  59
ATOM     59  S   UNL A   1      42.117  19.410  26.027  1.00  0.00     0.124 S 
ATOM     60  O   UNL A   1      42.588  18.635  27.169  1.00  0.00    -0.237 OA
ATOM     61  O   UNL A   1      40.691  19.311  25.732  1.00  0.00    -0.237 OA
ATOM     62  O   UNL A   1      42.993  19.409  24.859  1.00  0.00    -0.744 OA
ENDBRANCH  58  59
ENDBRANCH  26  51
BRANCH  38  63
ATOM     63  C   UNL A   1      47.948  27.154  30.246  1.00  0.00     0.058 A 
ATOM     64  C   UNL A   1      48.957  27.394  29.301  1.00  0.00     0.135 A 
ATOM     65  C   UNL A   1      48.314  26.574  31.470  1.00  0.00     0.135 A 
ATOM     66  F   UNL A   1      48.655  27.942  28.114  1.00  0.00    -0.206 F 
ATOM     67  C   UNL A   1      50.282  27.053  29.555  1.00  0.00     0.059 A 
ATOM     68  C   UNL A   1      49.636  26.245  31.754  1.00  0.00     0.059 A 
ATOM     69  F   UNL A   1      47.386  26.333  32.410  1.00  0.00    -0.206 F 
ATOM     70  C   UNL A   1      50.611  26.478  30.785  1.00  0.00     0.060 A 
BRANCH  70  71
ATOM     71  S   UNL A   1      52.338  26.071  31.114  1.00  0.00     0.124 S 
ATOM     72  O   UNL A   1      52.745  27.186  31.963  1.00  0.00    -0.237 OA
ATOM     73  O   UNL A   1      52.235  24.774  31.776  1.00  0.00    -0.237 OA
ATOM     74  O   UNL A   1      52.940  26.042  29.784  1.00  0.00    -0.744 OA
ENDBRANCH  70  71
ENDBRANCH  38  63
ENDBRANCH  12  13
ENDBRANCH   5   7
ENDBRANCH   2   3
ENDBRANCH   1   2
BRANCH   1  75
ATOM     75  C   UNL A   1      32.098  27.460  25.275  1.00  0.00     0.002 C 
BRANCH  75  76
ATOM     76  C   UNL A   1      33.472  27.206  24.645  1.00  0.00     0.002 C 
BRANCH  76  77
ATOM     77  C   UNL A   1      33.524  27.349  23.121  1.00  0.00     0.021 C 
BRANCH  77  78
ATOM     78  C   UNL A   1      32.306  26.783  22.395  1.00  0.00     0.116 C 
BRANCH  78  79
ATOM     79  N   UNL A   1      32.681  25.723  21.478  1.00  0.00    -0.351 N 
ATOM     80  C   UNL A   1      33.010  24.417  21.711  1.00  0.00     0.278 C 
ATOM     81  H   UNL A   1      32.704  25.989  20.530  1.00  0.00     0.163 HD
ATOM     82  O   UNL A   1      33.386  23.740  20.750  1.00  0.00    -0.268 OA
BRANCH  80  83
ATOM     83  C   UNL A   1      32.922  23.810  23.128  1.00  0.00     0.277 C 
ATOM     84  C   UNL A   1      31.939  22.617  23.168  1.00  0.00     0.109 C 
ATOM     85  N   UNL A   1      34.293  23.576  23.638  1.00  0.00    -0.327 N 
ATOM     86  C   UNL A   1      32.514  21.470  23.926  1.00  0.00    -0.024 C 
ATOM     87  C   UNL A   1      34.341  22.914  24.968  1.00  0.00     0.243 C 
ATOM     88  H   UNL A   1      34.766  24.477  23.711  1.00  0.00     0.347 HD
ATOM     89  H   UNL A   1      34.748  22.945  22.978  1.00  0.00     0.347 HD
ATOM     90  C   UNL A   1      32.590  20.180  23.621  1.00  0.00     0.002 A 
ATOM     91  C   UNL A   1      33.257  21.784  25.194  1.00  0.00     0.196 C 
ATOM     92  C   UNL A   1      32.153  19.361  22.538  1.00  0.00     0.010 A 
ATOM     93  C   UNL A   1      33.392  19.642  24.733  1.00  0.00     0.066 A 
ATOM     94  N   UNL A   1      33.780  20.469  25.656  1.00  0.00    -0.270 NA
ATOM     95  C   UNL A   1      32.509  18.066  22.529  1.00  0.00     0.001 A 
ATOM     96  C   UNL A   1      33.724  18.203  24.662  1.00  0.00     0.028 A 
ATOM     97  C   UNL A   1      33.307  17.492  23.600  1.00  0.00     0.002 A 
BRANCH  87  98
ATOM     98  C   UNL A   1      35.811  22.618  25.266  1.00  0.00     0.012 A 
ATOM     99  C   UNL A   1      36.576  23.583  25.950  1.00  0.00     0.010 A 
ATOM    100  C   UNL A   1      36.478  21.478  24.792  1.00  0.00     0.010 A 
ATOM    101  C   UNL A   1      37.936  23.385  26.201  1.00  0.00     0.001 A 
ATOM    102  C   UNL A   1      37.834  21.267  25.064  1.00  0.00     0.001 A 
ATOM    103  C   UNL A   1      38.561  22.219  25.771  1.00  0.00     0.000 A 
ENDBRANCH  87  98
ENDBRANCH  80  83
ENDBRANCH  78  79
ENDBRANCH  77  78
ENDBRANCH  76  77
ENDBRANCH  75  76
ENDBRANCH   1  75
TORSDOF 17
ENDMDL
MODEL 2
REMARK VINA RESULT:     -12.2      2.472      3.289
REMARK SMILES O=C(NCCCCCCNC(=O)[C@H]1CC2=c3ccccc3=N[C@H]2[C@@H](c2ccccc2)[NH2+]1)c1ccc(-c2c3nc(c(-c4c(F)cc(S(=O)(=O)[O-])cc4F)c4ccc([nH]4)c(-c4c(F)cc(S(=O)(=O)[O-])cc4F)c4nc(c(-c5c(F)cc(S(=O)(=O)[O-])cc5F)c5ccc2[nH]5)C=C4)C=C3)cc1
REMARK SMILES IDX 5 1 4 2 3 3 1 4 2 5 32 7 33 8 97 9 34 10 96 11 35 12 36 13
REMARK SMILES IDX 37 14 90 15 38 16 95 17 89 18 91 19 39 20 94 21 88 22 87 23
REMARK SMILES IDX 40 25 74 26 53 27 73 28 54 29 57 30 72 31 92 32 55 33 56 34
REMARK SMILES IDX 71 36 93 37 58 38 41 39 42 40 51 41 43 42 44 43 50 44 52 45
REMARK SMILES IDX 45 46 46 47 47 48 48 49 49 50 75 51 76 52 85 53 77 54 78 55
REMARK SMILES IDX 84 56 86 57 79 58 80 59 81 60 82 61 83 62 59 63 60 64 69 65
REMARK SMILES IDX 61 66 62 67 68 68 70 69 63 70 64 71 65 72 66 73 67 74 6 75
REMARK SMILES IDX 7 76 8 77 9 78 10 79 11 80 12 82 13 83 14 84 31 85 15 86
REMARK SMILES IDX 24 87 16 90 23 91 17 92 21 93 22 94 18 95 20 96 19 97 25 98
REMARK SMILES IDX 26 99 30 100 27 101 29 102 28 103
REMARK H PARENT 3 6 91 24 57 35 10 81 31 88 31 89
REMARK Flexibility Score: inf
ROOT
ATOM      1  C   UNL A   1      34.508  28.919  27.317  1.00  0.00     0.021 C 
ENDROOT
BRANCH   1   2
ATOM      2  C   UNL A   1      35.197  30.273  27.470  1.00  0.00     0.116 C 
BRANCH   2   3
ATOM      3  N   UNL A   1      35.223  30.713  28.853  1.00  0.00    -0.352 N 
ATOM      4  O   UNL A   1      35.931  30.786  30.984  1.00  0.00    -0.269 OA
ATOM      5  C   UNL A   1      36.185  30.518  29.808  1.00  0.00     0.251 C 
ATOM      6  H   UNL A   1      34.435  31.225  29.147  1.00  0.00     0.163 HD
BRANCH   5   7
ATOM      7  C   UNL A   1      37.518  29.992  29.445  1.00  0.00     0.039 A 
ATOM      8  C   UNL A   1      38.357  29.529  30.464  1.00  0.00     0.014 A 
ATOM      9  C   UNL A   1      37.975  30.024  28.123  1.00  0.00     0.014 A 
ATOM     10  C   UNL A   1      39.645  29.083  30.158  1.00  0.00     0.010 A 
ATOM     11  C   UNL A   1      39.245  29.538  27.813  1.00  0.00     0.010 A 
ATOM     12  C   UNL A   1      40.098  29.079  28.830  1.00  0.00    -0.014 A 
BRANCH  12  13
ATOM     13  C   UNL A   1      41.485  28.671  28.494  1.00  0.00     0.031 A 
ATOM     14  C   UNL A   1      42.589  29.696  28.531  1.00  0.00     0.074 A 
ATOM     15  C   UNL A   1      41.753  27.400  28.140  1.00  0.00     0.049 A 
ATOM     16  N   UNL A   1      43.838  29.579  28.162  1.00  0.00    -0.248 NA
ATOM     17  C   UNL A   1      42.235  31.032  29.038  1.00  0.00     0.031 C 
ATOM     18  C   UNL A   1      40.774  26.312  28.080  1.00  0.00     0.029 A 
ATOM     19  N   UNL A   1      42.932  26.806  27.762  1.00  0.00    -0.354 N 
ATOM     20  C   UNL A   1      44.418  30.822  28.387  1.00  0.00     0.074 A 
ATOM     21  C   UNL A   1      43.376  31.692  28.886  1.00  0.00     0.031 C 
ATOM     22  C   UNL A   1      41.397  25.181  27.708  1.00  0.00     0.029 A 
ATOM     23  C   UNL A   1      42.808  25.469  27.466  1.00  0.00     0.049 A 
ATOM     24  H   UNL A   1      43.786  27.292  27.709  1.00  0.00     0.167 HD
ATOM     25  C   UNL A   1      45.707  31.197  28.215  1.00  0.00     0.037 A 
ATOM     26  C   UNL A   1      43.728  24.581  27.041  1.00  0.00     0.037 A 
ATOM     27  C   UNL A   1      46.749  30.323  27.744  1.00  0.00     0.049 A 
ATOM     28  C   UNL A   1      45.148  25.035  26.827  1.00  0.00     0.074 A 
ATOM     29  C   UNL A   1      48.081  30.618  27.512  1.00  0.00     0.029 A 
ATOM     30  N   UNL A   1      46.582  28.977  27.461  1.00  0.00    -0.354 N 
ATOM     31  N   UNL A   1      45.668  26.226  27.006  1.00  0.00    -0.248 NA
ATOM     32  C   UNL A   1      46.106  24.025  26.354  1.00  0.00     0.031 C 
ATOM     33  C   UNL A   1      48.719  29.452  27.074  1.00  0.00     0.029 A 
ATOM     34  C   UNL A   1      47.790  28.425  27.067  1.00  0.00     0.049 A 
ATOM     35  H   UNL A   1      45.732  28.486  27.529  1.00  0.00     0.167 HD
ATOM     36  C   UNL A   1      47.019  26.098  26.703  1.00  0.00     0.074 A 
ATOM     37  C   UNL A   1      47.237  24.716  26.332  1.00  0.00     0.031 C 
ATOM     38  C   UNL A   1      47.992  27.041  26.730  1.00  0.00     0.037 A 
BRANCH  25  39
ATOM     39  C   UNL A   1      46.078  32.612  28.555  1.00  0.00     0.058 A 
ATOM     40  C   UNL A   1      46.612  32.940  29.811  1.00  0.00     0.135 A 
ATOM     41  C   UNL A   1      45.980  33.632  27.596  1.00  0.00     0.135 A 
ATOM     42  F   UNL A   1      46.705  32.006  30.770  1.00  0.00    -0.206 F 
ATOM     43  C   UNL A   1      47.034  34.232  30.105  1.00  0.00     0.059 A 
ATOM     44  C   UNL A   1      46.418  34.926  27.861  1.00  0.00     0.059 A 
ATOM     45  F   UNL A   1      45.471  33.371  26.382  1.00  0.00    -0.206 F 
ATOM     46  C   UNL A   1      46.941  35.217  29.121  1.00  0.00     0.060 A 
BRANCH  46  47
ATOM     47  S   UNL A   1      47.542  36.875  29.504  1.00  0.00     0.124 S 
ATOM     48  O   UNL A   1      48.330  37.181  28.313  1.00  0.00    -0.237 OA
ATOM     49  O   UNL A   1      46.303  37.630  29.654  1.00  0.00    -0.237 OA
ATOM     50  O   UNL A   1      48.311  36.684  30.730  1.00  0.00    -0.744 OA
ENDBRANCH  46  47
ENDBRANCH  25  39
BRANCH  26  51
ATOM     51  C   UNL A   1      43.351  23.164  26.798  1.00  0.00     0.058 A 
ATOM     52  C   UNL A   1      43.085  22.300  27.871  1.00  0.00     0.135 A 
ATOM     53  C   UNL A   1      43.276  22.639  25.499  1.00  0.00     0.135 A 
ATOM     54  F   UNL A   1      43.151  22.757  29.131  1.00  0.00    -0.206 F 
ATOM     55  C   UNL A   1      42.786  20.957  27.668  1.00  0.00     0.059 A 
ATOM     56  C   UNL A   1      42.957  21.304  25.270  1.00  0.00     0.059 A 
ATOM     57  F   UNL A   1      43.507  23.429  24.439  1.00  0.00    -0.206 F 
ATOM     58  C   UNL A   1      42.729  20.467  26.363  1.00  0.00     0.060 A 
BRANCH  58  59
ATOM     59  S   UNL A   1      42.324  18.726  26.106  1.00  0.00     0.124 S 
ATOM     60  O   UNL A   1      43.273  18.357  25.062  1.00  0.00    -0.237 OA
ATOM     61  O   UNL A   1      42.570  18.154  27.426  1.00  0.00    -0.237 OA
ATOM     62  O   UNL A   1      40.922  18.767  25.699  1.00  0.00    -0.744 OA
ENDBRANCH  58  59
ENDBRANCH  26  51
BRANCH  38  63
ATOM     63  C   UNL A   1      49.391  26.601  26.408  1.00  0.00     0.058 A 
ATOM     64  C   UNL A   1      50.203  25.972  27.364  1.00  0.00     0.135 A 
ATOM     65  C   UNL A   1      49.902  26.763  25.111  1.00  0.00     0.135 A 
ATOM     66  F   UNL A   1      49.760  25.799  28.619  1.00  0.00    -0.206 F 
ATOM     67  C   UNL A   1      51.487  25.537  27.048  1.00  0.00     0.059 A 
ATOM     68  C   UNL A   1      51.174  26.316  24.768  1.00  0.00     0.059 A 
ATOM     69  F   UNL A   1      49.159  27.350  24.159  1.00  0.00    -0.206 F 
ATOM     70  C   UNL A   1      51.963  25.714  25.747  1.00  0.00     0.060 A 
BRANCH  70  71
ATOM     71  S   UNL A   1      53.617  25.115  25.343  1.00  0.00     0.124 S 
ATOM     72  O   UNL A   1      53.420  23.669  25.371  1.00  0.00    -0.237 OA
ATOM     73  O   UNL A   1      53.849  25.698  24.025  1.00  0.00    -0.237 OA
ATOM     74  O   UNL A   1      54.446  25.656  26.417  1.00  0.00    -0.744 OA
ENDBRANCH  70  71
ENDBRANCH  38  63
ENDBRANCH  12  13
ENDBRANCH   5   7
ENDBRANCH   2   3
ENDBRANCH   1   2
BRANCH   1  75
ATOM     75  C   UNL A   1      33.573  28.796  26.108  1.00  0.00     0.002 C 
BRANCH  75  76
ATOM     76  C   UNL A   1      33.686  27.490  25.315  1.00  0.00     0.002 C 
BRANCH  76  77
ATOM     77  C   UNL A   1      33.701  27.653  23.792  1.00  0.00     0.021 C 
BRANCH  77  78
ATOM     78  C   UNL A   1      32.430  27.172  23.095  1.00  0.00     0.116 C 
BRANCH  78  79
ATOM     79  N   UNL A   1      32.727  26.178  22.082  1.00  0.00    -0.351 N 
ATOM     80  C   UNL A   1      33.057  24.856  22.197  1.00  0.00     0.278 C 
ATOM     81  H   UNL A   1      32.683  26.510  21.155  1.00  0.00     0.163 HD
ATOM     82  O   UNL A   1      33.355  24.248  21.166  1.00  0.00    -0.268 OA
BRANCH  80  83
ATOM     83  C   UNL A   1      33.065  24.150  23.571  1.00  0.00     0.277 C 
ATOM     84  C   UNL A   1      32.055  22.981  23.607  1.00  0.00     0.109 C 
ATOM     85  N   UNL A   1      34.465  23.849  23.949  1.00  0.00    -0.327 N 
ATOM     86  C   UNL A   1      32.655  21.770  24.233  1.00  0.00    -0.024 C 
ATOM     87  C   UNL A   1      34.601  23.092  25.220  1.00  0.00     0.243 C 
ATOM     88  H   UNL A   1      34.968  24.731  24.046  1.00  0.00     0.347 HD
ATOM     89  H   UNL A   1      34.848  23.257  23.211  1.00  0.00     0.347 HD
ATOM     90  C   UNL A   1      32.669  20.504  23.833  1.00  0.00     0.002 A 
ATOM     91  C   UNL A   1      33.507  21.973  25.455  1.00  0.00     0.196 C 
ATOM     92  C   UNL A   1      32.124  19.775  22.734  1.00  0.00     0.010 A 
ATOM     93  C   UNL A   1      33.542  19.868  24.834  1.00  0.00     0.066 A 
ATOM     94  N   UNL A   1      34.027  20.617  25.779  1.00  0.00    -0.270 NA
ATOM     95  C   UNL A   1      32.440  18.476  22.606  1.00  0.00     0.001 A 
ATOM     96  C   UNL A   1      33.826  18.430  24.636  1.00  0.00     0.028 A 
ATOM     97  C   UNL A   1      33.305  17.808  23.565  1.00  0.00     0.002 A 
BRANCH  87  98
ATOM     98  C   UNL A   1      36.081  22.741  25.376  1.00  0.00     0.012 A 
ATOM     99  C   UNL A   1      36.547  21.512  24.870  1.00  0.00     0.010 A 
ATOM    100  C   UNL A   1      36.987  23.529  26.102  1.00  0.00     0.010 A 
ATOM    101  C   UNL A   1      37.878  21.119  25.032  1.00  0.00     0.001 A 
ATOM    102  C   UNL A   1      38.325  23.148  26.244  1.00  0.00     0.001 A 
ATOM    103  C   UNL A   1      38.770  21.946  25.706  1.00  0.00     0.000 A 
ENDBRANCH  87  98
ENDBRANCH  80  83
ENDBRANCH  78  79
ENDBRANCH  77  78
ENDBRANCH  76  77
ENDBRANCH  75  76
ENDBRANCH   1  75
TORSDOF 17
ENDMDL
MODEL 3
REMARK VINA RESULT:     -12.2      2.648      4.034
REMARK SMILES O=C(NCCCCCCNC(=O)[C@H]1CC2=c3ccccc3=N[C@H]2[C@@H](c2ccccc2)[NH2+]1)c1ccc(-c2c3nc(c(-c4c(F)cc(S(=O)(=O)[O-])cc4F)c4ccc([nH]4)c(-c4c(F)cc(S(=O)(=O)[O-])cc4F)c4nc(c(-c5c(F)cc(S(=O)(=O)[O-])cc5F)c5ccc2[nH]5)C=C4)C=C3)cc1
REMARK SMILES IDX 5 1 4 2 3 3 1 4 2 5 32 7 33 8 97 9 34 10 96 11 35 12 36 13
REMARK SMILES IDX 37 14 90 15 38 16 95 17 89 18 91 19 39 20 94 21 88 22 87 23
REMARK SMILES IDX 40 25 74 26 53 27 73 28 54 29 57 30 72 31 92 32 55 33 56 34
REMARK SMILES IDX 71 36 93 37 58 38 41 39 42 40 51 41 43 42 44 43 50 44 52 45
REMARK SMILES IDX 45 46 46 47 47 48 48 49 49 50 75 51 76 52 85 53 77 54 78 55
REMARK SMILES IDX 84 56 86 57 79 58 80 59 81 60 82 61 83 62 59 63 60 64 69 65
REMARK SMILES IDX 61 66 62 67 68 68 70 69 63 70 64 71 65 72 66 73 67 74 6 75
REMARK SMILES IDX 7 76 8 77 9 78 10 79 11 80 12 82 13 83 14 84 31 85 15 86
REMARK SMILES IDX 24 87 16 90 23 91 17 92 21 93 22 94 18 95 20 96 19 97 25 98
REMARK SMILES IDX 26 99 30 100 27 101 29 102 28 103
REMARK H PARENT 3 6 91 24 57 35 10 81 31 88 31 89
REMARK Flexibility Score: inf
ROOT
ATOM      1  C   UNL A   1      34.559  29.495  27.617  1.00  0.00     0.021 C 
ENDROOT
BRANCH   1   2
ATOM      2  C   UNL A   1      35.341  30.759  27.970  1.00  0.00     0.116 C 
BRANCH   2   3
ATOM      3  N   UNL A   1      35.366  30.997  29.402  1.00  0.00    -0.352 N 
ATOM      4  O   UNL A   1      36.046  30.737  31.527  1.00  0.00    -0.269 OA
ATOM      5  C   UNL A   1      36.305  30.627  30.328  1.00  0.00     0.251 C 
ATOM      6  H   UNL A   1      34.595  31.495  29.760  1.00  0.00     0.163 HD
BRANCH   5   7
ATOM      7  C   UNL A   1      37.620  30.101  29.904  1.00  0.00     0.039 A 
ATOM      8  C   UNL A   1      38.487  29.597  30.879  1.00  0.00     0.014 A 
ATOM      9  C   UNL A   1      38.034  30.172  28.569  1.00  0.00     0.014 A 
ATOM     10  C   UNL A   1      39.760  29.149  30.517  1.00  0.00     0.010 A 
ATOM     11  C   UNL A   1      39.289  29.685  28.202  1.00  0.00     0.010 A 
ATOM     12  C   UNL A   1      40.169  29.185  29.175  1.00  0.00    -0.014 A 
BRANCH  12  13
ATOM     13  C   UNL A   1      41.541  28.776  28.781  1.00  0.00     0.031 A 
ATOM     14  C   UNL A   1      42.652  29.792  28.799  1.00  0.00     0.074 A 
ATOM     15  C   UNL A   1      41.787  27.510  28.392  1.00  0.00     0.049 A 
ATOM     16  N   UNL A   1      43.886  29.675  28.383  1.00  0.00    -0.248 NA
ATOM     17  C   UNL A   1      42.326  31.120  29.346  1.00  0.00     0.031 C 
ATOM     18  C   UNL A   1      40.799  26.430  28.345  1.00  0.00     0.029 A 
ATOM     19  N   UNL A   1      42.947  26.918  27.959  1.00  0.00    -0.354 N 
ATOM     20  C   UNL A   1      44.482  30.910  28.612  1.00  0.00     0.074 A 
ATOM     21  C   UNL A   1      43.465  31.776  29.166  1.00  0.00     0.031 C 
ATOM     22  C   UNL A   1      41.400  25.303  27.928  1.00  0.00     0.029 A 
ATOM     23  C   UNL A   1      42.803  25.587  27.640  1.00  0.00     0.049 A 
ATOM     24  H   UNL A   1      43.802  27.399  27.885  1.00  0.00     0.167 HD
ATOM     25  C   UNL A   1      45.767  31.281  28.401  1.00  0.00     0.037 A 
ATOM     26  C   UNL A   1      43.701  24.703  27.163  1.00  0.00     0.037 A 
ATOM     27  C   UNL A   1      46.785  30.410  27.874  1.00  0.00     0.049 A 
ATOM     28  C   UNL A   1      45.116  25.153  26.908  1.00  0.00     0.074 A 
ATOM     29  C   UNL A   1      48.110  30.702  27.600  1.00  0.00     0.029 A 
ATOM     30  N   UNL A   1      46.599  29.071  27.570  1.00  0.00    -0.354 N 
ATOM     31  N   UNL A   1      45.650  26.336  27.093  1.00  0.00    -0.248 NA
ATOM     32  C   UNL A   1      46.049  24.146  26.380  1.00  0.00     0.031 C 
ATOM     33  C   UNL A   1      48.724  29.542  27.116  1.00  0.00     0.029 A 
ATOM     34  C   UNL A   1      47.788  28.520  27.121  1.00  0.00     0.049 A 
ATOM     35  H   UNL A   1      45.749  28.584  27.659  1.00  0.00     0.167 HD
ATOM     36  C   UNL A   1      46.988  26.206  26.738  1.00  0.00     0.074 A 
ATOM     37  C   UNL A   1      47.184  24.830  26.331  1.00  0.00     0.031 C 
ATOM     38  C   UNL A   1      47.968  27.142  26.749  1.00  0.00     0.037 A 
BRANCH  25  39
ATOM     39  C   UNL A   1      46.160  32.686  28.756  1.00  0.00     0.058 A 
ATOM     40  C   UNL A   1      46.118  33.714  27.802  1.00  0.00     0.135 A 
ATOM     41  C   UNL A   1      46.500  33.027  30.075  1.00  0.00     0.135 A 
ATOM     42  F   UNL A   1      45.822  33.437  26.523  1.00  0.00    -0.206 F 
ATOM     43  C   UNL A   1      46.401  35.032  28.143  1.00  0.00     0.059 A 
ATOM     44  C   UNL A   1      46.764  34.342  30.443  1.00  0.00     0.059 A 
ATOM     45  F   UNL A   1      46.559  32.079  31.024  1.00  0.00    -0.206 F 
ATOM     46  C   UNL A   1      46.715  35.339  29.468  1.00  0.00     0.060 A 
BRANCH  46  47
ATOM     47  S   UNL A   1      47.029  37.062  29.902  1.00  0.00     0.124 S 
ATOM     48  O   UNL A   1      46.829  37.039  31.349  1.00  0.00    -0.237 OA
ATOM     49  O   UNL A   1      48.404  37.252  29.455  1.00  0.00    -0.237 OA
ATOM     50  O   UNL A   1      46.018  37.793  29.144  1.00  0.00    -0.744 OA
ENDBRANCH  46  47
ENDBRANCH  25  39
BRANCH  26  51
ATOM     51  C   UNL A   1      43.306  23.293  26.906  1.00  0.00     0.058 A 
ATOM     52  C   UNL A   1      43.070  22.409  27.970  1.00  0.00     0.135 A 
ATOM     53  C   UNL A   1      43.183  22.795  25.600  1.00  0.00     0.135 A 
ATOM     54  F   UNL A   1      43.182  22.841  29.235  1.00  0.00    -0.206 F 
ATOM     55  C   UNL A   1      42.754  21.073  27.751  1.00  0.00     0.059 A 
ATOM     56  C   UNL A   1      42.846  21.468  25.355  1.00  0.00     0.059 A 
ATOM     57  F   UNL A   1      43.383  23.605  24.548  1.00  0.00    -0.206 F 
ATOM     58  C   UNL A   1      42.649  20.610  26.438  1.00  0.00     0.060 A 
BRANCH  58  59
ATOM     59  S   UNL A   1      42.224  18.877  26.161  1.00  0.00     0.124 S 
ATOM     60  O   UNL A   1      40.814  18.977  25.803  1.00  0.00    -0.237 OA
ATOM     61  O   UNL A   1      43.133  18.505  25.082  1.00  0.00    -0.237 OA
ATOM     62  O   UNL A   1      42.505  18.255  27.451  1.00  0.00    -0.744 OA
ENDBRANCH  58  59
ENDBRANCH  26  51
BRANCH  38  63
ATOM     63  C   UNL A   1      49.351  26.701  26.368  1.00  0.00     0.058 A 
ATOM     64  C   UNL A   1      50.199  26.061  27.284  1.00  0.00     0.135 A 
ATOM     65  C   UNL A   1      49.811  26.872  25.053  1.00  0.00     0.135 A 
ATOM     66  F   UNL A   1      49.806  25.878  28.555  1.00  0.00    -0.206 F 
ATOM     67  C   UNL A   1      51.467  25.624  26.914  1.00  0.00     0.059 A 
ATOM     68  C   UNL A   1      51.067  26.424  24.655  1.00  0.00     0.059 A 
ATOM     69  F   UNL A   1      49.033  27.470  24.136  1.00  0.00    -0.206 F 
ATOM     70  C   UNL A   1      51.892  25.810  25.597  1.00  0.00     0.060 A 
BRANCH  70  71
ATOM     71  S   UNL A   1      53.526  25.209  25.121  1.00  0.00     0.124 S 
ATOM     72  O   UNL A   1      53.380  23.772  25.324  1.00  0.00    -0.237 OA
ATOM     73  O   UNL A   1      53.630  25.647  23.732  1.00  0.00    -0.237 OA
ATOM     74  O   UNL A   1      54.422  25.887  26.054  1.00  0.00    -0.744 OA
ENDBRANCH  70  71
ENDBRANCH  38  63
ENDBRANCH  12  13
ENDBRANCH   5   7
ENDBRANCH   2   3
ENDBRANCH   1   2
BRANCH   1  75
ATOM     75  C   UNL A   1      33.537  29.656  26.485  1.00  0.00     0.002 C 
BRANCH  75  76
ATOM     76  C   UNL A   1      32.927  28.353  25.957  1.00  0.00     0.002 C 
BRANCH  76  77
ATOM     77  C   UNL A   1      31.410  28.385  25.747  1.00  0.00     0.021 C 
BRANCH  77  78
ATOM     78  C   UNL A   1      30.797  27.036  25.378  1.00  0.00     0.116 C 
BRANCH  78  79
ATOM     79  N   UNL A   1      30.998  26.058  26.431  1.00  0.00    -0.351 N 
ATOM     80  C   UNL A   1      31.605  24.833  26.407  1.00  0.00     0.278 C 
ATOM     81  H   UNL A   1      30.635  26.319  27.309  1.00  0.00     0.163 HD
ATOM     82  O   UNL A   1      31.557  24.150  27.434  1.00  0.00    -0.268 OA
BRANCH  80  83
ATOM     83  C   UNL A   1      32.318  24.318  25.138  1.00  0.00     0.277 C 
ATOM     84  C   UNL A   1      33.733  24.924  25.004  1.00  0.00     0.109 C 
ATOM     85  N   UNL A   1      32.205  22.842  25.088  1.00  0.00    -0.327 N 
ATOM     86  C   UNL A   1      34.733  23.884  24.634  1.00  0.00    -0.024 C 
ATOM     87  C   UNL A   1      32.927  22.216  23.950  1.00  0.00     0.243 C 
ATOM     88  H   UNL A   1      31.217  22.598  25.015  1.00  0.00     0.347 HD
ATOM     89  H   UNL A   1      32.635  22.485  25.942  1.00  0.00     0.347 HD
ATOM     90  C   UNL A   1      35.926  23.606  25.145  1.00  0.00     0.002 A 
ATOM     91  C   UNL A   1      34.325  22.870  23.600  1.00  0.00     0.196 C 
ATOM     92  C   UNL A   1      36.749  24.158  26.171  1.00  0.00     0.010 A 
ATOM     93  C   UNL A   1      36.307  22.387  24.411  1.00  0.00     0.066 A 
ATOM     94  N   UNL A   1      35.477  21.932  23.521  1.00  0.00    -0.270 NA
ATOM     95  C   UNL A   1      37.893  23.528  26.485  1.00  0.00     0.001 A 
ATOM     96  C   UNL A   1      37.590  21.764  24.799  1.00  0.00     0.028 A 
ATOM     97  C   UNL A   1      38.306  22.317  25.793  1.00  0.00     0.002 A 
BRANCH  87  98
ATOM     98  C   UNL A   1      32.831  20.701  24.138  1.00  0.00     0.012 A 
ATOM     99  C   UNL A   1      32.459  19.900  23.041  1.00  0.00     0.010 A 
ATOM    100  C   UNL A   1      32.982  20.070  25.382  1.00  0.00     0.010 A 
ATOM    101  C   UNL A   1      32.305  18.518  23.173  1.00  0.00     0.001 A 
ATOM    102  C   UNL A   1      32.852  18.683  25.510  1.00  0.00     0.001 A 
ATOM    103  C   UNL A   1      32.517  17.908  24.405  1.00  0.00     0.000 A 
ENDBRANCH  87  98
ENDBRANCH  80  83
ENDBRANCH  78  79
ENDBRANCH  77  78
ENDBRANCH  76  77
ENDBRANCH  75  76
ENDBRANCH   1  75
TORSDOF 17
ENDMDL
