MODEL 1
REMARK VINA RESULT:     -11.1      0.000      0.000
REMARK SMILES COc1ccccc1-c1ccc(O)c(C(=O)NCCCCCCNC(=O)c2ccc(-c3c4nc(c(-c5c(F)cc(S(=O)(=O)[O-])cc5F)c5ccc([nH]5)c(-c5c(F)cc(S(=O)(=O)[O-])cc5F)c5nc(c(-c6c(F)cc(S(=O)(=O)[O-])cc6F)c6ccc3[nH]6)C=C5)C=C4)cc2)c1
REMARK SMILES IDX 21 1 20 2 19 3 18 4 17 5 15 6 16 7 14 9 9 10 10 11 93 12
REMARK SMILES IDX 11 13 12 14 8 15 3 16 4 17 5 18 7 19 6 20 2 21 1 22 13 23
REMARK SMILES IDX 22 25 23 26 24 27 25 28 26 30 27 31 28 32 92 33 29 34 91 35
REMARK SMILES IDX 30 36 31 37 32 38 85 39 33 40 90 41 84 42 86 43 34 44 89 45
REMARK SMILES IDX 83 46 82 47 35 49 69 50 48 51 68 52 49 53 52 54 67 55 87 56
REMARK SMILES IDX 50 57 51 58 66 60 88 61 53 62 36 63 37 64 46 65 38 66 39 67
REMARK SMILES IDX 45 68 47 69 40 70 41 71 42 72 43 73 44 74 70 75 71 76 80 77
REMARK SMILES IDX 72 78 73 79 79 80 81 81 74 82 75 83 76 84 77 85 78 86 54 87
REMARK SMILES IDX 55 88 64 89 56 90 57 91 63 92 65 93 58 94 59 95 60 96 61 97
REMARK SMILES IDX 62 98
REMARK H PARENT 17 8 13 24 24 29 86 48 52 59
REMARK Flexibility Score: inf
ROOT
ATOM      1  C   UNL A   1      34.518  23.215  23.959  1.00  0.00     0.002 C 
ENDROOT
BRANCH   1   2
ATOM      2  C   UNL A   1      33.476  24.320  23.743  1.00  0.00     0.002 C 
BRANCH   2   3
ATOM      3  C   UNL A   1      33.086  24.551  22.277  1.00  0.00     0.021 C 
BRANCH   3   4
ATOM      4  C   UNL A   1      33.390  25.975  21.801  1.00  0.00     0.116 C 
BRANCH   4   5
ATOM      5  N   UNL A   1      32.152  26.725  21.659  1.00  0.00    -0.352 N 
ATOM      6  C   UNL A   1      31.260  27.242  22.563  1.00  0.00     0.255 C 
ATOM      7  O   UNL A   1      30.283  27.851  22.112  1.00  0.00    -0.269 OA
ATOM      8  H   UNL A   1      31.904  26.896  20.723  1.00  0.00     0.163 HD
BRANCH   6   9
ATOM      9  C   UNL A   1      31.432  27.198  24.041  1.00  0.00     0.082 A 
ATOM     10  C   UNL A   1      32.390  28.061  26.119  1.00  0.00    -0.014 A 
ATOM     11  C   UNL A   1      31.483  27.293  26.858  1.00  0.00     0.013 A 
ATOM     12  C   UNL A   1      32.411  27.922  24.721  1.00  0.00     0.026 A 
ATOM     13  C   UNL A   1      30.581  26.454  26.203  1.00  0.00     0.047 A 
ATOM     14  C   UNL A   1      30.541  26.428  24.809  1.00  0.00     0.128 A 
BRANCH  10  15
ATOM     15  C   UNL A   1      33.242  29.080  26.750  1.00  0.00     0.024 A 
ATOM     16  C   UNL A   1      32.762  30.376  27.051  1.00  0.00     0.126 A 
ATOM     17  C   UNL A   1      33.619  31.361  27.552  1.00  0.00     0.047 A 
ATOM     18  C   UNL A   1      34.959  31.067  27.784  1.00  0.00     0.004 A 
ATOM     19  C   UNL A   1      34.596  28.804  27.004  1.00  0.00     0.012 A 
ATOM     20  C   UNL A   1      35.448  29.791  27.512  1.00  0.00     0.001 A 
BRANCH  16  21
ATOM     21  O   UNL A   1      31.487  30.800  26.758  1.00  0.00    -0.496 OA
ATOM     22  C   UNL A   1      31.395  32.212  26.574  1.00  0.00     0.278 C 
ENDBRANCH  16  21
ENDBRANCH  10  15
BRANCH  14  23
ATOM     23  O   UNL A   1      29.576  25.624  24.256  1.00  0.00    -0.507 OA
ATOM     24  H   UNL A   1      29.666  24.692  24.293  1.00  0.00     0.293 HD
ENDBRANCH  14  23
ENDBRANCH   6   9
ENDBRANCH   4   5
ENDBRANCH   3   4
ENDBRANCH   2   3
ENDBRANCH   1   2
BRANCH   1  25
ATOM     25  C   UNL A   1      35.940  23.717  24.223  1.00  0.00     0.021 C 
BRANCH  25  26
ATOM     26  C   UNL A   1      36.347  23.689  25.692  1.00  0.00     0.116 C 
BRANCH  26  27
ATOM     27  N   UNL A   1      37.285  22.610  25.963  1.00  0.00    -0.352 N 
ATOM     28  C   UNL A   1      38.610  22.681  26.316  1.00  0.00     0.251 C 
ATOM     29  H   UNL A   1      36.918  21.700  25.883  1.00  0.00     0.163 HD
ATOM     30  O   UNL A   1      39.316  21.681  26.255  1.00  0.00    -0.269 OA
BRANCH  28  31
ATOM     31  C   UNL A   1      39.178  23.971  26.761  1.00  0.00     0.039 A 
ATOM     32  C   UNL A   1      39.076  24.331  28.106  1.00  0.00     0.014 A 
ATOM     33  C   UNL A   1      39.796  24.827  25.846  1.00  0.00     0.014 A 
ATOM     34  C   UNL A   1      39.643  25.531  28.542  1.00  0.00     0.010 A 
ATOM     35  C   UNL A   1      40.426  25.982  26.295  1.00  0.00     0.010 A 
ATOM     36  C   UNL A   1      40.348  26.351  27.646  1.00  0.00    -0.014 A 
BRANCH  36  37
ATOM     37  C   UNL A   1      41.002  27.603  28.100  1.00  0.00     0.031 A 
ATOM     38  C   UNL A   1      42.496  27.751  28.008  1.00  0.00     0.074 A 
ATOM     39  C   UNL A   1      40.256  28.583  28.647  1.00  0.00     0.049 A 
ATOM     40  N   UNL A   1      43.255  28.742  28.398  1.00  0.00    -0.248 NA
ATOM     41  C   UNL A   1      43.238  26.622  27.424  1.00  0.00     0.031 C 
ATOM     42  C   UNL A   1      38.803  28.539  28.824  1.00  0.00     0.029 A 
ATOM     43  N   UNL A   1      40.616  29.803  29.157  1.00  0.00    -0.354 N 
ATOM     44  C   UNL A   1      44.559  28.356  28.114  1.00  0.00     0.074 A 
ATOM     45  C   UNL A   1      44.493  27.012  27.581  1.00  0.00     0.031 C 
ATOM     46  C   UNL A   1      38.392  29.696  29.368  1.00  0.00     0.029 A 
ATOM     47  C   UNL A   1      39.553  30.544  29.619  1.00  0.00     0.049 A 
ATOM     48  H   UNL A   1      41.547  30.121  29.191  1.00  0.00     0.167 HD
ATOM     49  C   UNL A   1      45.705  29.066  28.255  1.00  0.00     0.037 A 
ATOM     50  C   UNL A   1      39.520  31.767  30.181  1.00  0.00     0.037 A 
ATOM     51  C   UNL A   1      45.760  30.405  28.782  1.00  0.00     0.049 A 
ATOM     52  C   UNL A   1      40.807  32.524  30.364  1.00  0.00     0.074 A 
ATOM     53  C   UNL A   1      46.862  31.228  28.934  1.00  0.00     0.029 A 
ATOM     54  N   UNL A   1      44.663  31.117  29.249  1.00  0.00    -0.354 N 
ATOM     55  N   UNL A   1      42.027  32.166  30.040  1.00  0.00    -0.248 NA
ATOM     56  C   UNL A   1      40.713  33.850  30.987  1.00  0.00     0.031 C 
ATOM     57  C   UNL A   1      46.439  32.416  29.539  1.00  0.00     0.029 A 
ATOM     58  C   UNL A   1      45.065  32.359  29.713  1.00  0.00     0.049 A 
ATOM     59  H   UNL A   1      43.735  30.788  29.250  1.00  0.00     0.167 HD
ATOM     60  C   UNL A   1      42.843  33.237  30.390  1.00  0.00     0.074 A 
ATOM     61  C   UNL A   1      41.974  34.256  30.944  1.00  0.00     0.031 C 
ATOM     62  C   UNL A   1      44.188  33.365  30.262  1.00  0.00     0.037 A 
BRANCH  49  63
ATOM     63  C   UNL A   1      46.987  28.394  27.838  1.00  0.00     0.058 A 
ATOM     64  C   UNL A   1      47.485  28.503  26.528  1.00  0.00     0.135 A 
ATOM     65  C   UNL A   1      47.725  27.625  28.752  1.00  0.00     0.135 A 
ATOM     66  F   UNL A   1      46.816  29.216  25.607  1.00  0.00    -0.206 F 
ATOM     67  C   UNL A   1      48.635  27.831  26.127  1.00  0.00     0.059 A 
ATOM     68  C   UNL A   1      48.898  26.972  28.381  1.00  0.00     0.059 A 
ATOM     69  F   UNL A   1      47.302  27.489  30.019  1.00  0.00    -0.206 F 
ATOM     70  C   UNL A   1      49.330  27.060  27.058  1.00  0.00     0.060 A 
BRANCH  70  71
ATOM     71  S   UNL A   1      50.799  26.164  26.512  1.00  0.00     0.124 S 
ATOM     72  O   UNL A   1      51.866  27.044  26.984  1.00  0.00    -0.237 OA
ATOM     73  O   UNL A   1      50.670  24.893  27.214  1.00  0.00    -0.237 OA
ATOM     74  O   UNL A   1      50.637  26.097  25.063  1.00  0.00    -0.744 OA
ENDBRANCH  70  71
ENDBRANCH  49  63
BRANCH  50  75
ATOM     75  C   UNL A   1      38.215  32.367  30.567  1.00  0.00     0.058 A 
ATOM     76  C   UNL A   1      37.671  32.137  31.840  1.00  0.00     0.135 A 
ATOM     77  C   UNL A   1      37.503  33.202  29.693  1.00  0.00     0.135 A 
ATOM     78  F   UNL A   1      38.311  31.339  32.707  1.00  0.00    -0.206 F 
ATOM     79  C   UNL A   1      36.465  32.708  32.232  1.00  0.00     0.059 A 
ATOM     80  C   UNL A   1      36.308  33.806  30.070  1.00  0.00     0.059 A 
ATOM     81  F   UNL A   1      37.988  33.466  28.470  1.00  0.00    -0.206 F 
ATOM     82  C   UNL A   1      35.794  33.548  31.341  1.00  0.00     0.060 A 
BRANCH  82  83
ATOM     83  S   UNL A   1      34.262  34.336  31.886  1.00  0.00     0.124 S 
ATOM     84  O   UNL A   1      33.533  34.460  30.629  1.00  0.00    -0.237 OA
ATOM     85  O   UNL A   1      33.739  33.359  32.835  1.00  0.00    -0.237 OA
ATOM     86  O   UNL A   1      34.721  35.590  32.476  1.00  0.00    -0.744 OA
ENDBRANCH  82  83
ENDBRANCH  50  75
BRANCH  62  87
ATOM     87  C   UNL A   1      44.802  34.667  30.697  1.00  0.00     0.058 A 
ATOM     88  C   UNL A   1      44.814  35.796  29.862  1.00  0.00     0.135 A 
ATOM     89  C   UNL A   1      45.344  34.800  31.986  1.00  0.00     0.135 A 
ATOM     90  F   UNL A   1      44.316  35.721  28.617  1.00  0.00    -0.206 F 
ATOM     91  C   UNL A   1      45.361  37.004  30.282  1.00  0.00     0.059 A 
ATOM     92  C   UNL A   1      45.870  36.007  32.437  1.00  0.00     0.059 A 
ATOM     93  F   UNL A   1      45.351  33.755  32.828  1.00  0.00    -0.206 F 
ATOM     94  C   UNL A   1      45.885  37.100  31.573  1.00  0.00     0.060 A 
BRANCH  94  95
ATOM     95  S   UNL A   1      46.559  38.685  32.116  1.00  0.00     0.124 S 
ATOM     96  O   UNL A   1      47.119  38.335  33.417  1.00  0.00    -0.237 OA
ATOM     97  O   UNL A   1      47.529  38.987  31.068  1.00  0.00    -0.237 OA
ATOM     98  O   UNL A   1      45.389  39.558  32.150  1.00  0.00    -0.744 OA
ENDBRANCH  94  95
ENDBRANCH  62  87
ENDBRANCH  36  37
ENDBRANCH  28  31
ENDBRANCH  26  27
ENDBRANCH  25  26
ENDBRANCH   1  25
TORSDOF 19
ENDMDL
MODEL 2
REMARK VINA RESULT:     -11.1      3.825     10.374
REMARK SMILES COc1ccccc1-c1ccc(O)c(C(=O)NCCCCCCNC(=O)c2ccc(-c3c4nc(c(-c5c(F)cc(S(=O)(=O)[O-])cc5F)c5ccc([nH]5)c(-c5c(F)cc(S(=O)(=O)[O-])cc5F)c5nc(c(-c6c(F)cc(S(=O)(=O)[O-])cc6F)c6ccc3[nH]6)C=C5)C=C4)cc2)c1
REMARK SMILES IDX 21 1 20 2 19 3 18 4 17 5 15 6 16 7 14 9 9 10 10 11 93 12
REMARK SMILES IDX 11 13 12 14 8 15 3 16 4 17 5 18 7 19 6 20 2 21 1 22 13 23
REMARK SMILES IDX 22 25 23 26 24 27 25 28 26 30 27 31 28 32 92 33 29 34 91 35
REMARK SMILES IDX 30 36 31 37 32 38 85 39 33 40 90 41 84 42 86 43 34 44 89 45
REMARK SMILES IDX 83 46 82 47 35 49 69 50 48 51 68 52 49 53 52 54 67 55 87 56
REMARK SMILES IDX 50 57 51 58 66 60 88 61 53 62 36 63 37 64 46 65 38 66 39 67
REMARK SMILES IDX 45 68 47 69 40 70 41 71 42 72 43 73 44 74 70 75 71 76 80 77
REMARK SMILES IDX 72 78 73 79 79 80 81 81 74 82 75 83 76 84 77 85 78 86 54 87
REMARK SMILES IDX 55 88 64 89 56 90 57 91 63 92 65 93 58 94 59 95 60 96 61 97
REMARK SMILES IDX 62 98
REMARK H PARENT 17 8 13 24 24 29 86 48 52 59
REMARK Flexibility Score: inf
ROOT
ATOM      1  C   UNL A   1      33.702  34.664  29.076  1.00  0.00     0.002 C 
ENDROOT
BRANCH   1   2
ATOM      2  C   UNL A   1      33.430  36.150  28.809  1.00  0.00     0.002 C 
BRANCH   2   3
ATOM      3  C   UNL A   1      33.238  37.000  30.072  1.00  0.00     0.021 C 
BRANCH   3   4
ATOM      4  C   UNL A   1      32.425  36.281  31.153  1.00  0.00     0.116 C 
BRANCH   4   5
ATOM      5  N   UNL A   1      33.048  36.475  32.453  1.00  0.00    -0.352 N 
ATOM      6  C   UNL A   1      34.063  35.832  33.113  1.00  0.00     0.255 C 
ATOM      7  O   UNL A   1      34.371  36.254  34.233  1.00  0.00    -0.269 OA
ATOM      8  H   UNL A   1      32.661  37.222  32.964  1.00  0.00     0.163 HD
BRANCH   6   9
ATOM      9  C   UNL A   1      34.875  34.722  32.540  1.00  0.00     0.082 A 
ATOM     10  C   UNL A   1      36.948  33.853  31.576  1.00  0.00    -0.014 A 
ATOM     11  C   UNL A   1      36.488  32.545  31.764  1.00  0.00     0.013 A 
ATOM     12  C   UNL A   1      36.086  34.922  31.878  1.00  0.00     0.026 A 
ATOM     13  C   UNL A   1      35.220  32.319  32.300  1.00  0.00     0.047 A 
ATOM     14  C   UNL A   1      34.434  33.398  32.706  1.00  0.00     0.128 A 
BRANCH  10  15
ATOM     15  C   UNL A   1      38.332  34.142  31.175  1.00  0.00     0.024 A 
ATOM     16  C   UNL A   1      39.385  34.216  32.117  1.00  0.00     0.126 A 
ATOM     17  C   UNL A   1      40.673  34.597  31.727  1.00  0.00     0.047 A 
ATOM     18  C   UNL A   1      40.940  34.885  30.391  1.00  0.00     0.004 A 
ATOM     19  C   UNL A   1      38.630  34.426  29.831  1.00  0.00     0.012 A 
ATOM     20  C   UNL A   1      39.922  34.800  29.445  1.00  0.00     0.001 A 
BRANCH  16  21
ATOM     21  O   UNL A   1      39.204  34.058  33.471  1.00  0.00    -0.496 OA
ATOM     22  C   UNL A   1      40.111  33.122  34.051  1.00  0.00     0.278 C 
ENDBRANCH  16  21
ENDBRANCH  10  15
BRANCH  14  23
ATOM     23  O   UNL A   1      33.231  33.075  33.282  1.00  0.00    -0.507 OA
ATOM     24  H   UNL A   1      32.957  33.507  34.067  1.00  0.00     0.293 HD
ENDBRANCH  14  23
ENDBRANCH   6   9
ENDBRANCH   4   5
ENDBRANCH   3   4
ENDBRANCH   2   3
ENDBRANCH   1   2
BRANCH   1  25
ATOM     25  C   UNL A   1      34.569  33.972  28.021  1.00  0.00     0.021 C 
BRANCH  25  26
ATOM     26  C   UNL A   1      35.226  32.683  28.504  1.00  0.00     0.116 C 
BRANCH  26  27
ATOM     27  N   UNL A   1      34.372  31.529  28.264  1.00  0.00    -0.352 N 
ATOM     28  C   UNL A   1      34.725  30.225  28.020  1.00  0.00     0.251 C 
ATOM     29  H   UNL A   1      33.405  31.709  28.280  1.00  0.00     0.163 HD
ATOM     30  O   UNL A   1      33.894  29.435  27.587  1.00  0.00    -0.269 OA
BRANCH  28  31
ATOM     31  C   UNL A   1      36.112  29.785  28.277  1.00  0.00     0.039 A 
ATOM     32  C   UNL A   1      37.045  29.831  27.239  1.00  0.00     0.014 A 
ATOM     33  C   UNL A   1      36.484  29.314  29.539  1.00  0.00     0.014 A 
ATOM     34  C   UNL A   1      38.366  29.453  27.483  1.00  0.00     0.010 A 
ATOM     35  C   UNL A   1      37.816  29.011  29.800  1.00  0.00     0.010 A 
ATOM     36  C   UNL A   1      38.769  29.068  28.773  1.00  0.00    -0.014 A 
BRANCH  36  37
ATOM     37  C   UNL A   1      40.180  28.712  29.065  1.00  0.00     0.031 A 
ATOM     38  C   UNL A   1      41.085  29.705  29.740  1.00  0.00     0.074 A 
ATOM     39  C   UNL A   1      40.660  27.516  28.670  1.00  0.00     0.049 A 
ATOM     40  N   UNL A   1      42.355  29.602  30.032  1.00  0.00    -0.248 NA
ATOM     41  C   UNL A   1      40.488  30.999  30.111  1.00  0.00     0.031 C 
ATOM     42  C   UNL A   1      39.888  26.485  27.974  1.00  0.00     0.029 A 
ATOM     43  N   UNL A   1      41.909  26.968  28.796  1.00  0.00    -0.354 N 
ATOM     44  C   UNL A   1      42.711  30.813  30.614  1.00  0.00     0.074 A 
ATOM     45  C   UNL A   1      41.539  31.660  30.571  1.00  0.00     0.031 C 
ATOM     46  C   UNL A   1      40.672  25.414  27.768  1.00  0.00     0.029 A 
ATOM     47  C   UNL A   1      42.010  25.699  28.275  1.00  0.00     0.049 A 
ATOM     48  H   UNL A   1      42.665  27.437  29.218  1.00  0.00     0.167 HD
ATOM     49  C   UNL A   1      43.896  31.176  31.161  1.00  0.00     0.037 A 
ATOM     50  C   UNL A   1      43.063  24.861  28.214  1.00  0.00     0.037 A 
ATOM     51  C   UNL A   1      45.056  30.324  31.204  1.00  0.00     0.049 A 
ATOM     52  C   UNL A   1      44.381  25.298  28.793  1.00  0.00     0.074 A 
ATOM     53  C   UNL A   1      46.294  30.579  31.766  1.00  0.00     0.029 A 
ATOM     54  N   UNL A   1      45.121  29.049  30.656  1.00  0.00    -0.354 N 
ATOM     55  N   UNL A   1      44.686  26.427  29.389  1.00  0.00    -0.248 NA
ATOM     56  C   UNL A   1      45.495  24.348  28.695  1.00  0.00     0.031 C 
ATOM     57  C   UNL A   1      47.123  29.480  31.513  1.00  0.00     0.029 A 
ATOM     58  C   UNL A   1      46.387  28.516  30.844  1.00  0.00     0.049 A 
ATOM     59  H   UNL A   1      44.379  28.592  30.200  1.00  0.00     0.167 HD
ATOM     60  C   UNL A   1      46.020  26.310  29.765  1.00  0.00     0.074 A 
ATOM     61  C   UNL A   1      46.458  24.997  29.335  1.00  0.00     0.031 C 
ATOM     62  C   UNL A   1      46.809  27.206  30.410  1.00  0.00     0.037 A 
BRANCH  49  63
ATOM     63  C   UNL A   1      43.988  32.561  31.748  1.00  0.00     0.058 A 
ATOM     64  C   UNL A   1      44.366  33.669  30.970  1.00  0.00     0.135 A 
ATOM     65  C   UNL A   1      43.705  32.785  33.106  1.00  0.00     0.135 A 
ATOM     66  F   UNL A   1      44.659  33.512  29.669  1.00  0.00    -0.206 F 
ATOM     67  C   UNL A   1      44.512  34.935  31.527  1.00  0.00     0.059 A 
ATOM     68  C   UNL A   1      43.813  34.051  33.676  1.00  0.00     0.059 A 
ATOM     69  F   UNL A   1      43.335  31.766  33.897  1.00  0.00    -0.206 F 
ATOM     70  C   UNL A   1      44.242  35.115  32.883  1.00  0.00     0.060 A 
BRANCH  70  71
ATOM     71  S   UNL A   1      44.474  36.756  33.598  1.00  0.00     0.124 S 
ATOM     72  O   UNL A   1      43.414  36.786  34.604  1.00  0.00    -0.237 OA
ATOM     73  O   UNL A   1      45.835  36.682  34.116  1.00  0.00    -0.237 OA
ATOM     74  O   UNL A   1      44.285  37.651  32.462  1.00  0.00    -0.744 OA
ENDBRANCH  70  71
ENDBRANCH  49  63
BRANCH  50  75
ATOM     75  C   UNL A   1      42.896  23.508  27.620  1.00  0.00     0.058 A 
ATOM     76  C   UNL A   1      43.255  23.263  26.287  1.00  0.00     0.135 A 
ATOM     77  C   UNL A   1      42.409  22.430  28.374  1.00  0.00     0.135 A 
ATOM     78  F   UNL A   1      43.719  24.264  25.523  1.00  0.00    -0.206 F 
ATOM     79  C   UNL A   1      43.132  22.000  25.718  1.00  0.00     0.059 A 
ATOM     80  C   UNL A   1      42.301  21.151  27.837  1.00  0.00     0.059 A 
ATOM     81  F   UNL A   1      42.066  22.607  29.660  1.00  0.00    -0.206 F 
ATOM     82  C   UNL A   1      42.660  20.948  26.504  1.00  0.00     0.060 A 
BRANCH  82  83
ATOM     83  S   UNL A   1      42.566  19.298  25.773  1.00  0.00     0.124 S 
ATOM     84  O   UNL A   1      43.340  19.474  24.550  1.00  0.00    -0.237 OA
ATOM     85  O   UNL A   1      43.183  18.473  26.808  1.00  0.00    -0.237 OA
ATOM     86  O   UNL A   1      41.133  19.094  25.591  1.00  0.00    -0.744 OA
ENDBRANCH  82  83
ENDBRANCH  50  75
BRANCH  62  87
ATOM     87  C   UNL A   1      48.219  26.787  30.722  1.00  0.00     0.058 A 
ATOM     88  C   UNL A   1      49.289  27.090  29.865  1.00  0.00     0.135 A 
ATOM     89  C   UNL A   1      48.510  26.114  31.921  1.00  0.00     0.135 A 
ATOM     90  F   UNL A   1      49.065  27.724  28.703  1.00  0.00    -0.206 F 
ATOM     91  C   UNL A   1      50.594  26.720  30.174  1.00  0.00     0.059 A 
ATOM     92  C   UNL A   1      49.812  25.761  32.264  1.00  0.00     0.059 A 
ATOM     93  F   UNL A   1      47.526  25.807  32.781  1.00  0.00    -0.206 F 
ATOM     94  C   UNL A   1      50.846  26.059  31.378  1.00  0.00     0.060 A 
BRANCH  94  95
ATOM     95  S   UNL A   1      52.549  25.618  31.782  1.00  0.00     0.124 S 
ATOM     96  O   UNL A   1      52.417  24.203  32.111  1.00  0.00    -0.237 OA
ATOM     97  O   UNL A   1      53.252  25.917  30.539  1.00  0.00    -0.237 OA
ATOM     98  O   UNL A   1      52.870  26.497  32.903  1.00  0.00    -0.744 OA
ENDBRANCH  94  95
ENDBRANCH  62  87
ENDBRANCH  36  37
ENDBRANCH  28  31
ENDBRANCH  26  27
ENDBRANCH  25  26
ENDBRANCH   1  25
TORSDOF 19
ENDMDL
MODEL 3
REMARK VINA RESULT:     -11.0      4.322      9.735
REMARK SMILES COc1ccccc1-c1ccc(O)c(C(=O)NCCCCCCNC(=O)c2ccc(-c3c4nc(c(-c5c(F)cc(S(=O)(=O)[O-])cc5F)c5ccc([nH]5)c(-c5c(F)cc(S(=O)(=O)[O-])cc5F)c5nc(c(-c6c(F)cc(S(=O)(=O)[O-])cc6F)c6ccc3[nH]6)C=C5)C=C4)cc2)c1
REMARK SMILES IDX 21 1 20 2 19 3 18 4 17 5 15 6 16 7 14 9 9 10 10 11 93 12
REMARK SMILES IDX 11 13 12 14 8 15 3 16 4 17 5 18 7 19 6 20 2 21 1 22 13 23
REMARK SMILES IDX 22 25 23 26 24 27 25 28 26 30 27 31 28 32 92 33 29 34 91 35
REMARK SMILES IDX 30 36 31 37 32 38 85 39 33 40 90 41 84 42 86 43 34 44 89 45
REMARK SMILES IDX 83 46 82 47 35 49 69 50 48 51 68 52 49 53 52 54 67 55 87 56
REMARK SMILES IDX 50 57 51 58 66 60 88 61 53 62 36 63 37 64 46 65 38 66 39 67
REMARK SMILES IDX 45 68 47 69 40 70 41 71 42 72 43 73 44 74 70 75 71 76 80 77
REMARK SMILES IDX 72 78 73 79 79 80 81 81 74 82 75 83 76 84 77 85 78 86 54 87
REMARK SMILES IDX 55 88 64 89 56 90 57 91 63 92 65 93 58 94 59 95 60 96 61 97
REMARK SMILES IDX 62 98
REMARK H PARENT 17 8 13 24 24 29 86 48 52 59
REMARK Flexibility Score: inf
ROOT
ATOM      1  C   UNL A   1      31.801  28.050  26.414  1.00  0.00     0.002 C 
ENDROOT
BRANCH   1   2
ATOM      2  C   UNL A   1      31.058  27.534  25.175  1.00  0.00     0.002 C 
BRANCH   2   3
ATOM      3  C   UNL A   1      30.668  28.623  24.167  1.00  0.00     0.021 C 
BRANCH   3   4
ATOM      4  C   UNL A   1      30.917  28.204  22.715  1.00  0.00     0.116 C 
BRANCH   4   5
ATOM      5  N   UNL A   1      32.297  28.481  22.350  1.00  0.00    -0.352 N 
ATOM      6  C   UNL A   1      33.417  27.696  22.248  1.00  0.00     0.255 C 
ATOM      7  O   UNL A   1      34.467  28.245  21.896  1.00  0.00    -0.269 OA
ATOM      8  H   UNL A   1      32.461  29.426  22.130  1.00  0.00     0.163 HD
BRANCH   6   9
ATOM      9  C   UNL A   1      33.436  26.219  22.445  1.00  0.00     0.082 A 
ATOM     10  C   UNL A   1      33.430  24.245  23.888  1.00  0.00    -0.014 A 
ATOM     11  C   UNL A   1      33.146  23.437  22.782  1.00  0.00     0.013 A 
ATOM     12  C   UNL A   1      33.668  25.614  23.680  1.00  0.00     0.026 A 
ATOM     13  C   UNL A   1      33.042  24.001  21.510  1.00  0.00     0.047 A 
ATOM     14  C   UNL A   1      33.161  25.382  21.350  1.00  0.00     0.128 A 
BRANCH  10  15
ATOM     15  C   UNL A   1      33.383  23.727  25.263  1.00  0.00     0.024 A 
ATOM     16  C   UNL A   1      34.536  23.234  25.918  1.00  0.00     0.126 A 
ATOM     17  C   UNL A   1      34.448  22.649  27.184  1.00  0.00     0.047 A 
ATOM     18  C   UNL A   1      33.218  22.567  27.831  1.00  0.00     0.004 A 
ATOM     19  C   UNL A   1      32.155  23.643  25.941  1.00  0.00     0.012 A 
ATOM     20  C   UNL A   1      32.073  23.063  27.211  1.00  0.00     0.001 A 
BRANCH  16  21
ATOM     21  O   UNL A   1      35.775  23.168  25.324  1.00  0.00    -0.496 OA
ATOM     22  C   UNL A   1      36.479  21.965  25.631  1.00  0.00     0.278 C 
ENDBRANCH  16  21
ENDBRANCH  10  15
BRANCH  14  23
ATOM     23  O   UNL A   1      32.979  25.851  20.074  1.00  0.00    -0.507 OA
ATOM     24  H   UNL A   1      32.601  25.295  19.421  1.00  0.00     0.293 HD
ENDBRANCH  14  23
ENDBRANCH   6   9
ENDBRANCH   4   5
ENDBRANCH   3   4
ENDBRANCH   2   3
ENDBRANCH   1   2
BRANCH   1  25
ATOM     25  C   UNL A   1      33.236  27.536  26.561  1.00  0.00     0.021 C 
BRANCH  25  26
ATOM     26  C   UNL A   1      34.297  28.495  26.033  1.00  0.00     0.116 C 
BRANCH  26  27
ATOM     27  N   UNL A   1      34.003  29.871  26.405  1.00  0.00    -0.352 N 
ATOM     28  C   UNL A   1      34.570  30.644  27.388  1.00  0.00     0.251 C 
ATOM     29  H   UNL A   1      33.297  30.310  25.878  1.00  0.00     0.163 HD
ATOM     30  O   UNL A   1      34.032  31.688  27.736  1.00  0.00    -0.269 OA
BRANCH  28  31
ATOM     31  C   UNL A   1      35.830  30.204  28.025  1.00  0.00     0.039 A 
ATOM     32  C   UNL A   1      37.044  30.481  27.394  1.00  0.00     0.014 A 
ATOM     33  C   UNL A   1      35.806  29.506  29.236  1.00  0.00     0.014 A 
ATOM     34  C   UNL A   1      38.240  30.102  28.008  1.00  0.00     0.010 A 
ATOM     35  C   UNL A   1      36.998  29.199  29.881  1.00  0.00     0.010 A 
ATOM     36  C   UNL A   1      38.228  29.485  29.270  1.00  0.00    -0.014 A 
BRANCH  36  37
ATOM     37  C   UNL A   1      39.489  29.122  29.962  1.00  0.00     0.031 A 
ATOM     38  C   UNL A   1      39.918  29.873  31.192  1.00  0.00     0.074 A 
ATOM     39  C   UNL A   1      40.275  28.155  29.449  1.00  0.00     0.049 A 
ATOM     40  N   UNL A   1      41.007  29.740  31.905  1.00  0.00    -0.248 NA
ATOM     41  C   UNL A   1      39.016  30.934  31.668  1.00  0.00     0.031 C 
ATOM     42  C   UNL A   1      39.982  27.381  28.240  1.00  0.00     0.029 A 
ATOM     43  N   UNL A   1      41.479  27.659  29.877  1.00  0.00    -0.354 N 
ATOM     44  C   UNL A   1      40.924  30.699  32.907  1.00  0.00     0.074 A 
ATOM     45  C   UNL A   1      39.712  31.452  32.669  1.00  0.00     0.031 C 
ATOM     46  C   UNL A   1      40.962  26.484  28.045  1.00  0.00     0.029 A 
ATOM     47  C   UNL A   1      41.971  26.646  29.087  1.00  0.00     0.049 A 
ATOM     48  H   UNL A   1      41.948  27.995  30.675  1.00  0.00     0.167 HD
ATOM     49  C   UNL A   1      41.765  30.915  33.947  1.00  0.00     0.037 A 
ATOM     50  C   UNL A   1      43.108  25.932  29.191  1.00  0.00     0.037 A 
ATOM     51  C   UNL A   1      42.967  30.157  34.179  1.00  0.00     0.049 A 
ATOM     52  C   UNL A   1      44.047  26.213  30.332  1.00  0.00     0.074 A 
ATOM     53  C   UNL A   1      43.870  30.269  35.221  1.00  0.00     0.029 A 
ATOM     54  N   UNL A   1      43.437  29.147  33.349  1.00  0.00    -0.354 N 
ATOM     55  N   UNL A   1      43.927  27.087  31.302  1.00  0.00    -0.248 NA
ATOM     56  C   UNL A   1      45.273  25.408  30.393  1.00  0.00     0.031 C 
ATOM     57  C   UNL A   1      44.912  29.362  34.994  1.00  0.00     0.029 A 
ATOM     58  C   UNL A   1      44.631  28.645  33.842  1.00  0.00     0.049 A 
ATOM     59  H   UNL A   1      42.989  28.834  32.531  1.00  0.00     0.167 HD
ATOM     60  C   UNL A   1      45.048  26.917  32.108  1.00  0.00     0.074 A 
ATOM     61  C   UNL A   1      45.828  25.850  31.514  1.00  0.00     0.031 C 
ATOM     62  C   UNL A   1      45.397  27.581  33.239  1.00  0.00     0.037 A 
BRANCH  49  63
ATOM     63  C   UNL A   1      41.407  32.023  34.903  1.00  0.00     0.058 A 
ATOM     64  C   UNL A   1      40.499  31.824  35.958  1.00  0.00     0.135 A 
ATOM     65  C   UNL A   1      41.970  33.302  34.762  1.00  0.00     0.135 A 
ATOM     66  F   UNL A   1      39.921  30.625  36.135  1.00  0.00    -0.206 F 
ATOM     67  C   UNL A   1      40.122  32.863  36.801  1.00  0.00     0.059 A 
ATOM     68  C   UNL A   1      41.632  34.349  35.617  1.00  0.00     0.059 A 
ATOM     69  F   UNL A   1      42.847  33.551  33.777  1.00  0.00    -0.206 F 
ATOM     70  C   UNL A   1      40.687  34.125  36.617  1.00  0.00     0.060 A 
BRANCH  70  71
ATOM     71  S   UNL A   1      40.157  35.473  37.696  1.00  0.00     0.124 S 
ATOM     72  O   UNL A   1      39.029  34.859  38.392  1.00  0.00    -0.237 OA
ATOM     73  O   UNL A   1      41.346  35.711  38.506  1.00  0.00    -0.237 OA
ATOM     74  O   UNL A   1      39.813  36.540  36.762  1.00  0.00    -0.744 OA
ENDBRANCH  70  71
ENDBRANCH  49  63
BRANCH  50  75
ATOM     75  C   UNL A   1      43.393  24.852  28.209  1.00  0.00     0.058 A 
ATOM     76  C   UNL A   1      42.881  23.560  28.398  1.00  0.00     0.135 A 
ATOM     77  C   UNL A   1      44.151  25.092  27.052  1.00  0.00     0.135 A 
ATOM     78  F   UNL A   1      42.158  23.280  29.492  1.00  0.00    -0.206 F 
ATOM     79  C   UNL A   1      43.113  22.541  27.480  1.00  0.00     0.059 A 
ATOM     80  C   UNL A   1      44.376  24.097  26.106  1.00  0.00     0.059 A 
ATOM     81  F   UNL A   1      44.651  26.315  26.816  1.00  0.00    -0.206 F 
ATOM     82  C   UNL A   1      43.857  22.822  26.333  1.00  0.00     0.060 A 
BRANCH  82  83
ATOM     83  S   UNL A   1      44.097  21.508  25.116  1.00  0.00     0.124 S 
ATOM     84  O   UNL A   1      43.036  20.575  25.479  1.00  0.00    -0.237 OA
ATOM     85  O   UNL A   1      43.917  22.224  23.857  1.00  0.00    -0.237 OA
ATOM     86  O   UNL A   1      45.458  21.051  25.381  1.00  0.00    -0.744 OA
ENDBRANCH  82  83
ENDBRANCH  50  75
BRANCH  62  87
ATOM     87  C   UNL A   1      46.662  27.151  33.930  1.00  0.00     0.058 A 
ATOM     88  C   UNL A   1      46.682  26.088  34.847  1.00  0.00     0.135 A 
ATOM     89  C   UNL A   1      47.882  27.782  33.633  1.00  0.00     0.135 A 
ATOM     90  F   UNL A   1      45.543  25.456  35.172  1.00  0.00    -0.206 F 
ATOM     91  C   UNL A   1      47.861  25.681  35.462  1.00  0.00     0.059 A 
ATOM     92  C   UNL A   1      49.078  27.372  34.214  1.00  0.00     0.059 A 
ATOM     93  F   UNL A   1      47.922  28.799  32.757  1.00  0.00    -0.206 F 
ATOM     94  C   UNL A   1      49.055  26.328  35.136  1.00  0.00     0.060 A 
BRANCH  94  95
ATOM     95  S   UNL A   1      50.583  25.763  35.915  1.00  0.00     0.124 S 
ATOM     96  O   UNL A   1      51.351  27.001  35.985  1.00  0.00    -0.237 OA
ATOM     97  O   UNL A   1      50.108  25.239  37.191  1.00  0.00    -0.237 OA
ATOM     98  O   UNL A   1      51.090  24.761  34.983  1.00  0.00    -0.744 OA
ENDBRANCH  94  95
ENDBRANCH  62  87
ENDBRANCH  36  37
ENDBRANCH  28  31
ENDBRANCH  26  27
ENDBRANCH  25  26
ENDBRANCH   1  25
TORSDOF 19
ENDMDL
