MODEL 1
REMARK VINA RESULT:      -8.9      0.000      0.000
REMARK SMILES Cc1c(CC(=O)NCCCCCCNC(=O)c2ccc(-c3c4nc(c(-c5c(F)cc(S(=O)(=O)[O-])cc5F)c5ccc([nH]5)c(-c5c(F)cc(S(=O)(=O)[O-])cc5F)c5nc(c(-c6c(F)cc(S(=O)(=O)[O-])cc6F)c6ccc3[nH]6)C=C5)C=C4)cc2)cc(-c2ccc(S(C)(=O)=O)cc2)n1-c1ccccc1
REMARK SMILES IDX 10 1 9 2 8 3 7 4 5 5 6 6 4 8 3 9 1 10 2 11 95 12 83 13 84 14
REMARK SMILES IDX 96 15 97 16 101 17 98 18 100 19 99 20 85 21 86 22 94 23
REMARK SMILES IDX 87 24 93 25 88 26 89 27 90 28 91 29 92 30 11 31 12 32 13 33
REMARK SMILES IDX 14 34 15 35 16 37 17 38 18 39 82 40 19 41 81 42 20 43 21 44
REMARK SMILES IDX 22 45 75 46 23 47 80 48 74 49 76 50 24 51 79 52 73 53 72 54
REMARK SMILES IDX 25 56 59 57 38 58 58 59 39 60 42 61 57 62 77 63 40 64 41 65
REMARK SMILES IDX 56 67 78 68 43 69 26 70 27 71 36 72 28 73 29 74 35 75 37 76
REMARK SMILES IDX 30 77 31 78 32 79 33 80 34 81 60 82 61 83 70 84 62 85 63 86
REMARK SMILES IDX 69 87 71 88 64 89 65 90 66 91 67 92 68 93 44 94 45 95 54 96
REMARK SMILES IDX 46 97 47 98 53 99 55 100 48 101 49 102 50 103 51 104 52 105
REMARK H PARENT 7 7 14 36 76 55 42 66
REMARK Flexibility Score: inf
ROOT
ATOM      1  C   UNL A   1      47.135  38.243  35.549  1.00  0.00     0.002 C 
ENDROOT
BRANCH   1   2
ATOM      2  C   UNL A   1      46.186  39.108  36.390  1.00  0.00     0.021 C 
BRANCH   2   3
ATOM      3  C   UNL A   1      45.139  39.875  35.582  1.00  0.00     0.116 C 
BRANCH   3   4
ATOM      4  N   UNL A   1      45.716  40.491  34.400  1.00  0.00    -0.356 N 
ATOM      5  C   UNL A   1      45.208  40.573  33.132  1.00  0.00     0.224 C 
ATOM      6  O   UNL A   1      45.899  41.105  32.260  1.00  0.00    -0.275 OA
ATOM      7  H   UNL A   1      46.598  40.909  34.529  1.00  0.00     0.163 HD
BRANCH   5   8
ATOM      8  C   UNL A   1      43.800  40.091  32.829  1.00  0.00     0.137 C 
BRANCH   8   9
ATOM      9  C   UNL A   1      43.576  39.746  31.393  1.00  0.00    -0.017 A 
ATOM     10  C   UNL A   1      42.640  41.961  30.438  1.00  0.00     0.065 C 
ATOM     11  C   UNL A   1      43.127  40.553  30.354  1.00  0.00     0.024 A 
ATOM     12  N   UNL A   1      43.143  39.808  29.172  1.00  0.00    -0.314 N 
ATOM     13  C   UNL A   1      43.777  38.461  30.853  1.00  0.00     0.033 A 
ATOM     14  C   UNL A   1      43.550  38.518  29.495  1.00  0.00     0.053 A 
BRANCH  12  15
ATOM     15  C   UNL A   1      42.809  40.275  27.866  1.00  0.00     0.046 A 
ATOM     16  C   UNL A   1      43.780  40.901  27.072  1.00  0.00     0.026 A 
ATOM     17  C   UNL A   1      41.496  40.157  27.395  1.00  0.00     0.026 A 
ATOM     18  C   UNL A   1      43.439  41.397  25.813  1.00  0.00     0.002 A 
ATOM     19  C   UNL A   1      41.158  40.672  26.141  1.00  0.00     0.002 A 
ATOM     20  C   UNL A   1      42.129  41.288  25.350  1.00  0.00     0.000 A 
ENDBRANCH  12  15
BRANCH  14  21
ATOM     21  C   UNL A   1      43.813  37.431  28.566  1.00  0.00    -0.001 A 
ATOM     22  C   UNL A   1      45.075  37.273  27.978  1.00  0.00     0.011 A 
ATOM     23  C   UNL A   1      42.793  36.502  28.324  1.00  0.00     0.011 A 
ATOM     24  C   UNL A   1      45.295  36.213  27.111  1.00  0.00     0.021 A 
ATOM     25  C   UNL A   1      43.005  35.442  27.462  1.00  0.00     0.021 A 
ATOM     26  C   UNL A   1      44.245  35.324  26.849  1.00  0.00     0.067 A 
BRANCH  26  27
ATOM     27  S   UNL A   1      44.427  34.124  25.567  1.00  0.00     0.175 S 
ATOM     28  C   UNL A   1      44.438  32.641  26.557  1.00  0.00     0.163 C 
ATOM     29  O   UNL A   1      43.239  34.250  24.748  1.00  0.00    -0.224 OA
ATOM     30  O   UNL A   1      45.748  34.291  24.997  1.00  0.00    -0.224 OA
ENDBRANCH  26  27
ENDBRANCH  14  21
ENDBRANCH   8   9
ENDBRANCH   5   8
ENDBRANCH   3   4
ENDBRANCH   2   3
ENDBRANCH   1   2
BRANCH   1  31
ATOM     31  C   UNL A   1      48.561  38.782  35.367  1.00  0.00     0.002 C 
BRANCH  31  32
ATOM     32  C   UNL A   1      49.105  38.861  33.929  1.00  0.00     0.021 C 
BRANCH  32  33
ATOM     33  C   UNL A   1      48.326  38.118  32.826  1.00  0.00     0.116 C 
BRANCH  33  34
ATOM     34  N   UNL A   1      48.869  36.820  32.504  1.00  0.00    -0.352 N 
ATOM     35  C   UNL A   1      48.223  35.712  31.993  1.00  0.00     0.251 C 
ATOM     36  H   UNL A   1      49.833  36.711  32.671  1.00  0.00     0.163 HD
ATOM     37  O   UNL A   1      48.900  34.715  31.759  1.00  0.00    -0.269 OA
BRANCH  35  38
ATOM     38  C   UNL A   1      46.734  35.658  31.812  1.00  0.00     0.039 A 
ATOM     39  C   UNL A   1      45.935  36.059  32.872  1.00  0.00     0.014 A 
ATOM     40  C   UNL A   1      46.113  34.960  30.758  1.00  0.00     0.014 A 
ATOM     41  C   UNL A   1      44.551  35.769  32.865  1.00  0.00     0.010 A 
ATOM     42  C   UNL A   1      44.714  34.604  30.790  1.00  0.00     0.010 A 
ATOM     43  C   UNL A   1      43.896  34.962  31.871  1.00  0.00    -0.014 A 
BRANCH  43  44
ATOM     44  C   UNL A   1      42.599  34.241  32.371  1.00  0.00     0.031 A 
ATOM     45  C   UNL A   1      43.099  33.250  33.358  1.00  0.00     0.074 A 
ATOM     46  C   UNL A   1      41.254  34.093  32.085  1.00  0.00     0.049 A 
ATOM     47  N   UNL A   1      44.056  32.428  33.017  1.00  0.00    -0.248 NA
ATOM     48  C   UNL A   1      42.822  33.311  34.789  1.00  0.00     0.031 C 
ATOM     49  C   UNL A   1      40.546  34.502  30.879  1.00  0.00     0.029 A 
ATOM     50  N   UNL A   1      40.173  33.555  32.820  1.00  0.00    -0.354 N 
ATOM     51  C   UNL A   1      44.217  31.601  34.092  1.00  0.00     0.074 A 
ATOM     52  C   UNL A   1      43.648  32.346  35.207  1.00  0.00     0.031 C 
ATOM     53  C   UNL A   1      39.194  34.469  31.039  1.00  0.00     0.029 A 
ATOM     54  C   UNL A   1      38.869  33.870  32.321  1.00  0.00     0.049 A 
ATOM     55  H   UNL A   1      40.308  32.999  33.621  1.00  0.00     0.167 HD
ATOM     56  C   UNL A   1      44.121  30.266  33.824  1.00  0.00     0.037 A 
ATOM     57  C   UNL A   1      37.614  33.529  32.787  1.00  0.00     0.037 A 
ATOM     58  C   UNL A   1      42.916  29.687  34.352  1.00  0.00     0.049 A 
ATOM     59  C   UNL A   1      37.804  32.172  33.315  1.00  0.00     0.074 A 
ATOM     60  C   UNL A   1      42.272  29.758  35.570  1.00  0.00     0.029 A 
ATOM     61  N   UNL A   1      41.980  29.261  33.433  1.00  0.00    -0.354 N 
ATOM     62  N   UNL A   1      37.985  31.152  32.532  1.00  0.00    -0.248 NA
ATOM     63  C   UNL A   1      37.720  31.877  34.739  1.00  0.00     0.031 C 
ATOM     64  C   UNL A   1      40.891  29.800  35.266  1.00  0.00     0.029 A 
ATOM     65  C   UNL A   1      40.712  29.500  33.921  1.00  0.00     0.049 A 
ATOM     66  H   UNL A   1      42.186  28.849  32.563  1.00  0.00     0.167 HD
ATOM     67  C   UNL A   1      38.501  30.207  33.358  1.00  0.00     0.074 A 
ATOM     68  C   UNL A   1      38.073  30.592  34.689  1.00  0.00     0.031 C 
ATOM     69  C   UNL A   1      39.635  29.581  32.958  1.00  0.00     0.037 A 
BRANCH  56  70
ATOM     70  C   UNL A   1      44.771  29.841  32.531  1.00  0.00     0.058 A 
ATOM     71  C   UNL A   1      45.949  29.090  32.574  1.00  0.00     0.135 A 
ATOM     72  C   UNL A   1      44.319  30.264  31.262  1.00  0.00     0.135 A 
ATOM     73  F   UNL A   1      46.416  28.638  33.750  1.00  0.00    -0.206 F 
ATOM     74  C   UNL A   1      46.672  28.802  31.418  1.00  0.00     0.059 A 
ATOM     75  C   UNL A   1      45.040  30.016  30.097  1.00  0.00     0.059 A 
ATOM     76  F   UNL A   1      43.162  30.938  31.146  1.00  0.00    -0.206 F 
ATOM     77  C   UNL A   1      46.223  29.287  30.186  1.00  0.00     0.060 A 
BRANCH  77  78
ATOM     78  S   UNL A   1      47.240  29.011  28.719  1.00  0.00     0.124 S 
ATOM     79  O   UNL A   1      47.484  27.571  28.767  1.00  0.00    -0.237 OA
ATOM     80  O   UNL A   1      46.351  29.454  27.651  1.00  0.00    -0.237 OA
ATOM     81  O   UNL A   1      48.419  29.838  28.957  1.00  0.00    -0.744 OA
ENDBRANCH  77  78
ENDBRANCH  56  70
BRANCH  57  82
ATOM     82  C   UNL A   1      36.125  33.876  32.670  1.00  0.00     0.058 A 
ATOM     83  C   UNL A   1      35.474  34.654  33.678  1.00  0.00     0.135 A 
ATOM     84  C   UNL A   1      35.445  33.857  31.440  1.00  0.00     0.135 A 
ATOM     85  F   UNL A   1      35.966  34.735  34.922  1.00  0.00    -0.206 F 
ATOM     86  C   UNL A   1      34.357  35.465  33.448  1.00  0.00     0.059 A 
ATOM     87  C   UNL A   1      34.292  34.645  31.194  1.00  0.00     0.059 A 
ATOM     88  F   UNL A   1      35.943  33.154  30.413  1.00  0.00    -0.206 F 
ATOM     89  C   UNL A   1      33.793  35.492  32.185  1.00  0.00     0.060 A 
BRANCH  89  90
ATOM     90  S   UNL A   1      32.521  36.746  31.851  1.00  0.00     0.124 S 
ATOM     91  O   UNL A   1      31.377  36.245  32.606  1.00  0.00    -0.237 OA
ATOM     92  O   UNL A   1      33.141  37.959  32.377  1.00  0.00    -0.237 OA
ATOM     93  O   UNL A   1      32.377  36.707  30.399  1.00  0.00    -0.744 OA
ENDBRANCH  89  90
ENDBRANCH  57  82
BRANCH  69  94
ATOM     94  C   UNL A   1      39.739  29.154  31.497  1.00  0.00     0.058 A 
ATOM     95  C   UNL A   1      39.319  27.935  30.913  1.00  0.00     0.135 A 
ATOM     96  C   UNL A   1      40.393  30.047  30.628  1.00  0.00     0.135 A 
ATOM     97  F   UNL A   1      38.566  27.045  31.576  1.00  0.00    -0.206 F 
ATOM     98  C   UNL A   1      39.640  27.586  29.595  1.00  0.00     0.059 A 
ATOM     99  C   UNL A   1      40.673  29.745  29.296  1.00  0.00     0.059 A 
ATOM    100  F   UNL A   1      40.786  31.250  31.078  1.00  0.00    -0.206 F 
ATOM    101  C   UNL A   1      40.339  28.489  28.801  1.00  0.00     0.060 A 
BRANCH 101 102
ATOM    102  S   UNL A   1      40.824  28.012  27.128  1.00  0.00     0.124 S 
ATOM    103  O   UNL A   1      40.217  26.689  27.007  1.00  0.00    -0.237 OA
ATOM    104  O   UNL A   1      40.222  29.055  26.305  1.00  0.00    -0.237 OA
ATOM    105  O   UNL A   1      42.283  28.017  27.184  1.00  0.00    -0.744 OA
ENDBRANCH 101 102
ENDBRANCH  69  94
ENDBRANCH  43  44
ENDBRANCH  35  38
ENDBRANCH  33  34
ENDBRANCH  32  33
ENDBRANCH  31  32
ENDBRANCH   1  31
TORSDOF 20
ENDMDL
MODEL 2
REMARK VINA RESULT:      -8.5      4.439     10.472
REMARK SMILES Cc1c(CC(=O)NCCCCCCNC(=O)c2ccc(-c3c4nc(c(-c5c(F)cc(S(=O)(=O)[O-])cc5F)c5ccc([nH]5)c(-c5c(F)cc(S(=O)(=O)[O-])cc5F)c5nc(c(-c6c(F)cc(S(=O)(=O)[O-])cc6F)c6ccc3[nH]6)C=C5)C=C4)cc2)cc(-c2ccc(S(C)(=O)=O)cc2)n1-c1ccccc1
REMARK SMILES IDX 10 1 9 2 8 3 7 4 5 5 6 6 4 8 3 9 1 10 2 11 95 12 83 13 84 14
REMARK SMILES IDX 96 15 97 16 101 17 98 18 100 19 99 20 85 21 86 22 94 23
REMARK SMILES IDX 87 24 93 25 88 26 89 27 90 28 91 29 92 30 11 31 12 32 13 33
REMARK SMILES IDX 14 34 15 35 16 37 17 38 18 39 82 40 19 41 81 42 20 43 21 44
REMARK SMILES IDX 22 45 75 46 23 47 80 48 74 49 76 50 24 51 79 52 73 53 72 54
REMARK SMILES IDX 25 56 59 57 38 58 58 59 39 60 42 61 57 62 77 63 40 64 41 65
REMARK SMILES IDX 56 67 78 68 43 69 26 70 27 71 36 72 28 73 29 74 35 75 37 76
REMARK SMILES IDX 30 77 31 78 32 79 33 80 34 81 60 82 61 83 70 84 62 85 63 86
REMARK SMILES IDX 69 87 71 88 64 89 65 90 66 91 67 92 68 93 44 94 45 95 54 96
REMARK SMILES IDX 46 97 47 98 53 99 55 100 48 101 49 102 50 103 51 104 52 105
REMARK H PARENT 7 7 14 36 76 55 42 66
REMARK Flexibility Score: inf
ROOT
ATOM      1  C   UNL A   1      39.495  26.503  27.539  1.00  0.00     0.002 C 
ENDROOT
BRANCH   1   2
ATOM      2  C   UNL A   1      39.750  28.005  27.358  1.00  0.00     0.021 C 
BRANCH   2   3
ATOM      3  C   UNL A   1      39.118  28.893  28.431  1.00  0.00     0.116 C 
BRANCH   3   4
ATOM      4  N   UNL A   1      39.447  28.436  29.770  1.00  0.00    -0.356 N 
ATOM      5  C   UNL A   1      40.038  29.122  30.796  1.00  0.00     0.224 C 
ATOM      6  O   UNL A   1      40.272  28.515  31.844  1.00  0.00    -0.275 OA
ATOM      7  H   UNL A   1      39.212  27.501  29.967  1.00  0.00     0.163 HD
BRANCH   5   8
ATOM      8  C   UNL A   1      40.327  30.608  30.670  1.00  0.00     0.137 C 
BRANCH   8   9
ATOM      9  C   UNL A   1      39.509  31.462  31.583  1.00  0.00    -0.017 A 
ATOM     10  C   UNL A   1      40.931  31.471  33.744  1.00  0.00     0.065 C 
ATOM     11  C   UNL A   1      39.783  31.877  32.881  1.00  0.00     0.024 A 
ATOM     12  N   UNL A   1      38.754  32.721  33.305  1.00  0.00    -0.314 N 
ATOM     13  C   UNL A   1      38.246  31.985  31.246  1.00  0.00     0.033 A 
ATOM     14  C   UNL A   1      37.812  32.782  32.283  1.00  0.00     0.053 A 
BRANCH  12  15
ATOM     15  C   UNL A   1      38.675  33.404  34.555  1.00  0.00     0.046 A 
ATOM     16  C   UNL A   1      39.379  34.601  34.749  1.00  0.00     0.026 A 
ATOM     17  C   UNL A   1      37.934  32.854  35.608  1.00  0.00     0.026 A 
ATOM     18  C   UNL A   1      39.336  35.244  35.988  1.00  0.00     0.002 A 
ATOM     19  C   UNL A   1      37.909  33.495  36.849  1.00  0.00     0.002 A 
ATOM     20  C   UNL A   1      38.607  34.689  37.038  1.00  0.00     0.000 A 
ENDBRANCH  12  15
BRANCH  14  21
ATOM     21  C   UNL A   1      36.627  33.623  32.242  1.00  0.00    -0.001 A 
ATOM     22  C   UNL A   1      36.368  34.554  33.255  1.00  0.00     0.011 A 
ATOM     23  C   UNL A   1      35.785  33.530  31.127  1.00  0.00     0.011 A 
ATOM     24  C   UNL A   1      35.237  35.354  33.172  1.00  0.00     0.021 A 
ATOM     25  C   UNL A   1      34.657  34.324  31.037  1.00  0.00     0.021 A 
ATOM     26  C   UNL A   1      34.384  35.209  32.071  1.00  0.00     0.067 A 
BRANCH  26  27
ATOM     27  S   UNL A   1      32.824  36.033  32.072  1.00  0.00     0.175 S 
ATOM     28  C   UNL A   1      32.673  36.371  30.327  1.00  0.00     0.163 C 
ATOM     29  O   UNL A   1      31.869  35.050  32.542  1.00  0.00    -0.224 OA
ATOM     30  O   UNL A   1      32.996  37.295  32.758  1.00  0.00    -0.224 OA
ENDBRANCH  26  27
ENDBRANCH  14  21
ENDBRANCH   8   9
ENDBRANCH   5   8
ENDBRANCH   3   4
ENDBRANCH   2   3
ENDBRANCH   1   2
BRANCH   1  31
ATOM     31  C   UNL A   1      40.712  25.585  27.367  1.00  0.00     0.002 C 
BRANCH  31  32
ATOM     32  C   UNL A   1      40.480  24.232  26.669  1.00  0.00     0.021 C 
BRANCH  32  33
ATOM     33  C   UNL A   1      40.655  22.952  27.511  1.00  0.00     0.116 C 
BRANCH  33  34
ATOM     34  N   UNL A   1      41.379  21.904  26.833  1.00  0.00    -0.352 N 
ATOM     35  C   UNL A   1      42.740  21.675  26.795  1.00  0.00     0.251 C 
ATOM     36  H   UNL A   1      40.827  21.264  26.329  1.00  0.00     0.163 HD
ATOM     37  O   UNL A   1      43.135  20.689  26.179  1.00  0.00    -0.269 OA
BRANCH  35  38
ATOM     38  C   UNL A   1      43.736  22.629  27.387  1.00  0.00     0.039 A 
ATOM     39  C   UNL A   1      43.428  23.219  28.603  1.00  0.00     0.014 A 
ATOM     40  C   UNL A   1      44.809  23.173  26.654  1.00  0.00     0.014 A 
ATOM     41  C   UNL A   1      44.184  24.320  29.068  1.00  0.00     0.010 A 
ATOM     42  C   UNL A   1      45.530  24.342  27.099  1.00  0.00     0.010 A 
ATOM     43  C   UNL A   1      45.208  24.980  28.306  1.00  0.00    -0.014 A 
BRANCH  43  44
ATOM     44  C   UNL A   1      45.433  26.484  28.684  1.00  0.00     0.031 A 
ATOM     45  C   UNL A   1      46.763  26.490  29.345  1.00  0.00     0.074 A 
ATOM     46  C   UNL A   1      44.774  27.695  28.776  1.00  0.00     0.049 A 
ATOM     47  N   UNL A   1      46.999  25.662  30.328  1.00  0.00    -0.248 NA
ATOM     48  C   UNL A   1      47.947  27.139  28.791  1.00  0.00     0.031 C 
ATOM     49  C   UNL A   1      43.339  27.940  28.712  1.00  0.00     0.029 A 
ATOM     50  N   UNL A   1      45.231  29.024  28.929  1.00  0.00    -0.354 N 
ATOM     51  C   UNL A   1      48.251  25.979  30.770  1.00  0.00     0.074 A 
ATOM     52  C   UNL A   1      48.864  26.675  29.646  1.00  0.00     0.031 C 
ATOM     53  C   UNL A   1      43.047  29.260  28.550  1.00  0.00     0.029 A 
ATOM     54  C   UNL A   1      44.264  30.045  28.660  1.00  0.00     0.049 A 
ATOM     55  H   UNL A   1      46.153  29.234  29.203  1.00  0.00     0.167 HD
ATOM     56  C   UNL A   1      48.349  26.263  32.101  1.00  0.00     0.037 A 
ATOM     57  C   UNL A   1      44.366  31.422  28.698  1.00  0.00     0.037 A 
ATOM     58  C   UNL A   1      48.590  27.658  32.347  1.00  0.00     0.049 A 
ATOM     59  C   UNL A   1      45.282  31.665  29.819  1.00  0.00     0.074 A 
ATOM     60  C   UNL A   1      49.458  28.589  31.815  1.00  0.00     0.029 A 
ATOM     61  N   UNL A   1      47.571  28.366  32.950  1.00  0.00    -0.354 N 
ATOM     62  N   UNL A   1      44.918  31.482  31.052  1.00  0.00    -0.248 NA
ATOM     63  C   UNL A   1      46.621  32.202  29.622  1.00  0.00     0.031 C 
ATOM     64  C   UNL A   1      48.717  29.793  31.731  1.00  0.00     0.029 A 
ATOM     65  C   UNL A   1      47.528  29.644  32.434  1.00  0.00     0.049 A 
ATOM     66  H   UNL A   1      46.968  28.012  33.643  1.00  0.00     0.167 HD
ATOM     67  C   UNL A   1      46.096  31.419  31.724  1.00  0.00     0.074 A 
ATOM     68  C   UNL A   1      47.050  32.116  30.882  1.00  0.00     0.031 C 
ATOM     69  C   UNL A   1      46.282  30.369  32.561  1.00  0.00     0.037 A 
BRANCH  56  70
ATOM     70  C   UNL A   1      47.514  25.377  32.991  1.00  0.00     0.058 A 
ATOM     71  C   UNL A   1      48.150  24.442  33.814  1.00  0.00     0.135 A 
ATOM     72  C   UNL A   1      46.102  25.352  32.954  1.00  0.00     0.135 A 
ATOM     73  F   UNL A   1      49.489  24.432  33.911  1.00  0.00    -0.206 F 
ATOM     74  C   UNL A   1      47.425  23.498  34.539  1.00  0.00     0.059 A 
ATOM     75  C   UNL A   1      45.358  24.399  33.644  1.00  0.00     0.059 A 
ATOM     76  F   UNL A   1      45.429  26.262  32.230  1.00  0.00    -0.206 F 
ATOM     77  C   UNL A   1      46.031  23.468  34.431  1.00  0.00     0.060 A 
BRANCH  77  78
ATOM     78  S   UNL A   1      45.122  22.158  35.278  1.00  0.00     0.124 S 
ATOM     79  O   UNL A   1      45.302  22.503  36.686  1.00  0.00    -0.237 OA
ATOM     80  O   UNL A   1      43.771  22.349  34.760  1.00  0.00    -0.237 OA
ATOM     81  O   UNL A   1      45.803  20.937  34.856  1.00  0.00    -0.744 OA
ENDBRANCH  77  78
ENDBRANCH  56  70
BRANCH  57  82
ATOM     82  C   UNL A   1      43.674  32.717  28.255  1.00  0.00     0.058 A 
ATOM     83  C   UNL A   1      42.937  33.508  29.189  1.00  0.00     0.135 A 
ATOM     84  C   UNL A   1      44.063  33.417  27.100  1.00  0.00     0.135 A 
ATOM     85  F   UNL A   1      42.449  32.978  30.320  1.00  0.00    -0.206 F 
ATOM     86  C   UNL A   1      42.746  34.890  29.073  1.00  0.00     0.059 A 
ATOM     87  C   UNL A   1      43.851  34.811  26.945  1.00  0.00     0.059 A 
ATOM     88  F   UNL A   1      44.751  32.787  26.137  1.00  0.00    -0.206 F 
ATOM     89  C   UNL A   1      43.247  35.549  27.965  1.00  0.00     0.060 A 
BRANCH  89  90
ATOM     90  S   UNL A   1      43.219  37.366  27.973  1.00  0.00     0.124 S 
ATOM     91  O   UNL A   1      41.855  37.662  27.549  1.00  0.00    -0.237 OA
ATOM     92  O   UNL A   1      43.526  37.670  29.369  1.00  0.00    -0.237 OA
ATOM     93  O   UNL A   1      44.264  37.727  27.020  1.00  0.00    -0.744 OA
ENDBRANCH  89  90
ENDBRANCH  57  82
BRANCH  69  94
ATOM     94  C   UNL A   1      45.116  29.948  33.450  1.00  0.00     0.058 A 
ATOM     95  C   UNL A   1      44.823  30.380  34.766  1.00  0.00     0.135 A 
ATOM     96  C   UNL A   1      44.259  28.959  32.934  1.00  0.00     0.135 A 
ATOM     97  F   UNL A   1      45.462  31.409  35.341  1.00  0.00    -0.206 F 
ATOM     98  C   UNL A   1      43.829  29.779  35.547  1.00  0.00     0.059 A 
ATOM     99  C   UNL A   1      43.226  28.386  33.674  1.00  0.00     0.059 A 
ATOM    100  F   UNL A   1      44.426  28.520  31.675  1.00  0.00    -0.206 F 
ATOM    101  C   UNL A   1      43.050  28.764  35.000  1.00  0.00     0.060 A 
BRANCH 101 102
ATOM    102  S   UNL A   1      41.821  27.933  36.030  1.00  0.00     0.124 S 
ATOM    103  O   UNL A   1      42.634  27.472  37.152  1.00  0.00    -0.237 OA
ATOM    104  O   UNL A   1      40.878  29.001  36.337  1.00  0.00    -0.237 OA
ATOM    105  O   UNL A   1      41.313  26.874  35.162  1.00  0.00    -0.744 OA
ENDBRANCH 101 102
ENDBRANCH  69  94
ENDBRANCH  43  44
ENDBRANCH  35  38
ENDBRANCH  33  34
ENDBRANCH  32  33
ENDBRANCH  31  32
ENDBRANCH   1  31
TORSDOF 20
ENDMDL
MODEL 3
REMARK VINA RESULT:      -8.5      5.132     11.567
REMARK SMILES Cc1c(CC(=O)NCCCCCCNC(=O)c2ccc(-c3c4nc(c(-c5c(F)cc(S(=O)(=O)[O-])cc5F)c5ccc([nH]5)c(-c5c(F)cc(S(=O)(=O)[O-])cc5F)c5nc(c(-c6c(F)cc(S(=O)(=O)[O-])cc6F)c6ccc3[nH]6)C=C5)C=C4)cc2)cc(-c2ccc(S(C)(=O)=O)cc2)n1-c1ccccc1
REMARK SMILES IDX 10 1 9 2 8 3 7 4 5 5 6 6 4 8 3 9 1 10 2 11 95 12 83 13 84 14
REMARK SMILES IDX 96 15 97 16 101 17 98 18 100 19 99 20 85 21 86 22 94 23
REMARK SMILES IDX 87 24 93 25 88 26 89 27 90 28 91 29 92 30 11 31 12 32 13 33
REMARK SMILES IDX 14 34 15 35 16 37 17 38 18 39 82 40 19 41 81 42 20 43 21 44
REMARK SMILES IDX 22 45 75 46 23 47 80 48 74 49 76 50 24 51 79 52 73 53 72 54
REMARK SMILES IDX 25 56 59 57 38 58 58 59 39 60 42 61 57 62 77 63 40 64 41 65
REMARK SMILES IDX 56 67 78 68 43 69 26 70 27 71 36 72 28 73 29 74 35 75 37 76
REMARK SMILES IDX 30 77 31 78 32 79 33 80 34 81 60 82 61 83 70 84 62 85 63 86
REMARK SMILES IDX 69 87 71 88 64 89 65 90 66 91 67 92 68 93 44 94 45 95 54 96
REMARK SMILES IDX 46 97 47 98 53 99 55 100 48 101 49 102 50 103 51 104 52 105
REMARK H PARENT 7 7 14 36 76 55 42 66
REMARK Flexibility Score: inf
ROOT
ATOM      1  C   UNL A   1      37.807  30.727  30.468  1.00  0.00     0.002 C 
ENDROOT
BRANCH   1   2
ATOM      2  C   UNL A   1      37.975  29.603  29.437  1.00  0.00     0.021 C 
BRANCH   2   3
ATOM      3  C   UNL A   1      36.881  29.547  28.371  1.00  0.00     0.116 C 
BRANCH   3   4
ATOM      4  N   UNL A   1      36.535  30.871  27.884  1.00  0.00    -0.356 N 
ATOM      5  C   UNL A   1      35.302  31.448  27.748  1.00  0.00     0.224 C 
ATOM      6  O   UNL A   1      35.239  32.579  27.260  1.00  0.00    -0.275 OA
ATOM      7  H   UNL A   1      37.297  31.433  27.613  1.00  0.00     0.163 HD
BRANCH   5   8
ATOM      8  C   UNL A   1      34.056  30.743  28.257  1.00  0.00     0.137 C 
BRANCH   8   9
ATOM      9  C   UNL A   1      33.432  29.824  27.257  1.00  0.00    -0.017 A 
ATOM     10  C   UNL A   1      31.554  31.297  26.259  1.00  0.00     0.065 C 
ATOM     11  C   UNL A   1      32.395  30.069  26.365  1.00  0.00     0.024 A 
ATOM     12  N   UNL A   1      32.202  28.928  25.582  1.00  0.00    -0.314 N 
ATOM     13  C   UNL A   1      33.813  28.481  27.080  1.00  0.00     0.033 A 
ATOM     14  C   UNL A   1      33.089  27.956  26.033  1.00  0.00     0.053 A 
BRANCH  12  15
ATOM     15  C   UNL A   1      31.272  28.778  24.511  1.00  0.00     0.046 A 
ATOM     16  C   UNL A   1      30.201  27.881  24.629  1.00  0.00     0.026 A 
ATOM     17  C   UNL A   1      31.457  29.488  23.319  1.00  0.00     0.026 A 
ATOM     18  C   UNL A   1      29.318  27.702  23.562  1.00  0.00     0.002 A 
ATOM     19  C   UNL A   1      30.579  29.291  22.250  1.00  0.00     0.002 A 
ATOM     20  C   UNL A   1      29.510  28.402  22.373  1.00  0.00     0.000 A 
ENDBRANCH  12  15
BRANCH  14  21
ATOM     21  C   UNL A   1      33.315  26.646  25.444  1.00  0.00    -0.001 A 
ATOM     22  C   UNL A   1      32.949  25.477  26.123  1.00  0.00     0.011 A 
ATOM     23  C   UNL A   1      33.845  26.581  24.150  1.00  0.00     0.011 A 
ATOM     24  C   UNL A   1      33.162  24.245  25.522  1.00  0.00     0.021 A 
ATOM     25  C   UNL A   1      34.060  25.357  23.544  1.00  0.00     0.021 A 
ATOM     26  C   UNL A   1      33.737  24.204  24.246  1.00  0.00     0.067 A 
BRANCH  26  27
ATOM     27  S   UNL A   1      34.242  22.652  23.574  1.00  0.00     0.175 S 
ATOM     28  C   UNL A   1      32.743  22.205  22.717  1.00  0.00     0.163 C 
ATOM     29  O   UNL A   1      35.338  22.958  22.677  1.00  0.00    -0.224 OA
ATOM     30  O   UNL A   1      34.417  21.733  24.679  1.00  0.00    -0.224 OA
ENDBRANCH  26  27
ENDBRANCH  14  21
ENDBRANCH   8   9
ENDBRANCH   5   8
ENDBRANCH   3   4
ENDBRANCH   2   3
ENDBRANCH   1   2
BRANCH   1  31
ATOM     31  C   UNL A   1      36.856  30.437  31.637  1.00  0.00     0.002 C 
BRANCH  31  32
ATOM     32  C   UNL A   1      35.745  31.466  31.912  1.00  0.00     0.021 C 
BRANCH  32  33
ATOM     33  C   UNL A   1      35.559  32.610  30.895  1.00  0.00     0.116 C 
BRANCH  33  34
ATOM     34  N   UNL A   1      34.916  33.778  31.445  1.00  0.00    -0.352 N 
ATOM     35  C   UNL A   1      35.434  34.734  32.296  1.00  0.00     0.251 C 
ATOM     36  H   UNL A   1      33.978  33.913  31.175  1.00  0.00     0.163 HD
ATOM     37  O   UNL A   1      34.707  35.673  32.608  1.00  0.00    -0.269 OA
BRANCH  35  38
ATOM     38  C   UNL A   1      36.794  34.610  32.917  1.00  0.00     0.039 A 
ATOM     39  C   UNL A   1      37.891  34.545  32.071  1.00  0.00     0.014 A 
ATOM     40  C   UNL A   1      36.994  34.266  34.268  1.00  0.00     0.014 A 
ATOM     41  C   UNL A   1      39.153  34.152  32.576  1.00  0.00     0.010 A 
ATOM     42  C   UNL A   1      38.267  33.795  34.762  1.00  0.00     0.010 A 
ATOM     43  C   UNL A   1      39.379  33.682  33.916  1.00  0.00    -0.014 A 
BRANCH  43  44
ATOM     44  C   UNL A   1      40.604  32.718  34.068  1.00  0.00     0.031 A 
ATOM     45  C   UNL A   1      41.734  33.625  34.397  1.00  0.00     0.074 A 
ATOM     46  C   UNL A   1      41.004  31.417  33.829  1.00  0.00     0.049 A 
ATOM     47  N   UNL A   1      41.973  34.659  33.635  1.00  0.00    -0.248 NA
ATOM     48  C   UNL A   1      42.424  33.636  35.682  1.00  0.00     0.031 C 
ATOM     49  C   UNL A   1      40.323  30.404  33.032  1.00  0.00     0.029 A 
ATOM     50  N   UNL A   1      42.120  30.663  34.261  1.00  0.00    -0.354 N 
ATOM     51  C   UNL A   1      43.108  35.223  34.143  1.00  0.00     0.074 A 
ATOM     52  C   UNL A   1      43.171  34.733  35.513  1.00  0.00     0.031 C 
ATOM     53  C   UNL A   1      40.835  29.158  33.235  1.00  0.00     0.029 A 
ATOM     54  C   UNL A   1      42.023  29.248  34.066  1.00  0.00     0.049 A 
ATOM     55  H   UNL A   1      42.911  31.083  34.669  1.00  0.00     0.167 HD
ATOM     56  C   UNL A   1      44.128  35.391  33.252  1.00  0.00     0.037 A 
ATOM     57  C   UNL A   1      42.902  28.229  34.374  1.00  0.00     0.037 A 
ATOM     58  C   UNL A   1      45.220  34.488  33.493  1.00  0.00     0.049 A 
ATOM     59  C   UNL A   1      44.220  28.834  34.144  1.00  0.00     0.074 A 
ATOM     60  C   UNL A   1      45.915  34.105  34.621  1.00  0.00     0.029 A 
ATOM     61  N   UNL A   1      45.437  33.513  32.543  1.00  0.00    -0.354 N 
ATOM     62  N   UNL A   1      44.657  29.088  32.947  1.00  0.00    -0.248 NA
ATOM     63  C   UNL A   1      45.146  29.111  35.233  1.00  0.00     0.031 C 
ATOM     64  C   UNL A   1      46.160  32.720  34.462  1.00  0.00     0.029 A 
ATOM     65  C   UNL A   1      45.847  32.350  33.161  1.00  0.00     0.049 A 
ATOM     66  H   UNL A   1      45.319  33.629  31.573  1.00  0.00     0.167 HD
ATOM     67  C   UNL A   1      45.669  29.967  33.159  1.00  0.00     0.074 A 
ATOM     68  C   UNL A   1      46.089  29.738  34.529  1.00  0.00     0.031 C 
ATOM     69  C   UNL A   1      45.664  31.112  32.433  1.00  0.00     0.037 A 
BRANCH  56  70
ATOM     70  C   UNL A   1      43.692  35.849  31.883  1.00  0.00     0.058 A 
ATOM     71  C   UNL A   1      43.160  34.916  30.988  1.00  0.00     0.135 A 
ATOM     72  C   UNL A   1      43.903  37.160  31.402  1.00  0.00     0.135 A 
ATOM     73  F   UNL A   1      42.913  33.660  31.393  1.00  0.00    -0.206 F 
ATOM     74  C   UNL A   1      42.885  35.253  29.664  1.00  0.00     0.059 A 
ATOM     75  C   UNL A   1      43.666  37.512  30.076  1.00  0.00     0.059 A 
ATOM     76  F   UNL A   1      44.356  38.118  32.228  1.00  0.00    -0.206 F 
ATOM     77  C   UNL A   1      43.161  36.546  29.210  1.00  0.00     0.060 A 
BRANCH  77  78
ATOM     78  S   UNL A   1      42.916  36.924  27.460  1.00  0.00     0.124 S 
ATOM     79  O   UNL A   1      42.037  38.090  27.506  1.00  0.00    -0.237 OA
ATOM     80  O   UNL A   1      44.281  37.194  27.019  1.00  0.00    -0.237 OA
ATOM     81  O   UNL A   1      42.298  35.713  26.929  1.00  0.00    -0.744 OA
ENDBRANCH  77  78
ENDBRANCH  56  70
BRANCH  57  82
ATOM     82  C   UNL A   1      43.011  26.708  34.536  1.00  0.00     0.058 A 
ATOM     83  C   UNL A   1      43.595  25.903  33.509  1.00  0.00     0.135 A 
ATOM     84  C   UNL A   1      42.975  26.084  35.794  1.00  0.00     0.135 A 
ATOM     85  F   UNL A   1      43.660  26.331  32.240  1.00  0.00    -0.206 F 
ATOM     86  C   UNL A   1      44.228  24.675  33.735  1.00  0.00     0.059 A 
ATOM     87  C   UNL A   1      43.580  24.825  36.040  1.00  0.00     0.059 A 
ATOM     88  F   UNL A   1      42.441  26.726  36.843  1.00  0.00    -0.206 F 
ATOM     89  C   UNL A   1      44.258  24.159  35.017  1.00  0.00     0.060 A 
BRANCH  89  90
ATOM     90  S   UNL A   1      45.310  22.709  35.323  1.00  0.00     0.124 S 
ATOM     91  O   UNL A   1      46.534  23.049  34.605  1.00  0.00    -0.237 OA
ATOM     92  O   UNL A   1      45.413  22.708  36.781  1.00  0.00    -0.237 OA
ATOM     93  O   UNL A   1      44.540  21.604  34.760  1.00  0.00    -0.744 OA
ENDBRANCH  89  90
ENDBRANCH  57  82
BRANCH  69  94
ATOM     94  C   UNL A   1      45.317  31.016  30.950  1.00  0.00     0.058 A 
ATOM     95  C   UNL A   1      44.044  30.818  30.364  1.00  0.00     0.135 A 
ATOM     96  C   UNL A   1      46.397  31.060  30.049  1.00  0.00     0.135 A 
ATOM     97  F   UNL A   1      42.909  30.889  31.075  1.00  0.00    -0.206 F 
ATOM     98  C   UNL A   1      43.881  30.560  28.997  1.00  0.00     0.059 A 
ATOM     99  C   UNL A   1      46.251  30.863  28.677  1.00  0.00     0.059 A 
ATOM    100  F   UNL A   1      47.639  31.293  30.506  1.00  0.00    -0.206 F 
ATOM    101  C   UNL A   1      44.995  30.561  28.165  1.00  0.00     0.060 A 
BRANCH 101 102
ATOM    102  S   UNL A   1      44.799  30.150  26.417  1.00  0.00     0.124 S 
ATOM    103  O   UNL A   1      45.803  31.008  25.794  1.00  0.00    -0.237 OA
ATOM    104  O   UNL A   1      45.088  28.721  26.384  1.00  0.00    -0.237 OA
ATOM    105  O   UNL A   1      43.414  30.519  26.136  1.00  0.00    -0.744 OA
ENDBRANCH 101 102
ENDBRANCH  69  94
ENDBRANCH  43  44
ENDBRANCH  35  38
ENDBRANCH  33  34
ENDBRANCH  32  33
ENDBRANCH  31  32
ENDBRANCH   1  31
TORSDOF 20
ENDMDL
