MODEL 1
REMARK VINA RESULT:     -10.7      0.000      0.000
REMARK SMILES CCn1nccc1[C@H](F)C(=O)NCCCCCCNC(=O)c1ccc(-c2c3nc(c(-c4c(F)cc(S(=O)(=O)[O-])cc4F)c4ccc([nH]4)c(-c4c(F)cc(S(=O)(=O)[O-])cc4F)c4nc(c(-c5c(F)cc(S(=O)(=O)[O-])cc5F)c5ccc2[nH]5)C=C4)C=C3)cc1
REMARK SMILES IDX 16 1 15 2 14 3 13 4 12 5 10 6 11 7 8 9 9 10 7 11 3 12 4 13
REMARK SMILES IDX 5 14 6 15 2 16 1 17 17 18 18 19 19 20 20 21 21 23 22 24
REMARK SMILES IDX 23 25 87 26 24 27 86 28 25 29 26 30 27 31 80 32 28 33 85 34
REMARK SMILES IDX 79 35 81 36 29 37 84 38 78 39 77 40 30 42 64 43 43 44 63 45
REMARK SMILES IDX 44 46 47 47 62 48 82 49 45 50 46 51 61 53 83 54 48 55 31 56
REMARK SMILES IDX 32 57 41 58 33 59 34 60 40 61 42 62 35 63 36 64 37 65 38 66
REMARK SMILES IDX 39 67 65 68 66 69 75 70 67 71 68 72 74 73 76 74 69 75 70 76
REMARK SMILES IDX 71 77 72 78 73 79 49 80 50 81 59 82 51 83 52 84 58 85 60 86
REMARK SMILES IDX 53 87 54 88 55 89 56 90 57 91
REMARK H PARENT 12 8 19 22 81 41 47 52
REMARK Flexibility Score: inf
ROOT
ATOM      1  C   UNL A   1      40.344  21.381  26.937  1.00  0.00     0.002 C 
ENDROOT
BRANCH   1   2
ATOM      2  C   UNL A   1      39.431  22.147  25.968  1.00  0.00     0.002 C 
BRANCH   2   3
ATOM      3  C   UNL A   1      38.637  23.304  26.571  1.00  0.00     0.021 C 
BRANCH   3   4
ATOM      4  C   UNL A   1      37.361  23.664  25.824  1.00  0.00     0.116 C 
BRANCH   4   5
ATOM      5  N   UNL A   1      37.336  23.187  24.458  1.00  0.00    -0.353 N 
ATOM      6  C   UNL A   1      36.276  23.200  23.585  1.00  0.00     0.260 C 
ATOM      7  O   UNL A   1      36.495  22.894  22.407  1.00  0.00    -0.271 OA
ATOM      8  H   UNL A   1      38.178  22.810  24.114  1.00  0.00     0.163 HD
BRANCH   6   9
ATOM      9  C   UNL A   1      34.870  23.626  24.059  1.00  0.00     0.303 C 
ATOM     10  F   UNL A   1      34.586  24.909  23.697  1.00  0.00    -0.230 F 
BRANCH   9  11
ATOM     11  C   UNL A   1      33.840  22.646  23.576  1.00  0.00     0.082 A 
ATOM     12  N   UNL A   1      33.537  21.431  24.149  1.00  0.00    -0.266 N 
ATOM     13  N   UNL A   1      32.499  20.816  23.535  1.00  0.00    -0.181 NA
ATOM     14  C   UNL A   1      32.181  21.623  22.526  1.00  0.00     0.135 A 
ATOM     15  C   UNL A   1      32.988  22.765  22.490  1.00  0.00     0.049 A 
BRANCH  12  16
ATOM     16  C   UNL A   1      34.086  20.775  25.326  1.00  0.00     0.141 C 
ATOM     17  C   UNL A   1      35.327  19.956  25.030  1.00  0.00     0.029 C 
ENDBRANCH  12  16
ENDBRANCH   9  11
ENDBRANCH   6   9
ENDBRANCH   4   5
ENDBRANCH   3   4
ENDBRANCH   2   3
ENDBRANCH   1   2
BRANCH   1  18
ATOM     18  C   UNL A   1      40.942  20.064  26.421  1.00  0.00     0.021 C 
BRANCH  18  19
ATOM     19  C   UNL A   1      42.321  19.741  26.978  1.00  0.00     0.116 C 
BRANCH  19  20
ATOM     20  N   UNL A   1      43.301  19.488  25.924  1.00  0.00    -0.352 N 
ATOM     21  C   UNL A   1      43.929  20.411  25.115  1.00  0.00     0.251 C 
ATOM     22  H   UNL A   1      43.541  18.545  25.774  1.00  0.00     0.163 HD
ATOM     23  O   UNL A   1      44.438  20.069  24.050  1.00  0.00    -0.269 OA
BRANCH  21  24
ATOM     24  C   UNL A   1      43.972  21.815  25.549  1.00  0.00     0.039 A 
ATOM     25  C   UNL A   1      43.092  22.761  25.016  1.00  0.00     0.014 A 
ATOM     26  C   UNL A   1      44.883  22.164  26.544  1.00  0.00     0.014 A 
ATOM     27  C   UNL A   1      43.070  24.042  25.560  1.00  0.00     0.010 A 
ATOM     28  C   UNL A   1      44.782  23.391  27.155  1.00  0.00     0.010 A 
ATOM     29  C   UNL A   1      43.900  24.347  26.649  1.00  0.00    -0.014 A 
BRANCH  29  30
ATOM     30  C   UNL A   1      43.754  25.614  27.365  1.00  0.00     0.031 A 
ATOM     31  C   UNL A   1      44.773  26.655  27.039  1.00  0.00     0.074 A 
ATOM     32  C   UNL A   1      42.643  25.926  28.066  1.00  0.00     0.049 A 
ATOM     33  N   UNL A   1      45.625  27.208  27.838  1.00  0.00    -0.248 NA
ATOM     34  C   UNL A   1      44.940  27.055  25.632  1.00  0.00     0.031 C 
ATOM     35  C   UNL A   1      41.429  25.119  28.233  1.00  0.00     0.029 A 
ATOM     36  N   UNL A   1      42.307  27.100  28.668  1.00  0.00    -0.354 N 
ATOM     37  C   UNL A   1      46.285  28.181  27.090  1.00  0.00     0.074 A 
ATOM     38  C   UNL A   1      45.954  27.919  25.714  1.00  0.00     0.031 C 
ATOM     39  C   UNL A   1      40.422  25.906  28.665  1.00  0.00     0.029 A 
ATOM     40  C   UNL A   1      40.952  27.225  28.957  1.00  0.00     0.049 A 
ATOM     41  H   UNL A   1      42.966  27.799  28.881  1.00  0.00     0.167 HD
ATOM     42  C   UNL A   1      46.866  29.264  27.683  1.00  0.00     0.037 A 
ATOM     43  C   UNL A   1      40.302  28.341  29.372  1.00  0.00     0.037 A 
ATOM     44  C   UNL A   1      47.010  29.066  29.104  1.00  0.00     0.049 A 
ATOM     45  C   UNL A   1      41.323  29.243  29.963  1.00  0.00     0.074 A 
ATOM     46  C   UNL A   1      47.642  28.123  29.894  1.00  0.00     0.029 A 
ATOM     47  N   UNL A   1      46.127  29.713  29.934  1.00  0.00    -0.354 N 
ATOM     48  N   UNL A   1      41.977  28.974  31.059  1.00  0.00    -0.248 NA
ATOM     49  C   UNL A   1      41.945  30.236  29.100  1.00  0.00     0.031 C 
ATOM     50  C   UNL A   1      46.759  27.917  30.996  1.00  0.00     0.029 A 
ATOM     51  C   UNL A   1      45.683  28.793  30.851  1.00  0.00     0.049 A 
ATOM     52  H   UNL A   1      45.861  30.659  29.882  1.00  0.00     0.167 HD
ATOM     53  C   UNL A   1      43.274  29.399  30.810  1.00  0.00     0.074 A 
ATOM     54  C   UNL A   1      43.166  30.269  29.641  1.00  0.00     0.031 C 
ATOM     55  C   UNL A   1      44.344  28.779  31.394  1.00  0.00     0.037 A 
BRANCH  42  56
ATOM     56  C   UNL A   1      46.976  30.638  27.055  1.00  0.00     0.058 A 
ATOM     57  C   UNL A   1      48.218  31.310  27.072  1.00  0.00     0.135 A 
ATOM     58  C   UNL A   1      45.864  31.431  26.700  1.00  0.00     0.135 A 
ATOM     59  F   UNL A   1      49.345  30.657  27.399  1.00  0.00    -0.206 F 
ATOM     60  C   UNL A   1      48.331  32.682  26.838  1.00  0.00     0.059 A 
ATOM     61  C   UNL A   1      45.963  32.788  26.407  1.00  0.00     0.059 A 
ATOM     62  F   UNL A   1      44.613  30.958  26.717  1.00  0.00    -0.206 F 
ATOM     63  C   UNL A   1      47.191  33.416  26.524  1.00  0.00     0.060 A 
BRANCH  63  64
ATOM     64  S   UNL A   1      47.309  35.203  26.341  1.00  0.00     0.124 S 
ATOM     65  O   UNL A   1      48.250  35.319  25.232  1.00  0.00    -0.237 OA
ATOM     66  O   UNL A   1      45.927  35.571  26.050  1.00  0.00    -0.237 OA
ATOM     67  O   UNL A   1      47.808  35.640  27.642  1.00  0.00    -0.744 OA
ENDBRANCH  63  64
ENDBRANCH  42  56
BRANCH  43  68
ATOM     68  C   UNL A   1      38.920  28.783  29.041  1.00  0.00     0.058 A 
ATOM     69  C   UNL A   1      37.943  28.926  30.042  1.00  0.00     0.135 A 
ATOM     70  C   UNL A   1      38.606  29.344  27.786  1.00  0.00     0.135 A 
ATOM     71  F   UNL A   1      38.158  28.434  31.271  1.00  0.00    -0.206 F 
ATOM     72  C   UNL A   1      36.758  29.640  29.832  1.00  0.00     0.059 A 
ATOM     73  C   UNL A   1      37.426  30.046  27.548  1.00  0.00     0.059 A 
ATOM     74  F   UNL A   1      39.483  29.315  26.770  1.00  0.00    -0.206 F 
ATOM     75  C   UNL A   1      36.521  30.221  28.587  1.00  0.00     0.060 A 
BRANCH  75  76
ATOM     76  S   UNL A   1      35.107  31.328  28.372  1.00  0.00     0.124 S 
ATOM     77  O   UNL A   1      35.673  32.385  27.542  1.00  0.00    -0.237 OA
ATOM     78  O   UNL A   1      34.131  30.459  27.725  1.00  0.00    -0.237 OA
ATOM     79  O   UNL A   1      34.774  31.718  29.741  1.00  0.00    -0.744 OA
ENDBRANCH  75  76
ENDBRANCH  43  68
BRANCH  55  80
ATOM     80  C   UNL A   1      44.074  27.837  32.542  1.00  0.00     0.058 A 
ATOM     81  C   UNL A   1      43.934  26.443  32.416  1.00  0.00     0.135 A 
ATOM     82  C   UNL A   1      44.068  28.359  33.843  1.00  0.00     0.135 A 
ATOM     83  F   UNL A   1      44.050  25.840  31.226  1.00  0.00    -0.206 F 
ATOM     84  C   UNL A   1      43.723  25.617  33.522  1.00  0.00     0.059 A 
ATOM     85  C   UNL A   1      43.895  27.551  34.965  1.00  0.00     0.059 A 
ATOM     86  F   UNL A   1      44.270  29.672  34.044  1.00  0.00    -0.206 F 
ATOM     87  C   UNL A   1      43.697  26.182  34.794  1.00  0.00     0.060 A 
BRANCH  87  88
ATOM     88  S   UNL A   1      43.453  25.111  36.226  1.00  0.00     0.124 S 
ATOM     89  O   UNL A   1      43.490  23.783  35.624  1.00  0.00    -0.237 OA
ATOM     90  O   UNL A   1      44.588  25.453  37.078  1.00  0.00    -0.237 OA
ATOM     91  O   UNL A   1      42.151  25.525  36.743  1.00  0.00    -0.744 OA
ENDBRANCH  87  88
ENDBRANCH  55  80
ENDBRANCH  29  30
ENDBRANCH  21  24
ENDBRANCH  19  20
ENDBRANCH  18  19
ENDBRANCH   1  18
TORSDOF 18
ENDMDL
MODEL 2
REMARK VINA RESULT:     -10.1      3.141      5.617
REMARK SMILES CCn1nccc1[C@H](F)C(=O)NCCCCCCNC(=O)c1ccc(-c2c3nc(c(-c4c(F)cc(S(=O)(=O)[O-])cc4F)c4ccc([nH]4)c(-c4c(F)cc(S(=O)(=O)[O-])cc4F)c4nc(c(-c5c(F)cc(S(=O)(=O)[O-])cc5F)c5ccc2[nH]5)C=C4)C=C3)cc1
REMARK SMILES IDX 16 1 15 2 14 3 13 4 12 5 10 6 11 7 8 9 9 10 7 11 3 12 4 13
REMARK SMILES IDX 5 14 6 15 2 16 1 17 17 18 18 19 19 20 20 21 21 23 22 24
REMARK SMILES IDX 23 25 87 26 24 27 86 28 25 29 26 30 27 31 80 32 28 33 85 34
REMARK SMILES IDX 79 35 81 36 29 37 84 38 78 39 77 40 30 42 64 43 43 44 63 45
REMARK SMILES IDX 44 46 47 47 62 48 82 49 45 50 46 51 61 53 83 54 48 55 31 56
REMARK SMILES IDX 32 57 41 58 33 59 34 60 40 61 42 62 35 63 36 64 37 65 38 66
REMARK SMILES IDX 39 67 65 68 66 69 75 70 67 71 68 72 74 73 76 74 69 75 70 76
REMARK SMILES IDX 71 77 72 78 73 79 49 80 50 81 59 82 51 83 52 84 58 85 60 86
REMARK SMILES IDX 53 87 54 88 55 89 56 90 57 91
REMARK H PARENT 12 8 19 22 81 41 47 52
REMARK Flexibility Score: inf
ROOT
ATOM      1  C   UNL A   1      42.303  19.185  26.938  1.00  0.00     0.002 C 
ENDROOT
BRANCH   1   2
ATOM      2  C   UNL A   1      42.827  18.886  25.526  1.00  0.00     0.002 C 
BRANCH   2   3
ATOM      3  C   UNL A   1      44.346  18.806  25.379  1.00  0.00     0.021 C 
BRANCH   3   4
ATOM      4  C   UNL A   1      44.957  19.849  24.455  1.00  0.00     0.116 C 
BRANCH   4   5
ATOM      5  N   UNL A   1      44.152  21.044  24.318  1.00  0.00    -0.353 N 
ATOM      6  C   UNL A   1      44.505  22.332  24.636  1.00  0.00     0.260 C 
ATOM      7  O   UNL A   1      43.736  23.240  24.298  1.00  0.00    -0.271 OA
ATOM      8  H   UNL A   1      43.245  20.918  23.954  1.00  0.00     0.163 HD
BRANCH   6   9
ATOM      9  C   UNL A   1      45.840  22.630  25.352  1.00  0.00     0.303 C 
ATOM     10  F   UNL A   1      46.806  23.015  24.472  1.00  0.00    -0.230 F 
BRANCH   9  11
ATOM     11  C   UNL A   1      45.626  23.629  26.452  1.00  0.00     0.082 A 
ATOM     12  N   UNL A   1      45.850  24.986  26.378  1.00  0.00    -0.266 N 
ATOM     13  N   UNL A   1      45.476  25.634  27.506  1.00  0.00    -0.181 NA
ATOM     14  C   UNL A   1      45.066  24.668  28.326  1.00  0.00     0.135 A 
ATOM     15  C   UNL A   1      45.152  23.403  27.734  1.00  0.00     0.049 A 
BRANCH  12  16
ATOM     16  C   UNL A   1      46.326  25.809  25.276  1.00  0.00     0.141 C 
ATOM     17  C   UNL A   1      45.531  27.088  25.099  1.00  0.00     0.029 C 
ENDBRANCH  12  16
ENDBRANCH   9  11
ENDBRANCH   6   9
ENDBRANCH   4   5
ENDBRANCH   3   4
ENDBRANCH   2   3
ENDBRANCH   1   2
BRANCH   1  18
ATOM     18  C   UNL A   1      42.469  20.627  27.441  1.00  0.00     0.021 C 
BRANCH  18  19
ATOM     19  C   UNL A   1      41.177  21.278  27.914  1.00  0.00     0.116 C 
BRANCH  19  20
ATOM     20  N   UNL A   1      40.168  21.342  26.859  1.00  0.00    -0.352 N 
ATOM     21  C   UNL A   1      39.369  22.412  26.518  1.00  0.00     0.251 C 
ATOM     22  H   UNL A   1      40.045  20.523  26.328  1.00  0.00     0.163 HD
ATOM     23  O   UNL A   1      38.332  22.244  25.882  1.00  0.00    -0.269 OA
BRANCH  21  24
ATOM     24  C   UNL A   1      39.780  23.761  26.938  1.00  0.00     0.039 A 
ATOM     25  C   UNL A   1      38.885  24.834  26.889  1.00  0.00     0.014 A 
ATOM     26  C   UNL A   1      41.072  23.926  27.432  1.00  0.00     0.014 A 
ATOM     27  C   UNL A   1      39.270  26.057  27.431  1.00  0.00     0.010 A 
ATOM     28  C   UNL A   1      41.408  25.098  28.068  1.00  0.00     0.010 A 
ATOM     29  C   UNL A   1      40.525  26.178  28.044  1.00  0.00    -0.014 A 
BRANCH  29  30
ATOM     30  C   UNL A   1      40.874  27.384  28.794  1.00  0.00     0.031 A 
ATOM     31  C   UNL A   1      42.002  28.185  28.233  1.00  0.00     0.074 A 
ATOM     32  C   UNL A   1      40.081  27.888  29.765  1.00  0.00     0.049 A 
ATOM     33  N   UNL A   1      43.134  28.462  28.793  1.00  0.00    -0.248 NA
ATOM     34  C   UNL A   1      41.907  28.645  26.838  1.00  0.00     0.031 C 
ATOM     35  C   UNL A   1      38.789  27.372  30.228  1.00  0.00     0.029 A 
ATOM     36  N   UNL A   1      40.201  29.056  30.454  1.00  0.00    -0.354 N 
ATOM     37  C   UNL A   1      43.804  29.313  27.916  1.00  0.00     0.074 A 
ATOM     38  C   UNL A   1      43.088  29.243  26.669  1.00  0.00     0.031 C 
ATOM     39  C   UNL A   1      38.143  28.333  30.920  1.00  0.00     0.029 A 
ATOM     40  C   UNL A   1      39.033  29.467  31.087  1.00  0.00     0.049 A 
ATOM     41  H   UNL A   1      41.042  29.566  30.500  1.00  0.00     0.167 HD
ATOM     42  C   UNL A   1      44.759  30.183  28.356  1.00  0.00     0.037 A 
ATOM     43  C   UNL A   1      38.796  30.666  31.675  1.00  0.00     0.037 A 
ATOM     44  C   UNL A   1      45.198  29.845  29.687  1.00  0.00     0.049 A 
ATOM     45  C   UNL A   1      40.120  31.259  31.996  1.00  0.00     0.074 A 
ATOM     46  C   UNL A   1      45.757  28.723  30.270  1.00  0.00     0.029 A 
ATOM     47  N   UNL A   1      44.733  30.611  30.729  1.00  0.00    -0.354 N 
ATOM     48  N   UNL A   1      40.940  30.761  32.880  1.00  0.00    -0.248 NA
ATOM     49  C   UNL A   1      40.731  32.147  31.018  1.00  0.00     0.031 C 
ATOM     50  C   UNL A   1      45.152  28.639  31.560  1.00  0.00     0.029 A 
ATOM     51  C   UNL A   1      44.320  29.748  31.714  1.00  0.00     0.049 A 
ATOM     52  H   UNL A   1      44.700  31.594  30.764  1.00  0.00     0.167 HD
ATOM     53  C   UNL A   1      42.197  30.894  32.310  1.00  0.00     0.074 A 
ATOM     54  C   UNL A   1      42.018  31.855  31.224  1.00  0.00     0.031 C 
ATOM     55  C   UNL A   1      43.195  30.000  32.586  1.00  0.00     0.037 A 
BRANCH  42  56
ATOM     56  C   UNL A   1      45.040  31.539  27.744  1.00  0.00     0.058 A 
ATOM     57  C   UNL A   1      46.295  31.782  27.142  1.00  0.00     0.135 A 
ATOM     58  C   UNL A   1      44.249  32.685  27.976  1.00  0.00     0.135 A 
ATOM     59  F   UNL A   1      47.134  30.766  26.878  1.00  0.00    -0.206 F 
ATOM     60  C   UNL A   1      46.760  33.069  26.872  1.00  0.00     0.059 A 
ATOM     61  C   UNL A   1      44.671  33.973  27.661  1.00  0.00     0.059 A 
ATOM     62  F   UNL A   1      43.072  32.626  28.610  1.00  0.00    -0.206 F 
ATOM     63  C   UNL A   1      45.945  34.161  27.154  1.00  0.00     0.060 A 
BRANCH  63  64
ATOM     64  S   UNL A   1      46.584  35.829  26.923  1.00  0.00     0.124 S 
ATOM     65  O   UNL A   1      45.356  36.579  26.682  1.00  0.00    -0.237 OA
ATOM     66  O   UNL A   1      47.249  36.080  28.197  1.00  0.00    -0.237 OA
ATOM     67  O   UNL A   1      47.475  35.690  25.774  1.00  0.00    -0.744 OA
ENDBRANCH  63  64
ENDBRANCH  42  56
BRANCH  43  68
ATOM     68  C   UNL A   1      37.526  31.439  31.721  1.00  0.00     0.058 A 
ATOM     69  C   UNL A   1      36.862  31.675  32.938  1.00  0.00     0.135 A 
ATOM     70  C   UNL A   1      37.086  32.202  30.619  1.00  0.00     0.135 A 
ATOM     71  F   UNL A   1      37.220  31.005  34.044  1.00  0.00    -0.206 F 
ATOM     72  C   UNL A   1      35.871  32.654  33.072  1.00  0.00     0.059 A 
ATOM     73  C   UNL A   1      36.090  33.171  30.723  1.00  0.00     0.059 A 
ATOM     74  F   UNL A   1      37.680  32.101  29.420  1.00  0.00    -0.206 F 
ATOM     75  C   UNL A   1      35.510  33.417  31.961  1.00  0.00     0.060 A 
BRANCH  75  76
ATOM     76  S   UNL A   1      34.397  34.827  32.170  1.00  0.00     0.124 S 
ATOM     77  O   UNL A   1      33.288  34.230  32.905  1.00  0.00    -0.237 OA
ATOM     78  O   UNL A   1      35.227  35.767  32.915  1.00  0.00    -0.237 OA
ATOM     79  O   UNL A   1      34.096  35.224  30.796  1.00  0.00    -0.744 OA
ENDBRANCH  75  76
ENDBRANCH  43  68
BRANCH  55  80
ATOM     80  C   UNL A   1      42.997  29.059  33.748  1.00  0.00     0.058 A 
ATOM     81  C   UNL A   1      43.235  29.389  35.095  1.00  0.00     0.135 A 
ATOM     82  C   UNL A   1      42.434  27.800  33.495  1.00  0.00     0.135 A 
ATOM     83  F   UNL A   1      43.654  30.612  35.444  1.00  0.00    -0.206 F 
ATOM     84  C   UNL A   1      42.996  28.486  36.132  1.00  0.00     0.059 A 
ATOM     85  C   UNL A   1      42.154  26.894  34.517  1.00  0.00     0.059 A 
ATOM     86  F   UNL A   1      42.112  27.445  32.239  1.00  0.00    -0.206 F 
ATOM     87  C   UNL A   1      42.463  27.235  35.832  1.00  0.00     0.060 A 
BRANCH  87  88
ATOM     88  S   UNL A   1      42.127  26.078  37.176  1.00  0.00     0.124 S 
ATOM     89  O   UNL A   1      42.421  24.792  36.553  1.00  0.00    -0.237 OA
ATOM     90  O   UNL A   1      43.063  26.509  38.210  1.00  0.00    -0.237 OA
ATOM     91  O   UNL A   1      40.719  26.314  37.486  1.00  0.00    -0.744 OA
ENDBRANCH  87  88
ENDBRANCH  55  80
ENDBRANCH  29  30
ENDBRANCH  21  24
ENDBRANCH  19  20
ENDBRANCH  18  19
ENDBRANCH   1  18
TORSDOF 18
ENDMDL
MODEL 3
REMARK VINA RESULT:      -9.9      2.639      9.219
REMARK SMILES CCn1nccc1[C@H](F)C(=O)NCCCCCCNC(=O)c1ccc(-c2c3nc(c(-c4c(F)cc(S(=O)(=O)[O-])cc4F)c4ccc([nH]4)c(-c4c(F)cc(S(=O)(=O)[O-])cc4F)c4nc(c(-c5c(F)cc(S(=O)(=O)[O-])cc5F)c5ccc2[nH]5)C=C4)C=C3)cc1
REMARK SMILES IDX 16 1 15 2 14 3 13 4 12 5 10 6 11 7 8 9 9 10 7 11 3 12 4 13
REMARK SMILES IDX 5 14 6 15 2 16 1 17 17 18 18 19 19 20 20 21 21 23 22 24
REMARK SMILES IDX 23 25 87 26 24 27 86 28 25 29 26 30 27 31 80 32 28 33 85 34
REMARK SMILES IDX 79 35 81 36 29 37 84 38 78 39 77 40 30 42 64 43 43 44 63 45
REMARK SMILES IDX 44 46 47 47 62 48 82 49 45 50 46 51 61 53 83 54 48 55 31 56
REMARK SMILES IDX 32 57 41 58 33 59 34 60 40 61 42 62 35 63 36 64 37 65 38 66
REMARK SMILES IDX 39 67 65 68 66 69 75 70 67 71 68 72 74 73 76 74 69 75 70 76
REMARK SMILES IDX 71 77 72 78 73 79 49 80 50 81 59 82 51 83 52 84 58 85 60 86
REMARK SMILES IDX 53 87 54 88 55 89 56 90 57 91
REMARK H PARENT 12 8 19 22 81 41 47 52
REMARK Flexibility Score: inf
ROOT
ATOM      1  C   UNL A   1      33.686  28.192  24.140  1.00  0.00     0.002 C 
ENDROOT
BRANCH   1   2
ATOM      2  C   UNL A   1      33.665  26.674  23.910  1.00  0.00     0.002 C 
BRANCH   2   3
ATOM      3  C   UNL A   1      33.390  25.814  25.142  1.00  0.00     0.021 C 
BRANCH   3   4
ATOM      4  C   UNL A   1      34.323  24.624  25.314  1.00  0.00     0.116 C 
BRANCH   4   5
ATOM      5  N   UNL A   1      35.126  24.343  24.144  1.00  0.00    -0.353 N 
ATOM      6  C   UNL A   1      35.798  23.183  23.847  1.00  0.00     0.260 C 
ATOM      7  O   UNL A   1      36.299  23.079  22.722  1.00  0.00    -0.271 OA
ATOM      8  H   UNL A   1      35.197  25.069  23.481  1.00  0.00     0.163 HD
BRANCH   6   9
ATOM      9  C   UNL A   1      35.884  22.037  24.878  1.00  0.00     0.303 C 
ATOM     10  F   UNL A   1      35.284  20.903  24.417  1.00  0.00    -0.230 F 
BRANCH   9  11
ATOM     11  C   UNL A   1      37.310  21.813  25.288  1.00  0.00     0.082 A 
ATOM     12  N   UNL A   1      38.114  22.703  25.966  1.00  0.00    -0.266 N 
ATOM     13  N   UNL A   1      39.323  22.176  26.272  1.00  0.00    -0.181 NA
ATOM     14  C   UNL A   1      39.305  20.961  25.729  1.00  0.00     0.135 A 
ATOM     15  C   UNL A   1      38.091  20.686  25.091  1.00  0.00     0.049 A 
BRANCH  12  16
ATOM     16  C   UNL A   1      37.836  24.042  26.463  1.00  0.00     0.141 C 
ATOM     17  C   UNL A   1      39.072  24.758  26.972  1.00  0.00     0.029 C 
ENDBRANCH  12  16
ENDBRANCH   9  11
ENDBRANCH   6   9
ENDBRANCH   4   5
ENDBRANCH   3   4
ENDBRANCH   2   3
ENDBRANCH   1   2
BRANCH   1  18
ATOM     18  C   UNL A   1      33.200  28.686  25.510  1.00  0.00     0.021 C 
BRANCH  18  19
ATOM     19  C   UNL A   1      34.308  29.181  26.427  1.00  0.00     0.116 C 
BRANCH  19  20
ATOM     20  N   UNL A   1      34.131  30.581  26.808  1.00  0.00    -0.352 N 
ATOM     21  C   UNL A   1      34.757  31.265  27.828  1.00  0.00     0.251 C 
ATOM     22  H   UNL A   1      33.487  31.097  26.271  1.00  0.00     0.163 HD
ATOM     23  O   UNL A   1      34.275  32.302  28.277  1.00  0.00    -0.269 OA
BRANCH  21  24
ATOM     24  C   UNL A   1      36.013  30.726  28.371  1.00  0.00     0.039 A 
ATOM     25  C   UNL A   1      36.298  29.359  28.303  1.00  0.00     0.014 A 
ATOM     26  C   UNL A   1      36.931  31.625  28.910  1.00  0.00     0.014 A 
ATOM     27  C   UNL A   1      37.557  28.914  28.696  1.00  0.00     0.010 A 
ATOM     28  C   UNL A   1      38.209  31.201  29.190  1.00  0.00     0.010 A 
ATOM     29  C   UNL A   1      38.521  29.843  29.115  1.00  0.00    -0.014 A 
BRANCH  29  30
ATOM     30  C   UNL A   1      39.906  29.430  29.340  1.00  0.00     0.031 A 
ATOM     31  C   UNL A   1      40.297  29.251  30.770  1.00  0.00     0.074 A 
ATOM     32  C   UNL A   1      40.700  28.985  28.342  1.00  0.00     0.049 A 
ATOM     33  N   UNL A   1      41.210  29.888  31.427  1.00  0.00    -0.248 NA
ATOM     34  C   UNL A   1      39.508  28.329  31.601  1.00  0.00     0.031 C 
ATOM     35  C   UNL A   1      40.358  28.824  26.925  1.00  0.00     0.029 A 
ATOM     36  N   UNL A   1      41.949  28.449  28.412  1.00  0.00    -0.354 N 
ATOM     37  C   UNL A   1      41.264  29.298  32.689  1.00  0.00     0.074 A 
ATOM     38  C   UNL A   1      40.085  28.479  32.796  1.00  0.00     0.031 C 
ATOM     39  C   UNL A   1      41.262  28.016  26.334  1.00  0.00     0.029 A 
ATOM     40  C   UNL A   1      42.327  27.736  27.279  1.00  0.00     0.049 A 
ATOM     41  H   UNL A   1      42.535  28.556  29.195  1.00  0.00     0.167 HD
ATOM     42  C   UNL A   1      42.392  29.352  33.454  1.00  0.00     0.037 A 
ATOM     43  C   UNL A   1      43.416  26.940  27.135  1.00  0.00     0.037 A 
ATOM     44  C   UNL A   1      43.308  30.351  32.962  1.00  0.00     0.049 A 
ATOM     45  C   UNL A   1      44.397  27.359  28.169  1.00  0.00     0.074 A 
ATOM     46  C   UNL A   1      43.230  31.713  32.737  1.00  0.00     0.029 A 
ATOM     47  N   UNL A   1      44.408  29.922  32.260  1.00  0.00    -0.354 N 
ATOM     48  N   UNL A   1      44.995  28.519  28.171  1.00  0.00    -0.248 NA
ATOM     49  C   UNL A   1      44.381  26.671  29.452  1.00  0.00     0.031 C 
ATOM     50  C   UNL A   1      43.965  31.929  31.533  1.00  0.00     0.029 A 
ATOM     51  C   UNL A   1      44.503  30.704  31.136  1.00  0.00     0.049 A 
ATOM     52  H   UNL A   1      45.015  29.190  32.514  1.00  0.00     0.167 HD
ATOM     53  C   UNL A   1      45.017  28.903  29.504  1.00  0.00     0.074 A 
ATOM     54  C   UNL A   1      44.733  27.680  30.252  1.00  0.00     0.031 C 
ATOM     55  C   UNL A   1      44.976  30.223  29.858  1.00  0.00     0.037 A 
BRANCH  42  56
ATOM     56  C   UNL A   1      42.833  28.273  34.421  1.00  0.00     0.058 A 
ATOM     57  C   UNL A   1      43.073  28.609  35.772  1.00  0.00     0.135 A 
ATOM     58  C   UNL A   1      43.302  27.003  34.020  1.00  0.00     0.135 A 
ATOM     59  F   UNL A   1      42.675  29.793  36.264  1.00  0.00    -0.206 F 
ATOM     60  C   UNL A   1      43.798  27.782  36.632  1.00  0.00     0.059 A 
ATOM     61  C   UNL A   1      43.977  26.140  34.877  1.00  0.00     0.059 A 
ATOM     62  F   UNL A   1      43.221  26.577  32.755  1.00  0.00    -0.206 F 
ATOM     63  C   UNL A   1      44.262  26.555  36.167  1.00  0.00     0.060 A 
BRANCH  63  64
ATOM     64  S   UNL A   1      45.300  25.538  37.231  1.00  0.00     0.124 S 
ATOM     65  O   UNL A   1      46.078  26.554  37.932  1.00  0.00    -0.237 OA
ATOM     66  O   UNL A   1      44.310  24.824  38.030  1.00  0.00    -0.237 OA
ATOM     67  O   UNL A   1      46.045  24.715  36.283  1.00  0.00    -0.744 OA
ENDBRANCH  63  64
ENDBRANCH  42  56
BRANCH  43  68
ATOM     68  C   UNL A   1      43.545  25.680  26.355  1.00  0.00     0.058 A 
ATOM     69  C   UNL A   1      44.515  25.546  25.346  1.00  0.00     0.135 A 
ATOM     70  C   UNL A   1      42.916  24.488  26.770  1.00  0.00     0.135 A 
ATOM     71  F   UNL A   1      45.176  26.623  24.896  1.00  0.00    -0.206 F 
ATOM     72  C   UNL A   1      44.887  24.300  24.827  1.00  0.00     0.059 A 
ATOM     73  C   UNL A   1      43.257  23.238  26.258  1.00  0.00     0.059 A 
ATOM     74  F   UNL A   1      42.012  24.486  27.762  1.00  0.00    -0.206 F 
ATOM     75  C   UNL A   1      44.269  23.147  25.311  1.00  0.00     0.060 A 
BRANCH  75  76
ATOM     76  S   UNL A   1      44.893  21.524  24.814  1.00  0.00     0.124 S 
ATOM     77  O   UNL A   1      44.559  21.493  23.395  1.00  0.00    -0.237 OA
ATOM     78  O   UNL A   1      46.312  21.627  25.135  1.00  0.00    -0.237 OA
ATOM     79  O   UNL A   1      44.136  20.600  25.655  1.00  0.00    -0.744 OA
ENDBRANCH  75  76
ENDBRANCH  43  68
BRANCH  55  80
ATOM     80  C   UNL A   1      45.218  31.251  28.780  1.00  0.00     0.058 A 
ATOM     81  C   UNL A   1      44.219  31.783  27.943  1.00  0.00     0.135 A 
ATOM     82  C   UNL A   1      46.501  31.805  28.664  1.00  0.00     0.135 A 
ATOM     83  F   UNL A   1      42.940  31.406  28.066  1.00  0.00    -0.206 F 
ATOM     84  C   UNL A   1      44.497  32.762  26.988  1.00  0.00     0.059 A 
ATOM     85  C   UNL A   1      46.795  32.808  27.743  1.00  0.00     0.059 A 
ATOM     86  F   UNL A   1      47.487  31.397  29.482  1.00  0.00    -0.206 F 
ATOM     87  C   UNL A   1      45.792  33.263  26.889  1.00  0.00     0.060 A 
BRANCH  87  88
ATOM     88  S   UNL A   1      46.146  34.550  25.673  1.00  0.00     0.124 S 
ATOM     89  O   UNL A   1      45.227  34.210  24.593  1.00  0.00    -0.237 OA
ATOM     90  O   UNL A   1      45.839  35.775  26.406  1.00  0.00    -0.237 OA
ATOM     91  O   UNL A   1      47.562  34.354  25.373  1.00  0.00    -0.744 OA
ENDBRANCH  87  88
ENDBRANCH  55  80
ENDBRANCH  29  30
ENDBRANCH  21  24
ENDBRANCH  19  20
ENDBRANCH  18  19
ENDBRANCH   1  18
TORSDOF 18
ENDMDL
