MODEL 1
REMARK VINA RESULT:     -11.5      0.000      0.000
REMARK SMILES Cc1cc(C)c2c(C(=O)NCCCCCCNC(=O)c3ccc(-c4c5nc(c(-c6c(F)cc(S(=O)(=O)[O-])cc6F)c6ccc([nH]6)c(-c6c(F)cc(S(=O)(=O)[O-])cc6F)c6nc(c(-c7c(F)cc(S(=O)(=O)[O-])cc7F)c7ccc4[nH]7)C=C6)C=C5)cc3)cc(-c3ccco3)nc2c1
REMARK SMILES IDX 14 1 13 2 12 3 11 4 10 5 8 6 9 7 7 9 1 10 2 11 3 12 95 13
REMARK SMILES IDX 4 14 94 15 5 16 6 17 93 18 87 19 86 20 88 21 89 22 92 23
REMARK SMILES IDX 90 24 91 25 15 26 16 27 17 28 18 29 19 31 20 32 21 33 85 34
REMARK SMILES IDX 22 35 84 36 23 37 24 38 25 39 78 40 26 41 83 42 77 43 79 44
REMARK SMILES IDX 27 45 82 46 76 47 75 48 28 50 62 51 41 52 61 53 42 54 45 55
REMARK SMILES IDX 60 56 80 57 43 58 44 59 59 61 81 62 46 63 29 64 30 65 39 66
REMARK SMILES IDX 31 67 32 68 38 69 40 70 33 71 34 72 35 73 36 74 37 75 63 76
REMARK SMILES IDX 64 77 73 78 65 79 66 80 72 81 74 82 67 83 68 84 69 85 70 86
REMARK SMILES IDX 71 87 47 88 48 89 57 90 49 91 50 92 56 93 58 94 51 95 52 96
REMARK SMILES IDX 53 97 54 98 55 99
REMARK H PARENT 10 8 17 30 79 49 45 60
REMARK Flexibility Score: inf
ROOT
ATOM      1  C   UNL A   1      32.736  27.352  24.612  1.00  0.00     0.002 C 
ENDROOT
BRANCH   1   2
ATOM      2  C   UNL A   1      32.964  26.783  23.208  1.00  0.00     0.002 C 
BRANCH   2   3
ATOM      3  C   UNL A   1      33.833  25.524  23.073  1.00  0.00     0.021 C 
BRANCH   3   4
ATOM      4  C   UNL A   1      33.147  24.269  22.542  1.00  0.00     0.116 C 
BRANCH   4   5
ATOM      5  N   UNL A   1      31.951  23.873  23.266  1.00  0.00    -0.352 N 
ATOM      6  C   UNL A   1      31.781  22.938  24.265  1.00  0.00     0.252 C 
ATOM      7  O   UNL A   1      30.657  22.799  24.750  1.00  0.00    -0.269 OA
ATOM      8  H   UNL A   1      31.131  24.347  23.000  1.00  0.00     0.163 HD
BRANCH   6   9
ATOM      9  C   UNL A   1      32.869  22.016  24.702  1.00  0.00     0.051 A 
ATOM     10  C   UNL A   1      38.211  23.559  25.911  1.00  0.00     0.044 C 
ATOM     11  C   UNL A   1      36.777  23.127  25.839  1.00  0.00    -0.049 A 
ATOM     12  C   UNL A   1      35.747  23.998  26.176  1.00  0.00     0.007 A 
ATOM     13  C   UNL A   1      36.442  21.838  25.417  1.00  0.00     0.032 A 
ATOM     14  C   UNL A   1      34.408  23.632  25.967  1.00  0.00    -0.041 A 
ATOM     15  C   UNL A   1      35.129  21.450  25.195  1.00  0.00     0.072 A 
ATOM     16  C   UNL A   1      33.357  24.482  26.643  1.00  0.00     0.045 C 
ATOM     17  C   UNL A   1      34.101  22.410  25.292  1.00  0.00     0.016 A 
ATOM     18  N   UNL A   1      34.908  20.162  24.890  1.00  0.00    -0.244 NA
ATOM     19  C   UNL A   1      33.652  19.769  24.606  1.00  0.00     0.107 A 
ATOM     20  C   UNL A   1      32.628  20.668  24.409  1.00  0.00     0.046 A 
BRANCH  19  21
ATOM     21  C   UNL A   1      33.434  18.334  24.551  1.00  0.00     0.152 A 
ATOM     22  C   UNL A   1      32.612  17.444  25.212  1.00  0.00     0.052 A 
ATOM     23  O   UNL A   1      34.273  17.646  23.716  1.00  0.00    -0.463 OA
ATOM     24  C   UNL A   1      32.963  16.149  24.751  1.00  0.00     0.043 A 
ATOM     25  C   UNL A   1      33.984  16.326  23.847  1.00  0.00     0.196 A 
ENDBRANCH  19  21
ENDBRANCH   6   9
ENDBRANCH   4   5
ENDBRANCH   3   4
ENDBRANCH   2   3
ENDBRANCH   1   2
BRANCH   1  26
ATOM     26  C   UNL A   1      33.931  27.995  25.317  1.00  0.00     0.021 C 
BRANCH  26  27
ATOM     27  C   UNL A   1      33.833  28.130  26.832  1.00  0.00     0.116 C 
BRANCH  27  28
ATOM     28  N   UNL A   1      33.582  29.491  27.272  1.00  0.00    -0.352 N 
ATOM     29  C   UNL A   1      34.420  30.361  27.930  1.00  0.00     0.251 C 
ATOM     30  H   UNL A   1      32.685  29.841  27.069  1.00  0.00     0.163 HD
ATOM     31  O   UNL A   1      34.001  31.446  28.313  1.00  0.00    -0.269 OA
BRANCH  29  32
ATOM     32  C   UNL A   1      35.822  29.969  28.201  1.00  0.00     0.039 A 
ATOM     33  C   UNL A   1      36.760  30.075  27.170  1.00  0.00     0.014 A 
ATOM     34  C   UNL A   1      36.207  29.495  29.459  1.00  0.00     0.014 A 
ATOM     35  C   UNL A   1      38.098  29.759  27.416  1.00  0.00     0.010 A 
ATOM     36  C   UNL A   1      37.551  29.230  29.717  1.00  0.00     0.010 A 
ATOM     37  C   UNL A   1      38.505  29.353  28.696  1.00  0.00    -0.014 A 
BRANCH  37  38
ATOM     38  C   UNL A   1      39.921  29.006  28.972  1.00  0.00     0.031 A 
ATOM     39  C   UNL A   1      40.831  30.032  29.589  1.00  0.00     0.074 A 
ATOM     40  C   UNL A   1      40.396  27.792  28.636  1.00  0.00     0.049 A 
ATOM     41  N   UNL A   1      42.102  29.941  29.877  1.00  0.00    -0.248 NA
ATOM     42  C   UNL A   1      40.232  31.337  29.909  1.00  0.00     0.031 C 
ATOM     43  C   UNL A   1      39.614  26.723  28.012  1.00  0.00     0.029 A 
ATOM     44  N   UNL A   1      41.651  27.253  28.769  1.00  0.00    -0.354 N 
ATOM     45  C   UNL A   1      42.456  31.172  30.415  1.00  0.00     0.074 A 
ATOM     46  C   UNL A   1      41.280  32.012  30.358  1.00  0.00     0.031 C 
ATOM     47  C   UNL A   1      40.405  25.650  27.831  1.00  0.00     0.029 A 
ATOM     48  C   UNL A   1      41.752  25.964  28.301  1.00  0.00     0.049 A 
ATOM     49  H   UNL A   1      42.409  27.743  29.162  1.00  0.00     0.167 HD
ATOM     50  C   UNL A   1      43.646  31.558  30.935  1.00  0.00     0.037 A 
ATOM     51  C   UNL A   1      42.811  25.131  28.255  1.00  0.00     0.037 A 
ATOM     52  C   UNL A   1      44.809  30.714  30.996  1.00  0.00     0.049 A 
ATOM     53  C   UNL A   1      44.135  25.595  28.802  1.00  0.00     0.074 A 
ATOM     54  C   UNL A   1      46.050  30.998  31.537  1.00  0.00     0.029 A 
ATOM     55  N   UNL A   1      44.877  29.422  30.497  1.00  0.00    -0.354 N 
ATOM     56  N   UNL A   1      44.441  26.747  29.351  1.00  0.00    -0.248 NA
ATOM     57  C   UNL A   1      45.257  24.649  28.725  1.00  0.00     0.031 C 
ATOM     58  C   UNL A   1      46.881  29.894  31.327  1.00  0.00     0.029 A 
ATOM     59  C   UNL A   1      46.146  28.904  30.695  1.00  0.00     0.049 A 
ATOM     60  H   UNL A   1      44.133  28.944  30.065  1.00  0.00     0.167 HD
ATOM     61  C   UNL A   1      45.783  26.656  29.704  1.00  0.00     0.074 A 
ATOM     62  C   UNL A   1      46.227  25.333  29.316  1.00  0.00     0.031 C 
ATOM     63  C   UNL A   1      46.573  27.584  30.298  1.00  0.00     0.037 A 
BRANCH  50  64
ATOM     64  C   UNL A   1      43.738  32.953  31.486  1.00  0.00     0.058 A 
ATOM     65  C   UNL A   1      44.225  34.017  30.710  1.00  0.00     0.135 A 
ATOM     66  C   UNL A   1      43.314  33.238  32.795  1.00  0.00     0.135 A 
ATOM     67  F   UNL A   1      44.659  33.797  29.459  1.00  0.00    -0.206 F 
ATOM     68  C   UNL A   1      44.318  35.307  31.220  1.00  0.00     0.059 A 
ATOM     69  C   UNL A   1      43.374  34.527  33.317  1.00  0.00     0.059 A 
ATOM     70  F   UNL A   1      42.843  32.257  33.581  1.00  0.00    -0.206 F 
ATOM     71  C   UNL A   1      43.890  35.552  32.526  1.00  0.00     0.060 A 
BRANCH  71  72
ATOM     72  S   UNL A   1      44.022  37.232  33.172  1.00  0.00     0.124 S 
ATOM     73  O   UNL A   1      45.365  37.220  33.742  1.00  0.00    -0.237 OA
ATOM     74  O   UNL A   1      43.851  38.041  31.970  1.00  0.00    -0.237 OA
ATOM     75  O   UNL A   1      42.931  37.312  34.139  1.00  0.00    -0.744 OA
ENDBRANCH  71  72
ENDBRANCH  50  64
BRANCH  51  76
ATOM     76  C   UNL A   1      42.648  23.762  27.701  1.00  0.00     0.058 A 
ATOM     77  C   UNL A   1      42.484  22.658  28.551  1.00  0.00     0.135 A 
ATOM     78  C   UNL A   1      42.615  23.532  26.316  1.00  0.00     0.135 A 
ATOM     79  F   UNL A   1      42.519  22.826  29.881  1.00  0.00    -0.206 F 
ATOM     80  C   UNL A   1      42.290  21.376  28.050  1.00  0.00     0.059 A 
ATOM     81  C   UNL A   1      42.402  22.261  25.791  1.00  0.00     0.059 A 
ATOM     82  F   UNL A   1      42.756  24.557  25.461  1.00  0.00    -0.206 F 
ATOM     83  C   UNL A   1      42.242  21.188  26.667  1.00  0.00     0.060 A 
BRANCH  83  84
ATOM     84  S   UNL A   1      41.911  19.529  26.032  1.00  0.00     0.124 S 
ATOM     85  O   UNL A   1      42.808  19.469  24.884  1.00  0.00    -0.237 OA
ATOM     86  O   UNL A   1      42.272  18.691  27.172  1.00  0.00    -0.237 OA
ATOM     87  O   UNL A   1      40.485  19.568  25.719  1.00  0.00    -0.744 OA
ENDBRANCH  83  84
ENDBRANCH  51  76
BRANCH  63  88
ATOM     88  C   UNL A   1      48.002  27.208  30.575  1.00  0.00     0.058 A 
ATOM     89  C   UNL A   1      49.018  27.451  29.638  1.00  0.00     0.135 A 
ATOM     90  C   UNL A   1      48.371  26.674  31.820  1.00  0.00     0.135 A 
ATOM     91  F   UNL A   1      48.717  27.954  28.430  1.00  0.00    -0.206 F 
ATOM     92  C   UNL A   1      50.350  27.169  29.922  1.00  0.00     0.059 A 
ATOM     93  C   UNL A   1      49.700  26.409  32.136  1.00  0.00     0.059 A 
ATOM     94  F   UNL A   1      47.439  26.433  32.755  1.00  0.00    -0.206 F 
ATOM     95  C   UNL A   1      50.682  26.654  31.177  1.00  0.00     0.060 A 
BRANCH  95  96
ATOM     96  S   UNL A   1      52.421  26.344  31.549  1.00  0.00     0.124 S 
ATOM     97  O   UNL A   1      52.723  27.431  32.475  1.00  0.00    -0.237 OA
ATOM     98  O   UNL A   1      52.380  25.007  32.133  1.00  0.00    -0.237 OA
ATOM     99  O   UNL A   1      53.069  26.432  30.244  1.00  0.00    -0.744 OA
ENDBRANCH  95  96
ENDBRANCH  63  88
ENDBRANCH  37  38
ENDBRANCH  29  32
ENDBRANCH  27  28
ENDBRANCH  26  27
ENDBRANCH   1  26
TORSDOF 17
ENDMDL
MODEL 2
REMARK VINA RESULT:     -11.4      4.801     10.616
REMARK SMILES Cc1cc(C)c2c(C(=O)NCCCCCCNC(=O)c3ccc(-c4c5nc(c(-c6c(F)cc(S(=O)(=O)[O-])cc6F)c6ccc([nH]6)c(-c6c(F)cc(S(=O)(=O)[O-])cc6F)c6nc(c(-c7c(F)cc(S(=O)(=O)[O-])cc7F)c7ccc4[nH]7)C=C6)C=C5)cc3)cc(-c3ccco3)nc2c1
REMARK SMILES IDX 14 1 13 2 12 3 11 4 10 5 8 6 9 7 7 9 1 10 2 11 3 12 95 13
REMARK SMILES IDX 4 14 94 15 5 16 6 17 93 18 87 19 86 20 88 21 89 22 92 23
REMARK SMILES IDX 90 24 91 25 15 26 16 27 17 28 18 29 19 31 20 32 21 33 85 34
REMARK SMILES IDX 22 35 84 36 23 37 24 38 25 39 78 40 26 41 83 42 77 43 79 44
REMARK SMILES IDX 27 45 82 46 76 47 75 48 28 50 62 51 41 52 61 53 42 54 45 55
REMARK SMILES IDX 60 56 80 57 43 58 44 59 59 61 81 62 46 63 29 64 30 65 39 66
REMARK SMILES IDX 31 67 32 68 38 69 40 70 33 71 34 72 35 73 36 74 37 75 63 76
REMARK SMILES IDX 64 77 73 78 65 79 66 80 72 81 74 82 67 83 68 84 69 85 70 86
REMARK SMILES IDX 71 87 47 88 48 89 57 90 49 91 50 92 56 93 58 94 51 95 52 96
REMARK SMILES IDX 53 97 54 98 55 99
REMARK H PARENT 10 8 17 30 79 49 45 60
REMARK Flexibility Score: inf
ROOT
ATOM      1  C   UNL A   1      36.931  24.119  26.289  1.00  0.00     0.002 C 
ENDROOT
BRANCH   1   2
ATOM      2  C   UNL A   1      35.677  23.897  25.438  1.00  0.00     0.002 C 
BRANCH   2   3
ATOM      3  C   UNL A   1      34.309  23.997  26.127  1.00  0.00     0.021 C 
BRANCH   3   4
ATOM      4  C   UNL A   1      33.094  24.178  25.222  1.00  0.00     0.116 C 
BRANCH   4   5
ATOM      5  N   UNL A   1      33.399  24.617  23.871  1.00  0.00    -0.352 N 
ATOM      6  C   UNL A   1      33.325  25.871  23.301  1.00  0.00     0.252 C 
ATOM      7  O   UNL A   1      33.667  26.000  22.126  1.00  0.00    -0.269 OA
ATOM      8  H   UNL A   1      33.706  23.905  23.265  1.00  0.00     0.163 HD
BRANCH   6   9
ATOM      9  C   UNL A   1      32.744  27.047  24.012  1.00  0.00     0.051 A 
ATOM     10  C   UNL A   1      27.969  29.766  22.533  1.00  0.00     0.044 C 
ATOM     11  C   UNL A   1      29.092  28.956  23.110  1.00  0.00    -0.049 A 
ATOM     12  C   UNL A   1      29.146  27.578  22.935  1.00  0.00     0.007 A 
ATOM     13  C   UNL A   1      30.119  29.573  23.828  1.00  0.00     0.032 A 
ATOM     14  C   UNL A   1      30.272  26.851  23.353  1.00  0.00    -0.041 A 
ATOM     15  C   UNL A   1      31.247  28.884  24.248  1.00  0.00     0.072 A 
ATOM     16  C   UNL A   1      30.125  25.349  23.422  1.00  0.00     0.045 C 
ATOM     17  C   UNL A   1      31.421  27.542  23.850  1.00  0.00     0.016 A 
ATOM     18  N   UNL A   1      32.125  29.544  25.018  1.00  0.00    -0.244 NA
ATOM     19  C   UNL A   1      33.260  28.921  25.387  1.00  0.00     0.107 A 
ATOM     20  C   UNL A   1      33.652  27.722  24.837  1.00  0.00     0.046 A 
BRANCH  19  21
ATOM     21  C   UNL A   1      34.033  29.578  26.427  1.00  0.00     0.152 A 
ATOM     22  C   UNL A   1      35.121  29.231  27.202  1.00  0.00     0.052 A 
ATOM     23  O   UNL A   1      33.564  30.802  26.820  1.00  0.00    -0.463 OA
ATOM     24  C   UNL A   1      35.330  30.302  28.110  1.00  0.00     0.043 A 
ATOM     25  C   UNL A   1      34.352  31.229  27.841  1.00  0.00     0.196 A 
ENDBRANCH  19  21
ENDBRANCH   6   9
ENDBRANCH   4   5
ENDBRANCH   3   4
ENDBRANCH   2   3
ENDBRANCH   1   2
BRANCH   1  26
ATOM     26  C   UNL A   1      38.154  23.253  25.985  1.00  0.00     0.021 C 
BRANCH  26  27
ATOM     27  C   UNL A   1      39.374  23.464  26.874  1.00  0.00     0.116 C 
BRANCH  27  28
ATOM     28  N   UNL A   1      40.591  23.726  26.127  1.00  0.00    -0.352 N 
ATOM     29  C   UNL A   1      41.482  24.766  26.253  1.00  0.00     0.251 C 
ATOM     30  H   UNL A   1      40.810  23.064  25.432  1.00  0.00     0.163 HD
ATOM     31  O   UNL A   1      42.410  24.880  25.463  1.00  0.00    -0.269 OA
BRANCH  29  32
ATOM     32  C   UNL A   1      41.297  25.766  27.330  1.00  0.00     0.039 A 
ATOM     33  C   UNL A   1      40.286  25.560  28.271  1.00  0.00     0.014 A 
ATOM     34  C   UNL A   1      42.111  26.901  27.407  1.00  0.00     0.014 A 
ATOM     35  C   UNL A   1      40.125  26.463  29.325  1.00  0.00     0.010 A 
ATOM     36  C   UNL A   1      41.984  27.773  28.486  1.00  0.00     0.010 A 
ATOM     37  C   UNL A   1      40.985  27.565  29.450  1.00  0.00    -0.014 A 
BRANCH  37  38
ATOM     38  C   UNL A   1      40.823  28.538  30.558  1.00  0.00     0.031 A 
ATOM     39  C   UNL A   1      41.708  28.438  31.769  1.00  0.00     0.074 A 
ATOM     40  C   UNL A   1      39.863  29.480  30.493  1.00  0.00     0.049 A 
ATOM     41  N   UNL A   1      41.705  29.166  32.855  1.00  0.00    -0.248 NA
ATOM     42  C   UNL A   1      42.719  27.369  31.762  1.00  0.00     0.031 C 
ATOM     43  C   UNL A   1      38.930  29.660  29.380  1.00  0.00     0.029 A 
ATOM     44  N   UNL A   1      39.510  30.461  31.385  1.00  0.00    -0.354 N 
ATOM     45  C   UNL A   1      42.713  28.647  33.658  1.00  0.00     0.074 A 
ATOM     46  C   UNL A   1      43.266  27.507  32.961  1.00  0.00     0.031 C 
ATOM     47  C   UNL A   1      38.121  30.700  29.648  1.00  0.00     0.029 A 
ATOM     48  C   UNL A   1      38.460  31.243  30.962  1.00  0.00     0.049 A 
ATOM     49  H   UNL A   1      39.965  30.594  32.248  1.00  0.00     0.167 HD
ATOM     50  C   UNL A   1      43.156  29.096  34.857  1.00  0.00     0.037 A 
ATOM     51  C   UNL A   1      37.842  32.277  31.565  1.00  0.00     0.037 A 
ATOM     52  C   UNL A   1      42.607  30.236  35.542  1.00  0.00     0.049 A 
ATOM     53  C   UNL A   1      38.325  32.735  32.916  1.00  0.00     0.074 A 
ATOM     54  C   UNL A   1      43.010  30.795  36.741  1.00  0.00     0.029 A 
ATOM     55  N   UNL A   1      41.535  30.991  35.089  1.00  0.00    -0.354 N 
ATOM     56  N   UNL A   1      39.311  32.263  33.641  1.00  0.00    -0.248 NA
ATOM     57  C   UNL A   1      37.614  33.866  33.529  1.00  0.00     0.031 C 
ATOM     58  C   UNL A   1      42.154  31.860  37.036  1.00  0.00     0.029 A 
ATOM     59  C   UNL A   1      41.246  31.995  35.998  1.00  0.00     0.049 A 
ATOM     60  H   UNL A   1      41.050  30.835  34.247  1.00  0.00     0.167 HD
ATOM     61  C   UNL A   1      39.353  33.052  34.786  1.00  0.00     0.074 A 
ATOM     62  C   UNL A   1      38.299  34.037  34.652  1.00  0.00     0.031 C 
ATOM     63  C   UNL A   1      40.189  32.967  35.850  1.00  0.00     0.037 A 
BRANCH  50  64
ATOM     64  C   UNL A   1      44.297  28.355  35.494  1.00  0.00     0.058 A 
ATOM     65  C   UNL A   1      45.633  28.675  35.201  1.00  0.00     0.135 A 
ATOM     66  C   UNL A   1      44.058  27.330  36.424  1.00  0.00     0.135 A 
ATOM     67  F   UNL A   1      45.917  29.633  34.306  1.00  0.00    -0.206 F 
ATOM     68  C   UNL A   1      46.691  27.985  35.782  1.00  0.00     0.059 A 
ATOM     69  C   UNL A   1      45.102  26.645  37.039  1.00  0.00     0.059 A 
ATOM     70  F   UNL A   1      42.800  26.983  36.739  1.00  0.00    -0.206 F 
ATOM     71  C   UNL A   1      46.415  26.971  36.701  1.00  0.00     0.060 A 
BRANCH  71  72
ATOM     72  S   UNL A   1      47.800  26.085  37.445  1.00  0.00     0.124 S 
ATOM     73  O   UNL A   1      48.676  27.187  37.831  1.00  0.00    -0.237 OA
ATOM     74  O   UNL A   1      47.159  25.371  38.544  1.00  0.00    -0.237 OA
ATOM     75  O   UNL A   1      48.291  25.245  36.357  1.00  0.00    -0.744 OA
ENDBRANCH  71  72
ENDBRANCH  50  64
BRANCH  51  76
ATOM     76  C   UNL A   1      36.722  32.969  30.876  1.00  0.00     0.058 A 
ATOM     77  C   UNL A   1      35.399  32.801  31.310  1.00  0.00     0.135 A 
ATOM     78  C   UNL A   1      36.952  33.838  29.798  1.00  0.00     0.135 A 
ATOM     79  F   UNL A   1      35.128  31.973  32.330  1.00  0.00    -0.206 F 
ATOM     80  C   UNL A   1      34.343  33.472  30.703  1.00  0.00     0.059 A 
ATOM     81  C   UNL A   1      35.913  34.536  29.187  1.00  0.00     0.059 A 
ATOM     82  F   UNL A   1      38.201  34.041  29.352  1.00  0.00    -0.206 F 
ATOM     83  C   UNL A   1      34.611  34.345  29.647  1.00  0.00     0.060 A 
BRANCH  83  84
ATOM     84  S   UNL A   1      33.239  35.268  28.920  1.00  0.00     0.124 S 
ATOM     85  O   UNL A   1      32.481  35.651  30.105  1.00  0.00    -0.237 OA
ATOM     86  O   UNL A   1      33.934  36.349  28.228  1.00  0.00    -0.237 OA
ATOM     87  O   UNL A   1      32.598  34.286  28.049  1.00  0.00    -0.744 OA
ENDBRANCH  83  84
ENDBRANCH  51  76
BRANCH  63  88
ATOM     88  C   UNL A   1      40.012  33.968  36.958  1.00  0.00     0.058 A 
ATOM     89  C   UNL A   1      40.678  35.203  36.942  1.00  0.00     0.135 A 
ATOM     90  C   UNL A   1      39.106  33.723  38.003  1.00  0.00     0.135 A 
ATOM     91  F   UNL A   1      41.559  35.483  35.969  1.00  0.00    -0.206 F 
ATOM     92  C   UNL A   1      40.459  36.158  37.929  1.00  0.00     0.059 A 
ATOM     93  C   UNL A   1      38.852  34.674  38.986  1.00  0.00     0.059 A 
ATOM     94  F   UNL A   1      38.436  32.562  38.059  1.00  0.00    -0.206 F 
ATOM     95  C   UNL A   1      39.539  35.887  38.944  1.00  0.00     0.060 A 
BRANCH  95  96
ATOM     96  S   UNL A   1      39.227  37.158  40.187  1.00  0.00     0.124 S 
ATOM     97  O   UNL A   1      38.479  36.410  41.192  1.00  0.00    -0.237 OA
ATOM     98  O   UNL A   1      40.578  37.557  40.570  1.00  0.00    -0.237 OA
ATOM     99  O   UNL A   1      38.464  38.167  39.459  1.00  0.00    -0.744 OA
ENDBRANCH  95  96
ENDBRANCH  63  88
ENDBRANCH  37  38
ENDBRANCH  29  32
ENDBRANCH  27  28
ENDBRANCH  26  27
ENDBRANCH   1  26
TORSDOF 17
ENDMDL
MODEL 3
REMARK VINA RESULT:     -11.4      3.214      9.662
REMARK SMILES Cc1cc(C)c2c(C(=O)NCCCCCCNC(=O)c3ccc(-c4c5nc(c(-c6c(F)cc(S(=O)(=O)[O-])cc6F)c6ccc([nH]6)c(-c6c(F)cc(S(=O)(=O)[O-])cc6F)c6nc(c(-c7c(F)cc(S(=O)(=O)[O-])cc7F)c7ccc4[nH]7)C=C6)C=C5)cc3)cc(-c3ccco3)nc2c1
REMARK SMILES IDX 14 1 13 2 12 3 11 4 10 5 8 6 9 7 7 9 1 10 2 11 3 12 95 13
REMARK SMILES IDX 4 14 94 15 5 16 6 17 93 18 87 19 86 20 88 21 89 22 92 23
REMARK SMILES IDX 90 24 91 25 15 26 16 27 17 28 18 29 19 31 20 32 21 33 85 34
REMARK SMILES IDX 22 35 84 36 23 37 24 38 25 39 78 40 26 41 83 42 77 43 79 44
REMARK SMILES IDX 27 45 82 46 76 47 75 48 28 50 62 51 41 52 61 53 42 54 45 55
REMARK SMILES IDX 60 56 80 57 43 58 44 59 59 61 81 62 46 63 29 64 30 65 39 66
REMARK SMILES IDX 31 67 32 68 38 69 40 70 33 71 34 72 35 73 36 74 37 75 63 76
REMARK SMILES IDX 64 77 73 78 65 79 66 80 72 81 74 82 67 83 68 84 69 85 70 86
REMARK SMILES IDX 71 87 47 88 48 89 57 90 49 91 50 92 56 93 58 94 51 95 52 96
REMARK SMILES IDX 53 97 54 98 55 99
REMARK H PARENT 10 8 17 30 79 49 45 60
REMARK Flexibility Score: inf
ROOT
ATOM      1  C   UNL A   1      35.079  23.589  23.487  1.00  0.00     0.002 C 
ENDROOT
BRANCH   1   2
ATOM      2  C   UNL A   1      34.045  24.618  23.020  1.00  0.00     0.002 C 
BRANCH   2   3
ATOM      3  C   UNL A   1      32.622  24.126  22.719  1.00  0.00     0.021 C 
BRANCH   3   4
ATOM      4  C   UNL A   1      31.483  25.102  22.997  1.00  0.00     0.116 C 
BRANCH   4   5
ATOM      5  N   UNL A   1      30.947  25.047  24.346  1.00  0.00    -0.352 N 
ATOM      6  C   UNL A   1      30.596  26.063  25.210  1.00  0.00     0.252 C 
ATOM      7  O   UNL A   1      30.129  25.761  26.309  1.00  0.00    -0.269 OA
ATOM      8  H   UNL A   1      30.813  24.138  24.700  1.00  0.00     0.163 HD
BRANCH   6   9
ATOM      9  C   UNL A   1      30.860  27.501  24.914  1.00  0.00     0.051 A 
ATOM     10  C   UNL A   1      34.193  30.941  27.986  1.00  0.00     0.044 C 
ATOM     11  C   UNL A   1      33.500  30.037  27.011  1.00  0.00    -0.049 A 
ATOM     12  C   UNL A   1      33.875  28.705  26.875  1.00  0.00     0.007 A 
ATOM     13  C   UNL A   1      32.450  30.513  26.221  1.00  0.00     0.032 A 
ATOM     14  C   UNL A   1      33.127  27.834  26.067  1.00  0.00    -0.041 A 
ATOM     15  C   UNL A   1      31.689  29.675  25.418  1.00  0.00     0.072 A 
ATOM     16  C   UNL A   1      33.768  26.509  25.721  1.00  0.00     0.045 C 
ATOM     17  C   UNL A   1      31.906  28.283  25.476  1.00  0.00     0.016 A 
ATOM     18  N   UNL A   1      30.771  30.246  24.623  1.00  0.00    -0.244 NA
ATOM     19  C   UNL A   1      29.975  29.455  23.881  1.00  0.00     0.107 A 
ATOM     20  C   UNL A   1      29.919  28.092  24.062  1.00  0.00     0.046 A 
BRANCH  19  21
ATOM     21  C   UNL A   1      29.198  30.125  22.852  1.00  0.00     0.152 A 
ATOM     22  C   UNL A   1      28.576  29.731  21.684  1.00  0.00     0.052 A 
ATOM     23  O   UNL A   1      29.094  31.483  22.988  1.00  0.00    -0.463 OA
ATOM     24  C   UNL A   1      28.062  30.908  21.082  1.00  0.00     0.043 A 
ATOM     25  C   UNL A   1      28.411  31.947  21.911  1.00  0.00     0.196 A 
ENDBRANCH  19  21
ENDBRANCH   6   9
ENDBRANCH   4   5
ENDBRANCH   3   4
ENDBRANCH   2   3
ENDBRANCH   1   2
BRANCH   1  26
ATOM     26  C   UNL A   1      35.301  23.442  24.993  1.00  0.00     0.021 C 
BRANCH  26  27
ATOM     27  C   UNL A   1      36.605  24.006  25.546  1.00  0.00     0.116 C 
BRANCH  27  28
ATOM     28  N   UNL A   1      37.681  23.032  25.583  1.00  0.00    -0.352 N 
ATOM     29  C   UNL A   1      38.936  23.144  26.134  1.00  0.00     0.251 C 
ATOM     30  H   UNL A   1      37.483  22.168  25.155  1.00  0.00     0.163 HD
ATOM     31  O   UNL A   1      39.756  22.247  25.983  1.00  0.00    -0.269 OA
BRANCH  29  32
ATOM     32  C   UNL A   1      39.304  24.368  26.883  1.00  0.00     0.039 A 
ATOM     33  C   UNL A   1      38.942  24.465  28.230  1.00  0.00     0.014 A 
ATOM     34  C   UNL A   1      39.995  25.412  26.262  1.00  0.00     0.014 A 
ATOM     35  C   UNL A   1      39.322  25.586  28.971  1.00  0.00     0.010 A 
ATOM     36  C   UNL A   1      40.418  26.506  27.014  1.00  0.00     0.010 A 
ATOM     37  C   UNL A   1      40.079  26.606  28.372  1.00  0.00    -0.014 A 
BRANCH  37  38
ATOM     38  C   UNL A   1      40.484  27.807  29.143  1.00  0.00     0.031 A 
ATOM     39  C   UNL A   1      41.832  27.844  29.807  1.00  0.00     0.074 A 
ATOM     40  C   UNL A   1      39.632  28.842  29.275  1.00  0.00     0.049 A 
ATOM     41  N   UNL A   1      42.360  28.781  30.550  1.00  0.00    -0.248 NA
ATOM     42  C   UNL A   1      42.691  26.664  29.623  1.00  0.00     0.031 C 
ATOM     43  C   UNL A   1      38.290  28.910  28.695  1.00  0.00     0.029 A 
ATOM     44  N   UNL A   1      39.768  30.033  29.944  1.00  0.00    -0.354 N 
ATOM     45  C   UNL A   1      43.613  28.307  30.919  1.00  0.00     0.074 A 
ATOM     46  C   UNL A   1      43.742  26.976  30.368  1.00  0.00     0.031 C 
ATOM     47  C   UNL A   1      37.732  30.089  29.020  1.00  0.00     0.029 A 
ATOM     48  C   UNL A   1      38.664  30.848  29.852  1.00  0.00     0.049 A 
ATOM     49  H   UNL A   1      40.578  30.280  30.444  1.00  0.00     0.167 HD
ATOM     50  C   UNL A   1      44.580  28.935  31.630  1.00  0.00     0.037 A 
ATOM     51  C   UNL A   1      38.430  32.066  30.379  1.00  0.00     0.037 A 
ATOM     52  C   UNL A   1      44.449  30.263  32.168  1.00  0.00     0.049 A 
ATOM     53  C   UNL A   1      39.504  32.729  31.199  1.00  0.00     0.074 A 
ATOM     54  C   UNL A   1      45.384  31.002  32.870  1.00  0.00     0.029 A 
ATOM     55  N   UNL A   1      43.311  31.049  32.068  1.00  0.00    -0.354 N 
ATOM     56  N   UNL A   1      40.703  32.287  31.499  1.00  0.00    -0.248 NA
ATOM     57  C   UNL A   1      39.197  34.056  31.752  1.00  0.00     0.031 C 
ATOM     58  C   UNL A   1      44.796  32.218  33.231  1.00  0.00     0.029 A 
ATOM     59  C   UNL A   1      43.511  32.256  32.716  1.00  0.00     0.049 A 
ATOM     60  H   UNL A   1      42.482  30.787  31.605  1.00  0.00     0.167 HD
ATOM     61  C   UNL A   1      41.299  33.289  32.257  1.00  0.00     0.074 A 
ATOM     62  C   UNL A   1      40.334  34.364  32.361  1.00  0.00     0.031 C 
ATOM     63  C   UNL A   1      42.536  33.315  32.814  1.00  0.00     0.037 A 
BRANCH  50  64
ATOM     64  C   UNL A   1      45.867  28.191  31.853  1.00  0.00     0.058 A 
ATOM     65  C   UNL A   1      46.941  28.298  30.954  1.00  0.00     0.135 A 
ATOM     66  C   UNL A   1      46.040  27.382  32.988  1.00  0.00     0.135 A 
ATOM     67  F   UNL A   1      46.821  29.044  29.846  1.00  0.00    -0.206 F 
ATOM     68  C   UNL A   1      48.129  27.605  31.155  1.00  0.00     0.059 A 
ATOM     69  C   UNL A   1      47.231  26.700  33.223  1.00  0.00     0.059 A 
ATOM     70  F   UNL A   1      45.045  27.243  33.878  1.00  0.00    -0.206 F 
ATOM     71  C   UNL A   1      48.265  26.807  32.293  1.00  0.00     0.060 A 
BRANCH  71  72
ATOM     72  S   UNL A   1      49.813  25.914  32.535  1.00  0.00     0.124 S 
ATOM     73  O   UNL A   1      50.167  25.567  31.162  1.00  0.00    -0.237 OA
ATOM     74  O   UNL A   1      50.657  26.920  33.171  1.00  0.00    -0.237 OA
ATOM     75  O   UNL A   1      49.430  24.792  33.386  1.00  0.00    -0.744 OA
ENDBRANCH  71  72
ENDBRANCH  50  64
BRANCH  51  76
ATOM     76  C   UNL A   1      37.137  32.748  30.113  1.00  0.00     0.058 A 
ATOM     77  C   UNL A   1      36.080  32.666  31.033  1.00  0.00     0.135 A 
ATOM     78  C   UNL A   1      36.941  33.522  28.959  1.00  0.00     0.135 A 
ATOM     79  F   UNL A   1      36.216  31.928  32.145  1.00  0.00    -0.206 F 
ATOM     80  C   UNL A   1      34.877  33.330  30.821  1.00  0.00     0.059 A 
ATOM     81  C   UNL A   1      35.754  34.213  28.735  1.00  0.00     0.059 A 
ATOM     82  F   UNL A   1      37.925  33.642  28.054  1.00  0.00    -0.206 F 
ATOM     83  C   UNL A   1      34.726  34.109  29.672  1.00  0.00     0.060 A 
BRANCH  83  84
ATOM     84  S   UNL A   1      33.187  35.028  29.448  1.00  0.00     0.124 S 
ATOM     85  O   UNL A   1      32.527  34.249  28.407  1.00  0.00    -0.237 OA
ATOM     86  O   UNL A   1      32.592  34.952  30.779  1.00  0.00    -0.237 OA
ATOM     87  O   UNL A   1      33.645  36.357  29.050  1.00  0.00    -0.744 OA
ENDBRANCH  83  84
ENDBRANCH  51  76
BRANCH  63  88
ATOM     88  C   UNL A   1      42.928  34.546  33.583  1.00  0.00     0.058 A 
ATOM     89  C   UNL A   1      42.851  34.589  34.983  1.00  0.00     0.135 A 
ATOM     90  C   UNL A   1      43.460  35.663  32.919  1.00  0.00     0.135 A 
ATOM     91  F   UNL A   1      42.343  33.550  35.665  1.00  0.00    -0.206 F 
ATOM     92  C   UNL A   1      43.281  35.701  35.700  1.00  0.00     0.059 A 
ATOM     93  C   UNL A   1      43.919  36.776  33.616  1.00  0.00     0.059 A 
ATOM     94  F   UNL A   1      43.564  35.669  31.581  1.00  0.00    -0.206 F 
ATOM     95  C   UNL A   1      43.820  36.788  35.007  1.00  0.00     0.060 A 
BRANCH  95  96
ATOM     96  S   UNL A   1      44.422  38.202  35.955  1.00  0.00     0.124 S 
ATOM     97  O   UNL A   1      43.939  39.321  35.153  1.00  0.00    -0.237 OA
ATOM     98  O   UNL A   1      43.762  38.016  37.244  1.00  0.00    -0.237 OA
ATOM     99  O   UNL A   1      45.869  38.014  35.965  1.00  0.00    -0.744 OA
ENDBRANCH  95  96
ENDBRANCH  63  88
ENDBRANCH  37  38
ENDBRANCH  29  32
ENDBRANCH  27  28
ENDBRANCH  26  27
ENDBRANCH   1  26
TORSDOF 17
ENDMDL
