MODEL 1
REMARK VINA RESULT:     -12.1      0.000      0.000
REMARK SMILES Cc1nccn1CCC[NH+]1CCC2(CC1)[C@@H](C(=O)NCCCCCCNC(=O)c1ccc(-c3c4nc(c(-c5c(F)cc(S(=O)(=O)[O-])cc5F)c5ccc([nH]5)c(-c5c(F)cc(S(=O)(=O)[O-])cc5F)c5nc(c(-c6c(F)cc(S(=O)(=O)[O-])cc6F)c6ccc3[nH]6)C=C5)C=C4)cc1)CC(=O)N2C
REMARK SMILES IDX 22 1 21 2 20 3 19 4 17 5 18 6 16 8 10 9 11 10 15 11 12 13
REMARK SMILES IDX 14 14 13 15 98 16 95 17 96 18 99 19 97 20 9 21 8 22 7 23
REMARK SMILES IDX 6 24 1 25 2 26 3 27 4 28 5 29 23 30 24 31 25 32 26 33 27 34
REMARK SMILES IDX 28 36 29 37 30 38 94 39 31 40 93 41 32 42 33 43 34 44 87 45
REMARK SMILES IDX 35 46 92 47 86 48 88 49 36 50 91 51 85 52 84 53 37 55 71 56
REMARK SMILES IDX 50 57 70 58 51 59 54 60 69 61 89 62 52 63 53 64 68 66 90 67
REMARK SMILES IDX 55 68 38 69 39 70 48 71 40 72 41 73 47 74 49 75 42 76 43 77
REMARK SMILES IDX 44 78 45 79 46 80 72 81 73 82 82 83 74 84 75 85 81 86 83 87
REMARK SMILES IDX 76 88 77 89 78 90 79 91 80 92 56 93 57 94 66 95 58 96 59 97
REMARK SMILES IDX 65 98 67 99 60 100 61 101 62 102 63 103 64 104
REMARK H PARENT 19 7 10 12 26 35 88 54 54 65
REMARK Flexibility Score: inf
ROOT
ATOM      1  C   UNL A   1      37.303  23.771  25.157  1.00  0.00     0.002 C 
ENDROOT
BRANCH   1   2
ATOM      2  C   UNL A   1      36.898  22.795  24.049  1.00  0.00     0.021 C 
BRANCH   2   3
ATOM      3  C   UNL A   1      35.394  22.591  23.858  1.00  0.00     0.116 C 
BRANCH   3   4
ATOM      4  N   UNL A   1      34.820  23.512  22.888  1.00  0.00    -0.356 N 
ATOM      5  C   UNL A   1      34.215  24.727  23.044  1.00  0.00     0.226 C 
ATOM      6  O   UNL A   1      33.901  25.349  22.029  1.00  0.00    -0.275 OA
ATOM      7  H   UNL A   1      34.878  23.205  21.955  1.00  0.00     0.163 HD
BRANCH   5   8
ATOM      8  C   UNL A   1      33.901  25.249  24.432  1.00  0.00     0.114 C 
ATOM      9  N   UNL A   1      31.822  21.950  26.287  1.00  0.00    -0.335 N 
ATOM     10  C   UNL A   1      32.316  23.045  27.109  1.00  0.00     0.264 C 
ATOM     11  C   UNL A   1      31.144  22.436  25.083  1.00  0.00     0.264 C 
ATOM     12  H   UNL A   1      31.152  21.501  26.911  1.00  0.00     0.348 HD
ATOM     13  C   UNL A   1      33.296  23.921  26.389  1.00  0.00     0.091 C 
ATOM     14  C   UNL A   1      31.977  23.457  24.288  1.00  0.00     0.091 C 
ATOM     15  C   UNL A   1      32.691  24.547  25.135  1.00  0.00     0.065 C 
ATOM     16  N   UNL A   1      31.802  25.670  25.494  1.00  0.00    -0.339 N 
ATOM     17  C   UNL A   1      33.592  26.746  24.432  1.00  0.00     0.116 C 
ATOM     18  C   UNL A   1      32.372  26.912  25.280  1.00  0.00     0.223 C 
ATOM     19  C   UNL A   1      30.594  25.593  26.300  1.00  0.00     0.147 C 
ATOM     20  O   UNL A   1      31.963  27.975  25.701  1.00  0.00    -0.275 OA
BRANCH   9  21
ATOM     21  C   UNL A   1      32.749  20.861  25.969  1.00  0.00     0.264 C 
BRANCH  21  22
ATOM     22  C   UNL A   1      32.310  19.912  24.859  1.00  0.00     0.083 C 
BRANCH  22  23
ATOM     23  C   UNL A   1      33.393  18.967  24.360  1.00  0.00     0.129 C 
BRANCH  23  24
ATOM     24  N   UNL A   1      33.183  17.614  24.774  1.00  0.00    -0.335 N 
ATOM     25  C   UNL A   1      34.396  16.715  22.791  1.00  0.00     0.087 C 
ATOM     26  C   UNL A   1      33.583  16.549  24.040  1.00  0.00     0.105 A 
ATOM     27  N   UNL A   1      33.111  15.461  24.614  1.00  0.00    -0.242 NA
ATOM     28  C   UNL A   1      32.545  15.818  25.795  1.00  0.00     0.131 A 
ATOM     29  C   UNL A   1      32.636  17.173  25.946  1.00  0.00     0.107 A 
ENDBRANCH  23  24
ENDBRANCH  22  23
ENDBRANCH  21  22
ENDBRANCH   9  21
ENDBRANCH   5   8
ENDBRANCH   3   4
ENDBRANCH   2   3
ENDBRANCH   1   2
BRANCH   1  30
ATOM     30  C   UNL A   1      37.943  23.153  26.406  1.00  0.00     0.002 C 
BRANCH  30  31
ATOM     31  C   UNL A   1      39.069  22.138  26.173  1.00  0.00     0.021 C 
BRANCH  31  32
ATOM     32  C   UNL A   1      40.281  22.298  27.082  1.00  0.00     0.116 C 
BRANCH  32  33
ATOM     33  N   UNL A   1      41.545  22.058  26.400  1.00  0.00    -0.352 N 
ATOM     34  C   UNL A   1      42.423  22.999  25.895  1.00  0.00     0.251 C 
ATOM     35  H   UNL A   1      41.804  21.115  26.286  1.00  0.00     0.163 HD
ATOM     36  O   UNL A   1      43.200  22.685  25.003  1.00  0.00    -0.269 OA
BRANCH  34  37
ATOM     37  C   UNL A   1      42.396  24.383  26.424  1.00  0.00     0.039 A 
ATOM     38  C   UNL A   1      41.680  25.375  25.755  1.00  0.00     0.014 A 
ATOM     39  C   UNL A   1      43.090  24.701  27.594  1.00  0.00     0.014 A 
ATOM     40  C   UNL A   1      41.596  26.648  26.326  1.00  0.00     0.010 A 
ATOM     41  C   UNL A   1      42.914  25.929  28.217  1.00  0.00     0.010 A 
ATOM     42  C   UNL A   1      42.177  26.923  27.587  1.00  0.00    -0.014 A 
BRANCH  42  43
ATOM     43  C   UNL A   1      41.844  28.188  28.275  1.00  0.00     0.031 A 
ATOM     44  C   UNL A   1      42.871  29.244  28.046  1.00  0.00     0.074 A 
ATOM     45  C   UNL A   1      40.720  28.506  28.967  1.00  0.00     0.049 A 
ATOM     46  N   UNL A   1      43.794  29.613  28.869  1.00  0.00    -0.248 NA
ATOM     47  C   UNL A   1      43.024  29.801  26.692  1.00  0.00     0.031 C 
ATOM     48  C   UNL A   1      39.486  27.735  29.095  1.00  0.00     0.029 A 
ATOM     49  N   UNL A   1      40.434  29.634  29.703  1.00  0.00    -0.354 N 
ATOM     50  C   UNL A   1      44.479  30.643  28.236  1.00  0.00     0.074 A 
ATOM     51  C   UNL A   1      44.102  30.575  26.848  1.00  0.00     0.031 C 
ATOM     52  C   UNL A   1      38.542  28.473  29.727  1.00  0.00     0.029 A 
ATOM     53  C   UNL A   1      39.113  29.734  30.187  1.00  0.00     0.049 A 
ATOM     54  H   UNL A   1      41.110  30.328  29.879  1.00  0.00     0.167 HD
ATOM     55  C   UNL A   1      45.075  31.623  28.970  1.00  0.00     0.037 A 
ATOM     56  C   UNL A   1      38.557  30.766  30.910  1.00  0.00     0.037 A 
ATOM     57  C   UNL A   1      45.282  31.193  30.336  1.00  0.00     0.049 A 
ATOM     58  C   UNL A   1      39.678  31.490  31.526  1.00  0.00     0.074 A 
ATOM     59  C   UNL A   1      45.913  30.120  30.942  1.00  0.00     0.029 A 
ATOM     60  N   UNL A   1      44.454  31.711  31.300  1.00  0.00    -0.354 N 
ATOM     61  N   UNL A   1      40.364  31.017  32.523  1.00  0.00    -0.248 NA
ATOM     62  C   UNL A   1      40.296  32.569  30.778  1.00  0.00     0.031 C 
ATOM     63  C   UNL A   1      45.065  29.753  32.031  1.00  0.00     0.029 A 
ATOM     64  C   UNL A   1      44.015  30.665  32.071  1.00  0.00     0.049 A 
ATOM     65  H   UNL A   1      44.218  32.659  31.417  1.00  0.00     0.167 HD
ATOM     66  C   UNL A   1      41.659  31.396  32.244  1.00  0.00     0.074 A 
ATOM     67  C   UNL A   1      41.546  32.444  31.229  1.00  0.00     0.031 C 
ATOM     68  C   UNL A   1      42.701  30.621  32.659  1.00  0.00     0.037 A 
BRANCH  55  69
ATOM     69  C   UNL A   1      45.057  33.086  28.573  1.00  0.00     0.058 A 
ATOM     70  C   UNL A   1      46.272  33.804  28.556  1.00  0.00     0.135 A 
ATOM     71  C   UNL A   1      43.889  33.880  28.506  1.00  0.00     0.135 A 
ATOM     72  F   UNL A   1      47.449  33.158  28.617  1.00  0.00    -0.206 F 
ATOM     73  C   UNL A   1      46.320  35.198  28.568  1.00  0.00     0.059 A 
ATOM     74  C   UNL A   1      43.915  35.269  28.463  1.00  0.00     0.059 A 
ATOM     75  F   UNL A   1      42.657  33.364  28.571  1.00  0.00    -0.206 F 
ATOM     76  C   UNL A   1      45.133  35.921  28.539  1.00  0.00     0.060 A 
BRANCH  76  77
ATOM     77  S   UNL A   1      45.182  37.717  28.643  1.00  0.00     0.124 S 
ATOM     78  O   UNL A   1      44.609  37.944  29.964  1.00  0.00    -0.237 OA
ATOM     79  O   UNL A   1      46.610  37.985  28.506  1.00  0.00    -0.237 OA
ATOM     80  O   UNL A   1      44.360  38.138  27.512  1.00  0.00    -0.744 OA
ENDBRANCH  76  77
ENDBRANCH  55  69
BRANCH  56  81
ATOM     81  C   UNL A   1      37.180  31.357  31.034  1.00  0.00     0.058 A 
ATOM     82  C   UNL A   1      36.410  31.325  32.218  1.00  0.00     0.135 A 
ATOM     83  C   UNL A   1      36.756  32.289  30.108  1.00  0.00     0.135 A 
ATOM     84  F   UNL A   1      36.649  30.391  33.150  1.00  0.00    -0.206 F 
ATOM     85  C   UNL A   1      35.441  32.304  32.533  1.00  0.00     0.059 A 
ATOM     86  C   UNL A   1      35.801  33.275  30.397  1.00  0.00     0.059 A 
ATOM     87  F   UNL A   1      37.411  32.342  28.952  1.00  0.00    -0.206 F 
ATOM     88  C   UNL A   1      35.201  33.331  31.636  1.00  0.00     0.060 A 
BRANCH  88  89
ATOM     89  S   UNL A   1      34.331  34.855  32.093  1.00  0.00     0.124 S 
ATOM     90  O   UNL A   1      35.334  35.565  32.881  1.00  0.00    -0.237 OA
ATOM     91  O   UNL A   1      34.007  35.450  30.801  1.00  0.00    -0.237 OA
ATOM     92  O   UNL A   1      33.173  34.367  32.842  1.00  0.00    -0.744 OA
ENDBRANCH  88  89
ENDBRANCH  56  81
BRANCH  68  93
ATOM     93  C   UNL A   1      42.394  29.536  33.661  1.00  0.00     0.058 A 
ATOM     94  C   UNL A   1      42.268  29.726  35.052  1.00  0.00     0.135 A 
ATOM     95  C   UNL A   1      42.171  28.243  33.173  1.00  0.00     0.135 A 
ATOM     96  F   UNL A   1      42.370  30.947  35.596  1.00  0.00    -0.206 F 
ATOM     97  C   UNL A   1      41.997  28.664  35.920  1.00  0.00     0.059 A 
ATOM     98  C   UNL A   1      41.868  27.178  34.014  1.00  0.00     0.059 A 
ATOM     99  F   UNL A   1      42.225  28.007  31.852  1.00  0.00    -0.206 F 
ATOM    100  C   UNL A   1      41.804  27.389  35.389  1.00  0.00     0.060 A 
BRANCH 100 101
ATOM    101  S   UNL A   1      41.422  26.016  36.498  1.00  0.00     0.124 S 
ATOM    102  O   UNL A   1      42.746  25.487  36.806  1.00  0.00    -0.237 OA
ATOM    103  O   UNL A   1      40.731  26.680  37.600  1.00  0.00    -0.237 OA
ATOM    104  O   UNL A   1      40.579  25.145  35.682  1.00  0.00    -0.744 OA
ENDBRANCH 100 101
ENDBRANCH  68  93
ENDBRANCH  42  43
ENDBRANCH  34  37
ENDBRANCH  32  33
ENDBRANCH  31  32
ENDBRANCH  30  31
ENDBRANCH   1  30
TORSDOF 20
ENDMDL
MODEL 2
REMARK VINA RESULT:     -12.0      3.215      9.227
REMARK SMILES Cc1nccn1CCC[NH+]1CCC2(CC1)[C@@H](C(=O)NCCCCCCNC(=O)c1ccc(-c3c4nc(c(-c5c(F)cc(S(=O)(=O)[O-])cc5F)c5ccc([nH]5)c(-c5c(F)cc(S(=O)(=O)[O-])cc5F)c5nc(c(-c6c(F)cc(S(=O)(=O)[O-])cc6F)c6ccc3[nH]6)C=C5)C=C4)cc1)CC(=O)N2C
REMARK SMILES IDX 22 1 21 2 20 3 19 4 17 5 18 6 16 8 10 9 11 10 15 11 12 13
REMARK SMILES IDX 14 14 13 15 98 16 95 17 96 18 99 19 97 20 9 21 8 22 7 23
REMARK SMILES IDX 6 24 1 25 2 26 3 27 4 28 5 29 23 30 24 31 25 32 26 33 27 34
REMARK SMILES IDX 28 36 29 37 30 38 94 39 31 40 93 41 32 42 33 43 34 44 87 45
REMARK SMILES IDX 35 46 92 47 86 48 88 49 36 50 91 51 85 52 84 53 37 55 71 56
REMARK SMILES IDX 50 57 70 58 51 59 54 60 69 61 89 62 52 63 53 64 68 66 90 67
REMARK SMILES IDX 55 68 38 69 39 70 48 71 40 72 41 73 47 74 49 75 42 76 43 77
REMARK SMILES IDX 44 78 45 79 46 80 72 81 73 82 82 83 74 84 75 85 81 86 83 87
REMARK SMILES IDX 76 88 77 89 78 90 79 91 80 92 56 93 57 94 66 95 58 96 59 97
REMARK SMILES IDX 65 98 67 99 60 100 61 101 62 102 63 103 64 104
REMARK H PARENT 19 7 10 12 26 35 88 54 54 65
REMARK Flexibility Score: inf
ROOT
ATOM      1  C   UNL A   1      34.118  28.452  26.450  1.00  0.00     0.002 C 
ENDROOT
BRANCH   1   2
ATOM      2  C   UNL A   1      32.990  28.746  25.457  1.00  0.00     0.021 C 
BRANCH   2   3
ATOM      3  C   UNL A   1      31.573  28.455  25.953  1.00  0.00     0.116 C 
BRANCH   3   4
ATOM      4  N   UNL A   1      31.480  27.203  26.690  1.00  0.00    -0.356 N 
ATOM      5  C   UNL A   1      31.280  25.919  26.268  1.00  0.00     0.226 C 
ATOM      6  O   UNL A   1      31.342  25.020  27.108  1.00  0.00    -0.275 OA
ATOM      7  H   UNL A   1      31.579  27.299  27.664  1.00  0.00     0.163 HD
BRANCH   5   8
ATOM      8  C   UNL A   1      30.940  25.637  24.818  1.00  0.00     0.114 C 
ATOM      9  N   UNL A   1      34.219  23.160  23.493  1.00  0.00    -0.335 N 
ATOM     10  C   UNL A   1      33.013  23.255  22.683  1.00  0.00     0.264 C 
ATOM     11  C   UNL A   1      34.662  24.473  23.965  1.00  0.00     0.264 C 
ATOM     12  H   UNL A   1      34.892  22.779  22.828  1.00  0.00     0.348 HD
ATOM     13  C   UNL A   1      31.857  23.857  23.423  1.00  0.00     0.091 C 
ATOM     14  C   UNL A   1      33.543  25.283  24.643  1.00  0.00     0.091 C 
ATOM     15  C   UNL A   1      32.168  25.266  23.920  1.00  0.00     0.065 C 
ATOM     16  N   UNL A   1      32.089  26.237  22.810  1.00  0.00    -0.339 N 
ATOM     17  C   UNL A   1      30.254  26.824  24.143  1.00  0.00     0.116 C 
ATOM     18  C   UNL A   1      30.928  26.987  22.818  1.00  0.00     0.223 C 
ATOM     19  C   UNL A   1      32.912  26.246  21.610  1.00  0.00     0.147 C 
ATOM     20  O   UNL A   1      30.508  27.675  21.909  1.00  0.00    -0.275 OA
BRANCH   9  21
ATOM     21  C   UNL A   1      34.239  22.173  24.576  1.00  0.00     0.264 C 
BRANCH  21  22
ATOM     22  C   UNL A   1      35.466  21.269  24.634  1.00  0.00     0.083 C 
BRANCH  22  23
ATOM     23  C   UNL A   1      36.783  21.954  24.305  1.00  0.00     0.129 C 
BRANCH  23  24
ATOM     24  N   UNL A   1      37.881  21.438  25.063  1.00  0.00    -0.335 N 
ATOM     25  C   UNL A   1      38.229  23.614  26.227  1.00  0.00     0.087 C 
ATOM     26  C   UNL A   1      38.608  22.198  25.916  1.00  0.00     0.105 A 
ATOM     27  N   UNL A   1      39.628  21.476  26.333  1.00  0.00    -0.242 NA
ATOM     28  C   UNL A   1      39.466  20.210  25.871  1.00  0.00     0.131 A 
ATOM     29  C   UNL A   1      38.330  20.149  25.115  1.00  0.00     0.107 A 
ENDBRANCH  23  24
ENDBRANCH  22  23
ENDBRANCH  21  22
ENDBRANCH   9  21
ENDBRANCH   5   8
ENDBRANCH   3   4
ENDBRANCH   2   3
ENDBRANCH   1   2
BRANCH   1  30
ATOM     30  C   UNL A   1      34.233  29.403  27.647  1.00  0.00     0.002 C 
BRANCH  30  31
ATOM     31  C   UNL A   1      33.923  30.882  27.386  1.00  0.00     0.021 C 
BRANCH  31  32
ATOM     32  C   UNL A   1      34.996  31.859  27.849  1.00  0.00     0.116 C 
BRANCH  32  33
ATOM     33  N   UNL A   1      34.668  32.516  29.107  1.00  0.00    -0.352 N 
ATOM     34  C   UNL A   1      35.124  32.191  30.371  1.00  0.00     0.251 C 
ATOM     35  H   UNL A   1      34.051  33.280  29.050  1.00  0.00     0.163 HD
ATOM     36  O   UNL A   1      34.473  32.523  31.353  1.00  0.00    -0.269 OA
BRANCH  34  37
ATOM     37  C   UNL A   1      36.384  31.425  30.521  1.00  0.00     0.039 A 
ATOM     38  C   UNL A   1      36.345  30.045  30.713  1.00  0.00     0.014 A 
ATOM     39  C   UNL A   1      37.615  32.082  30.473  1.00  0.00     0.014 A 
ATOM     40  C   UNL A   1      37.549  29.336  30.759  1.00  0.00     0.010 A 
ATOM     41  C   UNL A   1      38.803  31.368  30.404  1.00  0.00     0.010 A 
ATOM     42  C   UNL A   1      38.790  29.988  30.559  1.00  0.00    -0.014 A 
BRANCH  42  43
ATOM     43  C   UNL A   1      40.007  29.177  30.350  1.00  0.00     0.031 A 
ATOM     44  C   UNL A   1      40.721  28.887  31.626  1.00  0.00     0.074 A 
ATOM     45  C   UNL A   1      40.462  28.614  29.201  1.00  0.00     0.049 A 
ATOM     46  N   UNL A   1      41.783  29.474  32.065  1.00  0.00    -0.248 NA
ATOM     47  C   UNL A   1      40.076  28.007  32.613  1.00  0.00     0.031 C 
ATOM     48  C   UNL A   1      39.799  28.542  27.902  1.00  0.00     0.029 A 
ATOM     49  N   UNL A   1      41.643  27.948  28.961  1.00  0.00    -0.354 N 
ATOM     50  C   UNL A   1      42.097  28.846  33.264  1.00  0.00     0.074 A 
ATOM     51  C   UNL A   1      40.919  28.109  33.644  1.00  0.00     0.031 C 
ATOM     52  C   UNL A   1      40.509  27.750  27.062  1.00  0.00     0.029 A 
ATOM     53  C   UNL A   1      41.762  27.347  27.691  1.00  0.00     0.049 A 
ATOM     54  H   UNL A   1      42.359  27.894  29.634  1.00  0.00     0.167 HD
ATOM     55  C   UNL A   1      43.390  28.773  33.683  1.00  0.00     0.037 A 
ATOM     56  C   UNL A   1      42.811  26.594  27.210  1.00  0.00     0.037 A 
ATOM     57  C   UNL A   1      44.205  29.767  33.018  1.00  0.00     0.049 A 
ATOM     58  C   UNL A   1      43.981  26.949  28.026  1.00  0.00     0.074 A 
ATOM     59  C   UNL A   1      44.152  31.142  32.871  1.00  0.00     0.029 A 
ATOM     60  N   UNL A   1      45.058  29.336  32.032  1.00  0.00    -0.354 N 
ATOM     61  N   UNL A   1      44.603  28.084  27.918  1.00  0.00    -0.248 NA
ATOM     62  C   UNL A   1      44.222  26.200  29.246  1.00  0.00     0.031 C 
ATOM     63  C   UNL A   1      44.551  31.391  31.522  1.00  0.00     0.029 A 
ATOM     64  C   UNL A   1      44.897  30.169  30.954  1.00  0.00     0.049 A 
ATOM     65  H   UNL A   1      45.673  28.569  32.088  1.00  0.00     0.167 HD
ATOM     66  C   UNL A   1      44.927  28.410  29.217  1.00  0.00     0.074 A 
ATOM     67  C   UNL A   1      44.777  27.169  29.977  1.00  0.00     0.031 C 
ATOM     68  C   UNL A   1      45.007  29.718  29.591  1.00  0.00     0.037 A 
BRANCH  55  69
ATOM     69  C   UNL A   1      43.984  27.542  34.339  1.00  0.00     0.058 A 
ATOM     70  C   UNL A   1      44.713  27.692  35.538  1.00  0.00     0.135 A 
ATOM     71  C   UNL A   1      44.128  26.289  33.699  1.00  0.00     0.135 A 
ATOM     72  F   UNL A   1      44.657  28.839  36.233  1.00  0.00    -0.206 F 
ATOM     73  C   UNL A   1      45.588  26.713  36.010  1.00  0.00     0.059 A 
ATOM     74  C   UNL A   1      44.953  25.280  34.182  1.00  0.00     0.059 A 
ATOM     75  F   UNL A   1      43.554  26.004  32.526  1.00  0.00    -0.206 F 
ATOM     76  C   UNL A   1      45.713  25.516  35.313  1.00  0.00     0.060 A 
BRANCH  76  77
ATOM     77  S   UNL A   1      46.903  24.284  35.867  1.00  0.00     0.124 S 
ATOM     78  O   UNL A   1      47.936  24.404  34.845  1.00  0.00    -0.237 OA
ATOM     79  O   UNL A   1      47.250  24.780  37.195  1.00  0.00    -0.237 OA
ATOM     80  O   UNL A   1      46.131  23.046  35.850  1.00  0.00    -0.744 OA
ENDBRANCH  76  77
ENDBRANCH  55  69
BRANCH  56  81
ATOM     81  C   UNL A   1      42.947  25.458  26.235  1.00  0.00     0.058 A 
ATOM     82  C   UNL A   1      43.975  25.363  25.270  1.00  0.00     0.135 A 
ATOM     83  C   UNL A   1      42.293  24.269  26.485  1.00  0.00     0.135 A 
ATOM     84  F   UNL A   1      44.613  26.467  24.857  1.00  0.00    -0.206 F 
ATOM     85  C   UNL A   1      44.451  24.130  24.772  1.00  0.00     0.059 A 
ATOM     86  C   UNL A   1      42.748  23.030  26.008  1.00  0.00     0.059 A 
ATOM     87  F   UNL A   1      41.284  24.297  27.351  1.00  0.00    -0.206 F 
ATOM     88  C   UNL A   1      43.874  22.952  25.216  1.00  0.00     0.060 A 
BRANCH  88  89
ATOM     89  S   UNL A   1      44.656  21.330  25.005  1.00  0.00     0.124 S 
ATOM     90  O   UNL A   1      45.936  21.509  25.682  1.00  0.00    -0.237 OA
ATOM     91  O   UNL A   1      43.717  20.424  25.660  1.00  0.00    -0.237 OA
ATOM     92  O   UNL A   1      44.727  21.180  23.552  1.00  0.00    -0.744 OA
ENDBRANCH  88  89
ENDBRANCH  56  81
BRANCH  68  93
ATOM     93  C   UNL A   1      45.027  30.749  28.490  1.00  0.00     0.058 A 
ATOM     94  C   UNL A   1      46.167  31.132  27.755  1.00  0.00     0.135 A 
ATOM     95  C   UNL A   1      43.811  31.344  28.133  1.00  0.00     0.135 A 
ATOM     96  F   UNL A   1      47.354  30.545  27.963  1.00  0.00    -0.206 F 
ATOM     97  C   UNL A   1      46.108  32.109  26.756  1.00  0.00     0.059 A 
ATOM     98  C   UNL A   1      43.722  32.294  27.121  1.00  0.00     0.059 A 
ATOM     99  F   UNL A   1      42.679  30.983  28.760  1.00  0.00    -0.206 F 
ATOM    100  C   UNL A   1      44.877  32.689  26.451  1.00  0.00     0.060 A 
BRANCH 100 101
ATOM    101  S   UNL A   1      44.783  33.930  25.142  1.00  0.00     0.124 S 
ATOM    102  O   UNL A   1      44.410  33.129  23.981  1.00  0.00    -0.237 OA
ATOM    103  O   UNL A   1      43.757  34.841  25.641  1.00  0.00    -0.237 OA
ATOM    104  O   UNL A   1      46.133  34.488  25.105  1.00  0.00    -0.744 OA
ENDBRANCH 100 101
ENDBRANCH  68  93
ENDBRANCH  42  43
ENDBRANCH  34  37
ENDBRANCH  32  33
ENDBRANCH  31  32
ENDBRANCH  30  31
ENDBRANCH   1  30
TORSDOF 20
ENDMDL
MODEL 3
REMARK VINA RESULT:     -11.7      2.700      5.076
REMARK SMILES Cc1nccn1CCC[NH+]1CCC2(CC1)[C@@H](C(=O)NCCCCCCNC(=O)c1ccc(-c3c4nc(c(-c5c(F)cc(S(=O)(=O)[O-])cc5F)c5ccc([nH]5)c(-c5c(F)cc(S(=O)(=O)[O-])cc5F)c5nc(c(-c6c(F)cc(S(=O)(=O)[O-])cc6F)c6ccc3[nH]6)C=C5)C=C4)cc1)CC(=O)N2C
REMARK SMILES IDX 22 1 21 2 20 3 19 4 17 5 18 6 16 8 10 9 11 10 15 11 12 13
REMARK SMILES IDX 14 14 13 15 98 16 95 17 96 18 99 19 97 20 9 21 8 22 7 23
REMARK SMILES IDX 6 24 1 25 2 26 3 27 4 28 5 29 23 30 24 31 25 32 26 33 27 34
REMARK SMILES IDX 28 36 29 37 30 38 94 39 31 40 93 41 32 42 33 43 34 44 87 45
REMARK SMILES IDX 35 46 92 47 86 48 88 49 36 50 91 51 85 52 84 53 37 55 71 56
REMARK SMILES IDX 50 57 70 58 51 59 54 60 69 61 89 62 52 63 53 64 68 66 90 67
REMARK SMILES IDX 55 68 38 69 39 70 48 71 40 72 41 73 47 74 49 75 42 76 43 77
REMARK SMILES IDX 44 78 45 79 46 80 72 81 73 82 82 83 74 84 75 85 81 86 83 87
REMARK SMILES IDX 76 88 77 89 78 90 79 91 80 92 56 93 57 94 66 95 58 96 59 97
REMARK SMILES IDX 65 98 67 99 60 100 61 101 62 102 63 103 64 104
REMARK H PARENT 19 7 10 12 26 35 88 54 54 65
REMARK Flexibility Score: inf
ROOT
ATOM      1  C   UNL A   1      39.484  21.918  25.957  1.00  0.00     0.002 C 
ENDROOT
BRANCH   1   2
ATOM      2  C   UNL A   1      38.693  23.106  26.512  1.00  0.00     0.021 C 
BRANCH   2   3
ATOM      3  C   UNL A   1      37.336  23.367  25.857  1.00  0.00     0.116 C 
BRANCH   3   4
ATOM      4  N   UNL A   1      36.218  22.984  26.706  1.00  0.00    -0.356 N 
ATOM      5  C   UNL A   1      35.021  22.393  26.413  1.00  0.00     0.226 C 
ATOM      6  O   UNL A   1      34.285  22.087  27.351  1.00  0.00    -0.275 OA
ATOM      7  H   UNL A   1      36.347  23.187  27.660  1.00  0.00     0.163 HD
BRANCH   5   8
ATOM      8  C   UNL A   1      34.611  22.178  24.969  1.00  0.00     0.114 C 
ATOM      9  N   UNL A   1      33.009  26.018  23.812  1.00  0.00    -0.335 N 
ATOM     10  C   UNL A   1      33.324  25.029  22.790  1.00  0.00     0.264 C 
ATOM     11  C   UNL A   1      32.287  25.424  24.940  1.00  0.00     0.264 C 
ATOM     12  H   UNL A   1      32.402  26.662  23.305  1.00  0.00     0.348 HD
ATOM     13  C   UNL A   1      34.176  23.908  23.303  1.00  0.00     0.091 C 
ATOM     14  C   UNL A   1      32.975  24.170  25.507  1.00  0.00     0.091 C 
ATOM     15  C   UNL A   1      33.506  23.160  24.452  1.00  0.00     0.065 C 
ATOM     16  N   UNL A   1      32.456  22.256  23.940  1.00  0.00    -0.339 N 
ATOM     17  C   UNL A   1      34.086  20.765  24.721  1.00  0.00     0.116 C 
ATOM     18  C   UNL A   1      32.841  20.929  23.909  1.00  0.00     0.223 C 
ATOM     19  C   UNL A   1      31.259  22.647  23.212  1.00  0.00     0.147 C 
ATOM     20  O   UNL A   1      32.273  20.027  23.326  1.00  0.00    -0.275 OA
BRANCH   9  21
ATOM     21  C   UNL A   1      34.091  26.889  24.276  1.00  0.00     0.264 C 
BRANCH  21  22
ATOM     22  C   UNL A   1      34.043  28.334  23.788  1.00  0.00     0.083 C 
BRANCH  22  23
ATOM     23  C   UNL A   1      32.809  29.112  24.217  1.00  0.00     0.129 C 
BRANCH  23  24
ATOM     24  N   UNL A   1      32.947  29.702  25.513  1.00  0.00    -0.335 N 
ATOM     25  C   UNL A   1      30.779  30.913  25.302  1.00  0.00     0.087 C 
ATOM     26  C   UNL A   1      32.054  30.586  26.018  1.00  0.00     0.105 A 
ATOM     27  N   UNL A   1      32.542  31.052  27.150  1.00  0.00    -0.242 NA
ATOM     28  C   UNL A   1      33.667  30.353  27.444  1.00  0.00     0.131 A 
ATOM     29  C   UNL A   1      33.908  29.448  26.450  1.00  0.00     0.107 A 
ENDBRANCH  23  24
ENDBRANCH  22  23
ENDBRANCH  21  22
ENDBRANCH   9  21
ENDBRANCH   5   8
ENDBRANCH   3   4
ENDBRANCH   2   3
ENDBRANCH   1   2
BRANCH   1  30
ATOM     30  C   UNL A   1      40.433  21.217  26.936  1.00  0.00     0.002 C 
BRANCH  30  31
ATOM     31  C   UNL A   1      41.066  19.903  26.461  1.00  0.00     0.021 C 
BRANCH  31  32
ATOM     32  C   UNL A   1      42.445  19.604  27.037  1.00  0.00     0.116 C 
BRANCH  32  33
ATOM     33  N   UNL A   1      43.462  19.403  26.015  1.00  0.00    -0.352 N 
ATOM     34  C   UNL A   1      44.021  20.354  25.182  1.00  0.00     0.251 C 
ATOM     35  H   UNL A   1      43.789  18.481  25.904  1.00  0.00     0.163 HD
ATOM     36  O   UNL A   1      44.524  20.011  24.121  1.00  0.00    -0.269 OA
BRANCH  34  37
ATOM     37  C   UNL A   1      43.983  21.783  25.575  1.00  0.00     0.039 A 
ATOM     38  C   UNL A   1      43.142  22.671  24.907  1.00  0.00     0.014 A 
ATOM     39  C   UNL A   1      44.793  22.247  26.614  1.00  0.00     0.014 A 
ATOM     40  C   UNL A   1      43.059  23.991  25.358  1.00  0.00     0.010 A 
ATOM     41  C   UNL A   1      44.627  23.524  27.133  1.00  0.00     0.010 A 
ATOM     42  C   UNL A   1      43.770  24.418  26.506  1.00  0.00    -0.014 A 
BRANCH  42  43
ATOM     43  C   UNL A   1      43.454  25.732  27.104  1.00  0.00     0.031 A 
ATOM     44  C   UNL A   1      44.459  26.773  26.746  1.00  0.00     0.074 A 
ATOM     45  C   UNL A   1      42.358  26.096  27.818  1.00  0.00     0.049 A 
ATOM     46  N   UNL A   1      45.414  27.213  27.495  1.00  0.00    -0.248 NA
ATOM     47  C   UNL A   1      44.547  27.220  25.347  1.00  0.00     0.031 C 
ATOM     48  C   UNL A   1      41.139  25.330  28.063  1.00  0.00     0.029 A 
ATOM     49  N   UNL A   1      42.093  27.278  28.473  1.00  0.00    -0.354 N 
ATOM     50  C   UNL A   1      46.059  28.193  26.752  1.00  0.00     0.074 A 
ATOM     51  C   UNL A   1      45.622  28.011  25.392  1.00  0.00     0.031 C 
ATOM     52  C   UNL A   1      40.216  26.109  28.675  1.00  0.00     0.029 A 
ATOM     53  C   UNL A   1      40.794  27.407  29.006  1.00  0.00     0.049 A 
ATOM     54  H   UNL A   1      42.769  27.988  28.564  1.00  0.00     0.167 HD
ATOM     55  C   UNL A   1      46.677  29.233  27.378  1.00  0.00     0.037 A 
ATOM     56  C   UNL A   1      40.259  28.491  29.668  1.00  0.00     0.037 A 
ATOM     57  C   UNL A   1      46.948  28.916  28.763  1.00  0.00     0.049 A 
ATOM     58  C   UNL A   1      41.399  29.269  30.174  1.00  0.00     0.074 A 
ATOM     59  C   UNL A   1      47.616  27.899  29.424  1.00  0.00     0.029 A 
ATOM     60  N   UNL A   1      46.157  29.504  29.719  1.00  0.00    -0.354 N 
ATOM     61  N   UNL A   1      42.132  28.882  31.174  1.00  0.00    -0.248 NA
ATOM     62  C   UNL A   1      41.972  30.288  29.315  1.00  0.00     0.031 C 
ATOM     63  C   UNL A   1      46.820  27.615  30.576  1.00  0.00     0.029 A 
ATOM     64  C   UNL A   1      45.763  28.520  30.590  1.00  0.00     0.049 A 
ATOM     65  H   UNL A   1      45.916  30.457  29.770  1.00  0.00     0.167 HD
ATOM     66  C   UNL A   1      43.410  29.247  30.809  1.00  0.00     0.074 A 
ATOM     67  C   UNL A   1      43.241  30.209  29.719  1.00  0.00     0.031 C 
ATOM     68  C   UNL A   1      44.477  28.515  31.237  1.00  0.00     0.037 A 
BRANCH  55  69
ATOM     69  C   UNL A   1      46.626  30.660  26.866  1.00  0.00     0.058 A 
ATOM     70  C   UNL A   1      47.812  31.425  26.860  1.00  0.00     0.135 A 
ATOM     71  C   UNL A   1      45.434  31.395  26.672  1.00  0.00     0.135 A 
ATOM     72  F   UNL A   1      49.006  30.837  27.038  1.00  0.00    -0.206 F 
ATOM     73  C   UNL A   1      47.805  32.817  26.765  1.00  0.00     0.059 A 
ATOM     74  C   UNL A   1      45.409  32.776  26.521  1.00  0.00     0.059 A 
ATOM     75  F   UNL A   1      44.221  30.833  26.709  1.00  0.00    -0.206 F 
ATOM     76  C   UNL A   1      46.595  33.484  26.613  1.00  0.00     0.060 A 
BRANCH  76  77
ATOM     77  S   UNL A   1      46.568  35.283  26.577  1.00  0.00     0.124 S 
ATOM     78  O   UNL A   1      45.310  35.539  25.888  1.00  0.00    -0.237 OA
ATOM     79  O   UNL A   1      46.601  35.610  28.000  1.00  0.00    -0.237 OA
ATOM     80  O   UNL A   1      47.780  35.619  25.836  1.00  0.00    -0.744 OA
ENDBRANCH  76  77
ENDBRANCH  55  69
BRANCH  56  81
ATOM     81  C   UNL A   1      38.883  29.080  29.806  1.00  0.00     0.058 A 
ATOM     82  C   UNL A   1      38.235  29.293  31.043  1.00  0.00     0.135 A 
ATOM     83  C   UNL A   1      38.341  29.788  28.753  1.00  0.00     0.135 A 
ATOM     84  F   UNL A   1      38.593  28.582  32.121  1.00  0.00    -0.206 F 
ATOM     85  C   UNL A   1      37.271  30.306  31.242  1.00  0.00     0.059 A 
ATOM     86  C   UNL A   1      37.387  30.804  28.924  1.00  0.00     0.059 A 
ATOM     87  F   UNL A   1      38.876  29.600  27.551  1.00  0.00    -0.206 F 
ATOM     88  C   UNL A   1      36.911  31.116  30.179  1.00  0.00     0.060 A 
BRANCH  88  89
ATOM     89  S   UNL A   1      36.041  32.693  30.391  1.00  0.00     0.124 S 
ATOM     90  O   UNL A   1      34.656  32.328  30.112  1.00  0.00    -0.237 OA
ATOM     91  O   UNL A   1      36.333  33.047  31.777  1.00  0.00    -0.237 OA
ATOM     92  O   UNL A   1      36.676  33.561  29.399  1.00  0.00    -0.744 OA
ENDBRANCH  88  89
ENDBRANCH  56  81
BRANCH  68  93
ATOM     93  C   UNL A   1      44.226  27.512  32.336  1.00  0.00     0.058 A 
ATOM     94  C   UNL A   1      44.092  27.821  33.704  1.00  0.00     0.135 A 
ATOM     95  C   UNL A   1      44.067  26.170  31.968  1.00  0.00     0.135 A 
ATOM     96  F   UNL A   1      44.133  29.091  34.134  1.00  0.00    -0.206 F 
ATOM     97  C   UNL A   1      43.875  26.831  34.667  1.00  0.00     0.059 A 
ATOM     98  C   UNL A   1      43.818  25.172  32.904  1.00  0.00     0.059 A 
ATOM     99  F   UNL A   1      44.131  25.817  30.674  1.00  0.00    -0.206 F 
ATOM    100  C   UNL A   1      43.745  25.505  34.255  1.00  0.00     0.060 A 
BRANCH 100 101
ATOM    101  S   UNL A   1      43.434  24.221  35.487  1.00  0.00     0.124 S 
ATOM    102  O   UNL A   1      42.990  24.997  36.639  1.00  0.00    -0.237 OA
ATOM    103  O   UNL A   1      42.412  23.402  34.841  1.00  0.00    -0.237 OA
ATOM    104  O   UNL A   1      44.734  23.572  35.638  1.00  0.00    -0.744 OA
ENDBRANCH 100 101
ENDBRANCH  68  93
ENDBRANCH  42  43
ENDBRANCH  34  37
ENDBRANCH  32  33
ENDBRANCH  31  32
ENDBRANCH  30  31
ENDBRANCH   1  30
TORSDOF 20
ENDMDL
