MODEL 1
REMARK VINA RESULT:     -10.3      0.000      0.000
REMARK SMILES CCc1c(C)nc(Nc2cc(Cl)ccc2C)nc1OCC(=O)NCCCCCCNC(=O)c1ccc(-c2c3nc(c(-c4c(F)cc(S(=O)(=O)[O-])cc4F)c4ccc([nH]4)c(-c4c(F)cc(S(=O)(=O)[O-])cc4F)c4nc(c(-c5c(F)cc(S(=O)(=O)[O-])cc5F)c5ccc2[nH]5)C=C4)C=C3)cc1
REMARK SMILES IDX 26 1 25 2 24 3 23 4 21 5 22 6 20 8 19 9 18 10 3 11 4 12 5 13
REMARK SMILES IDX 6 14 17 15 7 16 2 17 1 18 8 19 9 21 10 22 15 23 11 24 14 25
REMARK SMILES IDX 16 26 12 27 13 28 27 29 28 30 29 31 30 32 31 33 32 35 33 36
REMARK SMILES IDX 34 37 98 38 35 39 97 40 36 41 37 42 38 43 91 44 39 45 96 46
REMARK SMILES IDX 90 47 92 48 40 49 95 50 89 51 88 52 41 54 75 55 54 56 74 57
REMARK SMILES IDX 55 58 58 59 73 60 93 61 56 62 57 63 72 65 94 66 59 67 42 68
REMARK SMILES IDX 43 69 52 70 44 71 45 72 51 73 53 74 46 75 47 76 48 77 49 78
REMARK SMILES IDX 50 79 76 80 77 81 86 82 78 83 79 84 85 85 87 86 80 87 81 88
REMARK SMILES IDX 82 89 83 90 84 91 60 92 61 93 70 94 62 95 63 96 69 97 71 98
REMARK SMILES IDX 64 99 65 100 66 101 67 102 68 103
REMARK H PARENT 23 7 8 20 30 34 92 53 58 64
REMARK Flexibility Score: inf
ROOT
ATOM      1  C   UNL A   1      40.005  22.703  27.256  1.00  0.00     0.002 C 
ENDROOT
BRANCH   1   2
ATOM      2  C   UNL A   1      39.373  24.018  26.777  1.00  0.00     0.021 C 
BRANCH   2   3
ATOM      3  C   UNL A   1      37.968  23.884  26.205  1.00  0.00     0.116 C 
BRANCH   3   4
ATOM      4  N   UNL A   1      37.558  22.503  26.104  1.00  0.00    -0.353 N 
ATOM      5  C   UNL A   1      37.100  21.848  25.009  1.00  0.00     0.258 C 
ATOM      6  O   UNL A   1      37.009  20.618  25.062  1.00  0.00    -0.271 OA
ATOM      7  H   UNL A   1      37.616  21.973  26.932  1.00  0.00     0.163 HD
BRANCH   5   8
ATOM      8  C   UNL A   1      36.792  22.626  23.722  1.00  0.00     0.331 C 
BRANCH   8   9
ATOM      9  O   UNL A   1      35.486  22.961  23.313  1.00  0.00    -0.467 OA
BRANCH   9  10
ATOM     10  C   UNL A   1      34.465  23.318  24.132  1.00  0.00     0.222 A 
ATOM     11  C   UNL A   1      33.340  22.583  24.498  1.00  0.00     0.035 A 
ATOM     12  C   UNL A   1      32.521  23.219  25.429  1.00  0.00     0.050 A 
ATOM     13  C   UNL A   1      31.306  22.611  26.065  1.00  0.00     0.067 C 
ATOM     14  N   UNL A   1      32.715  24.489  25.817  1.00  0.00    -0.218 NA
ATOM     15  N   UNL A   1      34.650  24.606  24.520  1.00  0.00    -0.177 NA
ATOM     16  C   UNL A   1      33.755  25.165  25.336  1.00  0.00     0.230 A 
BRANCH  11  17
ATOM     17  C   UNL A   1      32.954  21.239  23.950  1.00  0.00     0.040 C 
ATOM     18  C   UNL A   1      32.157  21.292  22.652  1.00  0.00     0.009 C 
ENDBRANCH  11  17
BRANCH  16  19
ATOM     19  N   UNL A   1      33.878  26.522  25.646  1.00  0.00    -0.324 N 
ATOM     20  H   UNL A   1      34.652  26.783  26.197  1.00  0.00     0.170 HD
BRANCH  19  21
ATOM     21  C   UNL A   1      33.007  27.554  25.250  1.00  0.00     0.045 A 
ATOM     22  C   UNL A   1      32.344  27.447  24.016  1.00  0.00     0.047 A 
ATOM     23  C   UNL A   1      32.674  28.629  26.105  1.00  0.00    -0.027 A 
ATOM     24  C   UNL A   1      31.343  28.356  23.665  1.00  0.00     0.043 A 
ATOM     25  C   UNL A   1      31.653  29.524  25.742  1.00  0.00     0.007 A 
ATOM     26  C   UNL A   1      33.398  28.859  27.407  1.00  0.00     0.046 C 
ATOM     27  Cl  UNL A   1      30.512  28.183  22.165  1.00  0.00    -0.084 Cl
ATOM     28  C   UNL A   1      30.985  29.385  24.528  1.00  0.00     0.021 A 
ENDBRANCH  19  21
ENDBRANCH  16  19
ENDBRANCH   9  10
ENDBRANCH   8   9
ENDBRANCH   5   8
ENDBRANCH   3   4
ENDBRANCH   2   3
ENDBRANCH   1   2
BRANCH   1  29
ATOM     29  C   UNL A   1      41.080  22.106  26.341  1.00  0.00     0.002 C 
BRANCH  29  30
ATOM     30  C   UNL A   1      40.977  20.599  26.105  1.00  0.00     0.021 C 
BRANCH  30  31
ATOM     31  C   UNL A   1      42.152  19.793  26.637  1.00  0.00     0.116 C 
BRANCH  31  32
ATOM     32  N   UNL A   1      42.969  19.247  25.567  1.00  0.00    -0.352 N 
ATOM     33  C   UNL A   1      43.897  19.885  24.780  1.00  0.00     0.251 C 
ATOM     34  H   UNL A   1      42.840  18.289  25.380  1.00  0.00     0.163 HD
ATOM     35  O   UNL A   1      44.354  19.328  23.790  1.00  0.00    -0.269 OA
BRANCH  33  36
ATOM     36  C   UNL A   1      44.320  21.259  25.130  1.00  0.00     0.039 A 
ATOM     37  C   UNL A   1      44.059  22.297  24.234  1.00  0.00     0.014 A 
ATOM     38  C   UNL A   1      44.957  21.522  26.347  1.00  0.00     0.014 A 
ATOM     39  C   UNL A   1      44.388  23.608  24.584  1.00  0.00     0.010 A 
ATOM     40  C   UNL A   1      45.205  22.836  26.728  1.00  0.00     0.010 A 
ATOM     41  C   UNL A   1      44.933  23.893  25.848  1.00  0.00    -0.014 A 
BRANCH  41  42
ATOM     42  C   UNL A   1      45.233  25.287  26.263  1.00  0.00     0.031 A 
ATOM     43  C   UNL A   1      46.623  25.839  26.095  1.00  0.00     0.074 A 
ATOM     44  C   UNL A   1      44.273  26.032  26.844  1.00  0.00     0.049 A 
ATOM     45  N   UNL A   1      47.096  27.008  26.443  1.00  0.00    -0.248 NA
ATOM     46  C   UNL A   1      47.621  24.950  25.478  1.00  0.00     0.031 C 
ATOM     47  C   UNL A   1      42.899  25.593  27.097  1.00  0.00     0.029 A 
ATOM     48  N   UNL A   1      44.306  27.314  27.332  1.00  0.00    -0.354 N 
ATOM     49  C   UNL A   1      48.443  26.989  26.102  1.00  0.00     0.074 A 
ATOM     50  C   UNL A   1      48.726  25.673  25.576  1.00  0.00     0.031 C 
ATOM     51  C   UNL A   1      42.212  26.600  27.662  1.00  0.00     0.029 A 
ATOM     52  C   UNL A   1      43.106  27.738  27.853  1.00  0.00     0.049 A 
ATOM     53  H   UNL A   1      45.113  27.878  27.312  1.00  0.00     0.167 HD
ATOM     54  C   UNL A   1      49.355  27.987  26.195  1.00  0.00     0.037 A 
ATOM     55  C   UNL A   1      42.766  28.910  28.424  1.00  0.00     0.037 A 
ATOM     56  C   UNL A   1      49.060  29.300  26.706  1.00  0.00     0.049 A 
ATOM     57  C   UNL A   1      43.803  29.994  28.544  1.00  0.00     0.074 A 
ATOM     58  C   UNL A   1      49.895  30.399  26.793  1.00  0.00     0.029 A 
ATOM     59  N   UNL A   1      47.833  29.689  27.228  1.00  0.00    -0.354 N 
ATOM     60  N   UNL A   1      45.056  29.984  28.152  1.00  0.00    -0.248 NA
ATOM     61  C   UNL A   1      43.382  31.249  29.180  1.00  0.00     0.031 C 
ATOM     62  C   UNL A   1      49.194  31.434  27.420  1.00  0.00     0.029 A 
ATOM     63  C   UNL A   1      47.900  31.002  27.667  1.00  0.00     0.049 A 
ATOM     64  H   UNL A   1      47.034  29.117  27.280  1.00  0.00     0.167 HD
ATOM     65  C   UNL A   1      45.561  31.243  28.462  1.00  0.00     0.074 A 
ATOM     66  C   UNL A   1      44.476  31.988  29.066  1.00  0.00     0.031 C 
ATOM     67  C   UNL A   1      46.808  31.736  28.260  1.00  0.00     0.037 A 
BRANCH  54  68
ATOM     68  C   UNL A   1      50.761  27.689  25.743  1.00  0.00     0.058 A 
ATOM     69  C   UNL A   1      51.150  27.814  24.398  1.00  0.00     0.135 A 
ATOM     70  C   UNL A   1      51.738  27.286  26.667  1.00  0.00     0.135 A 
ATOM     71  F   UNL A   1      50.257  28.184  23.467  1.00  0.00    -0.206 F 
ATOM     72  C   UNL A   1      52.441  27.506  23.981  1.00  0.00     0.059 A 
ATOM     73  C   UNL A   1      53.045  27.006  26.277  1.00  0.00     0.059 A 
ATOM     74  F   UNL A   1      51.426  27.152  27.966  1.00  0.00    -0.206 F 
ATOM     75  C   UNL A   1      53.381  27.099  24.928  1.00  0.00     0.060 A 
BRANCH  75  76
ATOM     76  S   UNL A   1      55.045  26.685  24.367  1.00  0.00     0.124 S 
ATOM     77  O   UNL A   1      55.827  27.774  24.946  1.00  0.00    -0.237 OA
ATOM     78  O   UNL A   1      55.257  25.369  24.961  1.00  0.00    -0.237 OA
ATOM     79  O   UNL A   1      54.928  26.702  22.912  1.00  0.00    -0.744 OA
ENDBRANCH  75  76
ENDBRANCH  54  68
BRANCH  55  80
ATOM     80  C   UNL A   1      41.371  29.133  28.896  1.00  0.00     0.058 A 
ATOM     81  C   UNL A   1      40.328  29.337  27.980  1.00  0.00     0.135 A 
ATOM     82  C   UNL A   1      41.050  29.134  30.261  1.00  0.00     0.135 A 
ATOM     83  F   UNL A   1      40.584  29.351  26.664  1.00  0.00    -0.206 F 
ATOM     84  C   UNL A   1      39.020  29.551  28.400  1.00  0.00     0.059 A 
ATOM     85  C   UNL A   1      39.743  29.318  30.706  1.00  0.00     0.059 A 
ATOM     86  F   UNL A   1      42.008  28.927  31.179  1.00  0.00    -0.206 F 
ATOM     87  C   UNL A   1      38.736  29.536  29.767  1.00  0.00     0.060 A 
BRANCH  87  88
ATOM     88  S   UNL A   1      37.026  29.767  30.298  1.00  0.00     0.124 S 
ATOM     89  O   UNL A   1      36.994  31.198  30.573  1.00  0.00    -0.237 OA
ATOM     90  O   UNL A   1      36.281  29.325  29.123  1.00  0.00    -0.237 OA
ATOM     91  O   UNL A   1      36.916  28.897  31.464  1.00  0.00    -0.744 OA
ENDBRANCH  87  88
ENDBRANCH  55  80
BRANCH  67  92
ATOM     92  C   UNL A   1      47.061  33.166  28.654  1.00  0.00     0.058 A 
ATOM     93  C   UNL A   1      47.453  33.520  29.956  1.00  0.00     0.135 A 
ATOM     94  C   UNL A   1      46.964  34.192  27.699  1.00  0.00     0.135 A 
ATOM     95  F   UNL A   1      47.553  32.581  30.910  1.00  0.00    -0.206 F 
ATOM     96  C   UNL A   1      47.715  34.842  30.301  1.00  0.00     0.059 A 
ATOM     97  C   UNL A   1      47.254  35.515  28.014  1.00  0.00     0.059 A 
ATOM     98  F   UNL A   1      46.604  33.909  26.437  1.00  0.00    -0.206 F 
ATOM     99  C   UNL A   1      47.618  35.832  29.322  1.00  0.00     0.060 A 
BRANCH  99 100
ATOM    100  S   UNL A   1      48.000  37.537  29.775  1.00  0.00     0.124 S 
ATOM    101  O   UNL A   1      47.090  37.755  30.894  1.00  0.00    -0.237 OA
ATOM    102  O   UNL A   1      49.417  37.458  30.115  1.00  0.00    -0.237 OA
ATOM    103  O   UNL A   1      47.695  38.289  28.562  1.00  0.00    -0.744 OA
ENDBRANCH  99 100
ENDBRANCH  67  92
ENDBRANCH  41  42
ENDBRANCH  33  36
ENDBRANCH  31  32
ENDBRANCH  30  31
ENDBRANCH  29  30
ENDBRANCH   1  29
TORSDOF 21
ENDMDL
MODEL 2
REMARK VINA RESULT:      -9.9      2.727      8.735
REMARK SMILES CCc1c(C)nc(Nc2cc(Cl)ccc2C)nc1OCC(=O)NCCCCCCNC(=O)c1ccc(-c2c3nc(c(-c4c(F)cc(S(=O)(=O)[O-])cc4F)c4ccc([nH]4)c(-c4c(F)cc(S(=O)(=O)[O-])cc4F)c4nc(c(-c5c(F)cc(S(=O)(=O)[O-])cc5F)c5ccc2[nH]5)C=C4)C=C3)cc1
REMARK SMILES IDX 26 1 25 2 24 3 23 4 21 5 22 6 20 8 19 9 18 10 3 11 4 12 5 13
REMARK SMILES IDX 6 14 17 15 7 16 2 17 1 18 8 19 9 21 10 22 15 23 11 24 14 25
REMARK SMILES IDX 16 26 12 27 13 28 27 29 28 30 29 31 30 32 31 33 32 35 33 36
REMARK SMILES IDX 34 37 98 38 35 39 97 40 36 41 37 42 38 43 91 44 39 45 96 46
REMARK SMILES IDX 90 47 92 48 40 49 95 50 89 51 88 52 41 54 75 55 54 56 74 57
REMARK SMILES IDX 55 58 58 59 73 60 93 61 56 62 57 63 72 65 94 66 59 67 42 68
REMARK SMILES IDX 43 69 52 70 44 71 45 72 51 73 53 74 46 75 47 76 48 77 49 78
REMARK SMILES IDX 50 79 76 80 77 81 86 82 78 83 79 84 85 85 87 86 80 87 81 88
REMARK SMILES IDX 82 89 83 90 84 91 60 92 61 93 70 94 62 95 63 96 69 97 71 98
REMARK SMILES IDX 64 99 65 100 66 101 67 102 68 103
REMARK H PARENT 23 7 8 20 30 34 92 53 58 64
REMARK Flexibility Score: inf
ROOT
ATOM      1  C   UNL A   1      32.081  29.134  26.741  1.00  0.00     0.002 C 
ENDROOT
BRANCH   1   2
ATOM      2  C   UNL A   1      31.684  27.743  27.253  1.00  0.00     0.021 C 
BRANCH   2   3
ATOM      3  C   UNL A   1      32.086  26.586  26.347  1.00  0.00     0.116 C 
BRANCH   3   4
ATOM      4  N   UNL A   1      31.243  25.430  26.545  1.00  0.00    -0.353 N 
ATOM      5  C   UNL A   1      31.614  24.184  26.930  1.00  0.00     0.258 C 
ATOM      6  O   UNL A   1      30.730  23.389  27.259  1.00  0.00    -0.271 OA
ATOM      7  H   UNL A   1      30.281  25.562  26.380  1.00  0.00     0.163 HD
BRANCH   5   8
ATOM      8  C   UNL A   1      33.103  23.823  27.027  1.00  0.00     0.331 C 
BRANCH   8   9
ATOM      9  O   UNL A   1      33.849  23.309  25.949  1.00  0.00    -0.467 OA
BRANCH   9  10
ATOM     10  C   UNL A   1      33.389  23.118  24.686  1.00  0.00     0.222 A 
ATOM     11  C   UNL A   1      33.145  21.921  24.017  1.00  0.00     0.035 A 
ATOM     12  C   UNL A   1      32.593  22.079  22.747  1.00  0.00     0.050 A 
ATOM     13  C   UNL A   1      32.143  20.958  21.857  1.00  0.00     0.067 C 
ATOM     14  N   UNL A   1      32.457  23.279  22.161  1.00  0.00    -0.218 NA
ATOM     15  N   UNL A   1      33.257  24.328  24.084  1.00  0.00    -0.177 NA
ATOM     16  C   UNL A   1      32.815  24.373  22.827  1.00  0.00     0.230 A 
BRANCH  11  17
ATOM     17  C   UNL A   1      33.464  20.547  24.533  1.00  0.00     0.040 C 
ATOM     18  C   UNL A   1      32.258  19.624  24.658  1.00  0.00     0.009 C 
ENDBRANCH  11  17
BRANCH  16  19
ATOM     19  N   UNL A   1      32.787  25.604  22.164  1.00  0.00    -0.324 N 
ATOM     20  H   UNL A   1      33.386  25.704  21.388  1.00  0.00     0.170 HD
BRANCH  19  21
ATOM     21  C   UNL A   1      31.987  26.714  22.494  1.00  0.00     0.045 A 
ATOM     22  C   UNL A   1      30.622  26.514  22.757  1.00  0.00     0.047 A 
ATOM     23  C   UNL A   1      32.535  28.001  22.700  1.00  0.00    -0.027 A 
ATOM     24  C   UNL A   1      29.834  27.554  23.256  1.00  0.00     0.043 A 
ATOM     25  C   UNL A   1      31.730  29.030  23.219  1.00  0.00     0.007 A 
ATOM     26  C   UNL A   1      33.970  28.315  22.363  1.00  0.00     0.046 C 
ATOM     27  Cl  UNL A   1      28.171  27.277  23.612  1.00  0.00    -0.084 Cl
ATOM     28  C   UNL A   1      30.385  28.807  23.502  1.00  0.00     0.021 A 
ENDBRANCH  19  21
ENDBRANCH  16  19
ENDBRANCH   9  10
ENDBRANCH   8   9
ENDBRANCH   5   8
ENDBRANCH   3   4
ENDBRANCH   2   3
ENDBRANCH   1   2
BRANCH   1  29
ATOM     29  C   UNL A   1      33.409  29.687  27.268  1.00  0.00     0.002 C 
BRANCH  29  30
ATOM     30  C   UNL A   1      33.402  31.168  27.644  1.00  0.00     0.021 C 
BRANCH  30  31
ATOM     31  C   UNL A   1      34.679  31.661  28.305  1.00  0.00     0.116 C 
BRANCH  31  32
ATOM     32  N   UNL A   1      34.460  32.068  29.682  1.00  0.00    -0.352 N 
ATOM     33  C   UNL A   1      35.321  31.991  30.751  1.00  0.00     0.251 C 
ATOM     34  H   UNL A   1      33.574  32.450  29.877  1.00  0.00     0.163 HD
ATOM     35  O   UNL A   1      34.913  32.190  31.887  1.00  0.00    -0.269 OA
BRANCH  33  36
ATOM     36  C   UNL A   1      36.739  31.641  30.514  1.00  0.00     0.039 A 
ATOM     37  C   UNL A   1      37.389  30.797  31.416  1.00  0.00     0.014 A 
ATOM     38  C   UNL A   1      37.417  32.133  29.394  1.00  0.00     0.014 A 
ATOM     39  C   UNL A   1      38.704  30.402  31.164  1.00  0.00     0.010 A 
ATOM     40  C   UNL A   1      38.696  31.671  29.102  1.00  0.00     0.010 A 
ATOM     41  C   UNL A   1      39.358  30.809  29.988  1.00  0.00    -0.014 A 
BRANCH  41  42
ATOM     42  C   UNL A   1      40.735  30.351  29.672  1.00  0.00     0.031 A 
ATOM     43  C   UNL A   1      41.889  31.312  29.772  1.00  0.00     0.074 A 
ATOM     44  C   UNL A   1      40.937  29.092  29.240  1.00  0.00     0.049 A 
ATOM     45  N   UNL A   1      43.152  31.120  29.488  1.00  0.00    -0.248 NA
ATOM     46  C   UNL A   1      41.578  32.678  30.224  1.00  0.00     0.031 C 
ATOM     47  C   UNL A   1      39.893  28.079  29.065  1.00  0.00     0.029 A 
ATOM     48  N   UNL A   1      42.089  28.446  28.863  1.00  0.00    -0.354 N 
ATOM     49  C   UNL A   1      43.780  32.339  29.713  1.00  0.00     0.074 A 
ATOM     50  C   UNL A   1      42.752  33.279  30.097  1.00  0.00     0.031 C 
ATOM     51  C   UNL A   1      40.455  26.933  28.648  1.00  0.00     0.029 A 
ATOM     52  C   UNL A   1      41.891  27.140  28.483  1.00  0.00     0.049 A 
ATOM     53  H   UNL A   1      42.973  28.878  28.866  1.00  0.00     0.167 HD
ATOM     54  C   UNL A   1      45.099  32.640  29.632  1.00  0.00     0.037 A 
ATOM     55  C   UNL A   1      42.768  26.214  28.047  1.00  0.00     0.037 A 
ATOM     56  C   UNL A   1      46.118  31.692  29.263  1.00  0.00     0.049 A 
ATOM     57  C   UNL A   1      44.223  26.580  27.936  1.00  0.00     0.074 A 
ATOM     58  C   UNL A   1      47.487  31.880  29.203  1.00  0.00     0.029 A 
ATOM     59  N   UNL A   1      45.878  30.380  28.880  1.00  0.00    -0.354 N 
ATOM     60  N   UNL A   1      44.812  27.719  28.220  1.00  0.00    -0.248 NA
ATOM     61  C   UNL A   1      45.135  25.536  27.448  1.00  0.00     0.031 C 
ATOM     62  C   UNL A   1      48.069  30.700  28.729  1.00  0.00     0.029 A 
ATOM     63  C   UNL A   1      47.071  29.756  28.554  1.00  0.00     0.049 A 
ATOM     64  H   UNL A   1      44.990  29.955  28.846  1.00  0.00     0.167 HD
ATOM     65  C   UNL A   1      46.168  27.516  27.979  1.00  0.00     0.074 A 
ATOM     66  C   UNL A   1      46.310  26.145  27.535  1.00  0.00     0.031 C 
ATOM     67  C   UNL A   1      47.199  28.385  28.119  1.00  0.00     0.037 A 
BRANCH  54  68
ATOM     68  C   UNL A   1      45.509  34.057  29.938  1.00  0.00     0.058 A 
ATOM     69  C   UNL A   1      45.833  34.470  31.242  1.00  0.00     0.135 A 
ATOM     70  C   UNL A   1      45.593  35.014  28.913  1.00  0.00     0.135 A 
ATOM     71  F   UNL A   1      45.760  33.604  32.264  1.00  0.00    -0.206 F 
ATOM     72  C   UNL A   1      46.180  35.788  31.524  1.00  0.00     0.059 A 
ATOM     73  C   UNL A   1      45.971  36.329  29.167  1.00  0.00     0.059 A 
ATOM     74  F   UNL A   1      45.298  34.677  27.648  1.00  0.00    -0.206 F 
ATOM     75  C   UNL A   1      46.242  36.711  30.480  1.00  0.00     0.060 A 
BRANCH  75  76
ATOM     76  S   UNL A   1      46.674  38.420  30.866  1.00  0.00     0.124 S 
ATOM     77  O   UNL A   1      45.458  39.125  30.472  1.00  0.00    -0.237 OA
ATOM     78  O   UNL A   1      46.934  38.359  32.301  1.00  0.00    -0.237 OA
ATOM     79  O   UNL A   1      47.845  38.673  30.031  1.00  0.00    -0.744 OA
ENDBRANCH  75  76
ENDBRANCH  54  68
BRANCH  55  80
ATOM     80  C   UNL A   1      42.298  24.841  27.714  1.00  0.00     0.058 A 
ATOM     81  C   UNL A   1      41.735  24.560  26.460  1.00  0.00     0.135 A 
ATOM     82  C   UNL A   1      42.412  23.784  28.629  1.00  0.00     0.135 A 
ATOM     83  F   UNL A   1      41.598  25.537  25.551  1.00  0.00    -0.206 F 
ATOM     84  C   UNL A   1      41.286  23.285  26.130  1.00  0.00     0.059 A 
ATOM     85  C   UNL A   1      41.996  22.494  28.314  1.00  0.00     0.059 A 
ATOM     86  F   UNL A   1      42.958  23.996  29.838  1.00  0.00    -0.206 F 
ATOM     87  C   UNL A   1      41.425  22.256  27.065  1.00  0.00     0.060 A 
BRANCH  87  88
ATOM     88  S   UNL A   1      40.883  20.596  26.608  1.00  0.00     0.124 S 
ATOM     89  O   UNL A   1      39.592  20.869  25.987  1.00  0.00    -0.237 OA
ATOM     90  O   UNL A   1      41.947  20.165  25.707  1.00  0.00    -0.237 OA
ATOM     91  O   UNL A   1      40.833  19.895  27.887  1.00  0.00    -0.744 OA
ENDBRANCH  87  88
ENDBRANCH  55  80
BRANCH  67  92
ATOM     92  C   UNL A   1      48.584  27.871  27.831  1.00  0.00     0.058 A 
ATOM     93  C   UNL A   1      49.443  27.436  28.852  1.00  0.00     0.135 A 
ATOM     94  C   UNL A   1      49.036  27.760  26.505  1.00  0.00     0.135 A 
ATOM     95  F   UNL A   1      49.066  27.527  30.138  1.00  0.00    -0.206 F 
ATOM     96  C   UNL A   1      50.709  26.933  28.571  1.00  0.00     0.059 A 
ATOM     97  C   UNL A   1      50.284  27.229  26.199  1.00  0.00     0.059 A 
ATOM     98  F   UNL A   1      48.251  28.151  25.488  1.00  0.00    -0.206 F 
ATOM     99  C   UNL A   1      51.119  26.829  27.240  1.00  0.00     0.060 A 
BRANCH  99 100
ATOM    100  S   UNL A   1      52.749  26.136  26.889  1.00  0.00     0.124 S 
ATOM    101  O   UNL A   1      53.366  26.150  28.212  1.00  0.00    -0.237 OA
ATOM    102  O   UNL A   1      52.419  24.818  26.357  1.00  0.00    -0.237 OA
ATOM    103  O   UNL A   1      53.316  27.072  25.923  1.00  0.00    -0.744 OA
ENDBRANCH  99 100
ENDBRANCH  67  92
ENDBRANCH  41  42
ENDBRANCH  33  36
ENDBRANCH  31  32
ENDBRANCH  30  31
ENDBRANCH  29  30
ENDBRANCH   1  29
TORSDOF 21
ENDMDL
MODEL 3
REMARK VINA RESULT:      -9.8      6.196     10.813
REMARK SMILES CCc1c(C)nc(Nc2cc(Cl)ccc2C)nc1OCC(=O)NCCCCCCNC(=O)c1ccc(-c2c3nc(c(-c4c(F)cc(S(=O)(=O)[O-])cc4F)c4ccc([nH]4)c(-c4c(F)cc(S(=O)(=O)[O-])cc4F)c4nc(c(-c5c(F)cc(S(=O)(=O)[O-])cc5F)c5ccc2[nH]5)C=C4)C=C3)cc1
REMARK SMILES IDX 26 1 25 2 24 3 23 4 21 5 22 6 20 8 19 9 18 10 3 11 4 12 5 13
REMARK SMILES IDX 6 14 17 15 7 16 2 17 1 18 8 19 9 21 10 22 15 23 11 24 14 25
REMARK SMILES IDX 16 26 12 27 13 28 27 29 28 30 29 31 30 32 31 33 32 35 33 36
REMARK SMILES IDX 34 37 98 38 35 39 97 40 36 41 37 42 38 43 91 44 39 45 96 46
REMARK SMILES IDX 90 47 92 48 40 49 95 50 89 51 88 52 41 54 75 55 54 56 74 57
REMARK SMILES IDX 55 58 58 59 73 60 93 61 56 62 57 63 72 65 94 66 59 67 42 68
REMARK SMILES IDX 43 69 52 70 44 71 45 72 51 73 53 74 46 75 47 76 48 77 49 78
REMARK SMILES IDX 50 79 76 80 77 81 86 82 78 83 79 84 85 85 87 86 80 87 81 88
REMARK SMILES IDX 82 89 83 90 84 91 60 92 61 93 70 94 62 95 63 96 69 97 71 98
REMARK SMILES IDX 64 99 65 100 66 101 67 102 68 103
REMARK H PARENT 23 7 8 20 30 34 92 53 58 64
REMARK Flexibility Score: inf
ROOT
ATOM      1  C   UNL A   1      39.982  25.393  27.346  1.00  0.00     0.002 C 
ENDROOT
BRANCH   1   2
ATOM      2  C   UNL A   1      39.224  24.059  27.300  1.00  0.00     0.021 C 
BRANCH   2   3
ATOM      3  C   UNL A   1      38.127  23.979  26.246  1.00  0.00     0.116 C 
BRANCH   3   4
ATOM      4  N   UNL A   1      37.829  22.612  25.884  1.00  0.00    -0.353 N 
ATOM      5  C   UNL A   1      37.324  22.153  24.712  1.00  0.00     0.258 C 
ATOM      6  O   UNL A   1      37.344  20.936  24.508  1.00  0.00    -0.271 OA
ATOM      7  H   UNL A   1      38.015  21.932  26.571  1.00  0.00     0.163 HD
BRANCH   5   8
ATOM      8  C   UNL A   1      36.823  23.142  23.651  1.00  0.00     0.331 C 
BRANCH   8   9
ATOM      9  O   UNL A   1      35.678  22.921  22.863  1.00  0.00    -0.467 OA
BRANCH   9  10
ATOM     10  C   UNL A   1      34.412  23.296  23.179  1.00  0.00     0.222 A 
ATOM     11  C   UNL A   1      33.447  22.594  23.897  1.00  0.00     0.035 A 
ATOM     12  C   UNL A   1      32.269  23.306  24.115  1.00  0.00     0.050 A 
ATOM     13  C   UNL A   1      31.112  22.827  24.941  1.00  0.00     0.067 C 
ATOM     14  N   UNL A   1      32.028  24.499  23.549  1.00  0.00    -0.218 NA
ATOM     15  N   UNL A   1      34.158  24.498  22.601  1.00  0.00    -0.177 NA
ATOM     16  C   UNL A   1      32.962  25.057  22.783  1.00  0.00     0.230 A 
BRANCH  11  17
ATOM     17  C   UNL A   1      33.572  21.180  24.386  1.00  0.00     0.040 C 
ATOM     18  C   UNL A   1      34.071  21.049  25.820  1.00  0.00     0.009 C 
ENDBRANCH  11  17
BRANCH  16  19
ATOM     19  N   UNL A   1      32.656  26.236  22.099  1.00  0.00    -0.324 N 
ATOM     20  H   UNL A   1      32.958  26.298  21.163  1.00  0.00     0.170 HD
BRANCH  19  21
ATOM     21  C   UNL A   1      31.956  27.345  22.612  1.00  0.00     0.045 A 
ATOM     22  C   UNL A   1      30.555  27.368  22.515  1.00  0.00     0.047 A 
ATOM     23  C   UNL A   1      32.602  28.372  23.337  1.00  0.00    -0.027 A 
ATOM     24  C   UNL A   1      29.814  28.359  23.163  1.00  0.00     0.043 A 
ATOM     25  C   UNL A   1      31.838  29.351  23.996  1.00  0.00     0.007 A 
ATOM     26  C   UNL A   1      34.104  28.462  23.417  1.00  0.00     0.046 C 
ATOM     27  Cl  UNL A   1      28.094  28.347  23.068  1.00  0.00    -0.084 Cl
ATOM     28  C   UNL A   1      30.449  29.342  23.915  1.00  0.00     0.021 A 
ENDBRANCH  19  21
ENDBRANCH  16  19
ENDBRANCH   9  10
ENDBRANCH   8   9
ENDBRANCH   5   8
ENDBRANCH   3   4
ENDBRANCH   2   3
ENDBRANCH   1   2
BRANCH   1  29
ATOM     29  C   UNL A   1      40.637  25.835  26.033  1.00  0.00     0.002 C 
BRANCH  29  30
ATOM     30  C   UNL A   1      41.168  27.268  26.015  1.00  0.00     0.021 C 
BRANCH  30  31
ATOM     31  C   UNL A   1      42.423  27.469  25.180  1.00  0.00     0.116 C 
BRANCH  31  32
ATOM     32  N   UNL A   1      43.412  26.432  25.420  1.00  0.00    -0.352 N 
ATOM     33  C   UNL A   1      44.148  26.191  26.555  1.00  0.00     0.251 C 
ATOM     34  H   UNL A   1      43.578  25.820  24.668  1.00  0.00     0.163 HD
ATOM     35  O   UNL A   1      45.084  25.403  26.527  1.00  0.00    -0.269 OA
BRANCH  33  36
ATOM     36  C   UNL A   1      43.811  26.912  27.803  1.00  0.00     0.039 A 
ATOM     37  C   UNL A   1      44.194  28.247  27.939  1.00  0.00     0.014 A 
ATOM     38  C   UNL A   1      43.105  26.273  28.827  1.00  0.00     0.014 A 
ATOM     39  C   UNL A   1      43.820  28.958  29.080  1.00  0.00     0.010 A 
ATOM     40  C   UNL A   1      42.661  27.006  29.922  1.00  0.00     0.010 A 
ATOM     41  C   UNL A   1      43.021  28.354  30.066  1.00  0.00    -0.014 A 
BRANCH  41  42
ATOM     42  C   UNL A   1      42.561  29.111  31.259  1.00  0.00     0.031 A 
ATOM     43  C   UNL A   1      41.290  29.914  31.197  1.00  0.00     0.074 A 
ATOM     44  C   UNL A   1      43.317  29.123  32.374  1.00  0.00     0.049 A 
ATOM     45  N   UNL A   1      40.751  30.680  32.109  1.00  0.00    -0.248 NA
ATOM     46  C   UNL A   1      40.539  29.870  29.931  1.00  0.00     0.031 C 
ATOM     47  C   UNL A   1      44.589  28.415  32.542  1.00  0.00     0.029 A 
ATOM     48  N   UNL A   1      43.129  29.756  33.577  1.00  0.00    -0.354 N 
ATOM     49  C   UNL A   1      39.611  31.220  31.526  1.00  0.00     0.074 A 
ATOM     50  C   UNL A   1      39.568  30.741  30.162  1.00  0.00     0.031 C 
ATOM     51  C   UNL A   1      45.049  28.626  33.786  1.00  0.00     0.029 A 
ATOM     52  C   UNL A   1      44.131  29.518  34.489  1.00  0.00     0.049 A 
ATOM     53  H   UNL A   1      42.351  30.326  33.770  1.00  0.00     0.167 HD
ATOM     54  C   UNL A   1      38.670  32.020  32.084  1.00  0.00     0.037 A 
ATOM     55  C   UNL A   1      44.294  29.971  35.747  1.00  0.00     0.037 A 
ATOM     56  C   UNL A   1      38.714  32.480  33.448  1.00  0.00     0.049 A 
ATOM     57  C   UNL A   1      43.253  30.884  36.336  1.00  0.00     0.074 A 
ATOM     58  C   UNL A   1      37.786  33.248  34.127  1.00  0.00     0.029 A 
ATOM     59  N   UNL A   1      39.748  32.222  34.338  1.00  0.00    -0.354 N 
ATOM     60  N   UNL A   1      42.142  31.328  35.794  1.00  0.00    -0.248 NA
ATOM     61  C   UNL A   1      43.482  31.355  37.709  1.00  0.00     0.031 C 
ATOM     62  C   UNL A   1      38.285  33.503  35.409  1.00  0.00     0.029 A 
ATOM     63  C   UNL A   1      39.494  32.841  35.551  1.00  0.00     0.049 A 
ATOM     64  H   UNL A   1      40.544  31.678  34.137  1.00  0.00     0.167 HD
ATOM     65  C   UNL A   1      41.525  32.102  36.772  1.00  0.00     0.074 A 
ATOM     66  C   UNL A   1      42.381  32.056  37.939  1.00  0.00     0.031 C 
ATOM     67  C   UNL A   1      40.353  32.781  36.709  1.00  0.00     0.037 A 
BRANCH  54  68
ATOM     68  C   UNL A   1      37.522  32.457  31.212  1.00  0.00     0.058 A 
ATOM     69  C   UNL A   1      36.272  31.816  31.255  1.00  0.00     0.135 A 
ATOM     70  C   UNL A   1      37.667  33.541  30.330  1.00  0.00     0.135 A 
ATOM     71  F   UNL A   1      36.078  30.767  32.070  1.00  0.00    -0.206 F 
ATOM     72  C   UNL A   1      35.225  32.203  30.425  1.00  0.00     0.059 A 
ATOM     73  C   UNL A   1      36.622  33.967  29.515  1.00  0.00     0.059 A 
ATOM     74  F   UNL A   1      38.837  34.194  30.247  1.00  0.00    -0.206 F 
ATOM     75  C   UNL A   1      35.412  33.278  29.555  1.00  0.00     0.060 A 
BRANCH  75  76
ATOM     76  S   UNL A   1      34.050  33.754  28.471  1.00  0.00     0.124 S 
ATOM     77  O   UNL A   1      33.069  34.246  29.434  1.00  0.00    -0.237 OA
ATOM     78  O   UNL A   1      34.666  34.768  27.622  1.00  0.00    -0.237 OA
ATOM     79  O   UNL A   1      33.697  32.507  27.798  1.00  0.00    -0.744 OA
ENDBRANCH  75  76
ENDBRANCH  54  68
BRANCH  55  80
ATOM     80  C   UNL A   1      45.475  29.543  36.547  1.00  0.00     0.058 A 
ATOM     81  C   UNL A   1      45.413  28.402  37.362  1.00  0.00     0.135 A 
ATOM     82  C   UNL A   1      46.685  30.251  36.506  1.00  0.00     0.135 A 
ATOM     83  F   UNL A   1      44.276  27.695  37.440  1.00  0.00    -0.206 F 
ATOM     84  C   UNL A   1      46.502  27.987  38.120  1.00  0.00     0.059 A 
ATOM     85  C   UNL A   1      47.798  29.840  37.234  1.00  0.00     0.059 A 
ATOM     86  F   UNL A   1      46.803  31.340  35.730  1.00  0.00    -0.206 F 
ATOM     87  C   UNL A   1      47.694  28.712  38.046  1.00  0.00     0.060 A 
BRANCH  87  88
ATOM     88  S   UNL A   1      49.116  28.136  38.998  1.00  0.00     0.124 S 
ATOM     89  O   UNL A   1      48.470  27.565  40.175  1.00  0.00    -0.237 OA
ATOM     90  O   UNL A   1      49.731  27.183  38.080  1.00  0.00    -0.237 OA
ATOM     91  O   UNL A   1      49.882  29.356  39.229  1.00  0.00    -0.744 OA
ENDBRANCH  87  88
ENDBRANCH  55  80
BRANCH  67  92
ATOM     92  C   UNL A   1      39.900  33.500  37.951  1.00  0.00     0.058 A 
ATOM     93  C   UNL A   1      38.898  32.982  38.787  1.00  0.00     0.135 A 
ATOM     94  C   UNL A   1      40.520  34.700  38.341  1.00  0.00     0.135 A 
ATOM     95  F   UNL A   1      38.267  31.843  38.459  1.00  0.00    -0.206 F 
ATOM     96  C   UNL A   1      38.510  33.639  39.950  1.00  0.00     0.059 A 
ATOM     97  C   UNL A   1      40.171  35.356  39.516  1.00  0.00     0.059 A 
ATOM     98  F   UNL A   1      41.492  35.236  37.584  1.00  0.00    -0.206 F 
ATOM     99  C   UNL A   1      39.156  34.824  40.309  1.00  0.00     0.060 A 
BRANCH  99 100
ATOM    100  S   UNL A   1      38.670  35.644  41.841  1.00  0.00     0.124 S 
ATOM    101  O   UNL A   1      38.917  37.045  41.517  1.00  0.00    -0.237 OA
ATOM    102  O   UNL A   1      37.267  35.259  41.968  1.00  0.00    -0.237 OA
ATOM    103  O   UNL A   1      39.565  35.063  42.838  1.00  0.00    -0.744 OA
ENDBRANCH  99 100
ENDBRANCH  67  92
ENDBRANCH  41  42
ENDBRANCH  33  36
ENDBRANCH  31  32
ENDBRANCH  30  31
ENDBRANCH  29  30
ENDBRANCH   1  29
TORSDOF 21
ENDMDL
