MODEL 1
REMARK VINA RESULT:     -11.6      0.000      0.000
REMARK SMILES Cc1nc([C@]2(C)CCCO2)nc(C)c1C(=O)NCCCCCCNC(=O)c1ccc(-c2c3nc(c(-c4c(F)cc(S(=O)(=O)[O-])cc4F)c4ccc([nH]4)c(-c4c(F)cc(S(=O)(=O)[O-])cc4F)c4nc(c(-c5c(F)cc(S(=O)(=O)[O-])cc5F)c5ccc2[nH]5)C=C4)C=C3)cc1
REMARK SMILES IDX 21 1 20 2 19 3 18 4 17 5 15 6 16 7 14 9 1 10 2 11 3 12 4 13
REMARK SMILES IDX 12 14 11 15 13 16 5 17 7 18 10 19 6 20 8 21 9 22 22 23 23 24
REMARK SMILES IDX 24 25 25 26 26 28 27 29 28 30 92 31 29 32 91 33 30 34 31 35
REMARK SMILES IDX 32 36 85 37 33 38 90 39 84 40 86 41 34 42 89 43 83 44 82 45
REMARK SMILES IDX 35 47 69 48 48 49 68 50 49 51 52 52 67 53 87 54 50 55 51 56
REMARK SMILES IDX 66 58 88 59 53 60 36 61 37 62 46 63 38 64 39 65 45 66 47 67
REMARK SMILES IDX 40 68 41 69 42 70 43 71 44 72 70 73 71 74 80 75 72 76 73 77
REMARK SMILES IDX 79 78 81 79 74 80 75 81 76 82 77 83 78 84 54 85 55 86 64 87
REMARK SMILES IDX 56 88 57 89 63 90 65 91 58 92 59 93 60 94 61 95 62 96
REMARK H PARENT 17 8 24 27 86 46 52 57
REMARK Flexibility Score: inf
ROOT
ATOM      1  C   UNL A   1      34.755  29.246  27.173  1.00  0.00     0.002 C 
ENDROOT
BRANCH   1   2
ATOM      2  C   UNL A   1      33.768  28.689  26.138  1.00  0.00     0.002 C 
BRANCH   2   3
ATOM      3  C   UNL A   1      33.773  27.162  26.011  1.00  0.00     0.021 C 
BRANCH   3   4
ATOM      4  C   UNL A   1      32.393  26.547  26.252  1.00  0.00     0.116 C 
BRANCH   4   5
ATOM      5  N   UNL A   1      31.939  25.827  25.090  1.00  0.00    -0.352 N 
ATOM      6  C   UNL A   1      31.282  26.020  23.917  1.00  0.00     0.254 C 
ATOM      7  O   UNL A   1      31.261  24.964  23.273  1.00  0.00    -0.269 OA
ATOM      8  H   UNL A   1      32.189  24.878  25.175  1.00  0.00     0.163 HD
BRANCH   6   9
ATOM      9  C   UNL A   1      30.629  27.247  23.338  1.00  0.00     0.082 A 
ATOM     10  C   UNL A   1      32.633  28.674  22.497  1.00  0.00     0.068 C 
ATOM     11  C   UNL A   1      31.198  28.369  22.741  1.00  0.00     0.054 A 
ATOM     12  N   UNL A   1      30.460  29.412  22.278  1.00  0.00    -0.234 NA
ATOM     13  C   UNL A   1      29.135  29.424  22.430  1.00  0.00     0.160 A 
ATOM     14  C   UNL A   1      29.217  27.341  23.429  1.00  0.00     0.054 A 
ATOM     15  N   UNL A   1      28.483  28.401  22.979  1.00  0.00    -0.234 NA
ATOM     16  C   UNL A   1      28.328  26.304  24.066  1.00  0.00     0.068 C 
BRANCH  13  17
ATOM     17  C   UNL A   1      28.386  30.691  21.999  1.00  0.00     0.125 C 
ATOM     18  C   UNL A   1      29.164  31.963  22.337  1.00  0.00     0.046 C 
ATOM     19  O   UNL A   1      27.157  30.823  22.761  1.00  0.00    -0.367 OA
ATOM     20  C   UNL A   1      28.004  30.649  20.519  1.00  0.00     0.051 C 
ATOM     21  C   UNL A   1      28.796  32.241  23.779  1.00  0.00     0.032 C 
ATOM     22  C   UNL A   1      27.443  31.575  23.951  1.00  0.00     0.161 C 
ENDBRANCH  13  17
ENDBRANCH   6   9
ENDBRANCH   4   5
ENDBRANCH   3   4
ENDBRANCH   2   3
ENDBRANCH   1   2
BRANCH   1  23
ATOM     23  C   UNL A   1      34.530  30.713  27.548  1.00  0.00     0.021 C 
BRANCH  23  24
ATOM     24  C   UNL A   1      35.716  31.362  28.254  1.00  0.00     0.116 C 
BRANCH  24  25
ATOM     25  N   UNL A   1      35.605  31.228  29.702  1.00  0.00    -0.352 N 
ATOM     26  C   UNL A   1      36.407  30.542  30.567  1.00  0.00     0.251 C 
ATOM     27  H   UNL A   1      34.845  31.698  30.113  1.00  0.00     0.163 HD
ATOM     28  O   UNL A   1      36.009  30.296  31.708  1.00  0.00    -0.269 OA
BRANCH  26  29
ATOM     29  C   UNL A   1      37.747  30.102  30.138  1.00  0.00     0.039 A 
ATOM     30  C   UNL A   1      38.012  29.947  28.776  1.00  0.00     0.014 A 
ATOM     31  C   UNL A   1      38.734  29.816  31.089  1.00  0.00     0.014 A 
ATOM     32  C   UNL A   1      39.282  29.543  28.365  1.00  0.00     0.010 A 
ATOM     33  C   UNL A   1      40.017  29.482  30.673  1.00  0.00     0.010 A 
ATOM     34  C   UNL A   1      40.300  29.331  29.309  1.00  0.00    -0.014 A 
BRANCH  34  35
ATOM     35  C   UNL A   1      41.666  28.934  28.889  1.00  0.00     0.031 A 
ATOM     36  C   UNL A   1      42.759  29.966  28.819  1.00  0.00     0.074 A 
ATOM     37  C   UNL A   1      41.900  27.662  28.513  1.00  0.00     0.049 A 
ATOM     38  N   UNL A   1      43.992  29.833  28.404  1.00  0.00    -0.248 NA
ATOM     39  C   UNL A   1      42.413  31.332  29.244  1.00  0.00     0.031 C 
ATOM     40  C   UNL A   1      40.905  26.588  28.493  1.00  0.00     0.029 A 
ATOM     41  N   UNL A   1      43.047  27.058  28.061  1.00  0.00    -0.354 N 
ATOM     42  C   UNL A   1      44.563  31.097  28.504  1.00  0.00     0.074 A 
ATOM     43  C   UNL A   1      43.529  31.993  28.972  1.00  0.00     0.031 C 
ATOM     44  C   UNL A   1      41.488  25.455  28.070  1.00  0.00     0.029 A 
ATOM     45  C   UNL A   1      42.885  25.728  27.754  1.00  0.00     0.049 A 
ATOM     46  H   UNL A   1      43.904  27.533  27.967  1.00  0.00     0.167 HD
ATOM     47  C   UNL A   1      45.840  31.469  28.250  1.00  0.00     0.037 A 
ATOM     48  C   UNL A   1      43.764  24.833  27.263  1.00  0.00     0.037 A 
ATOM     49  C   UNL A   1      46.870  30.561  27.818  1.00  0.00     0.049 A 
ATOM     50  C   UNL A   1      45.180  25.271  26.999  1.00  0.00     0.074 A 
ATOM     51  C   UNL A   1      48.209  30.825  27.593  1.00  0.00     0.029 A 
ATOM     52  N   UNL A   1      46.676  29.214  27.548  1.00  0.00    -0.354 N 
ATOM     53  N   UNL A   1      45.718  26.457  27.159  1.00  0.00    -0.248 NA
ATOM     54  C   UNL A   1      46.109  24.250  26.497  1.00  0.00     0.031 C 
ATOM     55  C   UNL A   1      48.818  29.646  27.148  1.00  0.00     0.029 A 
ATOM     56  C   UNL A   1      47.868  28.638  27.142  1.00  0.00     0.049 A 
ATOM     57  H   UNL A   1      45.818  28.739  27.632  1.00  0.00     0.167 HD
ATOM     58  C   UNL A   1      47.056  26.316  26.805  1.00  0.00     0.074 A 
ATOM     59  C   UNL A   1      47.246  24.929  26.434  1.00  0.00     0.031 C 
ATOM     60  C   UNL A   1      48.039  27.250  26.790  1.00  0.00     0.037 A 
BRANCH  47  61
ATOM     61  C   UNL A   1      46.202  32.916  28.442  1.00  0.00     0.058 A 
ATOM     62  C   UNL A   1      46.102  33.846  27.395  1.00  0.00     0.135 A 
ATOM     63  C   UNL A   1      46.602  33.391  29.701  1.00  0.00     0.135 A 
ATOM     64  F   UNL A   1      45.740  33.443  26.166  1.00  0.00    -0.206 F 
ATOM     65  C   UNL A   1      46.404  35.189  27.583  1.00  0.00     0.059 A 
ATOM     66  C   UNL A   1      46.883  34.737  29.920  1.00  0.00     0.059 A 
ATOM     67  F   UNL A   1      46.718  32.545  30.738  1.00  0.00    -0.206 F 
ATOM     68  C   UNL A   1      46.791  35.626  28.851  1.00  0.00     0.060 A 
BRANCH  68  69
ATOM     69  S   UNL A   1      47.155  37.379  29.084  1.00  0.00     0.124 S 
ATOM     70  O   UNL A   1      47.945  37.673  27.893  1.00  0.00    -0.237 OA
ATOM     71  O   UNL A   1      45.822  37.972  29.122  1.00  0.00    -0.237 OA
ATOM     72  O   UNL A   1      47.887  37.411  30.346  1.00  0.00    -0.744 OA
ENDBRANCH  68  69
ENDBRANCH  47  61
BRANCH  48  73
ATOM     73  C   UNL A   1      43.338  23.433  27.005  1.00  0.00     0.058 A 
ATOM     74  C   UNL A   1      43.124  22.972  25.698  1.00  0.00     0.135 A 
ATOM     75  C   UNL A   1      43.134  22.527  28.058  1.00  0.00     0.135 A 
ATOM     76  F   UNL A   1      43.302  23.802  24.658  1.00  0.00    -0.206 F 
ATOM     77  C   UNL A   1      42.699  21.672  25.443  1.00  0.00     0.059 A 
ATOM     78  C   UNL A   1      42.735  21.215  27.827  1.00  0.00     0.059 A 
ATOM     79  F   UNL A   1      43.345  22.912  29.327  1.00  0.00    -0.206 F 
ATOM     80  C   UNL A   1      42.506  20.802  26.516  1.00  0.00     0.060 A 
BRANCH  80  81
ATOM     81  S   UNL A   1      41.984  19.107  26.174  1.00  0.00     0.124 S 
ATOM     82  O   UNL A   1      40.580  19.297  25.831  1.00  0.00    -0.237 OA
ATOM     83  O   UNL A   1      42.866  18.729  25.075  1.00  0.00    -0.237 OA
ATOM     84  O   UNL A   1      42.240  18.418  27.436  1.00  0.00    -0.744 OA
ENDBRANCH  80  81
ENDBRANCH  48  73
BRANCH  60  85
ATOM     85  C   UNL A   1      49.416  26.798  26.396  1.00  0.00     0.058 A 
ATOM     86  C   UNL A   1      50.279  26.174  27.310  1.00  0.00     0.135 A 
ATOM     87  C   UNL A   1      49.858  26.944  25.071  1.00  0.00     0.135 A 
ATOM     88  F   UNL A   1      49.907  26.017  28.591  1.00  0.00    -0.206 F 
ATOM     89  C   UNL A   1      51.540  25.729  26.930  1.00  0.00     0.059 A 
ATOM     90  C   UNL A   1      51.104  26.482  24.661  1.00  0.00     0.059 A 
ATOM     91  F   UNL A   1      49.067  27.525  24.154  1.00  0.00    -0.206 F 
ATOM     92  C   UNL A   1      51.943  25.885  25.602  1.00  0.00     0.060 A 
BRANCH  92  93
ATOM     93  S   UNL A   1      53.568  25.272  25.112  1.00  0.00     0.124 S 
ATOM     94  O   UNL A   1      54.450  26.052  25.975  1.00  0.00    -0.237 OA
ATOM     95  O   UNL A   1      53.472  23.849  25.424  1.00  0.00    -0.237 OA
ATOM     96  O   UNL A   1      53.638  25.592  23.689  1.00  0.00    -0.744 OA
ENDBRANCH  92  93
ENDBRANCH  60  85
ENDBRANCH  34  35
ENDBRANCH  26  29
ENDBRANCH  24  25
ENDBRANCH  23  24
ENDBRANCH   1  23
TORSDOF 17
ENDMDL
MODEL 2
REMARK VINA RESULT:     -11.5      2.923      4.825
REMARK SMILES Cc1nc([C@]2(C)CCCO2)nc(C)c1C(=O)NCCCCCCNC(=O)c1ccc(-c2c3nc(c(-c4c(F)cc(S(=O)(=O)[O-])cc4F)c4ccc([nH]4)c(-c4c(F)cc(S(=O)(=O)[O-])cc4F)c4nc(c(-c5c(F)cc(S(=O)(=O)[O-])cc5F)c5ccc2[nH]5)C=C4)C=C3)cc1
REMARK SMILES IDX 21 1 20 2 19 3 18 4 17 5 15 6 16 7 14 9 1 10 2 11 3 12 4 13
REMARK SMILES IDX 12 14 11 15 13 16 5 17 7 18 10 19 6 20 8 21 9 22 22 23 23 24
REMARK SMILES IDX 24 25 25 26 26 28 27 29 28 30 92 31 29 32 91 33 30 34 31 35
REMARK SMILES IDX 32 36 85 37 33 38 90 39 84 40 86 41 34 42 89 43 83 44 82 45
REMARK SMILES IDX 35 47 69 48 48 49 68 50 49 51 52 52 67 53 87 54 50 55 51 56
REMARK SMILES IDX 66 58 88 59 53 60 36 61 37 62 46 63 38 64 39 65 45 66 47 67
REMARK SMILES IDX 40 68 41 69 42 70 43 71 44 72 70 73 71 74 80 75 72 76 73 77
REMARK SMILES IDX 79 78 81 79 74 80 75 81 76 82 77 83 78 84 54 85 55 86 64 87
REMARK SMILES IDX 56 88 57 89 63 90 65 91 58 92 59 93 60 94 61 95 62 96
REMARK H PARENT 17 8 24 27 86 46 52 57
REMARK Flexibility Score: inf
ROOT
ATOM      1  C   UNL A   1      33.310  29.042  24.578  1.00  0.00     0.002 C 
ENDROOT
BRANCH   1   2
ATOM      2  C   UNL A   1      33.279  28.859  23.055  1.00  0.00     0.002 C 
BRANCH   2   3
ATOM      3  C   UNL A   1      31.888  28.992  22.426  1.00  0.00     0.021 C 
BRANCH   3   4
ATOM      4  C   UNL A   1      30.773  29.049  23.473  1.00  0.00     0.116 C 
BRANCH   4   5
ATOM      5  N   UNL A   1      30.019  27.822  23.490  1.00  0.00    -0.352 N 
ATOM      6  C   UNL A   1      30.170  26.492  23.721  1.00  0.00     0.254 C 
ATOM      7  O   UNL A   1      29.072  25.928  23.643  1.00  0.00    -0.269 OA
ATOM      8  H   UNL A   1      29.081  28.011  23.256  1.00  0.00     0.163 HD
BRANCH   6   9
ATOM      9  C   UNL A   1      31.395  25.674  24.036  1.00  0.00     0.082 A 
ATOM     10  C   UNL A   1      32.523  25.334  21.718  1.00  0.00     0.068 C 
ATOM     11  C   UNL A   1      32.387  25.183  23.191  1.00  0.00     0.054 A 
ATOM     12  N   UNL A   1      33.432  24.437  23.638  1.00  0.00    -0.234 NA
ATOM     13  C   UNL A   1      33.520  24.096  24.924  1.00  0.00     0.160 A 
ATOM     14  C   UNL A   1      31.590  25.283  25.384  1.00  0.00     0.054 A 
ATOM     15  N   UNL A   1      32.632  24.517  25.822  1.00  0.00    -0.234 NA
ATOM     16  C   UNL A   1      30.658  25.623  26.519  1.00  0.00     0.068 C 
BRANCH  13  17
ATOM     17  C   UNL A   1      34.655  23.147  25.326  1.00  0.00     0.125 C 
ATOM     18  C   UNL A   1      34.883  22.048  24.289  1.00  0.00     0.046 C 
ATOM     19  O   UNL A   1      34.289  22.420  26.529  1.00  0.00    -0.367 OA
ATOM     20  C   UNL A   1      35.949  23.906  25.628  1.00  0.00     0.051 C 
ATOM     21  C   UNL A   1      33.870  20.985  24.657  1.00  0.00     0.032 C 
ATOM     22  C   UNL A   1      33.617  21.212  26.137  1.00  0.00     0.161 C 
ENDBRANCH  13  17
ENDBRANCH   6   9
ENDBRANCH   4   5
ENDBRANCH   3   4
ENDBRANCH   2   3
ENDBRANCH   1   2
BRANCH   1  23
ATOM     23  C   UNL A   1      33.990  27.907  25.347  1.00  0.00     0.021 C 
BRANCH  23  24
ATOM     24  C   UNL A   1      33.972  28.085  26.861  1.00  0.00     0.116 C 
BRANCH  24  25
ATOM     25  N   UNL A   1      33.683  29.467  27.226  1.00  0.00    -0.352 N 
ATOM     26  C   UNL A   1      34.417  30.327  27.991  1.00  0.00     0.251 C 
ATOM     27  H   UNL A   1      32.841  29.831  26.871  1.00  0.00     0.163 HD
ATOM     28  O   UNL A   1      33.894  31.352  28.435  1.00  0.00    -0.269 OA
BRANCH  26  29
ATOM     29  C   UNL A   1      35.832  30.032  28.279  1.00  0.00     0.039 A 
ATOM     30  C   UNL A   1      36.190  29.577  29.550  1.00  0.00     0.014 A 
ATOM     31  C   UNL A   1      36.810  30.235  27.298  1.00  0.00     0.014 A 
ATOM     32  C   UNL A   1      37.527  29.285  29.823  1.00  0.00     0.010 A 
ATOM     33  C   UNL A   1      38.128  29.877  27.552  1.00  0.00     0.010 A 
ATOM     34  C   UNL A   1      38.501  29.410  28.820  1.00  0.00    -0.014 A 
BRANCH  34  35
ATOM     35  C   UNL A   1      39.921  29.072  29.082  1.00  0.00     0.031 A 
ATOM     36  C   UNL A   1      40.850  30.115  29.639  1.00  0.00     0.074 A 
ATOM     37  C   UNL A   1      40.380  27.848  28.758  1.00  0.00     0.049 A 
ATOM     38  N   UNL A   1      42.136  30.038  29.864  1.00  0.00    -0.248 NA
ATOM     39  C   UNL A   1      40.264  31.427  29.960  1.00  0.00     0.031 C 
ATOM     40  C   UNL A   1      39.581  26.773  28.166  1.00  0.00     0.029 A 
ATOM     41  N   UNL A   1      41.636  27.305  28.868  1.00  0.00    -0.354 N 
ATOM     42  C   UNL A   1      42.515  31.290  30.337  1.00  0.00     0.074 A 
ATOM     43  C   UNL A   1      41.333  32.123  30.320  1.00  0.00     0.031 C 
ATOM     44  C   UNL A   1      40.361  25.695  27.982  1.00  0.00     0.029 A 
ATOM     45  C   UNL A   1      41.720  26.012  28.408  1.00  0.00     0.049 A 
ATOM     46  H   UNL A   1      42.403  27.795  29.242  1.00  0.00     0.167 HD
ATOM     47  C   UNL A   1      43.732  31.697  30.766  1.00  0.00     0.037 A 
ATOM     48  C   UNL A   1      42.776  25.181  28.329  1.00  0.00     0.037 A 
ATOM     49  C   UNL A   1      44.894  30.848  30.810  1.00  0.00     0.049 A 
ATOM     50  C   UNL A   1      44.116  25.656  28.822  1.00  0.00     0.074 A 
ATOM     51  C   UNL A   1      46.158  31.146  31.286  1.00  0.00     0.029 A 
ATOM     52  N   UNL A   1      44.933  29.535  30.365  1.00  0.00    -0.354 N 
ATOM     53  N   UNL A   1      44.442  26.824  29.325  1.00  0.00    -0.248 NA
ATOM     54  C   UNL A   1      45.230  24.702  28.747  1.00  0.00     0.031 C 
ATOM     55  C   UNL A   1      46.974  30.025  31.091  1.00  0.00     0.029 A 
ATOM     56  C   UNL A   1      46.204  29.014  30.539  1.00  0.00     0.049 A 
ATOM     57  H   UNL A   1      44.169  29.046  29.982  1.00  0.00     0.167 HD
ATOM     58  C   UNL A   1      45.791  26.733  29.652  1.00  0.00     0.074 A 
ATOM     59  C   UNL A   1      46.216  25.394  29.302  1.00  0.00     0.031 C 
ATOM     60  C   UNL A   1      46.604  27.672  30.195  1.00  0.00     0.037 A 
BRANCH  47  61
ATOM     61  C   UNL A   1      43.873  33.120  31.234  1.00  0.00     0.058 A 
ATOM     62  C   UNL A   1      43.705  33.471  32.582  1.00  0.00     0.135 A 
ATOM     63  C   UNL A   1      44.232  34.135  30.333  1.00  0.00     0.135 A 
ATOM     64  F   UNL A   1      43.344  32.543  33.483  1.00  0.00    -0.206 F 
ATOM     65  C   UNL A   1      43.869  34.781  33.019  1.00  0.00     0.059 A 
ATOM     66  C   UNL A   1      44.429  35.448  30.752  1.00  0.00     0.059 A 
ATOM     67  F   UNL A   1      44.402  33.856  29.031  1.00  0.00    -0.206 F 
ATOM     68  C   UNL A   1      44.234  35.763  32.096  1.00  0.00     0.060 A 
BRANCH  68  69
ATOM     69  S   UNL A   1      44.468  37.454  32.684  1.00  0.00     0.124 S 
ATOM     70  O   UNL A   1      43.441  37.547  33.717  1.00  0.00    -0.237 OA
ATOM     71  O   UNL A   1      45.847  37.429  33.163  1.00  0.00    -0.237 OA
ATOM     72  O   UNL A   1      44.236  38.264  31.493  1.00  0.00    -0.744 OA
ENDBRANCH  68  69
ENDBRANCH  47  61
BRANCH  48  73
ATOM     73  C   UNL A   1      42.608  23.811  27.777  1.00  0.00     0.058 A 
ATOM     74  C   UNL A   1      42.574  23.590  26.392  1.00  0.00     0.135 A 
ATOM     75  C   UNL A   1      42.478  22.697  28.620  1.00  0.00     0.135 A 
ATOM     76  F   UNL A   1      42.691  24.624  25.545  1.00  0.00    -0.206 F 
ATOM     77  C   UNL A   1      42.391  22.317  25.861  1.00  0.00     0.059 A 
ATOM     78  C   UNL A   1      42.321  21.411  28.113  1.00  0.00     0.059 A 
ATOM     79  F   UNL A   1      42.525  22.852  29.952  1.00  0.00    -0.206 F 
ATOM     80  C   UNL A   1      42.264  21.234  26.731  1.00  0.00     0.060 A 
BRANCH  80  81
ATOM     81  S   UNL A   1      42.057  19.581  26.034  1.00  0.00     0.124 S 
ATOM     82  O   UNL A   1      42.506  18.740  27.136  1.00  0.00    -0.237 OA
ATOM     83  O   UNL A   1      40.627  19.546  25.742  1.00  0.00    -0.237 OA
ATOM     84  O   UNL A   1      42.927  19.602  24.860  1.00  0.00    -0.744 OA
ENDBRANCH  80  81
ENDBRANCH  48  73
BRANCH  60  85
ATOM     85  C   UNL A   1      48.024  27.276  30.480  1.00  0.00     0.058 A 
ATOM     86  C   UNL A   1      49.067  27.572  29.590  1.00  0.00     0.135 A 
ATOM     87  C   UNL A   1      48.353  26.637  31.687  1.00  0.00     0.135 A 
ATOM     88  F   UNL A   1      48.804  28.175  28.418  1.00  0.00    -0.206 F 
ATOM     89  C   UNL A   1      50.384  27.231  29.875  1.00  0.00     0.059 A 
ATOM     90  C   UNL A   1      49.667  26.311  32.007  1.00  0.00     0.059 A 
ATOM     91  F   UNL A   1      47.394  26.341  32.580  1.00  0.00    -0.206 F 
ATOM     92  C   UNL A   1      50.675  26.602  31.088  1.00  0.00     0.060 A 
BRANCH  92  93
ATOM     93  S   UNL A   1      52.393  26.195  31.462  1.00  0.00     0.124 S 
ATOM     94  O   UNL A   1      52.944  25.986  30.127  1.00  0.00    -0.237 OA
ATOM     95  O   UNL A   1      52.853  27.394  32.158  1.00  0.00    -0.237 OA
ATOM     96  O   UNL A   1      52.286  24.999  32.293  1.00  0.00    -0.744 OA
ENDBRANCH  92  93
ENDBRANCH  60  85
ENDBRANCH  34  35
ENDBRANCH  26  29
ENDBRANCH  24  25
ENDBRANCH  23  24
ENDBRANCH   1  23
TORSDOF 17
ENDMDL
MODEL 3
REMARK VINA RESULT:     -11.4      6.563     11.936
REMARK SMILES Cc1nc([C@]2(C)CCCO2)nc(C)c1C(=O)NCCCCCCNC(=O)c1ccc(-c2c3nc(c(-c4c(F)cc(S(=O)(=O)[O-])cc4F)c4ccc([nH]4)c(-c4c(F)cc(S(=O)(=O)[O-])cc4F)c4nc(c(-c5c(F)cc(S(=O)(=O)[O-])cc5F)c5ccc2[nH]5)C=C4)C=C3)cc1
REMARK SMILES IDX 21 1 20 2 19 3 18 4 17 5 15 6 16 7 14 9 1 10 2 11 3 12 4 13
REMARK SMILES IDX 12 14 11 15 13 16 5 17 7 18 10 19 6 20 8 21 9 22 22 23 23 24
REMARK SMILES IDX 24 25 25 26 26 28 27 29 28 30 92 31 29 32 91 33 30 34 31 35
REMARK SMILES IDX 32 36 85 37 33 38 90 39 84 40 86 41 34 42 89 43 83 44 82 45
REMARK SMILES IDX 35 47 69 48 48 49 68 50 49 51 52 52 67 53 87 54 50 55 51 56
REMARK SMILES IDX 66 58 88 59 53 60 36 61 37 62 46 63 38 64 39 65 45 66 47 67
REMARK SMILES IDX 40 68 41 69 42 70 43 71 44 72 70 73 71 74 80 75 72 76 73 77
REMARK SMILES IDX 79 78 81 79 74 80 75 81 76 82 77 83 78 84 54 85 55 86 64 87
REMARK SMILES IDX 56 88 57 89 63 90 65 91 58 92 59 93 60 94 61 95 62 96
REMARK H PARENT 17 8 24 27 86 46 52 57
REMARK Flexibility Score: inf
ROOT
ATOM      1  C   UNL A   1      37.077  23.040  26.123  1.00  0.00     0.002 C 
ENDROOT
BRANCH   1   2
ATOM      2  C   UNL A   1      37.153  22.013  24.984  1.00  0.00     0.002 C 
BRANCH   2   3
ATOM      3  C   UNL A   1      36.040  20.960  25.002  1.00  0.00     0.021 C 
BRANCH   3   4
ATOM      4  C   UNL A   1      34.926  21.298  25.994  1.00  0.00     0.116 C 
BRANCH   4   5
ATOM      5  N   UNL A   1      33.657  20.797  25.535  1.00  0.00    -0.352 N 
ATOM      6  C   UNL A   1      32.459  21.228  25.060  1.00  0.00     0.254 C 
ATOM      7  O   UNL A   1      31.757  20.256  24.755  1.00  0.00    -0.269 OA
ATOM      8  H   UNL A   1      33.658  19.813  25.579  1.00  0.00     0.163 HD
BRANCH   6   9
ATOM      9  C   UNL A   1      31.912  22.618  24.867  1.00  0.00     0.082 A 
ATOM     10  C   UNL A   1      30.371  22.966  26.932  1.00  0.00     0.068 C 
ATOM     11  C   UNL A   1      31.028  23.351  25.655  1.00  0.00     0.054 A 
ATOM     12  N   UNL A   1      30.616  24.604  25.328  1.00  0.00    -0.234 NA
ATOM     13  C   UNL A   1      31.010  25.171  24.187  1.00  0.00     0.160 A 
ATOM     14  C   UNL A   1      32.294  23.313  23.692  1.00  0.00     0.054 A 
ATOM     15  N   UNL A   1      31.860  24.565  23.361  1.00  0.00    -0.234 NA
ATOM     16  C   UNL A   1      33.203  22.759  22.625  1.00  0.00     0.068 C 
BRANCH  13  17
ATOM     17  C   UNL A   1      30.400  26.531  23.827  1.00  0.00     0.125 C 
ATOM     18  C   UNL A   1      30.920  27.061  22.490  1.00  0.00     0.046 C 
ATOM     19  O   UNL A   1      30.824  27.534  24.787  1.00  0.00    -0.367 OA
ATOM     20  C   UNL A   1      28.871  26.492  23.854  1.00  0.00     0.051 C 
ATOM     21  C   UNL A   1      32.221  27.745  22.853  1.00  0.00     0.032 C 
ATOM     22  C   UNL A   1      32.047  28.122  24.313  1.00  0.00     0.161 C 
ENDBRANCH  13  17
ENDBRANCH   6   9
ENDBRANCH   4   5
ENDBRANCH   3   4
ENDBRANCH   2   3
ENDBRANCH   1   2
BRANCH   1  23
ATOM     23  C   UNL A   1      38.207  24.071  26.132  1.00  0.00     0.021 C 
BRANCH  23  24
ATOM     24  C   UNL A   1      39.430  23.645  26.937  1.00  0.00     0.116 C 
BRANCH  24  25
ATOM     25  N   UNL A   1      40.664  23.950  26.222  1.00  0.00    -0.352 N 
ATOM     26  C   UNL A   1      41.420  25.085  26.255  1.00  0.00     0.251 C 
ATOM     27  H   UNL A   1      40.999  23.237  25.633  1.00  0.00     0.163 HD
ATOM     28  O   UNL A   1      42.265  25.286  25.379  1.00  0.00    -0.269 OA
BRANCH  26  29
ATOM     29  C   UNL A   1      41.231  26.066  27.340  1.00  0.00     0.039 A 
ATOM     30  C   UNL A   1      40.348  25.771  28.381  1.00  0.00     0.014 A 
ATOM     31  C   UNL A   1      41.907  27.291  27.309  1.00  0.00     0.014 A 
ATOM     32  C   UNL A   1      40.175  26.691  29.416  1.00  0.00     0.010 A 
ATOM     33  C   UNL A   1      41.786  28.173  28.376  1.00  0.00     0.010 A 
ATOM     34  C   UNL A   1      40.910  27.887  29.433  1.00  0.00    -0.014 A 
BRANCH  34  35
ATOM     35  C   UNL A   1      40.765  28.862  30.542  1.00  0.00     0.031 A 
ATOM     36  C   UNL A   1      41.637  28.745  31.762  1.00  0.00     0.074 A 
ATOM     37  C   UNL A   1      39.808  29.807  30.472  1.00  0.00     0.049 A 
ATOM     38  N   UNL A   1      41.611  29.448  32.864  1.00  0.00    -0.248 NA
ATOM     39  C   UNL A   1      42.654  27.679  31.755  1.00  0.00     0.031 C 
ATOM     40  C   UNL A   1      38.872  29.984  29.359  1.00  0.00     0.029 A 
ATOM     41  N   UNL A   1      39.454  30.790  31.362  1.00  0.00    -0.354 N 
ATOM     42  C   UNL A   1      42.593  28.904  33.685  1.00  0.00     0.074 A 
ATOM     43  C   UNL A   1      43.163  27.781  32.974  1.00  0.00     0.031 C 
ATOM     44  C   UNL A   1      38.064  31.022  29.625  1.00  0.00     0.029 A 
ATOM     45  C   UNL A   1      38.397  31.561  30.939  1.00  0.00     0.049 A 
ATOM     46  H   UNL A   1      39.913  30.929  32.221  1.00  0.00     0.167 HD
ATOM     47  C   UNL A   1      42.995  29.318  34.909  1.00  0.00     0.037 A 
ATOM     48  C   UNL A   1      37.764  32.582  31.548  1.00  0.00     0.037 A 
ATOM     49  C   UNL A   1      42.444  30.459  35.592  1.00  0.00     0.049 A 
ATOM     50  C   UNL A   1      38.239  33.029  32.904  1.00  0.00     0.074 A 
ATOM     51  C   UNL A   1      42.824  31.000  36.807  1.00  0.00     0.029 A 
ATOM     52  N   UNL A   1      41.396  31.235  35.118  1.00  0.00    -0.354 N 
ATOM     53  N   UNL A   1      39.211  32.542  33.638  1.00  0.00    -0.248 NA
ATOM     54  C   UNL A   1      37.538  34.169  33.512  1.00  0.00     0.031 C 
ATOM     55  C   UNL A   1      41.979  32.080  37.088  1.00  0.00     0.029 A 
ATOM     56  C   UNL A   1      41.105  32.241  36.025  1.00  0.00     0.049 A 
ATOM     57  H   UNL A   1      40.929  31.093  34.263  1.00  0.00     0.167 HD
ATOM     58  C   UNL A   1      39.256  33.334  34.781  1.00  0.00     0.074 A 
ATOM     59  C   UNL A   1      38.223  34.338  34.635  1.00  0.00     0.031 C 
ATOM     60  C   UNL A   1      40.080  33.240  35.854  1.00  0.00     0.037 A 
BRANCH  47  61
ATOM     61  C   UNL A   1      44.092  28.544  35.588  1.00  0.00     0.058 A 
ATOM     62  C   UNL A   1      43.811  27.473  36.451  1.00  0.00     0.135 A 
ATOM     63  C   UNL A   1      45.440  28.842  35.332  1.00  0.00     0.135 A 
ATOM     64  F   UNL A   1      42.540  27.157  36.745  1.00  0.00    -0.206 F 
ATOM     65  C   UNL A   1      44.827  26.737  37.050  1.00  0.00     0.059 A 
ATOM     66  C   UNL A   1      46.473  28.101  35.899  1.00  0.00     0.059 A 
ATOM     67  F   UNL A   1      45.765  29.858  34.517  1.00  0.00    -0.206 F 
ATOM     68  C   UNL A   1      46.155  27.057  36.766  1.00  0.00     0.060 A 
BRANCH  68  69
ATOM     69  S   UNL A   1      47.461  26.074  37.533  1.00  0.00     0.124 S 
ATOM     70  O   UNL A   1      48.184  25.588  36.362  1.00  0.00    -0.237 OA
ATOM     71  O   UNL A   1      48.162  27.064  38.344  1.00  0.00    -0.237 OA
ATOM     72  O   UNL A   1      46.729  25.059  38.283  1.00  0.00    -0.744 OA
ENDBRANCH  68  69
ENDBRANCH  47  61
BRANCH  48  73
ATOM     73  C   UNL A   1      36.626  33.262  30.875  1.00  0.00     0.058 A 
ATOM     74  C   UNL A   1      36.840  34.118  29.785  1.00  0.00     0.135 A 
ATOM     75  C   UNL A   1      35.305  33.071  31.306  1.00  0.00     0.135 A 
ATOM     76  F   UNL A   1      38.086  34.336  29.338  1.00  0.00    -0.206 F 
ATOM     77  C   UNL A   1      35.788  34.782  29.161  1.00  0.00     0.059 A 
ATOM     78  C   UNL A   1      34.234  33.702  30.683  1.00  0.00     0.059 A 
ATOM     79  F   UNL A   1      35.045  32.245  32.332  1.00  0.00    -0.206 F 
ATOM     80  C   UNL A   1      34.488  34.568  29.620  1.00  0.00     0.060 A 
BRANCH  80  81
ATOM     81  S   UNL A   1      33.124  35.409  28.786  1.00  0.00     0.124 S 
ATOM     82  O   UNL A   1      33.835  36.414  28.005  1.00  0.00    -0.237 OA
ATOM     83  O   UNL A   1      32.511  34.324  28.027  1.00  0.00    -0.237 OA
ATOM     84  O   UNL A   1      32.320  35.921  29.893  1.00  0.00    -0.744 OA
ENDBRANCH  80  81
ENDBRANCH  48  73
BRANCH  60  85
ATOM     85  C   UNL A   1      39.926  34.270  36.936  1.00  0.00     0.058 A 
ATOM     86  C   UNL A   1      40.580  35.509  36.875  1.00  0.00     0.135 A 
ATOM     87  C   UNL A   1      39.069  34.032  38.023  1.00  0.00     0.135 A 
ATOM     88  F   UNL A   1      41.416  35.783  35.860  1.00  0.00    -0.206 F 
ATOM     89  C   UNL A   1      40.407  36.470  37.865  1.00  0.00     0.059 A 
ATOM     90  C   UNL A   1      38.859  34.989  39.010  1.00  0.00     0.059 A 
ATOM     91  F   UNL A   1      38.410  32.866  38.123  1.00  0.00    -0.206 F 
ATOM     92  C   UNL A   1      39.542  36.202  38.928  1.00  0.00     0.060 A 
BRANCH  92  93
ATOM     93  S   UNL A   1      39.299  37.471  40.188  1.00  0.00     0.124 S 
ATOM     94  O   UNL A   1      38.892  36.670  41.338  1.00  0.00    -0.237 OA
ATOM     95  O   UNL A   1      40.622  38.081  40.277  1.00  0.00    -0.237 OA
ATOM     96  O   UNL A   1      38.260  38.323  39.616  1.00  0.00    -0.744 OA
ENDBRANCH  92  93
ENDBRANCH  60  85
ENDBRANCH  34  35
ENDBRANCH  26  29
ENDBRANCH  24  25
ENDBRANCH  23  24
ENDBRANCH   1  23
TORSDOF 17
ENDMDL
