MODEL 1
REMARK VINA RESULT:     -10.5      0.000      0.000
REMARK SMILES CC(C)[C@H](C(=O)NCCCCCCNC(=O)c1ccc(-c2c3nc(c(-c4c(F)cc(S(=O)(=O)[O-])cc4F)c4ccc([nH]4)c(-c4c(F)cc(S(=O)(=O)[O-])cc4F)c4nc(c(-c5c(F)cc(S(=O)(=O)[O-])cc5F)c5ccc2[nH]5)C=C4)C=C3)cc1)c1ccc(Cl)cc1F
REMARK SMILES IDX 11 1 10 2 9 3 8 4 7 5 5 6 6 7 4 9 2 10 1 11 3 12 83 13 84 14
REMARK SMILES IDX 89 15 85 16 88 17 90 18 86 19 87 20 12 21 13 22 14 23 15 24
REMARK SMILES IDX 16 26 17 27 18 28 82 29 19 30 81 31 20 32 21 33 22 34 75 35
REMARK SMILES IDX 23 36 80 37 74 38 76 39 24 40 79 41 73 42 72 43 25 45 59 46
REMARK SMILES IDX 38 47 58 48 39 49 42 50 57 51 77 52 40 53 41 54 56 56 78 57
REMARK SMILES IDX 43 58 26 59 27 60 36 61 28 62 29 63 35 64 37 65 30 66 31 67
REMARK SMILES IDX 32 68 33 69 34 70 60 71 61 72 70 73 62 74 63 75 69 76 71 77
REMARK SMILES IDX 64 78 65 79 66 80 67 81 68 82 44 83 45 84 54 85 46 86 47 87
REMARK SMILES IDX 53 88 55 89 48 90 49 91 50 92 51 93 52 94
REMARK H PARENT 7 8 14 25 76 44 42 55
REMARK Flexibility Score: inf
ROOT
ATOM      1  C   UNL A   1      32.088  27.388  25.345  1.00  0.00     0.002 C 
ENDROOT
BRANCH   1   2
ATOM      2  C   UNL A   1      31.401  27.971  24.107  1.00  0.00     0.002 C 
BRANCH   2   3
ATOM      3  C   UNL A   1      31.624  27.221  22.787  1.00  0.00     0.021 C 
BRANCH   3   4
ATOM      4  C   UNL A   1      33.079  26.943  22.419  1.00  0.00     0.116 C 
BRANCH   4   5
ATOM      5  N   UNL A   1      33.273  25.656  21.786  1.00  0.00    -0.356 N 
ATOM      6  C   UNL A   1      33.241  24.397  22.311  1.00  0.00     0.227 C 
ATOM      7  O   UNL A   1      33.377  23.473  21.502  1.00  0.00    -0.274 OA
ATOM      8  H   UNL A   1      33.457  25.695  20.819  1.00  0.00     0.163 HD
BRANCH   6   9
ATOM      9  C   UNL A   1      33.154  24.154  23.838  1.00  0.00     0.114 C 
BRANCH   9  10
ATOM     10  C   UNL A   1      31.842  23.487  24.368  1.00  0.00    -0.000 C 
ATOM     11  C   UNL A   1      31.511  23.726  25.846  1.00  0.00     0.008 C 
ATOM     12  C   UNL A   1      30.609  23.774  23.500  1.00  0.00     0.008 C 
ENDBRANCH   9  10
BRANCH   9  13
ATOM     13  C   UNL A   1      34.460  23.537  24.351  1.00  0.00     0.001 A 
ATOM     14  C   UNL A   1      35.473  24.371  24.862  1.00  0.00     0.009 A 
ATOM     15  C   UNL A   1      34.724  22.163  24.282  1.00  0.00     0.128 A 
ATOM     16  C   UNL A   1      36.676  23.832  25.330  1.00  0.00     0.021 A 
ATOM     17  C   UNL A   1      35.907  21.616  24.770  1.00  0.00     0.060 A 
ATOM     18  F   UNL A   1      33.832  21.328  23.740  1.00  0.00    -0.207 F 
ATOM     19  C   UNL A   1      36.879  22.455  25.296  1.00  0.00     0.043 A 
ATOM     20  Cl  UNL A   1      38.346  21.790  25.901  1.00  0.00    -0.084 Cl
ENDBRANCH   9  13
ENDBRANCH   6   9
ENDBRANCH   4   5
ENDBRANCH   3   4
ENDBRANCH   2   3
ENDBRANCH   1   2
BRANCH   1  21
ATOM     21  C   UNL A   1      33.423  28.024  25.732  1.00  0.00     0.021 C 
BRANCH  21  22
ATOM     22  C   UNL A   1      33.620  28.301  27.218  1.00  0.00     0.116 C 
BRANCH  22  23
ATOM     23  N   UNL A   1      33.507  29.710  27.557  1.00  0.00    -0.352 N 
ATOM     24  C   UNL A   1      34.446  30.546  28.112  1.00  0.00     0.251 C 
ATOM     25  H   UNL A   1      32.635  30.124  27.361  1.00  0.00     0.163 HD
ATOM     26  O   UNL A   1      34.131  31.688  28.439  1.00  0.00    -0.269 OA
BRANCH  24  27
ATOM     27  C   UNL A   1      35.824  30.060  28.346  1.00  0.00     0.039 A 
ATOM     28  C   UNL A   1      36.739  30.098  27.291  1.00  0.00     0.014 A 
ATOM     29  C   UNL A   1      36.219  29.579  29.598  1.00  0.00     0.014 A 
ATOM     30  C   UNL A   1      38.065  29.716  27.508  1.00  0.00     0.010 A 
ATOM     31  C   UNL A   1      37.557  29.272  29.832  1.00  0.00     0.010 A 
ATOM     32  C   UNL A   1      38.495  29.335  28.790  1.00  0.00    -0.014 A 
BRANCH  32  33
ATOM     33  C   UNL A   1      39.920  29.006  29.057  1.00  0.00     0.031 A 
ATOM     34  C   UNL A   1      40.840  30.042  29.646  1.00  0.00     0.074 A 
ATOM     35  C   UNL A   1      40.399  27.792  28.718  1.00  0.00     0.049 A 
ATOM     36  N   UNL A   1      42.122  29.961  29.896  1.00  0.00    -0.248 NA
ATOM     37  C   UNL A   1      40.248  31.349  29.973  1.00  0.00     0.031 C 
ATOM     38  C   UNL A   1      39.618  26.718  28.098  1.00  0.00     0.029 A 
ATOM     39  N   UNL A   1      41.658  27.257  28.836  1.00  0.00    -0.354 N 
ATOM     40  C   UNL A   1      42.490  31.204  30.400  1.00  0.00     0.074 A 
ATOM     41  C   UNL A   1      41.309  32.039  30.365  1.00  0.00     0.031 C 
ATOM     42  C   UNL A   1      40.408  25.648  27.915  1.00  0.00     0.029 A 
ATOM     43  C   UNL A   1      41.759  25.971  28.362  1.00  0.00     0.049 A 
ATOM     44  H   UNL A   1      42.417  27.750  29.224  1.00  0.00     0.167 HD
ATOM     45  C   UNL A   1      43.695  31.604  30.872  1.00  0.00     0.037 A 
ATOM     46  C   UNL A   1      42.822  25.145  28.287  1.00  0.00     0.037 A 
ATOM     47  C   UNL A   1      44.861  30.761  30.920  1.00  0.00     0.049 A 
ATOM     48  C   UNL A   1      44.155  25.619  28.801  1.00  0.00     0.074 A 
ATOM     49  C   UNL A   1      46.114  31.056  31.428  1.00  0.00     0.029 A 
ATOM     50  N   UNL A   1      44.922  29.460  30.439  1.00  0.00    -0.354 N 
ATOM     51  N   UNL A   1      44.469  26.776  29.335  1.00  0.00    -0.248 NA
ATOM     52  C   UNL A   1      45.278  24.674  28.711  1.00  0.00     0.031 C 
ATOM     53  C   UNL A   1      46.947  29.953  31.206  1.00  0.00     0.029 A 
ATOM     54  C   UNL A   1      46.198  28.949  30.616  1.00  0.00     0.049 A 
ATOM     55  H   UNL A   1      44.169  28.973  30.034  1.00  0.00     0.167 HD
ATOM     56  C   UNL A   1      45.816  26.687  29.669  1.00  0.00     0.074 A 
ATOM     57  C   UNL A   1      46.252  25.360  29.291  1.00  0.00     0.031 C 
ATOM     58  C   UNL A   1      46.618  27.621  30.239  1.00  0.00     0.037 A 
BRANCH  45  59
ATOM     59  C   UNL A   1      43.814  33.018  31.377  1.00  0.00     0.058 A 
ATOM     60  C   UNL A   1      44.122  34.086  30.518  1.00  0.00     0.135 A 
ATOM     61  C   UNL A   1      43.579  33.316  32.729  1.00  0.00     0.135 A 
ATOM     62  F   UNL A   1      44.370  33.859  29.218  1.00  0.00    -0.206 F 
ATOM     63  C   UNL A   1      44.223  35.392  30.986  1.00  0.00     0.059 A 
ATOM     64  C   UNL A   1      43.644  34.619  33.214  1.00  0.00     0.059 A 
ATOM     65  F   UNL A   1      43.280  32.335  33.596  1.00  0.00    -0.206 F 
ATOM     66  C   UNL A   1      43.981  35.649  32.337  1.00  0.00     0.060 A 
BRANCH  66  67
ATOM     67  S   UNL A   1      44.112  37.351  32.925  1.00  0.00     0.124 S 
ATOM     68  O   UNL A   1      45.429  37.339  33.554  1.00  0.00    -0.237 OA
ATOM     69  O   UNL A   1      44.007  38.117  31.688  1.00  0.00    -0.237 OA
ATOM     70  O   UNL A   1      42.983  37.483  33.839  1.00  0.00    -0.744 OA
ENDBRANCH  66  67
ENDBRANCH  45  59
BRANCH  46  71
ATOM     71  C   UNL A   1      42.666  23.780  27.715  1.00  0.00     0.058 A 
ATOM     72  C   UNL A   1      42.670  23.573  26.327  1.00  0.00     0.135 A 
ATOM     73  C   UNL A   1      42.519  22.654  28.541  1.00  0.00     0.135 A 
ATOM     74  F   UNL A   1      42.801  24.617  25.494  1.00  0.00    -0.206 F 
ATOM     75  C   UNL A   1      42.513  22.304  25.778  1.00  0.00     0.059 A 
ATOM     76  C   UNL A   1      42.390  21.372  28.016  1.00  0.00     0.059 A 
ATOM     77  F   UNL A   1      42.525  22.794  29.876  1.00  0.00    -0.206 F 
ATOM     78  C   UNL A   1      42.377  21.209  26.632  1.00  0.00     0.060 A 
BRANCH  78  79
ATOM     79  S   UNL A   1      42.219  19.562  25.908  1.00  0.00     0.124 S 
ATOM     80  O   UNL A   1      43.226  19.608  24.854  1.00  0.00    -0.237 OA
ATOM     81  O   UNL A   1      42.522  18.698  27.045  1.00  0.00    -0.237 OA
ATOM     82  O   UNL A   1      40.832  19.526  25.455  1.00  0.00    -0.744 OA
ENDBRANCH  78  79
ENDBRANCH  46  71
BRANCH  58  83
ATOM     83  C   UNL A   1      48.044  27.232  30.523  1.00  0.00     0.058 A 
ATOM     84  C   UNL A   1      49.077  27.487  29.609  1.00  0.00     0.135 A 
ATOM     85  C   UNL A   1      48.386  26.642  31.752  1.00  0.00     0.135 A 
ATOM     86  F   UNL A   1      48.806  28.043  28.418  1.00  0.00    -0.206 F 
ATOM     87  C   UNL A   1      50.398  27.150  29.892  1.00  0.00     0.059 A 
ATOM     88  C   UNL A   1      49.703  26.325  32.069  1.00  0.00     0.059 A 
ATOM     89  F   UNL A   1      47.438  26.386  32.668  1.00  0.00    -0.206 F 
ATOM     90  C   UNL A   1      50.701  26.571  31.127  1.00  0.00     0.060 A 
BRANCH  90  91
ATOM     91  S   UNL A   1      52.423  26.171  31.494  1.00  0.00     0.124 S 
ATOM     92  O   UNL A   1      53.025  26.218  30.166  1.00  0.00    -0.237 OA
ATOM     93  O   UNL A   1      52.806  27.247  32.404  1.00  0.00    -0.237 OA
ATOM     94  O   UNL A   1      52.342  24.845  32.100  1.00  0.00    -0.744 OA
ENDBRANCH  90  91
ENDBRANCH  58  83
ENDBRANCH  32  33
ENDBRANCH  24  27
ENDBRANCH  22  23
ENDBRANCH  21  22
ENDBRANCH   1  21
TORSDOF 18
ENDMDL
MODEL 2
REMARK VINA RESULT:     -10.4      3.509      5.047
REMARK SMILES CC(C)[C@H](C(=O)NCCCCCCNC(=O)c1ccc(-c2c3nc(c(-c4c(F)cc(S(=O)(=O)[O-])cc4F)c4ccc([nH]4)c(-c4c(F)cc(S(=O)(=O)[O-])cc4F)c4nc(c(-c5c(F)cc(S(=O)(=O)[O-])cc5F)c5ccc2[nH]5)C=C4)C=C3)cc1)c1ccc(Cl)cc1F
REMARK SMILES IDX 11 1 10 2 9 3 8 4 7 5 5 6 6 7 4 9 2 10 1 11 3 12 83 13 84 14
REMARK SMILES IDX 89 15 85 16 88 17 90 18 86 19 87 20 12 21 13 22 14 23 15 24
REMARK SMILES IDX 16 26 17 27 18 28 82 29 19 30 81 31 20 32 21 33 22 34 75 35
REMARK SMILES IDX 23 36 80 37 74 38 76 39 24 40 79 41 73 42 72 43 25 45 59 46
REMARK SMILES IDX 38 47 58 48 39 49 42 50 57 51 77 52 40 53 41 54 56 56 78 57
REMARK SMILES IDX 43 58 26 59 27 60 36 61 28 62 29 63 35 64 37 65 30 66 31 67
REMARK SMILES IDX 32 68 33 69 34 70 60 71 61 72 70 73 62 74 63 75 69 76 71 77
REMARK SMILES IDX 64 78 65 79 66 80 67 81 68 82 44 83 45 84 54 85 46 86 47 87
REMARK SMILES IDX 53 88 55 89 48 90 49 91 50 92 51 93 52 94
REMARK H PARENT 7 8 14 25 76 44 42 55
REMARK Flexibility Score: inf
ROOT
ATOM      1  C   UNL A   1      35.233  33.074  28.402  1.00  0.00     0.002 C 
ENDROOT
BRANCH   1   2
ATOM      2  C   UNL A   1      35.189  31.751  27.632  1.00  0.00     0.002 C 
BRANCH   2   3
ATOM      3  C   UNL A   1      34.036  30.799  27.978  1.00  0.00     0.021 C 
BRANCH   3   4
ATOM      4  C   UNL A   1      34.078  29.432  27.300  1.00  0.00     0.116 C 
BRANCH   4   5
ATOM      5  N   UNL A   1      32.938  28.600  27.621  1.00  0.00    -0.356 N 
ATOM      6  C   UNL A   1      32.231  27.728  26.845  1.00  0.00     0.227 C 
ATOM      7  O   UNL A   1      31.337  27.098  27.421  1.00  0.00    -0.274 OA
ATOM      8  H   UNL A   1      32.622  28.674  28.552  1.00  0.00     0.163 HD
BRANCH   6   9
ATOM      9  C   UNL A   1      32.464  27.626  25.317  1.00  0.00     0.114 C 
BRANCH   9  10
ATOM     10  C   UNL A   1      32.993  26.256  24.780  1.00  0.00    -0.000 C 
ATOM     11  C   UNL A   1      33.645  26.280  23.393  1.00  0.00     0.008 C 
ATOM     12  C   UNL A   1      33.896  25.510  25.772  1.00  0.00     0.008 C 
ENDBRANCH   9  10
BRANCH   9  13
ATOM     13  C   UNL A   1      31.268  28.213  24.559  1.00  0.00     0.001 A 
ATOM     14  C   UNL A   1      30.416  27.361  23.831  1.00  0.00     0.009 A 
ATOM     15  C   UNL A   1      31.010  29.588  24.507  1.00  0.00     0.128 A 
ATOM     16  C   UNL A   1      29.322  27.874  23.127  1.00  0.00     0.021 A 
ATOM     17  C   UNL A   1      29.908  30.105  23.830  1.00  0.00     0.060 A 
ATOM     18  F   UNL A   1      31.825  30.455  25.116  1.00  0.00    -0.207 F 
ATOM     19  C   UNL A   1      29.066  29.243  23.144  1.00  0.00     0.043 A 
ATOM     20  Cl  UNL A   1      27.701  29.870  22.303  1.00  0.00    -0.084 Cl
ENDBRANCH   9  13
ENDBRANCH   6   9
ENDBRANCH   4   5
ENDBRANCH   3   4
ENDBRANCH   2   3
ENDBRANCH   1   2
BRANCH   1  21
ATOM     21  C   UNL A   1      36.590  33.464  28.986  1.00  0.00     0.021 C 
BRANCH  21  22
ATOM     22  C   UNL A   1      36.776  33.190  30.474  1.00  0.00     0.116 C 
BRANCH  22  23
ATOM     23  N   UNL A   1      36.132  31.964  30.916  1.00  0.00    -0.352 N 
ATOM     24  C   UNL A   1      36.594  30.672  30.854  1.00  0.00     0.251 C 
ATOM     25  H   UNL A   1      35.239  32.076  31.315  1.00  0.00     0.163 HD
ATOM     26  O   UNL A   1      35.855  29.742  31.172  1.00  0.00    -0.269 OA
BRANCH  24  27
ATOM     27  C   UNL A   1      37.967  30.398  30.374  1.00  0.00     0.039 A 
ATOM     28  C   UNL A   1      38.999  30.297  31.309  1.00  0.00     0.014 A 
ATOM     29  C   UNL A   1      38.237  30.231  29.012  1.00  0.00     0.014 A 
ATOM     30  C   UNL A   1      40.288  29.965  30.886  1.00  0.00     0.010 A 
ATOM     31  C   UNL A   1      39.505  29.825  28.601  1.00  0.00     0.010 A 
ATOM     32  C   UNL A   1      40.545  29.689  29.533  1.00  0.00    -0.014 A 
BRANCH  32  33
ATOM     33  C   UNL A   1      41.892  29.252  29.079  1.00  0.00     0.031 A 
ATOM     34  C   UNL A   1      43.024  30.241  29.004  1.00  0.00     0.074 A 
ATOM     35  C   UNL A   1      42.080  27.977  28.681  1.00  0.00     0.049 A 
ATOM     36  N   UNL A   1      44.249  30.062  28.581  1.00  0.00    -0.248 NA
ATOM     37  C   UNL A   1      42.736  31.616  29.438  1.00  0.00     0.031 C 
ATOM     38  C   UNL A   1      41.049  26.936  28.664  1.00  0.00     0.029 A 
ATOM     39  N   UNL A   1      43.200  27.340  28.207  1.00  0.00    -0.354 N 
ATOM     40  C   UNL A   1      44.873  31.300  28.689  1.00  0.00     0.074 A 
ATOM     41  C   UNL A   1      43.875  32.235  29.161  1.00  0.00     0.031 C 
ATOM     42  C   UNL A   1      41.590  25.787  28.228  1.00  0.00     0.029 A 
ATOM     43  C   UNL A   1      42.992  26.018  27.893  1.00  0.00     0.049 A 
ATOM     44  H   UNL A   1      44.070  27.789  28.101  1.00  0.00     0.167 HD
ATOM     45  C   UNL A   1      46.165  31.622  28.440  1.00  0.00     0.037 A 
ATOM     46  C   UNL A   1      43.833  25.095  27.384  1.00  0.00     0.037 A 
ATOM     47  C   UNL A   1      47.157  30.682  27.987  1.00  0.00     0.049 A 
ATOM     48  C   UNL A   1      45.259  25.482  27.099  1.00  0.00     0.074 A 
ATOM     49  C   UNL A   1      48.505  30.899  27.756  1.00  0.00     0.029 A 
ATOM     50  N   UNL A   1      46.911  29.349  27.689  1.00  0.00    -0.354 N 
ATOM     51  N   UNL A   1      45.848  26.642  27.269  1.00  0.00    -0.248 NA
ATOM     52  C   UNL A   1      46.139  24.435  26.560  1.00  0.00     0.031 C 
ATOM     53  C   UNL A   1      49.061  29.711  27.268  1.00  0.00     0.029 A 
ATOM     54  C   UNL A   1      48.076  28.738  27.252  1.00  0.00     0.049 A 
ATOM     55  H   UNL A   1      46.037  28.904  27.776  1.00  0.00     0.167 HD
ATOM     56  C   UNL A   1      47.172  26.456  26.886  1.00  0.00     0.074 A 
ATOM     57  C   UNL A   1      47.300  25.069  26.489  1.00  0.00     0.031 C 
ATOM     58  C   UNL A   1      48.190  27.353  26.865  1.00  0.00     0.037 A 
BRANCH  45  59
ATOM     59  C   UNL A   1      46.583  33.053  28.655  1.00  0.00     0.058 A 
ATOM     60  C   UNL A   1      46.512  34.007  27.627  1.00  0.00     0.135 A 
ATOM     61  C   UNL A   1      47.022  33.487  29.917  1.00  0.00     0.135 A 
ATOM     62  F   UNL A   1      46.112  33.646  26.396  1.00  0.00    -0.206 F 
ATOM     63  C   UNL A   1      46.891  35.329  27.830  1.00  0.00     0.059 A 
ATOM     64  C   UNL A   1      47.377  34.813  30.153  1.00  0.00     0.059 A 
ATOM     65  F   UNL A   1      47.110  32.620  30.938  1.00  0.00    -0.206 F 
ATOM     66  C   UNL A   1      47.321  35.723  29.099  1.00  0.00     0.060 A 
BRANCH  66  67
ATOM     67  S   UNL A   1      47.804  37.445  29.347  1.00  0.00     0.124 S 
ATOM     68  O   UNL A   1      46.698  38.151  28.707  1.00  0.00    -0.237 OA
ATOM     69  O   UNL A   1      47.863  37.545  30.801  1.00  0.00    -0.237 OA
ATOM     70  O   UNL A   1      49.088  37.541  28.661  1.00  0.00    -0.744 OA
ENDBRANCH  66  67
ENDBRANCH  45  59
BRANCH  46  71
ATOM     71  C   UNL A   1      43.351  23.711  27.124  1.00  0.00     0.058 A 
ATOM     72  C   UNL A   1      43.171  22.799  28.175  1.00  0.00     0.135 A 
ATOM     73  C   UNL A   1      43.053  23.274  25.824  1.00  0.00     0.135 A 
ATOM     74  F   UNL A   1      43.448  23.165  29.436  1.00  0.00    -0.206 F 
ATOM     75  C   UNL A   1      42.733  21.498  27.946  1.00  0.00     0.059 A 
ATOM     76  C   UNL A   1      42.586  21.987  25.572  1.00  0.00     0.059 A 
ATOM     77  F   UNL A   1      43.193  24.111  24.784  1.00  0.00    -0.206 F 
ATOM     78  C   UNL A   1      42.440  21.103  26.640  1.00  0.00     0.060 A 
BRANCH  78  79
ATOM     79  S   UNL A   1      41.829  19.427  26.359  1.00  0.00     0.124 S 
ATOM     80  O   UNL A   1      40.397  19.658  26.213  1.00  0.00    -0.237 OA
ATOM     81  O   UNL A   1      42.543  19.040  25.146  1.00  0.00    -0.237 OA
ATOM     82  O   UNL A   1      42.233  18.716  27.568  1.00  0.00    -0.744 OA
ENDBRANCH  78  79
ENDBRANCH  46  71
BRANCH  58  83
ATOM     83  C   UNL A   1      49.544  26.857  26.432  1.00  0.00     0.058 A 
ATOM     84  C   UNL A   1      50.444  26.276  27.338  1.00  0.00     0.135 A 
ATOM     85  C   UNL A   1      49.923  26.921  25.080  1.00  0.00     0.135 A 
ATOM     86  F   UNL A   1      50.135  26.195  28.641  1.00  0.00    -0.206 F 
ATOM     87  C   UNL A   1      51.682  25.794  26.924  1.00  0.00     0.059 A 
ATOM     88  C   UNL A   1      51.142  26.418  24.639  1.00  0.00     0.059 A 
ATOM     89  F   UNL A   1      49.095  27.458  24.170  1.00  0.00    -0.206 F 
ATOM     90  C   UNL A   1      52.021  25.867  25.571  1.00  0.00     0.060 A 
BRANCH  90  91
ATOM     91  S   UNL A   1      53.616  25.207  25.043  1.00  0.00     0.124 S 
ATOM     92  O   UNL A   1      53.388  23.769  25.147  1.00  0.00    -0.237 OA
ATOM     93  O   UNL A   1      53.739  25.734  23.687  1.00  0.00    -0.237 OA
ATOM     94  O   UNL A   1      54.554  25.765  26.013  1.00  0.00    -0.744 OA
ENDBRANCH  90  91
ENDBRANCH  58  83
ENDBRANCH  32  33
ENDBRANCH  24  27
ENDBRANCH  22  23
ENDBRANCH  21  22
ENDBRANCH   1  21
TORSDOF 18
ENDMDL
MODEL 3
REMARK VINA RESULT:     -10.2      2.982      3.767
REMARK SMILES CC(C)[C@H](C(=O)NCCCCCCNC(=O)c1ccc(-c2c3nc(c(-c4c(F)cc(S(=O)(=O)[O-])cc4F)c4ccc([nH]4)c(-c4c(F)cc(S(=O)(=O)[O-])cc4F)c4nc(c(-c5c(F)cc(S(=O)(=O)[O-])cc5F)c5ccc2[nH]5)C=C4)C=C3)cc1)c1ccc(Cl)cc1F
REMARK SMILES IDX 11 1 10 2 9 3 8 4 7 5 5 6 6 7 4 9 2 10 1 11 3 12 83 13 84 14
REMARK SMILES IDX 89 15 85 16 88 17 90 18 86 19 87 20 12 21 13 22 14 23 15 24
REMARK SMILES IDX 16 26 17 27 18 28 82 29 19 30 81 31 20 32 21 33 22 34 75 35
REMARK SMILES IDX 23 36 80 37 74 38 76 39 24 40 79 41 73 42 72 43 25 45 59 46
REMARK SMILES IDX 38 47 58 48 39 49 42 50 57 51 77 52 40 53 41 54 56 56 78 57
REMARK SMILES IDX 43 58 26 59 27 60 36 61 28 62 29 63 35 64 37 65 30 66 31 67
REMARK SMILES IDX 32 68 33 69 34 70 60 71 61 72 70 73 62 74 63 75 69 76 71 77
REMARK SMILES IDX 64 78 65 79 66 80 67 81 68 82 44 83 45 84 54 85 46 86 47 87
REMARK SMILES IDX 53 88 55 89 48 90 49 91 50 92 51 93 52 94
REMARK H PARENT 7 8 14 25 76 44 42 55
REMARK Flexibility Score: inf
ROOT
ATOM      1  C   UNL A   1      31.713  27.412  26.433  1.00  0.00     0.002 C 
ENDROOT
BRANCH   1   2
ATOM      2  C   UNL A   1      30.693  26.403  25.898  1.00  0.00     0.002 C 
BRANCH   2   3
ATOM      3  C   UNL A   1      30.481  26.390  24.379  1.00  0.00     0.021 C 
BRANCH   3   4
ATOM      4  C   UNL A   1      30.574  25.022  23.707  1.00  0.00     0.116 C 
BRANCH   4   5
ATOM      5  N   UNL A   1      30.379  23.920  24.625  1.00  0.00    -0.356 N 
ATOM      6  C   UNL A   1      31.216  22.902  24.977  1.00  0.00     0.227 C 
ATOM      7  O   UNL A   1      30.793  22.135  25.849  1.00  0.00    -0.274 OA
ATOM      8  H   UNL A   1      29.499  23.903  25.068  1.00  0.00     0.163 HD
BRANCH   6   9
ATOM      9  C   UNL A   1      32.559  22.662  24.244  1.00  0.00     0.114 C 
BRANCH   9  10
ATOM     10  C   UNL A   1      33.793  23.472  24.761  1.00  0.00    -0.000 C 
ATOM     11  C   UNL A   1      34.301  24.589  23.842  1.00  0.00     0.008 C 
ATOM     12  C   UNL A   1      33.628  24.003  26.192  1.00  0.00     0.008 C 
ENDBRANCH   9  10
BRANCH   9  13
ATOM     13  C   UNL A   1      32.793  21.160  24.047  1.00  0.00     0.001 A 
ATOM     14  C   UNL A   1      33.658  20.467  24.915  1.00  0.00     0.009 A 
ATOM     15  C   UNL A   1      32.223  20.441  22.989  1.00  0.00     0.128 A 
ATOM     16  C   UNL A   1      33.892  19.099  24.751  1.00  0.00     0.021 A 
ATOM     17  C   UNL A   1      32.429  19.073  22.834  1.00  0.00     0.060 A 
ATOM     18  F   UNL A   1      31.452  21.057  22.088  1.00  0.00    -0.207 F 
ATOM     19  C   UNL A   1      33.263  18.406  23.720  1.00  0.00     0.043 A 
ATOM     20  Cl  UNL A   1      33.526  16.714  23.538  1.00  0.00    -0.084 Cl
ENDBRANCH   9  13
ENDBRANCH   6   9
ENDBRANCH   4   5
ENDBRANCH   3   4
ENDBRANCH   2   3
ENDBRANCH   1   2
BRANCH   1  21
ATOM     21  C   UNL A   1      32.818  27.826  25.463  1.00  0.00     0.021 C 
BRANCH  21  22
ATOM     22  C   UNL A   1      34.032  28.504  26.090  1.00  0.00     0.116 C 
BRANCH  22  23
ATOM     23  N   UNL A   1      33.788  29.889  26.457  1.00  0.00    -0.352 N 
ATOM     24  C   UNL A   1      34.481  30.688  27.334  1.00  0.00     0.251 C 
ATOM     25  H   UNL A   1      33.019  30.315  26.013  1.00  0.00     0.163 HD
ATOM     26  O   UNL A   1      34.055  31.807  27.609  1.00  0.00    -0.269 OA
BRANCH  24  27
ATOM     27  C   UNL A   1      35.718  30.186  27.974  1.00  0.00     0.039 A 
ATOM     28  C   UNL A   1      36.927  30.306  27.285  1.00  0.00     0.014 A 
ATOM     29  C   UNL A   1      35.692  29.611  29.248  1.00  0.00     0.014 A 
ATOM     30  C   UNL A   1      38.117  29.910  27.900  1.00  0.00     0.010 A 
ATOM     31  C   UNL A   1      36.886  29.287  29.888  1.00  0.00     0.010 A 
ATOM     32  C   UNL A   1      38.112  29.431  29.220  1.00  0.00    -0.014 A 
BRANCH  32  33
ATOM     33  C   UNL A   1      39.379  29.084  29.918  1.00  0.00     0.031 A 
ATOM     34  C   UNL A   1      39.808  29.854  31.138  1.00  0.00     0.074 A 
ATOM     35  C   UNL A   1      40.169  28.112  29.419  1.00  0.00     0.049 A 
ATOM     36  N   UNL A   1      40.902  29.736  31.845  1.00  0.00    -0.248 NA
ATOM     37  C   UNL A   1      38.902  30.912  31.610  1.00  0.00     0.031 C 
ATOM     38  C   UNL A   1      39.884  27.324  28.217  1.00  0.00     0.029 A 
ATOM     39  N   UNL A   1      41.377  27.624  29.854  1.00  0.00    -0.354 N 
ATOM     40  C   UNL A   1      40.820  30.707  32.838  1.00  0.00     0.074 A 
ATOM     41  C   UNL A   1      39.596  31.443  32.605  1.00  0.00     0.031 C 
ATOM     42  C   UNL A   1      40.875  26.438  28.026  1.00  0.00     0.029 A 
ATOM     43  C   UNL A   1      41.885  26.621  29.063  1.00  0.00     0.049 A 
ATOM     44  H   UNL A   1      41.835  27.962  30.657  1.00  0.00     0.167 HD
ATOM     45  C   UNL A   1      41.673  30.946  33.862  1.00  0.00     0.037 A 
ATOM     46  C   UNL A   1      43.039  25.930  29.157  1.00  0.00     0.037 A 
ATOM     47  C   UNL A   1      42.880  30.196  34.097  1.00  0.00     0.049 A 
ATOM     48  C   UNL A   1      43.979  26.226  30.294  1.00  0.00     0.074 A 
ATOM     49  C   UNL A   1      43.783  30.326  35.137  1.00  0.00     0.029 A 
ATOM     50  N   UNL A   1      43.356  29.181  33.280  1.00  0.00    -0.354 N 
ATOM     51  N   UNL A   1      43.853  27.104  31.261  1.00  0.00    -0.248 NA
ATOM     52  C   UNL A   1      45.215  25.434  30.360  1.00  0.00     0.031 C 
ATOM     53  C   UNL A   1      44.833  29.427  34.920  1.00  0.00     0.029 A 
ATOM     54  C   UNL A   1      44.554  28.694  33.778  1.00  0.00     0.049 A 
ATOM     55  H   UNL A   1      42.908  28.855  32.466  1.00  0.00     0.167 HD
ATOM     56  C   UNL A   1      44.978  26.950  32.064  1.00  0.00     0.074 A 
ATOM     57  C   UNL A   1      45.765  25.886  31.478  1.00  0.00     0.031 C 
ATOM     58  C   UNL A   1      45.326  27.628  33.186  1.00  0.00     0.037 A 
BRANCH  45  59
ATOM     59  C   UNL A   1      41.330  32.064  34.811  1.00  0.00     0.058 A 
ATOM     60  C   UNL A   1      40.541  31.849  35.953  1.00  0.00     0.135 A 
ATOM     61  C   UNL A   1      41.830  33.360  34.599  1.00  0.00     0.135 A 
ATOM     62  F   UNL A   1      40.024  30.634  36.200  1.00  0.00    -0.206 F 
ATOM     63  C   UNL A   1      40.233  32.882  36.832  1.00  0.00     0.059 A 
ATOM     64  C   UNL A   1      41.561  34.402  35.482  1.00  0.00     0.059 A 
ATOM     65  F   UNL A   1      42.590  33.624  33.525  1.00  0.00    -0.206 F 
ATOM     66  C   UNL A   1      40.749  34.156  36.588  1.00  0.00     0.060 A 
BRANCH  66  67
ATOM     67  S   UNL A   1      40.343  35.483  37.742  1.00  0.00     0.124 S 
ATOM     68  O   UNL A   1      40.113  36.600  36.830  1.00  0.00    -0.237 OA
ATOM     69  O   UNL A   1      39.159  34.960  38.416  1.00  0.00    -0.237 OA
ATOM     70  O   UNL A   1      41.538  35.590  38.572  1.00  0.00    -0.744 OA
ENDBRANCH  66  67
ENDBRANCH  45  59
BRANCH  46  71
ATOM     71  C   UNL A   1      43.363  24.881  28.152  1.00  0.00     0.058 A 
ATOM     72  C   UNL A   1      42.913  23.562  28.313  1.00  0.00     0.135 A 
ATOM     73  C   UNL A   1      44.121  25.176  27.007  1.00  0.00     0.135 A 
ATOM     74  F   UNL A   1      42.191  23.227  29.393  1.00  0.00    -0.206 F 
ATOM     75  C   UNL A   1      43.218  22.569  27.388  1.00  0.00     0.059 A 
ATOM     76  C   UNL A   1      44.414  24.207  26.053  1.00  0.00     0.059 A 
ATOM     77  F   UNL A   1      44.562  26.426  26.796  1.00  0.00    -0.206 F 
ATOM     78  C   UNL A   1      43.968  22.902  26.259  1.00  0.00     0.060 A 
BRANCH  78  79
ATOM     79  S   UNL A   1      44.320  21.615  25.042  1.00  0.00     0.124 S 
ATOM     80  O   UNL A   1      45.705  21.283  25.360  1.00  0.00    -0.237 OA
ATOM     81  O   UNL A   1      43.326  20.600  25.375  1.00  0.00    -0.237 OA
ATOM     82  O   UNL A   1      44.111  22.293  23.767  1.00  0.00    -0.744 OA
ENDBRANCH  78  79
ENDBRANCH  46  71
BRANCH  58  83
ATOM     83  C   UNL A   1      46.598  27.219  33.879  1.00  0.00     0.058 A 
ATOM     84  C   UNL A   1      47.835  27.798  33.559  1.00  0.00     0.135 A 
ATOM     85  C   UNL A   1      46.567  26.268  34.914  1.00  0.00     0.135 A 
ATOM     86  F   UNL A   1      47.922  28.706  32.574  1.00  0.00    -0.206 F 
ATOM     87  C   UNL A   1      49.002  27.434  34.224  1.00  0.00     0.059 A 
ATOM     88  C   UNL A   1      47.716  25.912  35.613  1.00  0.00     0.059 A 
ATOM     89  F   UNL A   1      45.409  25.690  35.268  1.00  0.00    -0.206 F 
ATOM     90  C   UNL A   1      48.931  26.492  35.252  1.00  0.00     0.060 A 
BRANCH  90  91
ATOM     91  S   UNL A   1      50.448  26.055  36.129  1.00  0.00     0.124 S 
ATOM     92  O   UNL A   1      51.466  26.383  35.137  1.00  0.00    -0.237 OA
ATOM     93  O   UNL A   1      50.395  26.929  37.297  1.00  0.00    -0.237 OA
ATOM     94  O   UNL A   1      50.281  24.632  36.410  1.00  0.00    -0.744 OA
ENDBRANCH  90  91
ENDBRANCH  58  83
ENDBRANCH  32  33
ENDBRANCH  24  27
ENDBRANCH  22  23
ENDBRANCH  21  22
ENDBRANCH   1  21
TORSDOF 18
ENDMDL
