MODEL 1
REMARK VINA RESULT:     -11.7      0.000      0.000
REMARK SMILES CC[C@@H]1C=CCN1S(=O)(=O)c1sc2c(c1C(=O)NCCCCCCNC(=O)c1ccc(-c3c4nc(c(-c5c(F)cc(S(=O)(=O)[O-])cc5F)c5ccc([nH]5)c(-c5c(F)cc(S(=O)(=O)[O-])cc5F)c5nc(c(-c6c(F)cc(S(=O)(=O)[O-])cc6F)c6ccc3[nH]6)C=C5)C=C4)cc1)CC[NH2+]C2
REMARK SMILES IDX 21 1 20 2 19 3 18 4 16 5 17 6 15 8 11 9 12 10 13 11 14 12
REMARK SMILES IDX 97 13 94 14 96 15 95 16 8 19 9 20 10 21 7 22 3 23 4 24 5 25
REMARK SMILES IDX 6 26 2 27 1 28 22 29 23 30 24 31 25 32 26 33 27 35 28 36
REMARK SMILES IDX 29 37 93 38 30 39 92 40 31 41 32 42 33 43 86 44 34 45 91 46
REMARK SMILES IDX 85 47 87 48 35 49 90 50 84 51 83 52 36 54 70 55 49 56 69 57
REMARK SMILES IDX 50 58 53 59 68 60 88 61 51 62 52 63 67 65 89 66 54 67 37 68
REMARK SMILES IDX 38 69 47 70 39 71 40 72 46 73 48 74 41 75 42 76 43 77 44 78
REMARK SMILES IDX 45 79 71 80 72 81 81 82 73 83 74 84 80 85 82 86 75 87 76 88
REMARK SMILES IDX 77 89 78 90 79 91 55 92 56 93 65 94 57 95 58 96 64 97 66 98
REMARK SMILES IDX 59 99 60 100 61 101 62 102 63 103
REMARK H PARENT 18 7 96 17 96 18 25 34 87 53 53 64
REMARK Flexibility Score: inf
ROOT
ATOM      1  C   UNL A   1      39.508  23.193  26.437  1.00  0.00     0.002 C 
ENDROOT
BRANCH   1   2
ATOM      2  C   UNL A   1      38.030  23.405  26.782  1.00  0.00     0.021 C 
BRANCH   2   3
ATOM      3  C   UNL A   1      37.149  24.008  25.702  1.00  0.00     0.116 C 
BRANCH   3   4
ATOM      4  N   UNL A   1      37.213  23.420  24.400  1.00  0.00    -0.352 N 
ATOM      5  C   UNL A   1      36.209  23.131  23.513  1.00  0.00     0.253 C 
ATOM      6  O   UNL A   1      36.623  22.899  22.370  1.00  0.00    -0.269 OA
ATOM      7  H   UNL A   1      38.119  23.188  24.093  1.00  0.00     0.163 HD
BRANCH   5   8
ATOM      8  C   UNL A   1      34.763  22.954  23.828  1.00  0.00     0.074 A 
ATOM      9  C   UNL A   1      33.614  23.753  23.609  1.00  0.00     0.148 A 
ATOM     10  S   UNL A   1      32.188  22.962  24.206  1.00  0.00    -0.120 S 
ATOM     11  C   UNL A   1      32.992  21.601  24.718  1.00  0.00     0.064 A 
ATOM     12  C   UNL A   1      34.335  21.654  24.428  1.00  0.00    -0.009 A 
ATOM     13  C   UNL A   1      32.248  20.458  25.337  1.00  0.00     0.308 C 
ATOM     14  C   UNL A   1      35.176  20.439  24.769  1.00  0.00     0.099 C 
ATOM     15  N   UNL A   1      33.165  19.499  25.972  1.00  0.00    -0.342 N 
ATOM     16  C   UNL A   1      34.288  19.202  25.064  1.00  0.00     0.265 C 
ATOM     17  H   UNL A   1      33.527  19.899  26.838  1.00  0.00     0.346 HD
ATOM     18  H   UNL A   1      32.660  18.636  26.174  1.00  0.00     0.346 HD
BRANCH   9  19
ATOM     19  S   UNL A   1      33.087  25.334  22.835  1.00  0.00     0.254 S 
ATOM     20  O   UNL A   1      31.692  25.144  22.455  1.00  0.00    -0.206 OA
ATOM     21  O   UNL A   1      34.033  25.628  21.798  1.00  0.00    -0.206 OA
BRANCH  19  22
ATOM     22  N   UNL A   1      33.144  26.582  24.018  1.00  0.00    -0.186 NA
ATOM     23  C   UNL A   1      31.849  27.329  24.241  1.00  0.00     0.096 C 
ATOM     24  C   UNL A   1      31.494  26.991  25.654  1.00  0.00    -0.010 C 
ATOM     25  C   UNL A   1      32.511  26.408  26.284  1.00  0.00    -0.013 C 
ATOM     26  C   UNL A   1      33.650  26.170  25.366  1.00  0.00     0.130 C 
BRANCH  23  27
ATOM     27  C   UNL A   1      32.089  28.842  24.015  1.00  0.00     0.021 C 
ATOM     28  C   UNL A   1      33.306  29.217  23.167  1.00  0.00     0.006 C 
ENDBRANCH  23  27
ENDBRANCH  19  22
ENDBRANCH   9  19
ENDBRANCH   5   8
ENDBRANCH   3   4
ENDBRANCH   2   3
ENDBRANCH   1   2
BRANCH   1  29
ATOM     29  C   UNL A   1      40.332  22.203  27.283  1.00  0.00     0.002 C 
BRANCH  29  30
ATOM     30  C   UNL A   1      40.700  20.839  26.679  1.00  0.00     0.021 C 
BRANCH  30  31
ATOM     31  C   UNL A   1      41.947  20.190  27.253  1.00  0.00     0.116 C 
BRANCH  31  32
ATOM     32  N   UNL A   1      42.978  19.900  26.254  1.00  0.00    -0.352 N 
ATOM     33  C   UNL A   1      43.632  20.796  25.421  1.00  0.00     0.251 C 
ATOM     34  H   UNL A   1      43.238  18.955  26.162  1.00  0.00     0.163 HD
ATOM     35  O   UNL A   1      44.178  20.410  24.394  1.00  0.00    -0.269 OA
BRANCH  33  36
ATOM     36  C   UNL A   1      43.663  22.222  25.800  1.00  0.00     0.039 A 
ATOM     37  C   UNL A   1      43.041  23.215  25.038  1.00  0.00     0.014 A 
ATOM     38  C   UNL A   1      44.320  22.553  26.980  1.00  0.00     0.014 A 
ATOM     39  C   UNL A   1      43.032  24.523  25.527  1.00  0.00     0.010 A 
ATOM     40  C   UNL A   1      44.112  23.772  27.562  1.00  0.00     0.010 A 
ATOM     41  C   UNL A   1      43.553  24.787  26.807  1.00  0.00    -0.014 A 
BRANCH  41  42
ATOM     42  C   UNL A   1      43.436  26.100  27.431  1.00  0.00     0.031 A 
ATOM     43  C   UNL A   1      44.522  27.035  27.041  1.00  0.00     0.074 A 
ATOM     44  C   UNL A   1      42.347  26.494  28.135  1.00  0.00     0.049 A 
ATOM     45  N   UNL A   1      45.499  27.443  27.774  1.00  0.00    -0.248 NA
ATOM     46  C   UNL A   1      44.652  27.421  25.627  1.00  0.00     0.031 C 
ATOM     47  C   UNL A   1      41.083  25.774  28.349  1.00  0.00     0.029 A 
ATOM     48  N   UNL A   1      42.108  27.681  28.759  1.00  0.00    -0.354 N 
ATOM     49  C   UNL A   1      46.217  28.345  26.995  1.00  0.00     0.074 A 
ATOM     50  C   UNL A   1      45.765  28.160  25.643  1.00  0.00     0.031 C 
ATOM     51  C   UNL A   1      40.149  26.612  28.854  1.00  0.00     0.029 A 
ATOM     52  C   UNL A   1      40.789  27.873  29.175  1.00  0.00     0.049 A 
ATOM     53  H   UNL A   1      42.812  28.353  28.906  1.00  0.00     0.167 HD
ATOM     54  C   UNL A   1      46.945  29.334  27.581  1.00  0.00     0.037 A 
ATOM     55  C   UNL A   1      40.267  28.980  29.765  1.00  0.00     0.037 A 
ATOM     56  C   UNL A   1      47.097  29.079  28.993  1.00  0.00     0.049 A 
ATOM     57  C   UNL A   1      41.412  29.714  30.355  1.00  0.00     0.074 A 
ATOM     58  C   UNL A   1      47.710  28.102  29.749  1.00  0.00     0.029 A 
ATOM     59  N   UNL A   1      46.183  29.696  29.811  1.00  0.00    -0.354 N 
ATOM     60  N   UNL A   1      42.137  29.254  31.338  1.00  0.00    -0.248 NA
ATOM     61  C   UNL A   1      42.034  30.758  29.558  1.00  0.00     0.031 C 
ATOM     62  C   UNL A   1      46.846  27.901  30.867  1.00  0.00     0.029 A 
ATOM     63  C   UNL A   1      45.792  28.814  30.784  1.00  0.00     0.049 A 
ATOM     64  H   UNL A   1      45.862  30.621  29.715  1.00  0.00     0.167 HD
ATOM     65  C   UNL A   1      43.436  29.616  31.020  1.00  0.00     0.074 A 
ATOM     66  C   UNL A   1      43.295  30.637  29.982  1.00  0.00     0.031 C 
ATOM     67  C   UNL A   1      44.492  28.850  31.424  1.00  0.00     0.037 A 
BRANCH  54  68
ATOM     68  C   UNL A   1      47.155  30.710  27.000  1.00  0.00     0.058 A 
ATOM     69  C   UNL A   1      48.451  31.266  27.014  1.00  0.00     0.135 A 
ATOM     70  C   UNL A   1      46.107  31.613  26.713  1.00  0.00     0.135 A 
ATOM     71  F   UNL A   1      49.520  30.500  27.287  1.00  0.00    -0.206 F 
ATOM     72  C   UNL A   1      48.683  32.628  26.823  1.00  0.00     0.059 A 
ATOM     73  C   UNL A   1      46.321  32.965  26.470  1.00  0.00     0.059 A 
ATOM     74  F   UNL A   1      44.820  31.247  26.747  1.00  0.00    -0.206 F 
ATOM     75  C   UNL A   1      47.608  33.471  26.562  1.00  0.00     0.060 A 
BRANCH  75  76
ATOM     76  S   UNL A   1      47.901  35.239  26.386  1.00  0.00     0.124 S 
ATOM     77  O   UNL A   1      46.548  35.742  26.183  1.00  0.00    -0.237 OA
ATOM     78  O   UNL A   1      48.524  35.570  27.664  1.00  0.00    -0.237 OA
ATOM     79  O   UNL A   1      48.785  35.317  25.226  1.00  0.00    -0.744 OA
ENDBRANCH  75  76
ENDBRANCH  54  68
BRANCH  55  80
ATOM     80  C   UNL A   1      38.929  29.611  29.597  1.00  0.00     0.058 A 
ATOM     81  C   UNL A   1      38.238  30.172  30.690  1.00  0.00     0.135 A 
ATOM     82  C   UNL A   1      38.451  29.963  28.321  1.00  0.00     0.135 A 
ATOM     83  F   UNL A   1      38.635  29.907  31.945  1.00  0.00    -0.206 F 
ATOM     84  C   UNL A   1      37.179  31.075  30.528  1.00  0.00     0.059 A 
ATOM     85  C   UNL A   1      37.396  30.859  28.133  1.00  0.00     0.059 A 
ATOM     86  F   UNL A   1      39.064  29.519  27.213  1.00  0.00    -0.206 F 
ATOM     87  C   UNL A   1      36.781  31.433  29.240  1.00  0.00     0.060 A 
BRANCH  87  88
ATOM     88  S   UNL A   1      35.545  32.740  29.019  1.00  0.00     0.124 S 
ATOM     89  O   UNL A   1      35.219  32.613  27.604  1.00  0.00    -0.237 OA
ATOM     90  O   UNL A   1      34.498  32.338  29.954  1.00  0.00    -0.237 OA
ATOM     91  O   UNL A   1      36.269  33.954  29.387  1.00  0.00    -0.744 OA
ENDBRANCH  87  88
ENDBRANCH  55  80
BRANCH  67  92
ATOM     92  C   UNL A   1      44.249  27.841  32.521  1.00  0.00     0.058 A 
ATOM     93  C   UNL A   1      44.101  28.141  33.887  1.00  0.00     0.135 A 
ATOM     94  C   UNL A   1      44.030  26.511  32.134  1.00  0.00     0.135 A 
ATOM     95  F   UNL A   1      44.205  29.400  34.334  1.00  0.00    -0.206 F 
ATOM     96  C   UNL A   1      43.789  27.155  34.827  1.00  0.00     0.059 A 
ATOM     97  C   UNL A   1      43.686  25.519  33.046  1.00  0.00     0.059 A 
ATOM     98  F   UNL A   1      44.102  26.169  30.836  1.00  0.00    -0.206 F 
ATOM     99  C   UNL A   1      43.582  25.845  34.396  1.00  0.00     0.060 A 
BRANCH  99 100
ATOM    100  S   UNL A   1      43.121  24.576  35.596  1.00  0.00     0.124 S 
ATOM    101  O   UNL A   1      44.220  24.644  36.552  1.00  0.00    -0.237 OA
ATOM    102  O   UNL A   1      41.829  25.053  36.081  1.00  0.00    -0.237 OA
ATOM    103  O   UNL A   1      43.064  23.354  34.797  1.00  0.00    -0.744 OA
ENDBRANCH  99 100
ENDBRANCH  67  92
ENDBRANCH  41  42
ENDBRANCH  33  36
ENDBRANCH  31  32
ENDBRANCH  30  31
ENDBRANCH  29  30
ENDBRANCH   1  29
TORSDOF 19
ENDMDL
MODEL 2
REMARK VINA RESULT:     -11.1      1.599      2.184
REMARK SMILES CC[C@@H]1C=CCN1S(=O)(=O)c1sc2c(c1C(=O)NCCCCCCNC(=O)c1ccc(-c3c4nc(c(-c5c(F)cc(S(=O)(=O)[O-])cc5F)c5ccc([nH]5)c(-c5c(F)cc(S(=O)(=O)[O-])cc5F)c5nc(c(-c6c(F)cc(S(=O)(=O)[O-])cc6F)c6ccc3[nH]6)C=C5)C=C4)cc1)CC[NH2+]C2
REMARK SMILES IDX 21 1 20 2 19 3 18 4 16 5 17 6 15 8 11 9 12 10 13 11 14 12
REMARK SMILES IDX 97 13 94 14 96 15 95 16 8 19 9 20 10 21 7 22 3 23 4 24 5 25
REMARK SMILES IDX 6 26 2 27 1 28 22 29 23 30 24 31 25 32 26 33 27 35 28 36
REMARK SMILES IDX 29 37 93 38 30 39 92 40 31 41 32 42 33 43 86 44 34 45 91 46
REMARK SMILES IDX 85 47 87 48 35 49 90 50 84 51 83 52 36 54 70 55 49 56 69 57
REMARK SMILES IDX 50 58 53 59 68 60 88 61 51 62 52 63 67 65 89 66 54 67 37 68
REMARK SMILES IDX 38 69 47 70 39 71 40 72 46 73 48 74 41 75 42 76 43 77 44 78
REMARK SMILES IDX 45 79 71 80 72 81 81 82 73 83 74 84 80 85 82 86 75 87 76 88
REMARK SMILES IDX 77 89 78 90 79 91 55 92 56 93 65 94 57 95 58 96 64 97 66 98
REMARK SMILES IDX 59 99 60 100 61 101 62 102 63 103
REMARK H PARENT 18 7 96 17 96 18 25 34 87 53 53 64
REMARK Flexibility Score: inf
ROOT
ATOM      1  C   UNL A   1      39.177  22.851  26.362  1.00  0.00     0.002 C 
ENDROOT
BRANCH   1   2
ATOM      2  C   UNL A   1      37.872  23.517  26.813  1.00  0.00     0.021 C 
BRANCH   2   3
ATOM      3  C   UNL A   1      36.990  24.110  25.729  1.00  0.00     0.116 C 
BRANCH   3   4
ATOM      4  N   UNL A   1      37.081  23.537  24.423  1.00  0.00    -0.352 N 
ATOM      5  C   UNL A   1      36.095  23.247  23.516  1.00  0.00     0.253 C 
ATOM      6  O   UNL A   1      36.530  23.032  22.378  1.00  0.00    -0.269 OA
ATOM      7  H   UNL A   1      37.994  23.317  24.128  1.00  0.00     0.163 HD
BRANCH   5   8
ATOM      8  C   UNL A   1      34.646  23.053  23.805  1.00  0.00     0.074 A 
ATOM      9  C   UNL A   1      33.490  23.833  23.556  1.00  0.00     0.148 A 
ATOM     10  S   UNL A   1      32.064  23.026  24.133  1.00  0.00    -0.120 S 
ATOM     11  C   UNL A   1      32.878  21.683  24.675  1.00  0.00     0.064 A 
ATOM     12  C   UNL A   1      34.226  21.752  24.410  1.00  0.00    -0.009 A 
ATOM     13  C   UNL A   1      32.139  20.535  25.291  1.00  0.00     0.308 C 
ATOM     14  C   UNL A   1      35.077  20.554  24.780  1.00  0.00     0.099 C 
ATOM     15  N   UNL A   1      33.057  19.596  25.954  1.00  0.00    -0.342 N 
ATOM     16  C   UNL A   1      34.202  19.306  25.071  1.00  0.00     0.265 C 
ATOM     17  H   UNL A   1      33.396  20.010  26.822  1.00  0.00     0.346 HD
ATOM     18  H   UNL A   1      32.561  18.728  26.155  1.00  0.00     0.346 HD
BRANCH   9  19
ATOM     19  S   UNL A   1      32.956  25.398  22.755  1.00  0.00     0.254 S 
ATOM     20  O   UNL A   1      31.598  25.157  22.282  1.00  0.00    -0.206 OA
ATOM     21  O   UNL A   1      33.957  25.736  21.786  1.00  0.00    -0.206 OA
BRANCH  19  22
ATOM     22  N   UNL A   1      32.883  26.638  23.945  1.00  0.00    -0.186 NA
ATOM     23  C   UNL A   1      31.502  26.966  24.464  1.00  0.00     0.096 C 
ATOM     24  C   UNL A   1      31.575  26.578  25.907  1.00  0.00    -0.010 C 
ATOM     25  C   UNL A   1      32.829  26.347  26.286  1.00  0.00    -0.013 C 
ATOM     26  C   UNL A   1      33.765  26.437  25.140  1.00  0.00     0.130 C 
BRANCH  23  27
ATOM     27  C   UNL A   1      31.222  28.474  24.249  1.00  0.00     0.021 C 
ATOM     28  C   UNL A   1      30.544  28.857  22.931  1.00  0.00     0.006 C 
ENDBRANCH  23  27
ENDBRANCH  19  22
ENDBRANCH   9  19
ENDBRANCH   5   8
ENDBRANCH   3   4
ENDBRANCH   2   3
ENDBRANCH   1   2
BRANCH   1  29
ATOM     29  C   UNL A   1      39.141  21.375  25.921  1.00  0.00     0.002 C 
BRANCH  29  30
ATOM     30  C   UNL A   1      40.337  20.472  26.257  1.00  0.00     0.021 C 
BRANCH  30  31
ATOM     31  C   UNL A   1      41.573  21.194  26.765  1.00  0.00     0.116 C 
BRANCH  31  32
ATOM     32  N   UNL A   1      42.509  21.583  25.708  1.00  0.00    -0.352 N 
ATOM     33  C   UNL A   1      42.863  22.865  25.314  1.00  0.00     0.251 C 
ATOM     34  H   UNL A   1      42.939  20.846  25.217  1.00  0.00     0.163 HD
ATOM     35  O   UNL A   1      43.342  23.068  24.204  1.00  0.00    -0.269 OA
BRANCH  33  36
ATOM     36  C   UNL A   1      42.656  23.979  26.261  1.00  0.00     0.039 A 
ATOM     37  C   UNL A   1      43.271  24.022  27.514  1.00  0.00     0.014 A 
ATOM     38  C   UNL A   1      41.836  25.023  25.846  1.00  0.00     0.014 A 
ATOM     39  C   UNL A   1      43.101  25.164  28.301  1.00  0.00     0.010 A 
ATOM     40  C   UNL A   1      41.860  26.219  26.507  1.00  0.00     0.010 A 
ATOM     41  C   UNL A   1      42.410  26.270  27.775  1.00  0.00    -0.014 A 
BRANCH  41  42
ATOM     42  C   UNL A   1      42.331  27.540  28.488  1.00  0.00     0.031 A 
ATOM     43  C   UNL A   1      43.375  28.512  28.075  1.00  0.00     0.074 A 
ATOM     44  C   UNL A   1      41.299  27.874  29.299  1.00  0.00     0.049 A 
ATOM     45  N   UNL A   1      44.403  28.888  28.753  1.00  0.00    -0.248 NA
ATOM     46  C   UNL A   1      43.389  28.988  26.683  1.00  0.00     0.031 C 
ATOM     47  C   UNL A   1      40.061  27.123  29.567  1.00  0.00     0.029 A 
ATOM     48  N   UNL A   1      41.098  29.016  30.014  1.00  0.00    -0.354 N 
ATOM     49  C   UNL A   1      45.048  29.847  27.979  1.00  0.00     0.074 A 
ATOM     50  C   UNL A   1      44.492  29.740  26.658  1.00  0.00     0.031 C 
ATOM     51  C   UNL A   1      39.163  27.916  30.195  1.00  0.00     0.029 A 
ATOM     52  C   UNL A   1      39.814  29.163  30.544  1.00  0.00     0.049 A 
ATOM     53  H   UNL A   1      41.806  29.687  30.148  1.00  0.00     0.167 HD
ATOM     54  C   UNL A   1      45.811  30.807  28.568  1.00  0.00     0.037 A 
ATOM     55  C   UNL A   1      39.331  30.224  31.242  1.00  0.00     0.037 A 
ATOM     56  C   UNL A   1      46.078  30.468  29.944  1.00  0.00     0.049 A 
ATOM     57  C   UNL A   1      40.513  30.935  31.785  1.00  0.00     0.074 A 
ATOM     58  C   UNL A   1      46.757  29.454  30.587  1.00  0.00     0.029 A 
ATOM     59  N   UNL A   1      45.226  31.019  30.869  1.00  0.00    -0.354 N 
ATOM     60  N   UNL A   1      41.317  30.425  32.678  1.00  0.00    -0.248 NA
ATOM     61  C   UNL A   1      41.060  32.036  31.010  1.00  0.00     0.031 C 
ATOM     62  C   UNL A   1      45.986  29.172  31.753  1.00  0.00     0.029 A 
ATOM     63  C   UNL A   1      44.921  30.073  31.812  1.00  0.00     0.049 A 
ATOM     64  H   UNL A   1      44.889  31.943  30.857  1.00  0.00     0.167 HD
ATOM     65  C   UNL A   1      42.583  30.825  32.282  1.00  0.00     0.074 A 
ATOM     66  C   UNL A   1      42.352  31.907  31.325  1.00  0.00     0.031 C 
ATOM     67  C   UNL A   1      43.675  30.050  32.553  1.00  0.00     0.037 A 
BRANCH  54  68
ATOM     68  C   UNL A   1      45.962  32.220  28.061  1.00  0.00     0.058 A 
ATOM     69  C   UNL A   1      47.258  32.752  27.897  1.00  0.00     0.135 A 
ATOM     70  C   UNL A   1      44.908  33.159  28.018  1.00  0.00     0.135 A 
ATOM     71  F   UNL A   1      48.335  31.950  27.932  1.00  0.00    -0.206 F 
ATOM     72  C   UNL A   1      47.495  34.120  27.769  1.00  0.00     0.059 A 
ATOM     73  C   UNL A   1      45.118  34.522  27.841  1.00  0.00     0.059 A 
ATOM     74  F   UNL A   1      43.634  32.813  28.241  1.00  0.00    -0.206 F 
ATOM     75  C   UNL A   1      46.416  34.998  27.753  1.00  0.00     0.060 A 
BRANCH  75  76
ATOM     76  S   UNL A   1      46.726  36.770  27.658  1.00  0.00     0.124 S 
ATOM     77  O   UNL A   1      45.390  37.288  27.391  1.00  0.00    -0.237 OA
ATOM     78  O   UNL A   1      47.272  37.051  28.982  1.00  0.00    -0.237 OA
ATOM     79  O   UNL A   1      47.680  36.883  26.557  1.00  0.00    -0.744 OA
ENDBRANCH  75  76
ENDBRANCH  54  68
BRANCH  55  80
ATOM     80  C   UNL A   1      37.978  30.844  31.220  1.00  0.00     0.058 A 
ATOM     81  C   UNL A   1      37.114  30.764  32.331  1.00  0.00     0.135 A 
ATOM     82  C   UNL A   1      37.636  31.797  30.241  1.00  0.00     0.135 A 
ATOM     83  F   UNL A   1      37.371  29.897  33.322  1.00  0.00    -0.206 F 
ATOM     84  C   UNL A   1      36.014  31.618  32.492  1.00  0.00     0.059 A 
ATOM     85  C   UNL A   1      36.544  32.657  30.378  1.00  0.00     0.059 A 
ATOM     86  F   UNL A   1      38.416  31.985  29.166  1.00  0.00    -0.206 F 
ATOM     87  C   UNL A   1      35.752  32.582  31.519  1.00  0.00     0.060 A 
BRANCH  87  88
ATOM     88  S   UNL A   1      34.452  33.811  31.808  1.00  0.00     0.124 S 
ATOM     89  O   UNL A   1      33.609  33.137  32.788  1.00  0.00    -0.237 OA
ATOM     90  O   UNL A   1      35.212  34.956  32.300  1.00  0.00    -0.237 OA
ATOM     91  O   UNL A   1      33.855  33.987  30.486  1.00  0.00    -0.744 OA
ENDBRANCH  87  88
ENDBRANCH  55  80
BRANCH  67  92
ATOM     92  C   UNL A   1      43.529  28.972  33.599  1.00  0.00     0.058 A 
ATOM     93  C   UNL A   1      43.168  27.635  33.349  1.00  0.00     0.135 A 
ATOM     94  C   UNL A   1      43.900  29.296  34.912  1.00  0.00     0.135 A 
ATOM     95  F   UNL A   1      42.885  27.216  32.108  1.00  0.00    -0.206 F 
ATOM     96  C   UNL A   1      43.142  26.677  34.367  1.00  0.00     0.059 A 
ATOM     97  C   UNL A   1      43.913  28.353  35.934  1.00  0.00     0.059 A 
ATOM     98  F   UNL A   1      44.307  30.542  35.206  1.00  0.00    -0.206 F 
ATOM     99  C   UNL A   1      43.518  27.047  35.658  1.00  0.00     0.060 A 
BRANCH  99 100
ATOM    100  S   UNL A   1      43.543  25.802  36.967  1.00  0.00     0.124 S 
ATOM    101  O   UNL A   1      44.932  25.853  37.412  1.00  0.00    -0.237 OA
ATOM    102  O   UNL A   1      42.556  26.315  37.913  1.00  0.00    -0.237 OA
ATOM    103  O   UNL A   1      43.154  24.573  36.278  1.00  0.00    -0.744 OA
ENDBRANCH  99 100
ENDBRANCH  67  92
ENDBRANCH  41  42
ENDBRANCH  33  36
ENDBRANCH  31  32
ENDBRANCH  30  31
ENDBRANCH  29  30
ENDBRANCH   1  29
TORSDOF 19
ENDMDL
MODEL 3
REMARK VINA RESULT:     -10.6      1.559      2.296
REMARK SMILES CC[C@@H]1C=CCN1S(=O)(=O)c1sc2c(c1C(=O)NCCCCCCNC(=O)c1ccc(-c3c4nc(c(-c5c(F)cc(S(=O)(=O)[O-])cc5F)c5ccc([nH]5)c(-c5c(F)cc(S(=O)(=O)[O-])cc5F)c5nc(c(-c6c(F)cc(S(=O)(=O)[O-])cc6F)c6ccc3[nH]6)C=C5)C=C4)cc1)CC[NH2+]C2
REMARK SMILES IDX 21 1 20 2 19 3 18 4 16 5 17 6 15 8 11 9 12 10 13 11 14 12
REMARK SMILES IDX 97 13 94 14 96 15 95 16 8 19 9 20 10 21 7 22 3 23 4 24 5 25
REMARK SMILES IDX 6 26 2 27 1 28 22 29 23 30 24 31 25 32 26 33 27 35 28 36
REMARK SMILES IDX 29 37 93 38 30 39 92 40 31 41 32 42 33 43 86 44 34 45 91 46
REMARK SMILES IDX 85 47 87 48 35 49 90 50 84 51 83 52 36 54 70 55 49 56 69 57
REMARK SMILES IDX 50 58 53 59 68 60 88 61 51 62 52 63 67 65 89 66 54 67 37 68
REMARK SMILES IDX 38 69 47 70 39 71 40 72 46 73 48 74 41 75 42 76 43 77 44 78
REMARK SMILES IDX 45 79 71 80 72 81 81 82 73 83 74 84 80 85 82 86 75 87 76 88
REMARK SMILES IDX 77 89 78 90 79 91 55 92 56 93 65 94 57 95 58 96 64 97 66 98
REMARK SMILES IDX 59 99 60 100 61 101 62 102 63 103
REMARK H PARENT 18 7 96 17 96 18 25 34 87 53 53 64
REMARK Flexibility Score: inf
ROOT
ATOM      1  C   UNL A   1      38.800  23.151  26.184  1.00  0.00     0.002 C 
ENDROOT
BRANCH   1   2
ATOM      2  C   UNL A   1      37.509  23.066  25.362  1.00  0.00     0.021 C 
BRANCH   2   3
ATOM      3  C   UNL A   1      36.682  21.800  25.505  1.00  0.00     0.116 C 
BRANCH   3   4
ATOM      4  N   UNL A   1      35.576  21.838  26.408  1.00  0.00    -0.352 N 
ATOM      5  C   UNL A   1      34.280  21.426  26.234  1.00  0.00     0.253 C 
ATOM      6  O   UNL A   1      33.654  21.329  27.296  1.00  0.00    -0.269 OA
ATOM      7  H   UNL A   1      35.775  22.217  27.294  1.00  0.00     0.163 HD
BRANCH   5   8
ATOM      8  C   UNL A   1      33.574  21.228  24.935  1.00  0.00     0.074 A 
ATOM      9  C   UNL A   1      33.171  22.109  23.902  1.00  0.00     0.148 A 
ATOM     10  S   UNL A   1      32.393  21.239  22.616  1.00  0.00    -0.120 S 
ATOM     11  C   UNL A   1      32.579  19.750  23.329  1.00  0.00     0.064 A 
ATOM     12  C   UNL A   1      33.263  19.827  24.519  1.00  0.00    -0.009 A 
ATOM     13  C   UNL A   1      32.102  18.507  22.643  1.00  0.00     0.308 C 
ATOM     14  C   UNL A   1      33.573  18.528  25.237  1.00  0.00     0.099 C 
ATOM     15  N   UNL A   1      32.100  17.354  23.557  1.00  0.00    -0.342 N 
ATOM     16  C   UNL A   1      33.369  17.305  24.306  1.00  0.00     0.265 C 
ATOM     17  H   UNL A   1      31.323  17.442  24.212  1.00  0.00     0.346 HD
ATOM     18  H   UNL A   1      31.998  16.496  23.014  1.00  0.00     0.346 HD
BRANCH   9  19
ATOM     19  S   UNL A   1      33.249  23.877  23.406  1.00  0.00     0.254 S 
ATOM     20  O   UNL A   1      32.555  23.961  22.127  1.00  0.00    -0.206 OA
ATOM     21  O   UNL A   1      34.630  24.263  23.449  1.00  0.00    -0.206 OA
BRANCH  19  22
ATOM     22  N   UNL A   1      32.367  24.817  24.545  1.00  0.00    -0.186 NA
ATOM     23  C   UNL A   1      32.926  24.837  25.949  1.00  0.00     0.096 C 
ATOM     24  C   UNL A   1      33.312  26.269  26.146  1.00  0.00    -0.010 C 
ATOM     25  C   UNL A   1      32.814  27.044  25.185  1.00  0.00    -0.013 C 
ATOM     26  C   UNL A   1      32.120  26.241  24.150  1.00  0.00     0.130 C 
BRANCH  23  27
ATOM     27  C   UNL A   1      31.836  24.355  26.938  1.00  0.00     0.021 C 
ATOM     28  C   UNL A   1      30.484  23.978  26.327  1.00  0.00     0.006 C 
ENDBRANCH  23  27
ENDBRANCH  19  22
ENDBRANCH   9  19
ENDBRANCH   5   8
ENDBRANCH   3   4
ENDBRANCH   2   3
ENDBRANCH   1   2
BRANCH   1  29
ATOM     29  C   UNL A   1      39.608  21.863  26.429  1.00  0.00     0.002 C 
BRANCH  29  30
ATOM     30  C   UNL A   1      40.811  21.912  27.383  1.00  0.00     0.021 C 
BRANCH  30  31
ATOM     31  C   UNL A   1      41.456  20.572  27.685  1.00  0.00     0.116 C 
BRANCH  31  32
ATOM     32  N   UNL A   1      42.663  20.304  26.901  1.00  0.00    -0.352 N 
ATOM     33  C   UNL A   1      43.444  21.214  26.202  1.00  0.00     0.251 C 
ATOM     34  H   UNL A   1      42.957  19.365  26.864  1.00  0.00     0.163 HD
ATOM     35  O   UNL A   1      44.182  20.840  25.298  1.00  0.00    -0.269 OA
BRANCH  33  36
ATOM     36  C   UNL A   1      43.372  22.641  26.574  1.00  0.00     0.039 A 
ATOM     37  C   UNL A   1      42.817  23.609  25.733  1.00  0.00     0.014 A 
ATOM     38  C   UNL A   1      43.858  22.998  27.827  1.00  0.00     0.014 A 
ATOM     39  C   UNL A   1      42.696  24.915  26.209  1.00  0.00     0.010 A 
ATOM     40  C   UNL A   1      43.532  24.208  28.371  1.00  0.00     0.010 A 
ATOM     41  C   UNL A   1      43.036  25.200  27.544  1.00  0.00    -0.014 A 
BRANCH  41  42
ATOM     42  C   UNL A   1      42.791  26.508  28.140  1.00  0.00     0.031 A 
ATOM     43  C   UNL A   1      43.883  27.483  27.890  1.00  0.00     0.074 A 
ATOM     44  C   UNL A   1      41.606  26.862  28.695  1.00  0.00     0.049 A 
ATOM     45  N   UNL A   1      44.741  27.928  28.741  1.00  0.00    -0.248 NA
ATOM     46  C   UNL A   1      44.181  27.873  26.503  1.00  0.00     0.031 C 
ATOM     47  C   UNL A   1      40.352  26.094  28.747  1.00  0.00     0.029 A 
ATOM     48  N   UNL A   1      41.243  28.039  29.276  1.00  0.00    -0.354 N 
ATOM     49  C   UNL A   1      45.519  28.856  28.057  1.00  0.00     0.074 A 
ATOM     50  C   UNL A   1      45.254  28.653  26.659  1.00  0.00     0.031 C 
ATOM     51  C   UNL A   1      39.330  26.897  29.122  1.00  0.00     0.029 A 
ATOM     52  C   UNL A   1      39.875  28.182  29.516  1.00  0.00     0.049 A 
ATOM     53  H   UNL A   1      41.897  28.737  29.509  1.00  0.00     0.167 HD
ATOM     54  C   UNL A   1      46.128  29.871  28.727  1.00  0.00     0.037 A 
ATOM     55  C   UNL A   1      39.241  29.269  30.028  1.00  0.00     0.037 A 
ATOM     56  C   UNL A   1      46.105  29.624  30.148  1.00  0.00     0.049 A 
ATOM     57  C   UNL A   1      40.271  30.045  30.757  1.00  0.00     0.074 A 
ATOM     58  C   UNL A   1      46.649  28.671  30.983  1.00  0.00     0.029 A 
ATOM     59  N   UNL A   1      45.070  30.206  30.837  1.00  0.00    -0.354 N 
ATOM     60  N   UNL A   1      40.879  29.614  31.829  1.00  0.00    -0.248 NA
ATOM     61  C   UNL A   1      40.952  31.112  30.042  1.00  0.00     0.031 C 
ATOM     62  C   UNL A   1      45.656  28.439  31.980  1.00  0.00     0.029 A 
ATOM     63  C   UNL A   1      44.589  29.311  31.756  1.00  0.00     0.049 A 
ATOM     64  H   UNL A   1      44.730  31.119  30.695  1.00  0.00     0.167 HD
ATOM     65  C   UNL A   1      42.194  30.024  31.680  1.00  0.00     0.074 A 
ATOM     66  C   UNL A   1      42.151  31.039  30.627  1.00  0.00     0.031 C 
ATOM     67  C   UNL A   1      43.216  29.298  32.222  1.00  0.00     0.037 A 
BRANCH  54  68
ATOM     68  C   UNL A   1      46.360  31.255  28.171  1.00  0.00     0.058 A 
ATOM     69  C   UNL A   1      45.263  31.978  27.659  1.00  0.00     0.135 A 
ATOM     70  C   UNL A   1      47.635  31.771  27.849  1.00  0.00     0.135 A 
ATOM     71  F   UNL A   1      44.005  31.570  27.895  1.00  0.00    -0.206 F 
ATOM     72  C   UNL A   1      45.420  33.090  26.832  1.00  0.00     0.059 A 
ATOM     73  C   UNL A   1      47.814  32.907  27.068  1.00  0.00     0.059 A 
ATOM     74  F   UNL A   1      48.766  31.145  28.195  1.00  0.00    -0.206 F 
ATOM     75  C   UNL A   1      46.703  33.540  26.534  1.00  0.00     0.060 A 
BRANCH  75  76
ATOM     76  S   UNL A   1      46.906  34.932  25.411  1.00  0.00     0.124 S 
ATOM     77  O   UNL A   1      45.826  34.702  24.460  1.00  0.00    -0.237 OA
ATOM     78  O   UNL A   1      46.738  36.070  26.310  1.00  0.00    -0.237 OA
ATOM     79  O   UNL A   1      48.258  34.748  24.890  1.00  0.00    -0.744 OA
ENDBRANCH  75  76
ENDBRANCH  54  68
BRANCH  55  80
ATOM     80  C   UNL A   1      37.913  29.849  29.684  1.00  0.00     0.058 A 
ATOM     81  C   UNL A   1      37.073  30.400  30.673  1.00  0.00     0.135 A 
ATOM     82  C   UNL A   1      37.586  30.165  28.352  1.00  0.00     0.135 A 
ATOM     83  F   UNL A   1      37.319  30.166  31.971  1.00  0.00    -0.206 F 
ATOM     84  C   UNL A   1      36.012  31.262  30.364  1.00  0.00     0.059 A 
ATOM     85  C   UNL A   1      36.532  31.020  28.019  1.00  0.00     0.059 A 
ATOM     86  F   UNL A   1      38.347  29.729  27.337  1.00  0.00    -0.206 F 
ATOM     87  C   UNL A   1      35.765  31.588  29.031  1.00  0.00     0.060 A 
BRANCH  87  88
ATOM     88  S   UNL A   1      34.523  32.846  28.635  1.00  0.00     0.124 S 
ATOM     89  O   UNL A   1      33.480  32.052  27.996  1.00  0.00    -0.237 OA
ATOM     90  O   UNL A   1      34.198  33.386  29.951  1.00  0.00    -0.237 OA
ATOM     91  O   UNL A   1      35.240  33.761  27.750  1.00  0.00    -0.744 OA
ENDBRANCH  87  88
ENDBRANCH  55  80
BRANCH  67  92
ATOM     92  C   UNL A   1      42.870  28.282  33.283  1.00  0.00     0.058 A 
ATOM     93  C   UNL A   1      43.003  26.887  33.152  1.00  0.00     0.135 A 
ATOM     94  C   UNL A   1      42.501  28.771  34.545  1.00  0.00     0.135 A 
ATOM     95  F   UNL A   1      43.437  26.338  32.010  1.00  0.00    -0.206 F 
ATOM     96  C   UNL A   1      42.744  26.021  34.218  1.00  0.00     0.059 A 
ATOM     97  C   UNL A   1      42.269  27.930  35.628  1.00  0.00     0.059 A 
ATOM     98  F   UNL A   1      42.409  30.095  34.750  1.00  0.00    -0.206 F 
ATOM     99  C   UNL A   1      42.377  26.553  35.454  1.00  0.00     0.060 A 
BRANCH  99 100
ATOM    100  S   UNL A   1      42.097  25.443  36.852  1.00  0.00     0.124 S 
ATOM    101  O   UNL A   1      41.568  26.352  37.864  1.00  0.00    -0.237 OA
ATOM    102  O   UNL A   1      41.145  24.480  36.306  1.00  0.00    -0.237 OA
ATOM    103  O   UNL A   1      43.426  24.904  37.132  1.00  0.00    -0.744 OA
ENDBRANCH  99 100
ENDBRANCH  67  92
ENDBRANCH  41  42
ENDBRANCH  33  36
ENDBRANCH  31  32
ENDBRANCH  30  31
ENDBRANCH  29  30
ENDBRANCH   1  29
TORSDOF 19
ENDMDL
