MODEL 1
REMARK VINA RESULT:     -10.0      0.000      0.000
REMARK SMILES CC(C)[C@@H](CO)Nc1ccc(C(=O)NCCCCCCNC(=O)c2ccc(-c3c4nc(c(-c5c(F)cc(S(=O)(=O)[O-])cc5F)c5ccc([nH]5)c(-c5c(F)cc(S(=O)(=O)[O-])cc5F)c5nc(c(-c6c(F)cc(S(=O)(=O)[O-])cc6F)c6ccc3[nH]6)C=C5)C=C4)cc2)nn1
REMARK SMILES IDX 17 1 16 2 15 3 14 4 12 5 13 6 11 8 8 9 9 10 91 11 10 12
REMARK SMILES IDX 90 13 7 14 4 16 2 17 1 18 3 19 5 20 6 21 18 23 19 24 20 25
REMARK SMILES IDX 21 26 22 27 23 29 24 30 25 31 89 32 26 33 88 34 27 35 28 36
REMARK SMILES IDX 29 37 82 38 30 39 87 40 81 41 83 42 31 43 86 44 80 45 79 46
REMARK SMILES IDX 32 48 66 49 45 50 65 51 46 52 49 53 64 54 84 55 47 56 48 57
REMARK SMILES IDX 63 59 85 60 50 61 33 62 34 63 43 64 35 65 36 66 42 67 44 68
REMARK SMILES IDX 37 69 38 70 39 71 40 72 41 73 67 74 68 75 77 76 69 77 70 78
REMARK SMILES IDX 76 79 78 80 71 81 72 82 73 83 74 84 75 85 51 86 52 87 61 88
REMARK SMILES IDX 53 89 54 90 60 91 62 92 55 93 56 94 57 95 58 96 59 97
REMARK H PARENT 14 7 7 15 6 22 21 28 83 47 49 58
REMARK Flexibility Score: inf
ROOT
ATOM      1  C   UNL A   1      40.835  20.619  27.143  1.00  0.00     0.002 C 
ENDROOT
BRANCH   1   2
ATOM      2  C   UNL A   1      41.714  20.303  25.924  1.00  0.00     0.021 C 
BRANCH   2   3
ATOM      3  C   UNL A   1      42.821  19.289  26.221  1.00  0.00     0.116 C 
BRANCH   3   4
ATOM      4  N   UNL A   1      43.550  18.974  25.008  1.00  0.00    -0.351 N 
ATOM      5  C   UNL A   1      44.451  19.680  24.242  1.00  0.00     0.271 C 
ATOM      6  O   UNL A   1      44.892  19.100  23.247  1.00  0.00    -0.267 OA
ATOM      7  H   UNL A   1      43.361  18.073  24.660  1.00  0.00     0.163 HD
BRANCH   5   8
ATOM      8  C   UNL A   1      44.938  21.055  24.577  1.00  0.00     0.150 A 
ATOM      9  C   UNL A   1      45.716  23.685  24.884  1.00  0.00     0.148 A 
ATOM     10  C   UNL A   1      46.337  22.693  25.624  1.00  0.00     0.051 A 
ATOM     11  N   UNL A   1      44.698  23.362  24.069  1.00  0.00    -0.132 NA
ATOM     12  C   UNL A   1      45.918  21.366  25.501  1.00  0.00     0.040 A 
ATOM     13  N   UNL A   1      44.321  22.043  23.890  1.00  0.00    -0.143 NA
BRANCH   9  14
ATOM     14  N   UNL A   1      46.099  25.009  24.935  1.00  0.00    -0.363 N 
ATOM     15  H   UNL A   1      46.869  25.316  24.404  1.00  0.00     0.162 HD
BRANCH  14  16
ATOM     16  C   UNL A   1      45.366  25.962  25.776  1.00  0.00     0.108 C 
BRANCH  16  17
ATOM     17  C   UNL A   1      46.190  26.232  27.073  1.00  0.00     0.007 C 
ATOM     18  C   UNL A   1      45.761  25.316  28.225  1.00  0.00     0.009 C 
ATOM     19  C   UNL A   1      47.698  26.044  26.840  1.00  0.00     0.009 C 
ENDBRANCH  16  17
BRANCH  16  20
ATOM     20  C   UNL A   1      45.074  27.239  24.948  1.00  0.00     0.181 C 
BRANCH  20  21
ATOM     21  O   UNL A   1      43.682  27.458  24.723  1.00  0.00    -0.394 OA
ATOM     22  H   UNL A   1      43.435  28.335  25.055  1.00  0.00     0.210 HD
ENDBRANCH  20  21
ENDBRANCH  16  20
ENDBRANCH  14  16
ENDBRANCH   9  14
ENDBRANCH   5   8
ENDBRANCH   3   4
ENDBRANCH   2   3
ENDBRANCH   1   2
BRANCH   1  23
ATOM     23  C   UNL A   1      40.745  22.108  27.506  1.00  0.00     0.002 C 
BRANCH  23  24
ATOM     24  C   UNL A   1      41.832  22.611  28.461  1.00  0.00     0.021 C 
BRANCH  24  25
ATOM     25  C   UNL A   1      42.992  23.330  27.778  1.00  0.00     0.116 C 
BRANCH  25  26
ATOM     26  N   UNL A   1      42.571  23.981  26.549  1.00  0.00    -0.352 N 
ATOM     27  C   UNL A   1      41.826  25.119  26.375  1.00  0.00     0.251 C 
ATOM     28  H   UNL A   1      42.863  23.539  25.719  1.00  0.00     0.163 HD
ATOM     29  O   UNL A   1      41.364  25.377  25.267  1.00  0.00    -0.269 OA
BRANCH  27  30
ATOM     30  C   UNL A   1      41.576  26.031  27.513  1.00  0.00     0.039 A 
ATOM     31  C   UNL A   1      42.530  27.005  27.817  1.00  0.00     0.014 A 
ATOM     32  C   UNL A   1      40.434  25.897  28.309  1.00  0.00     0.014 A 
ATOM     33  C   UNL A   1      42.320  27.868  28.895  1.00  0.00     0.010 A 
ATOM     34  C   UNL A   1      40.194  26.801  29.341  1.00  0.00     0.010 A 
ATOM     35  C   UNL A   1      41.142  27.786  29.655  1.00  0.00    -0.014 A 
BRANCH  35  36
ATOM     36  C   UNL A   1      40.904  28.713  30.791  1.00  0.00     0.031 A 
ATOM     37  C   UNL A   1      41.744  28.620  32.036  1.00  0.00     0.074 A 
ATOM     38  C   UNL A   1      39.911  29.620  30.710  1.00  0.00     0.049 A 
ATOM     39  N   UNL A   1      41.686  29.340  33.128  1.00  0.00    -0.248 NA
ATOM     40  C   UNL A   1      42.768  27.563  32.070  1.00  0.00     0.031 C 
ATOM     41  C   UNL A   1      38.996  29.775  29.577  1.00  0.00     0.029 A 
ATOM     42  N   UNL A   1      39.507  30.587  31.596  1.00  0.00    -0.354 N 
ATOM     43  C   UNL A   1      42.657  28.822  33.977  1.00  0.00     0.074 A 
ATOM     44  C   UNL A   1      43.247  27.689  33.298  1.00  0.00     0.031 C 
ATOM     45  C   UNL A   1      38.162  30.797  29.821  1.00  0.00     0.029 A 
ATOM     46  C   UNL A   1      38.464  31.354  31.136  1.00  0.00     0.049 A 
ATOM     47  H   UNL A   1      39.927  30.718  32.477  1.00  0.00     0.167 HD
ATOM     48  C   UNL A   1      43.043  29.265  35.198  1.00  0.00     0.037 A 
ATOM     49  C   UNL A   1      37.829  32.395  31.707  1.00  0.00     0.037 A 
ATOM     50  C   UNL A   1      42.464  30.406  35.861  1.00  0.00     0.049 A 
ATOM     51  C   UNL A   1      38.283  32.880  33.056  1.00  0.00     0.074 A 
ATOM     52  C   UNL A   1      42.808  30.963  37.080  1.00  0.00     0.029 A 
ATOM     53  N   UNL A   1      41.419  31.167  35.357  1.00  0.00    -0.354 N 
ATOM     54  N   UNL A   1      39.239  32.411  33.822  1.00  0.00    -0.248 NA
ATOM     55  C   UNL A   1      37.581  34.045  33.612  1.00  0.00     0.031 C 
ATOM     56  C   UNL A   1      41.950  32.039  37.329  1.00  0.00     0.029 A 
ATOM     57  C   UNL A   1      41.098  32.182  36.245  1.00  0.00     0.049 A 
ATOM     58  H   UNL A   1      40.971  31.010  34.495  1.00  0.00     0.167 HD
ATOM     59  C   UNL A   1      39.270  33.239  34.940  1.00  0.00     0.074 A 
ATOM     60  C   UNL A   1      38.248  34.245  34.740  1.00  0.00     0.031 C 
ATOM     61  C   UNL A   1      40.073  33.173  36.032  1.00  0.00     0.037 A 
BRANCH  48  62
ATOM     62  C   UNL A   1      44.148  28.513  35.889  1.00  0.00     0.058 A 
ATOM     63  C   UNL A   1      45.497  28.874  35.724  1.00  0.00     0.135 A 
ATOM     64  C   UNL A   1      43.861  27.427  36.730  1.00  0.00     0.135 A 
ATOM     65  F   UNL A   1      45.830  29.895  34.920  1.00  0.00    -0.206 F 
ATOM     66  C   UNL A   1      46.521  28.158  36.335  1.00  0.00     0.059 A 
ATOM     67  C   UNL A   1      44.869  26.714  37.374  1.00  0.00     0.059 A 
ATOM     68  F   UNL A   1      42.591  27.039  36.924  1.00  0.00    -0.206 F 
ATOM     69  C   UNL A   1      46.198  27.076  37.154  1.00  0.00     0.060 A 
BRANCH  69  70
ATOM     70  S   UNL A   1      47.540  26.147  37.927  1.00  0.00     0.124 S 
ATOM     71  O   UNL A   1      48.022  27.105  38.918  1.00  0.00    -0.237 OA
ATOM     72  O   UNL A   1      46.845  24.980  38.461  1.00  0.00    -0.237 OA
ATOM     73  O   UNL A   1      48.449  25.879  36.818  1.00  0.00    -0.744 OA
ENDBRANCH  69  70
ENDBRANCH  48  62
BRANCH  49  74
ATOM     74  C   UNL A   1      36.728  33.080  30.980  1.00  0.00     0.058 A 
ATOM     75  C   UNL A   1      35.386  32.831  31.305  1.00  0.00     0.135 A 
ATOM     76  C   UNL A   1      36.993  34.009  29.963  1.00  0.00     0.135 A 
ATOM     77  F   UNL A   1      35.084  31.947  32.269  1.00  0.00    -0.206 F 
ATOM     78  C   UNL A   1      34.344  33.466  30.639  1.00  0.00     0.059 A 
ATOM     79  C   UNL A   1      35.968  34.675  29.297  1.00  0.00     0.059 A 
ATOM     80  F   UNL A   1      38.260  34.298  29.627  1.00  0.00    -0.206 F 
ATOM     81  C   UNL A   1      34.646  34.389  29.637  1.00  0.00     0.060 A 
BRANCH  81  82
ATOM     82  S   UNL A   1      33.288  35.252  28.816  1.00  0.00     0.124 S 
ATOM     83  O   UNL A   1      32.643  34.162  28.094  1.00  0.00    -0.237 OA
ATOM     84  O   UNL A   1      32.544  35.800  29.945  1.00  0.00    -0.237 OA
ATOM     85  O   UNL A   1      33.974  36.241  27.989  1.00  0.00    -0.744 OA
ENDBRANCH  81  82
ENDBRANCH  49  74
BRANCH  61  86
ATOM     86  C   UNL A   1      39.890  34.239  37.076  1.00  0.00     0.058 A 
ATOM     87  C   UNL A   1      39.050  34.050  38.186  1.00  0.00     0.135 A 
ATOM     88  C   UNL A   1      40.569  35.463  36.968  1.00  0.00     0.135 A 
ATOM     89  F   UNL A   1      38.375  32.898  38.333  1.00  0.00    -0.206 F 
ATOM     90  C   UNL A   1      38.855  35.053  39.128  1.00  0.00     0.059 A 
ATOM     91  C   UNL A   1      40.411  36.471  37.914  1.00  0.00     0.059 A 
ATOM     92  F   UNL A   1      41.395  35.691  35.935  1.00  0.00    -0.206 F 
ATOM     93  C   UNL A   1      39.535  36.264  38.979  1.00  0.00     0.060 A 
BRANCH  93  94
ATOM     94  S   UNL A   1      39.270  37.565  40.203  1.00  0.00     0.124 S 
ATOM     95  O   UNL A   1      38.202  38.340  39.579  1.00  0.00    -0.237 OA
ATOM     96  O   UNL A   1      38.890  36.807  41.392  1.00  0.00    -0.237 OA
ATOM     97  O   UNL A   1      40.568  38.228  40.278  1.00  0.00    -0.744 OA
ENDBRANCH  93  94
ENDBRANCH  61  86
ENDBRANCH  35  36
ENDBRANCH  27  30
ENDBRANCH  25  26
ENDBRANCH  24  25
ENDBRANCH  23  24
ENDBRANCH   1  23
TORSDOF 21
ENDMDL
MODEL 2
REMARK VINA RESULT:      -9.8      5.468     13.322
REMARK SMILES CC(C)[C@@H](CO)Nc1ccc(C(=O)NCCCCCCNC(=O)c2ccc(-c3c4nc(c(-c5c(F)cc(S(=O)(=O)[O-])cc5F)c5ccc([nH]5)c(-c5c(F)cc(S(=O)(=O)[O-])cc5F)c5nc(c(-c6c(F)cc(S(=O)(=O)[O-])cc6F)c6ccc3[nH]6)C=C5)C=C4)cc2)nn1
REMARK SMILES IDX 17 1 16 2 15 3 14 4 12 5 13 6 11 8 8 9 9 10 91 11 10 12
REMARK SMILES IDX 90 13 7 14 4 16 2 17 1 18 3 19 5 20 6 21 18 23 19 24 20 25
REMARK SMILES IDX 21 26 22 27 23 29 24 30 25 31 89 32 26 33 88 34 27 35 28 36
REMARK SMILES IDX 29 37 82 38 30 39 87 40 81 41 83 42 31 43 86 44 80 45 79 46
REMARK SMILES IDX 32 48 66 49 45 50 65 51 46 52 49 53 64 54 84 55 47 56 48 57
REMARK SMILES IDX 63 59 85 60 50 61 33 62 34 63 43 64 35 65 36 66 42 67 44 68
REMARK SMILES IDX 37 69 38 70 39 71 40 72 41 73 67 74 68 75 77 76 69 77 70 78
REMARK SMILES IDX 76 79 78 80 71 81 72 82 73 83 74 84 75 85 51 86 52 87 61 88
REMARK SMILES IDX 53 89 54 90 60 91 62 92 55 93 56 94 57 95 58 96 59 97
REMARK H PARENT 14 7 7 15 6 22 21 28 83 47 49 58
REMARK Flexibility Score: inf
ROOT
ATOM      1  C   UNL A   1      33.966  33.778  29.143  1.00  0.00     0.002 C 
ENDROOT
BRANCH   1   2
ATOM      2  C   UNL A   1      33.004  34.950  28.902  1.00  0.00     0.021 C 
BRANCH   2   3
ATOM      3  C   UNL A   1      33.497  36.272  29.494  1.00  0.00     0.116 C 
BRANCH   3   4
ATOM      4  N   UNL A   1      32.678  36.649  30.628  1.00  0.00    -0.351 N 
ATOM      5  C   UNL A   1      32.708  36.314  31.963  1.00  0.00     0.271 C 
ATOM      6  O   UNL A   1      31.841  36.828  32.674  1.00  0.00    -0.267 OA
ATOM      7  H   UNL A   1      31.951  37.271  30.397  1.00  0.00     0.163 HD
BRANCH   5   8
ATOM      8  C   UNL A   1      33.740  35.421  32.579  1.00  0.00     0.150 A 
ATOM      9  C   UNL A   1      35.877  34.001  33.596  1.00  0.00     0.148 A 
ATOM     10  C   UNL A   1      34.674  33.358  33.358  1.00  0.00     0.051 A 
ATOM     11  N   UNL A   1      35.971  35.325  33.388  1.00  0.00    -0.132 NA
ATOM     12  C   UNL A   1      33.578  34.083  32.881  1.00  0.00     0.040 A 
ATOM     13  N   UNL A   1      34.913  36.037  32.853  1.00  0.00    -0.143 NA
BRANCH   9  14
ATOM     14  N   UNL A   1      37.004  33.341  34.038  1.00  0.00    -0.363 N 
ATOM     15  H   UNL A   1      37.239  33.361  34.994  1.00  0.00     0.162 HD
BRANCH  14  16
ATOM     16  C   UNL A   1      37.856  32.611  33.093  1.00  0.00     0.108 C 
BRANCH  16  17
ATOM     17  C   UNL A   1      39.189  33.398  32.899  1.00  0.00     0.007 C 
ATOM     18  C   UNL A   1      40.389  32.459  32.728  1.00  0.00     0.009 C 
ATOM     19  C   UNL A   1      39.127  34.334  31.682  1.00  0.00     0.009 C 
ENDBRANCH  16  17
BRANCH  16  20
ATOM     20  C   UNL A   1      38.056  31.166  33.613  1.00  0.00     0.181 C 
BRANCH  20  21
ATOM     21  O   UNL A   1      36.995  30.284  33.250  1.00  0.00    -0.394 OA
ATOM     22  H   UNL A   1      37.364  29.469  32.878  1.00  0.00     0.210 HD
ENDBRANCH  20  21
ENDBRANCH  16  20
ENDBRANCH  14  16
ENDBRANCH   9  14
ENDBRANCH   5   8
ENDBRANCH   3   4
ENDBRANCH   2   3
ENDBRANCH   1   2
BRANCH   1  23
ATOM     23  C   UNL A   1      35.450  34.163  29.214  1.00  0.00     0.002 C 
BRANCH  23  24
ATOM     24  C   UNL A   1      36.415  32.997  29.452  1.00  0.00     0.021 C 
BRANCH  24  25
ATOM     25  C   UNL A   1      35.852  31.877  30.323  1.00  0.00     0.116 C 
BRANCH  25  26
ATOM     26  N   UNL A   1      35.154  30.880  29.529  1.00  0.00    -0.352 N 
ATOM     27  C   UNL A   1      35.660  29.923  28.687  1.00  0.00     0.251 C 
ATOM     28  H   UNL A   1      34.173  30.895  29.607  1.00  0.00     0.163 HD
ATOM     29  O   UNL A   1      34.907  29.335  27.916  1.00  0.00    -0.269 OA
BRANCH  27  30
ATOM     30  C   UNL A   1      37.104  29.601  28.703  1.00  0.00     0.039 A 
ATOM     31  C   UNL A   1      37.843  29.766  27.528  1.00  0.00     0.014 A 
ATOM     32  C   UNL A   1      37.720  29.093  29.851  1.00  0.00     0.014 A 
ATOM     33  C   UNL A   1      39.205  29.456  27.517  1.00  0.00     0.010 A 
ATOM     34  C   UNL A   1      39.091  28.849  29.857  1.00  0.00     0.010 A 
ATOM     35  C   UNL A   1      39.845  29.012  28.686  1.00  0.00    -0.014 A 
BRANCH  35  36
ATOM     36  C   UNL A   1      41.297  28.700  28.686  1.00  0.00     0.031 A 
ATOM     37  C   UNL A   1      41.779  27.328  28.297  1.00  0.00     0.074 A 
ATOM     38  C   UNL A   1      42.179  29.645  29.063  1.00  0.00     0.049 A 
ATOM     39  N   UNL A   1      43.003  26.868  28.236  1.00  0.00    -0.248 NA
ATOM     40  C   UNL A   1      40.748  26.334  27.956  1.00  0.00     0.031 C 
ATOM     41  C   UNL A   1      41.833  30.996  29.509  1.00  0.00     0.029 A 
ATOM     42  N   UNL A   1      43.549  29.617  29.128  1.00  0.00    -0.354 N 
ATOM     43  C   UNL A   1      42.890  25.536  27.856  1.00  0.00     0.074 A 
ATOM     44  C   UNL A   1      41.476  25.245  27.761  1.00  0.00     0.031 C 
ATOM     45  C   UNL A   1      42.959  31.677  29.768  1.00  0.00     0.029 A 
ATOM     46  C   UNL A   1      44.107  30.806  29.533  1.00  0.00     0.049 A 
ATOM     47  H   UNL A   1      44.082  28.819  28.905  1.00  0.00     0.167 HD
ATOM     48  C   UNL A   1      43.873  24.643  27.585  1.00  0.00     0.037 A 
ATOM     49  C   UNL A   1      45.397  31.156  29.687  1.00  0.00     0.037 A 
ATOM     50  C   UNL A   1      45.279  24.944  27.663  1.00  0.00     0.049 A 
ATOM     51  C   UNL A   1      46.473  30.155  29.366  1.00  0.00     0.074 A 
ATOM     52  C   UNL A   1      46.356  24.126  27.370  1.00  0.00     0.029 A 
ATOM     53  N   UNL A   1      45.805  26.165  28.063  1.00  0.00    -0.354 N 
ATOM     54  N   UNL A   1      46.348  28.915  28.957  1.00  0.00    -0.248 NA
ATOM     55  C   UNL A   1      47.863  30.606  29.513  1.00  0.00     0.031 C 
ATOM     56  C   UNL A   1      47.532  24.839  27.625  1.00  0.00     0.029 A 
ATOM     57  C   UNL A   1      47.190  26.118  28.035  1.00  0.00     0.049 A 
ATOM     58  H   UNL A   1      45.273  26.950  28.327  1.00  0.00     0.167 HD
ATOM     59  C   UNL A   1      47.645  28.444  28.774  1.00  0.00     0.074 A 
ATOM     60  C   UNL A   1      48.534  29.539  29.101  1.00  0.00     0.031 C 
ATOM     61  C   UNL A   1      48.061  27.217  28.370  1.00  0.00     0.037 A 
BRANCH  48  62
ATOM     62  C   UNL A   1      43.453  23.259  27.171  1.00  0.00     0.058 A 
ATOM     63  C   UNL A   1      42.950  22.334  28.102  1.00  0.00     0.135 A 
ATOM     64  C   UNL A   1      43.546  22.850  25.832  1.00  0.00     0.135 A 
ATOM     65  F   UNL A   1      42.853  22.666  29.399  1.00  0.00    -0.206 F 
ATOM     66  C   UNL A   1      42.594  21.043  27.727  1.00  0.00     0.059 A 
ATOM     67  C   UNL A   1      43.168  21.572  25.429  1.00  0.00     0.059 A 
ATOM     68  F   UNL A   1      44.020  23.691  24.899  1.00  0.00    -0.206 F 
ATOM     69  C   UNL A   1      42.712  20.668  26.389  1.00  0.00     0.060 A 
BRANCH  69  70
ATOM     70  S   UNL A   1      42.261  18.984  25.919  1.00  0.00     0.124 S 
ATOM     71  O   UNL A   1      40.816  19.107  25.749  1.00  0.00    -0.237 OA
ATOM     72  O   UNL A   1      43.028  18.785  24.694  1.00  0.00    -0.237 OA
ATOM     73  O   UNL A   1      42.693  18.187  27.062  1.00  0.00    -0.744 OA
ENDBRANCH  69  70
ENDBRANCH  48  62
BRANCH  49  74
ATOM     74  C   UNL A   1      45.744  32.535  30.122  1.00  0.00     0.058 A 
ATOM     75  C   UNL A   1      45.877  33.572  29.188  1.00  0.00     0.135 A 
ATOM     76  C   UNL A   1      45.929  32.847  31.478  1.00  0.00     0.135 A 
ATOM     77  F   UNL A   1      45.712  33.321  27.880  1.00  0.00    -0.206 F 
ATOM     78  C   UNL A   1      46.196  34.869  29.577  1.00  0.00     0.059 A 
ATOM     79  C   UNL A   1      46.226  34.142  31.895  1.00  0.00     0.059 A 
ATOM     80  F   UNL A   1      45.795  31.895  32.413  1.00  0.00    -0.206 F 
ATOM     81  C   UNL A   1      46.366  35.144  30.934  1.00  0.00     0.060 A 
BRANCH  81  82
ATOM     82  S   UNL A   1      46.724  36.842  31.437  1.00  0.00     0.124 S 
ATOM     83  O   UNL A   1      46.699  37.537  30.156  1.00  0.00    -0.237 OA
ATOM     84  O   UNL A   1      45.619  37.132  32.345  1.00  0.00    -0.237 OA
ATOM     85  O   UNL A   1      48.034  36.732  32.072  1.00  0.00    -0.744 OA
ENDBRANCH  81  82
ENDBRANCH  49  74
BRANCH  61  86
ATOM     86  C   UNL A   1      49.544  27.013  28.234  1.00  0.00     0.058 A 
ATOM     87  C   UNL A   1      50.317  26.494  29.286  1.00  0.00     0.135 A 
ATOM     88  C   UNL A   1      50.200  27.334  27.035  1.00  0.00     0.135 A 
ATOM     89  F   UNL A   1      49.739  26.174  30.455  1.00  0.00    -0.206 F 
ATOM     90  C   UNL A   1      51.694  26.343  29.169  1.00  0.00     0.059 A 
ATOM     91  C   UNL A   1      51.572  27.165  26.886  1.00  0.00     0.059 A 
ATOM     92  F   UNL A   1      49.506  27.821  25.993  1.00  0.00    -0.206 F 
ATOM     93  C   UNL A   1      52.314  26.688  27.966  1.00  0.00     0.060 A 
BRANCH  93  94
ATOM     94  S   UNL A   1      54.104  26.496  27.825  1.00  0.00     0.124 S 
ATOM     95  O   UNL A   1      54.500  26.416  29.227  1.00  0.00    -0.237 OA
ATOM     96  O   UNL A   1      54.229  25.259  27.060  1.00  0.00    -0.237 OA
ATOM     97  O   UNL A   1      54.519  27.706  27.121  1.00  0.00    -0.744 OA
ENDBRANCH  93  94
ENDBRANCH  61  86
ENDBRANCH  35  36
ENDBRANCH  27  30
ENDBRANCH  25  26
ENDBRANCH  24  25
ENDBRANCH  23  24
ENDBRANCH   1  23
TORSDOF 21
ENDMDL
MODEL 3
REMARK VINA RESULT:      -9.6      4.305      6.143
REMARK SMILES CC(C)[C@@H](CO)Nc1ccc(C(=O)NCCCCCCNC(=O)c2ccc(-c3c4nc(c(-c5c(F)cc(S(=O)(=O)[O-])cc5F)c5ccc([nH]5)c(-c5c(F)cc(S(=O)(=O)[O-])cc5F)c5nc(c(-c6c(F)cc(S(=O)(=O)[O-])cc6F)c6ccc3[nH]6)C=C5)C=C4)cc2)nn1
REMARK SMILES IDX 17 1 16 2 15 3 14 4 12 5 13 6 11 8 8 9 9 10 91 11 10 12
REMARK SMILES IDX 90 13 7 14 4 16 2 17 1 18 3 19 5 20 6 21 18 23 19 24 20 25
REMARK SMILES IDX 21 26 22 27 23 29 24 30 25 31 89 32 26 33 88 34 27 35 28 36
REMARK SMILES IDX 29 37 82 38 30 39 87 40 81 41 83 42 31 43 86 44 80 45 79 46
REMARK SMILES IDX 32 48 66 49 45 50 65 51 46 52 49 53 64 54 84 55 47 56 48 57
REMARK SMILES IDX 63 59 85 60 50 61 33 62 34 63 43 64 35 65 36 66 42 67 44 68
REMARK SMILES IDX 37 69 38 70 39 71 40 72 41 73 67 74 68 75 77 76 69 77 70 78
REMARK SMILES IDX 76 79 78 80 71 81 72 82 73 83 74 84 75 85 51 86 52 87 61 88
REMARK SMILES IDX 53 89 54 90 60 91 62 92 55 93 56 94 57 95 58 96 59 97
REMARK H PARENT 14 7 7 15 6 22 21 28 83 47 49 58
REMARK Flexibility Score: inf
ROOT
ATOM      1  C   UNL A   1      38.589  21.478  25.399  1.00  0.00     0.002 C 
ENDROOT
BRANCH   1   2
ATOM      2  C   UNL A   1      37.501  20.473  24.996  1.00  0.00     0.021 C 
BRANCH   2   3
ATOM      3  C   UNL A   1      36.080  20.996  25.214  1.00  0.00     0.116 C 
BRANCH   3   4
ATOM      4  N   UNL A   1      35.117  19.933  25.001  1.00  0.00    -0.351 N 
ATOM      5  C   UNL A   1      33.775  19.928  24.693  1.00  0.00     0.271 C 
ATOM      6  O   UNL A   1      33.246  18.820  24.581  1.00  0.00    -0.267 OA
ATOM      7  H   UNL A   1      35.500  19.032  25.097  1.00  0.00     0.163 HD
BRANCH   5   8
ATOM      8  C   UNL A   1      32.966  21.165  24.452  1.00  0.00     0.150 A 
ATOM      9  C   UNL A   1      31.245  23.311  24.230  1.00  0.00     0.148 A 
ATOM     10  C   UNL A   1      32.154  23.050  23.218  1.00  0.00     0.051 A 
ATOM     11  N   UNL A   1      31.254  22.551  25.338  1.00  0.00    -0.132 NA
ATOM     12  C   UNL A   1      33.054  21.989  23.346  1.00  0.00     0.040 A 
ATOM     13  N   UNL A   1      32.094  21.458  25.444  1.00  0.00    -0.143 NA
BRANCH   9  14
ATOM     14  N   UNL A   1      30.311  24.323  24.155  1.00  0.00    -0.363 N 
ATOM     15  H   UNL A   1      29.405  24.128  23.822  1.00  0.00     0.162 HD
BRANCH  14  16
ATOM     16  C   UNL A   1      30.658  25.687  24.569  1.00  0.00     0.108 C 
BRANCH  16  17
ATOM     17  C   UNL A   1      30.252  26.679  23.435  1.00  0.00     0.007 C 
ATOM     18  C   UNL A   1      30.306  28.137  23.903  1.00  0.00     0.009 C 
ATOM     19  C   UNL A   1      31.154  26.531  22.198  1.00  0.00     0.009 C 
ENDBRANCH  16  17
BRANCH  16  20
ATOM     20  C   UNL A   1      29.981  25.986  25.929  1.00  0.00     0.181 C 
BRANCH  20  21
ATOM     21  O   UNL A   1      29.252  24.876  26.452  1.00  0.00    -0.394 OA
ATOM     22  H   UNL A   1      29.676  24.050  26.173  1.00  0.00     0.210 HD
ENDBRANCH  20  21
ENDBRANCH  16  20
ENDBRANCH  14  16
ENDBRANCH   9  14
ENDBRANCH   5   8
ENDBRANCH   3   4
ENDBRANCH   2   3
ENDBRANCH   1   2
BRANCH   1  23
ATOM     23  C   UNL A   1      39.786  20.872  26.143  1.00  0.00     0.002 C 
BRANCH  23  24
ATOM     24  C   UNL A   1      40.403  21.768  27.222  1.00  0.00     0.021 C 
BRANCH  24  25
ATOM     25  C   UNL A   1      40.145  23.260  27.031  1.00  0.00     0.116 C 
BRANCH  25  26
ATOM     26  N   UNL A   1      41.098  23.856  26.110  1.00  0.00    -0.352 N 
ATOM     27  C   UNL A   1      41.585  25.137  26.065  1.00  0.00     0.251 C 
ATOM     28  H   UNL A   1      41.446  23.250  25.417  1.00  0.00     0.163 HD
ATOM     29  O   UNL A   1      42.193  25.519  25.069  1.00  0.00    -0.269 OA
BRANCH  27  30
ATOM     30  C   UNL A   1      41.377  26.057  27.205  1.00  0.00     0.039 A 
ATOM     31  C   UNL A   1      40.329  25.801  28.093  1.00  0.00     0.014 A 
ATOM     32  C   UNL A   1      42.175  27.193  27.373  1.00  0.00     0.014 A 
ATOM     33  C   UNL A   1      40.106  26.664  29.169  1.00  0.00     0.010 A 
ATOM     34  C   UNL A   1      41.994  28.014  28.484  1.00  0.00     0.010 A 
ATOM     35  C   UNL A   1      40.948  27.767  29.384  1.00  0.00    -0.014 A 
BRANCH  35  36
ATOM     36  C   UNL A   1      40.728  28.677  30.538  1.00  0.00     0.031 A 
ATOM     37  C   UNL A   1      41.580  28.557  31.773  1.00  0.00     0.074 A 
ATOM     38  C   UNL A   1      39.741  29.592  30.482  1.00  0.00     0.049 A 
ATOM     39  N   UNL A   1      41.538  29.259  32.877  1.00  0.00    -0.248 NA
ATOM     40  C   UNL A   1      42.597  27.493  31.779  1.00  0.00     0.031 C 
ATOM     41  C   UNL A   1      38.816  29.771  29.361  1.00  0.00     0.029 A 
ATOM     42  N   UNL A   1      39.353  30.546  31.388  1.00  0.00    -0.354 N 
ATOM     43  C   UNL A   1      42.514  28.721  33.707  1.00  0.00     0.074 A 
ATOM     44  C   UNL A   1      43.090  27.595  33.003  1.00  0.00     0.031 C 
ATOM     45  C   UNL A   1      37.992  30.795  29.631  1.00  0.00     0.029 A 
ATOM     46  C   UNL A   1      38.310  31.328  30.952  1.00  0.00     0.049 A 
ATOM     47  H   UNL A   1      39.782  30.660  32.267  1.00  0.00     0.167 HD
ATOM     48  C   UNL A   1      42.915  29.141  34.932  1.00  0.00     0.037 A 
ATOM     49  C   UNL A   1      37.688  32.363  31.547  1.00  0.00     0.037 A 
ATOM     50  C   UNL A   1      42.351  30.273  35.620  1.00  0.00     0.049 A 
ATOM     51  C   UNL A   1      38.158  32.823  32.899  1.00  0.00     0.074 A 
ATOM     52  C   UNL A   1      42.711  30.808  36.844  1.00  0.00     0.029 A 
ATOM     53  N   UNL A   1      41.305  31.050  35.139  1.00  0.00    -0.354 N 
ATOM     54  N   UNL A   1      39.119  32.334  33.648  1.00  0.00    -0.248 NA
ATOM     55  C   UNL A   1      37.470  33.982  33.481  1.00  0.00     0.031 C 
ATOM     56  C   UNL A   1      41.862  31.886  37.120  1.00  0.00     0.029 A 
ATOM     57  C   UNL A   1      41.000  32.051  36.048  1.00  0.00     0.049 A 
ATOM     58  H   UNL A   1      40.848  30.910  34.279  1.00  0.00     0.167 HD
ATOM     59  C   UNL A   1      39.167  33.143  34.779  1.00  0.00     0.074 A 
ATOM     60  C   UNL A   1      38.150  34.159  34.605  1.00  0.00     0.031 C 
ATOM     61  C   UNL A   1      39.980  33.053  35.861  1.00  0.00     0.037 A 
BRANCH  48  62
ATOM     62  C   UNL A   1      44.022  28.370  35.598  1.00  0.00     0.058 A 
ATOM     63  C   UNL A   1      43.752  27.308  36.479  1.00  0.00     0.135 A 
ATOM     64  C   UNL A   1      45.367  28.686  35.352  1.00  0.00     0.135 A 
ATOM     65  F   UNL A   1      42.484  26.972  36.763  1.00  0.00    -0.206 F 
ATOM     66  C   UNL A   1      44.773  26.617  37.122  1.00  0.00     0.059 A 
ATOM     67  C   UNL A   1      46.406  27.988  35.962  1.00  0.00     0.059 A 
ATOM     68  F   UNL A   1      45.684  29.690  34.519  1.00  0.00    -0.206 F 
ATOM     69  C   UNL A   1      46.098  26.968  36.861  1.00  0.00     0.060 A 
BRANCH  69  70
ATOM     70  S   UNL A   1      47.413  26.073  37.716  1.00  0.00     0.124 S 
ATOM     71  O   UNL A   1      47.355  26.673  39.046  1.00  0.00    -0.237 OA
ATOM     72  O   UNL A   1      46.960  24.689  37.626  1.00  0.00    -0.237 OA
ATOM     73  O   UNL A   1      48.603  26.393  36.935  1.00  0.00    -0.744 OA
ENDBRANCH  69  70
ENDBRANCH  48  62
BRANCH  49  74
ATOM     74  C   UNL A   1      36.584  33.068  30.843  1.00  0.00     0.058 A 
ATOM     75  C   UNL A   1      35.254  32.921  31.262  1.00  0.00     0.135 A 
ATOM     76  C   UNL A   1      36.838  33.914  29.752  1.00  0.00     0.135 A 
ATOM     77  F   UNL A   1      34.962  32.119  32.297  1.00  0.00    -0.206 F 
ATOM     78  C   UNL A   1      34.210  33.576  30.618  1.00  0.00     0.059 A 
ATOM     79  C   UNL A   1      35.813  34.599  29.106  1.00  0.00     0.059 A 
ATOM     80  F   UNL A   1      38.095  34.103  29.324  1.00  0.00    -0.206 F 
ATOM     81  C   UNL A   1      34.500  34.416  29.542  1.00  0.00     0.060 A 
BRANCH  81  82
ATOM     82  S   UNL A   1      33.145  35.307  28.747  1.00  0.00     0.124 S 
ATOM     83  O   UNL A   1      33.858  36.398  28.091  1.00  0.00    -0.237 OA
ATOM     84  O   UNL A   1      32.583  34.289  27.866  1.00  0.00    -0.237 OA
ATOM     85  O   UNL A   1      32.295  35.692  29.869  1.00  0.00    -0.744 OA
ENDBRANCH  81  82
ENDBRANCH  49  74
BRANCH  61  86
ATOM     86  C   UNL A   1      39.816  34.102  36.924  1.00  0.00     0.058 A 
ATOM     87  C   UNL A   1      40.432  35.360  36.823  1.00  0.00     0.135 A 
ATOM     88  C   UNL A   1      39.026  33.849  38.058  1.00  0.00     0.135 A 
ATOM     89  F   UNL A   1      41.201  35.651  35.760  1.00  0.00    -0.206 F 
ATOM     90  C   UNL A   1      40.308  36.314  37.827  1.00  0.00     0.059 A 
ATOM     91  C   UNL A   1      38.866  34.798  39.062  1.00  0.00     0.059 A 
ATOM     92  F   UNL A   1      38.404  32.668  38.199  1.00  0.00    -0.206 F 
ATOM     93  C   UNL A   1      39.527  36.020  38.947  1.00  0.00     0.060 A 
BRANCH  93  94
ATOM     94  S   UNL A   1      39.379  37.260  40.251  1.00  0.00     0.124 S 
ATOM     95  O   UNL A   1      38.680  36.510  41.290  1.00  0.00    -0.237 OA
ATOM     96  O   UNL A   1      40.773  37.588  40.535  1.00  0.00    -0.237 OA
ATOM     97  O   UNL A   1      38.608  38.326  39.617  1.00  0.00    -0.744 OA
ENDBRANCH  93  94
ENDBRANCH  61  86
ENDBRANCH  35  36
ENDBRANCH  27  30
ENDBRANCH  25  26
ENDBRANCH  24  25
ENDBRANCH  23  24
ENDBRANCH   1  23
TORSDOF 21
ENDMDL
