MODEL 1
REMARK VINA RESULT:     -12.4      0.000      0.000
REMARK SMILES COC(=O)c1c(NC(=O)[C@@H]2[C@H]3CC[C@H](CC3)[C@H]2C(=O)NCCCCCCNC(=O)c2ccc(-c3c4nc(c(-c5c(F)cc(S(=O)(=O)[O-])cc5F)c5ccc([nH]5)c(-c5c(F)cc(S(=O)(=O)[O-])cc5F)c5nc(c(-c6c(F)cc(S(=O)(=O)[O-])cc6F)c6ccc3[nH]6)C=C5)C=C4)cc2)sc(C)c1-c1ccc(C)cc1
REMARK SMILES IDX 23 1 22 2 21 3 20 4 18 5 19 6 17 8 10 9 11 10 16 11 12 12
REMARK SMILES IDX 14 13 15 14 13 15 8 16 7 17 9 19 6 20 5 21 99 22 96 23 97 24
REMARK SMILES IDX 98 25 3 26 4 27 2 28 1 29 100 30 101 31 106 32 102 33 105 34
REMARK SMILES IDX 103 35 104 36 24 37 25 38 26 39 27 40 28 41 29 43 30 44
REMARK SMILES IDX 31 45 95 46 32 47 94 48 33 49 34 50 35 51 88 52 36 53 93 54
REMARK SMILES IDX 87 55 89 56 37 57 92 58 86 59 85 60 38 62 72 63 51 64 71 65
REMARK SMILES IDX 52 66 55 67 70 68 90 69 53 70 54 71 69 73 91 74 56 75 39 76
REMARK SMILES IDX 40 77 49 78 41 79 42 80 48 81 50 82 43 83 44 84 45 85 46 86
REMARK SMILES IDX 47 87 73 88 74 89 83 90 75 91 76 92 82 93 84 94 77 95 78 96
REMARK SMILES IDX 79 97 80 98 81 99 57 100 58 101 67 102 59 103 60 104 66 105
REMARK SMILES IDX 68 106 61 107 62 108 63 109 64 110 65 111
REMARK H PARENT 20 7 7 18 27 42 89 61 55 72
REMARK Flexibility Score: inf
ROOT
ATOM      1  C   UNL A   1      37.166  22.811  25.617  1.00  0.00     0.002 C 
ENDROOT
BRANCH   1   2
ATOM      2  C   UNL A   1      36.548  22.823  24.216  1.00  0.00     0.021 C 
BRANCH   2   3
ATOM      3  C   UNL A   1      35.344  23.729  24.008  1.00  0.00     0.116 C 
BRANCH   3   4
ATOM      4  N   UNL A   1      35.198  24.766  24.988  1.00  0.00    -0.356 N 
ATOM      5  C   UNL A   1      34.181  25.637  25.183  1.00  0.00     0.224 C 
ATOM      6  O   UNL A   1      34.167  26.181  26.295  1.00  0.00    -0.275 OA
ATOM      7  H   UNL A   1      35.951  24.857  25.616  1.00  0.00     0.163 HD
BRANCH   5   8
ATOM      8  C   UNL A   1      33.099  25.989  24.145  1.00  0.00     0.094 C 
ATOM      9  C   UNL A   1      31.751  26.476  24.680  1.00  0.00     0.094 C 
ATOM     10  C   UNL A   1      31.251  27.625  23.736  1.00  0.00     0.002 C 
ATOM     11  C   UNL A   1      32.305  28.757  23.641  1.00  0.00     0.005 C 
ATOM     12  C   UNL A   1      31.070  27.084  22.307  1.00  0.00     0.005 C 
ATOM     13  C   UNL A   1      33.522  26.721  22.850  1.00  0.00     0.002 C 
ATOM     14  C   UNL A   1      33.608  28.232  23.029  1.00  0.00     0.005 C 
ATOM     15  C   UNL A   1      32.392  26.478  21.806  1.00  0.00     0.005 C 
BRANCH   9  16
ATOM     16  C   UNL A   1      30.562  25.500  24.980  1.00  0.00     0.229 C 
ATOM     17  N   UNL A   1      30.354  24.221  24.549  1.00  0.00    -0.317 N 
ATOM     18  H   UNL A   1      29.399  23.987  24.489  1.00  0.00     0.170 HD
ATOM     19  O   UNL A   1      29.564  26.018  25.522  1.00  0.00    -0.274 OA
BRANCH  17  20
ATOM     20  C   UNL A   1      31.183  23.187  24.180  1.00  0.00     0.111 A 
ATOM     21  C   UNL A   1      31.953  22.296  24.931  1.00  0.00     0.102 A 
ATOM     22  C   UNL A   1      32.391  21.203  24.064  1.00  0.00     0.012 A 
ATOM     23  S   UNL A   1      31.950  23.204  22.650  1.00  0.00    -0.122 S 
ATOM     24  C   UNL A   1      32.039  21.490  22.749  1.00  0.00     0.012 A 
ATOM     25  C   UNL A   1      31.869  20.650  21.532  1.00  0.00     0.057 C 
BRANCH  21  26
ATOM     26  C   UNL A   1      32.235  22.496  26.346  1.00  0.00     0.341 C 
ATOM     27  O   UNL A   1      31.368  22.678  27.187  1.00  0.00    -0.246 OA
BRANCH  26  28
ATOM     28  O   UNL A   1      33.574  22.614  26.580  1.00  0.00    -0.465 OA
ATOM     29  C   UNL A   1      34.094  21.774  27.608  1.00  0.00     0.282 C 
ENDBRANCH  26  28
ENDBRANCH  21  26
BRANCH  22  30
ATOM     30  C   UNL A   1      33.112  19.974  24.387  1.00  0.00    -0.016 A 
ATOM     31  C   UNL A   1      34.502  19.934  24.531  1.00  0.00     0.009 A 
ATOM     32  C   UNL A   1      32.382  18.784  24.530  1.00  0.00     0.009 A 
ATOM     33  C   UNL A   1      35.143  18.717  24.803  1.00  0.00     0.004 A 
ATOM     34  C   UNL A   1      33.017  17.579  24.820  1.00  0.00     0.004 A 
ATOM     35  C   UNL A   1      34.406  17.534  24.954  1.00  0.00    -0.051 A 
ATOM     36  C   UNL A   1      35.093  16.225  25.202  1.00  0.00     0.044 C 
ENDBRANCH  22  30
ENDBRANCH  17  20
ENDBRANCH   9  16
ENDBRANCH   5   8
ENDBRANCH   3   4
ENDBRANCH   2   3
ENDBRANCH   1   2
BRANCH   1  37
ATOM     37  C   UNL A   1      38.693  22.825  25.736  1.00  0.00     0.002 C 
BRANCH  37  38
ATOM     38  C   UNL A   1      39.309  22.987  27.127  1.00  0.00     0.021 C 
BRANCH  38  39
ATOM     39  C   UNL A   1      40.824  23.102  27.201  1.00  0.00     0.116 C 
BRANCH  39  40
ATOM     40  N   UNL A   1      41.396  23.840  26.093  1.00  0.00    -0.352 N 
ATOM     41  C   UNL A   1      41.696  25.177  26.012  1.00  0.00     0.251 C 
ATOM     42  H   UNL A   1      41.597  23.310  25.288  1.00  0.00     0.163 HD
ATOM     43  O   UNL A   1      42.085  25.652  24.948  1.00  0.00    -0.269 OA
BRANCH  41  44
ATOM     44  C   UNL A   1      41.516  26.052  27.192  1.00  0.00     0.039 A 
ATOM     45  C   UNL A   1      42.468  27.045  27.436  1.00  0.00     0.014 A 
ATOM     46  C   UNL A   1      40.428  25.896  28.057  1.00  0.00     0.014 A 
ATOM     47  C   UNL A   1      42.305  27.913  28.518  1.00  0.00     0.010 A 
ATOM     48  C   UNL A   1      40.235  26.800  29.101  1.00  0.00     0.010 A 
ATOM     49  C   UNL A   1      41.175  27.812  29.346  1.00  0.00    -0.014 A 
BRANCH  49  50
ATOM     50  C   UNL A   1      40.979  28.743  30.485  1.00  0.00     0.031 A 
ATOM     51  C   UNL A   1      41.840  28.622  31.712  1.00  0.00     0.074 A 
ATOM     52  C   UNL A   1      39.999  29.666  30.432  1.00  0.00     0.049 A 
ATOM     53  N   UNL A   1      41.792  29.307  32.825  1.00  0.00    -0.248 NA
ATOM     54  C   UNL A   1      42.875  27.576  31.695  1.00  0.00     0.031 C 
ATOM     55  C   UNL A   1      39.069  29.850  29.316  1.00  0.00     0.029 A 
ATOM     56  N   UNL A   1      39.615  30.617  31.343  1.00  0.00    -0.354 N 
ATOM     57  C   UNL A   1      42.775  28.766  33.646  1.00  0.00     0.074 A 
ATOM     58  C   UNL A   1      43.375  27.668  32.919  1.00  0.00     0.031 C 
ATOM     59  C   UNL A   1      38.235  30.862  29.600  1.00  0.00     0.029 A 
ATOM     60  C   UNL A   1      38.552  31.383  30.926  1.00  0.00     0.049 A 
ATOM     61  H   UNL A   1      40.059  30.740  32.213  1.00  0.00     0.167 HD
ATOM     62  C   UNL A   1      43.158  29.162  34.884  1.00  0.00     0.037 A 
ATOM     63  C   UNL A   1      37.906  32.391  31.545  1.00  0.00     0.037 A 
ATOM     64  C   UNL A   1      42.582  30.277  35.587  1.00  0.00     0.049 A 
ATOM     65  C   UNL A   1      38.368  32.832  32.906  1.00  0.00     0.074 A 
ATOM     66  C   UNL A   1      42.938  30.795  36.821  1.00  0.00     0.029 A 
ATOM     67  N   UNL A   1      41.530  31.050  35.118  1.00  0.00    -0.354 N 
ATOM     68  N   UNL A   1      39.336  32.344  33.645  1.00  0.00    -0.248 NA
ATOM     69  C   UNL A   1      37.658  33.965  33.516  1.00  0.00     0.031 C 
ATOM     70  C   UNL A   1      42.083  31.865  37.109  1.00  0.00     0.029 A 
ATOM     71  C   UNL A   1      41.217  32.034  36.041  1.00  0.00     0.049 A 
ATOM     72  H   UNL A   1      41.074  30.918  34.256  1.00  0.00     0.167 HD
ATOM     73  C   UNL A   1      39.366  33.124  34.796  1.00  0.00     0.074 A 
ATOM     74  C   UNL A   1      38.325  34.121  34.651  1.00  0.00     0.031 C 
ATOM     75  C   UNL A   1      40.181  33.022  35.875  1.00  0.00     0.037 A 
BRANCH  62  76
ATOM     76  C   UNL A   1      44.260  28.386  35.548  1.00  0.00     0.058 A 
ATOM     77  C   UNL A   1      45.611  28.721  35.361  1.00  0.00     0.135 A 
ATOM     78  C   UNL A   1      43.964  27.307  36.395  1.00  0.00     0.135 A 
ATOM     79  F   UNL A   1      45.950  29.734  34.548  1.00  0.00    -0.206 F 
ATOM     80  C   UNL A   1      46.631  27.994  35.966  1.00  0.00     0.059 A 
ATOM     81  C   UNL A   1      44.968  26.580  37.030  1.00  0.00     0.059 A 
ATOM     82  F   UNL A   1      42.689  26.943  36.608  1.00  0.00    -0.206 F 
ATOM     83  C   UNL A   1      46.299  26.922  36.795  1.00  0.00     0.060 A 
BRANCH  83  84
ATOM     84  S   UNL A   1      47.633  25.983  37.570  1.00  0.00     0.124 S 
ATOM     85  O   UNL A   1      48.810  26.598  36.962  1.00  0.00    -0.237 OA
ATOM     86  O   UNL A   1      47.434  26.263  38.988  1.00  0.00    -0.237 OA
ATOM     87  O   UNL A   1      47.362  24.608  37.160  1.00  0.00    -0.744 OA
ENDBRANCH  83  84
ENDBRANCH  62  76
BRANCH  63  88
ATOM     88  C   UNL A   1      36.774  33.071  30.866  1.00  0.00     0.058 A 
ATOM     89  C   UNL A   1      35.451  32.848  31.273  1.00  0.00     0.135 A 
ATOM     90  C   UNL A   1      36.993  33.975  29.815  1.00  0.00     0.135 A 
ATOM     91  F   UNL A   1      35.193  31.988  32.271  1.00  0.00    -0.206 F 
ATOM     92  C   UNL A   1      34.380  33.486  30.656  1.00  0.00     0.059 A 
ATOM     93  C   UNL A   1      35.940  34.641  29.195  1.00  0.00     0.059 A 
ATOM     94  F   UNL A   1      38.242  34.236  29.400  1.00  0.00    -0.206 F 
ATOM     95  C   UNL A   1      34.635  34.383  29.617  1.00  0.00     0.060 A 
BRANCH  95  96
ATOM     96  S   UNL A   1      33.246  35.253  28.859  1.00  0.00     0.124 S 
ATOM     97  O   UNL A   1      33.930  36.303  28.113  1.00  0.00    -0.237 OA
ATOM     98  O   UNL A   1      32.622  34.203  28.059  1.00  0.00    -0.237 OA
ATOM     99  O   UNL A   1      32.465  35.699  30.009  1.00  0.00    -0.744 OA
ENDBRANCH  95  96
ENDBRANCH  63  88
BRANCH  75 100
ATOM    100  C   UNL A   1      39.997  34.031  36.972  1.00  0.00     0.058 A 
ATOM    101  C   UNL A   1      40.690  35.250  36.972  1.00  0.00     0.135 A 
ATOM    102  C   UNL A   1      39.078  33.794  38.006  1.00  0.00     0.135 A 
ATOM    103  F   UNL A   1      41.585  35.519  36.007  1.00  0.00    -0.206 F 
ATOM    104  C   UNL A   1      40.496  36.194  37.974  1.00  0.00     0.059 A 
ATOM    105  C   UNL A   1      38.852  34.734  39.008  1.00  0.00     0.059 A 
ATOM    106  F   UNL A   1      38.382  32.647  38.044  1.00  0.00    -0.206 F 
ATOM    107  C   UNL A   1      39.574  35.926  38.989  1.00  0.00     0.060 A 
BRANCH 107 108
ATOM    108  S   UNL A   1      39.303  37.171  40.268  1.00  0.00     0.124 S 
ATOM    109  O   UNL A   1      38.544  38.181  39.537  1.00  0.00    -0.237 OA
ATOM    110  O   UNL A   1      38.557  36.428  41.279  1.00  0.00    -0.237 OA
ATOM    111  O   UNL A   1      40.655  37.559  40.655  1.00  0.00    -0.744 OA
ENDBRANCH 107 108
ENDBRANCH  75 100
ENDBRANCH  49  50
ENDBRANCH  41  44
ENDBRANCH  39  40
ENDBRANCH  38  39
ENDBRANCH  37  38
ENDBRANCH   1  37
TORSDOF 21
ENDMDL
MODEL 2
REMARK VINA RESULT:     -12.4      5.726     10.073
REMARK SMILES COC(=O)c1c(NC(=O)[C@@H]2[C@H]3CC[C@H](CC3)[C@H]2C(=O)NCCCCCCNC(=O)c2ccc(-c3c4nc(c(-c5c(F)cc(S(=O)(=O)[O-])cc5F)c5ccc([nH]5)c(-c5c(F)cc(S(=O)(=O)[O-])cc5F)c5nc(c(-c6c(F)cc(S(=O)(=O)[O-])cc6F)c6ccc3[nH]6)C=C5)C=C4)cc2)sc(C)c1-c1ccc(C)cc1
REMARK SMILES IDX 23 1 22 2 21 3 20 4 18 5 19 6 17 8 10 9 11 10 16 11 12 12
REMARK SMILES IDX 14 13 15 14 13 15 8 16 7 17 9 19 6 20 5 21 99 22 96 23 97 24
REMARK SMILES IDX 98 25 3 26 4 27 2 28 1 29 100 30 101 31 106 32 102 33 105 34
REMARK SMILES IDX 103 35 104 36 24 37 25 38 26 39 27 40 28 41 29 43 30 44
REMARK SMILES IDX 31 45 95 46 32 47 94 48 33 49 34 50 35 51 88 52 36 53 93 54
REMARK SMILES IDX 87 55 89 56 37 57 92 58 86 59 85 60 38 62 72 63 51 64 71 65
REMARK SMILES IDX 52 66 55 67 70 68 90 69 53 70 54 71 69 73 91 74 56 75 39 76
REMARK SMILES IDX 40 77 49 78 41 79 42 80 48 81 50 82 43 83 44 84 45 85 46 86
REMARK SMILES IDX 47 87 73 88 74 89 83 90 75 91 76 92 82 93 84 94 77 95 78 96
REMARK SMILES IDX 79 97 80 98 81 99 57 100 58 101 67 102 59 103 60 104 66 105
REMARK SMILES IDX 68 106 61 107 62 108 63 109 64 110 65 111
REMARK H PARENT 20 7 7 18 27 42 89 61 55 72
REMARK Flexibility Score: inf
ROOT
ATOM      1  C   UNL A   1      37.322  22.293  24.601  1.00  0.00     0.002 C 
ENDROOT
BRANCH   1   2
ATOM      2  C   UNL A   1      36.552  22.629  23.321  1.00  0.00     0.021 C 
BRANCH   2   3
ATOM      3  C   UNL A   1      35.271  23.433  23.484  1.00  0.00     0.116 C 
BRANCH   3   4
ATOM      4  N   UNL A   1      35.280  24.358  24.581  1.00  0.00    -0.356 N 
ATOM      5  C   UNL A   1      34.338  25.248  24.971  1.00  0.00     0.224 C 
ATOM      6  O   UNL A   1      34.463  25.663  26.131  1.00  0.00    -0.275 OA
ATOM      7  H   UNL A   1      36.094  24.343  25.135  1.00  0.00     0.163 HD
BRANCH   5   8
ATOM      8  C   UNL A   1      33.183  25.765  24.093  1.00  0.00     0.094 C 
ATOM      9  C   UNL A   1      31.936  26.282  24.813  1.00  0.00     0.094 C 
ATOM     10  C   UNL A   1      31.426  27.545  24.036  1.00  0.00     0.002 C 
ATOM     11  C   UNL A   1      32.545  28.613  23.928  1.00  0.00     0.005 C 
ATOM     12  C   UNL A   1      31.062  27.158  22.592  1.00  0.00     0.005 C 
ATOM     13  C   UNL A   1      33.524  26.591  22.830  1.00  0.00     0.002 C 
ATOM     14  C   UNL A   1      33.737  28.070  23.134  1.00  0.00     0.005 C 
ATOM     15  C   UNL A   1      32.278  26.522  21.898  1.00  0.00     0.005 C 
BRANCH   9  16
ATOM     16  C   UNL A   1      30.717  25.357  25.153  1.00  0.00     0.229 C 
ATOM     17  N   UNL A   1      30.441  24.088  24.729  1.00  0.00    -0.317 N 
ATOM     18  H   UNL A   1      29.476  23.896  24.701  1.00  0.00     0.170 HD
ATOM     19  O   UNL A   1      29.761  25.917  25.725  1.00  0.00    -0.274 OA
BRANCH  17  20
ATOM     20  C   UNL A   1      31.213  23.020  24.335  1.00  0.00     0.111 A 
ATOM     21  C   UNL A   1      31.950  22.082  25.063  1.00  0.00     0.102 A 
ATOM     22  C   UNL A   1      32.320  20.981  24.176  1.00  0.00     0.012 A 
ATOM     23  S   UNL A   1      31.957  23.020  22.794  1.00  0.00    -0.122 S 
ATOM     24  C   UNL A   1      31.964  21.303  22.871  1.00  0.00     0.012 A 
ATOM     25  C   UNL A   1      31.735  20.487  21.646  1.00  0.00     0.057 C 
BRANCH  21  26
ATOM     26  C   UNL A   1      32.261  22.250  26.477  1.00  0.00     0.341 C 
ATOM     27  O   UNL A   1      31.524  22.819  27.266  1.00  0.00    -0.246 OA
BRANCH  26  28
ATOM     28  O   UNL A   1      33.530  21.840  26.763  1.00  0.00    -0.465 OA
ATOM     29  C   UNL A   1      34.211  22.600  27.759  1.00  0.00     0.282 C 
ENDBRANCH  26  28
ENDBRANCH  21  26
BRANCH  22  30
ATOM     30  C   UNL A   1      32.985  19.714  24.473  1.00  0.00    -0.016 A 
ATOM     31  C   UNL A   1      34.353  19.518  24.269  1.00  0.00     0.009 A 
ATOM     32  C   UNL A   1      32.212  18.647  24.955  1.00  0.00     0.009 A 
ATOM     33  C   UNL A   1      34.929  18.267  24.535  1.00  0.00     0.004 A 
ATOM     34  C   UNL A   1      32.788  17.410  25.239  1.00  0.00     0.004 A 
ATOM     35  C   UNL A   1      34.152  17.208  25.026  1.00  0.00    -0.051 A 
ATOM     36  C   UNL A   1      34.757  15.858  25.270  1.00  0.00     0.044 C 
ENDBRANCH  22  30
ENDBRANCH  17  20
ENDBRANCH   9  16
ENDBRANCH   5   8
ENDBRANCH   3   4
ENDBRANCH   2   3
ENDBRANCH   1   2
BRANCH   1  37
ATOM     37  C   UNL A   1      37.220  20.870  25.157  1.00  0.00     0.002 C 
BRANCH  37  38
ATOM     38  C   UNL A   1      38.453  19.968  25.069  1.00  0.00     0.021 C 
BRANCH  38  39
ATOM     39  C   UNL A   1      39.566  20.222  26.074  1.00  0.00     0.116 C 
BRANCH  39  40
ATOM     40  N   UNL A   1      40.596  19.202  26.056  1.00  0.00    -0.352 N 
ATOM     41  C   UNL A   1      41.956  19.348  26.176  1.00  0.00     0.251 C 
ATOM     42  H   UNL A   1      40.276  18.278  25.944  1.00  0.00     0.163 HD
ATOM     43  O   UNL A   1      42.688  18.374  26.036  1.00  0.00    -0.269 OA
BRANCH  41  44
ATOM     44  C   UNL A   1      42.538  20.684  26.437  1.00  0.00     0.039 A 
ATOM     45  C   UNL A   1      42.953  21.453  25.346  1.00  0.00     0.014 A 
ATOM     46  C   UNL A   1      42.684  21.176  27.737  1.00  0.00     0.014 A 
ATOM     47  C   UNL A   1      43.470  22.733  25.555  1.00  0.00     0.010 A 
ATOM     48  C   UNL A   1      43.143  22.477  27.941  1.00  0.00     0.010 A 
ATOM     49  C   UNL A   1      43.547  23.264  26.853  1.00  0.00    -0.014 A 
BRANCH  49  50
ATOM     50  C   UNL A   1      44.073  24.633  27.086  1.00  0.00     0.031 A 
ATOM     51  C   UNL A   1      43.145  25.729  27.531  1.00  0.00     0.074 A 
ATOM     52  C   UNL A   1      45.373  24.897  26.853  1.00  0.00     0.049 A 
ATOM     53  N   UNL A   1      43.401  26.994  27.740  1.00  0.00    -0.248 NA
ATOM     54  C   UNL A   1      41.736  25.359  27.745  1.00  0.00     0.031 C 
ATOM     55  C   UNL A   1      46.362  23.929  26.374  1.00  0.00     0.029 A 
ATOM     56  N   UNL A   1      46.086  26.063  26.980  1.00  0.00    -0.354 N 
ATOM     57  C   UNL A   1      42.188  27.574  28.093  1.00  0.00     0.074 A 
ATOM     58  C   UNL A   1      41.187  26.531  28.028  1.00  0.00     0.031 C 
ATOM     59  C   UNL A   1      47.554  24.535  26.264  1.00  0.00     0.029 A 
ATOM     60  C   UNL A   1      47.413  25.939  26.639  1.00  0.00     0.049 A 
ATOM     61  H   UNL A   1      45.686  26.909  27.285  1.00  0.00     0.167 HD
ATOM     62  C   UNL A   1      41.935  28.854  28.460  1.00  0.00     0.037 A 
ATOM     63  C   UNL A   1      48.401  26.854  26.631  1.00  0.00     0.037 A 
ATOM     64  C   UNL A   1      42.941  29.878  28.557  1.00  0.00     0.049 A 
ATOM     65  C   UNL A   1      48.102  28.260  27.070  1.00  0.00     0.074 A 
ATOM     66  C   UNL A   1      42.797  31.190  28.975  1.00  0.00     0.029 A 
ATOM     67  N   UNL A   1      44.280  29.705  28.238  1.00  0.00    -0.354 N 
ATOM     68  N   UNL A   1      46.960  28.778  27.453  1.00  0.00    -0.248 NA
ATOM     69  C   UNL A   1      49.227  29.206  27.084  1.00  0.00     0.031 C 
ATOM     70  C   UNL A   1      44.045  31.818  28.881  1.00  0.00     0.029 A 
ATOM     71  C   UNL A   1      44.971  30.887  28.438  1.00  0.00     0.049 A 
ATOM     72  H   UNL A   1      44.679  28.864  27.916  1.00  0.00     0.167 HD
ATOM     73  C   UNL A   1      47.232  30.103  27.774  1.00  0.00     0.074 A 
ATOM     74  C   UNL A   1      48.649  30.305  27.550  1.00  0.00     0.031 C 
ATOM     75  C   UNL A   1      46.384  31.066  28.216  1.00  0.00     0.037 A 
BRANCH  62  76
ATOM     76  C   UNL A   1      40.513  29.209  28.791  1.00  0.00     0.058 A 
ATOM     77  C   UNL A   1      40.080  29.348  30.119  1.00  0.00     0.135 A 
ATOM     78  C   UNL A   1      39.577  29.435  27.770  1.00  0.00     0.135 A 
ATOM     79  F   UNL A   1      40.932  29.127  31.134  1.00  0.00    -0.206 F 
ATOM     80  C   UNL A   1      38.761  29.665  30.426  1.00  0.00     0.059 A 
ATOM     81  C   UNL A   1      38.257  29.777  28.052  1.00  0.00     0.059 A 
ATOM     82  F   UNL A   1      39.937  29.316  26.482  1.00  0.00    -0.206 F 
ATOM     83  C   UNL A   1      37.855  29.872  29.384  1.00  0.00     0.060 A 
BRANCH  83  84
ATOM     84  S   UNL A   1      36.145  30.278  29.795  1.00  0.00     0.124 S 
ATOM     85  O   UNL A   1      35.939  29.478  30.999  1.00  0.00    -0.237 OA
ATOM     86  O   UNL A   1      36.202  31.722  29.996  1.00  0.00    -0.237 OA
ATOM     87  O   UNL A   1      35.400  29.841  28.617  1.00  0.00    -0.744 OA
ENDBRANCH  83  84
ENDBRANCH  62  76
BRANCH  63  88
ATOM     88  C   UNL A   1      49.772  26.457  26.221  1.00  0.00     0.058 A 
ATOM     89  C   UNL A   1      50.237  26.707  24.922  1.00  0.00     0.135 A 
ATOM     90  C   UNL A   1      50.653  25.844  27.126  1.00  0.00     0.135 A 
ATOM     91  F   UNL A   1      49.428  27.287  24.022  1.00  0.00    -0.206 F 
ATOM     92  C   UNL A   1      51.522  26.353  24.526  1.00  0.00     0.059 A 
ATOM     93  C   UNL A   1      51.951  25.498  26.759  1.00  0.00     0.059 A 
ATOM     94  F   UNL A   1      50.262  25.599  28.386  1.00  0.00    -0.206 F 
ATOM     95  C   UNL A   1      52.373  25.749  25.454  1.00  0.00     0.060 A 
BRANCH  95  96
ATOM     96  S   UNL A   1      54.060  25.345  24.952  1.00  0.00     0.124 S 
ATOM     97  O   UNL A   1      54.841  25.981  26.006  1.00  0.00    -0.237 OA
ATOM     98  O   UNL A   1      54.045  23.885  24.960  1.00  0.00    -0.237 OA
ATOM     99  O   UNL A   1      54.169  25.954  23.629  1.00  0.00    -0.744 OA
ENDBRANCH  95  96
ENDBRANCH  63  88
BRANCH  75 100
ATOM    100  C   UNL A   1      46.972  32.416  28.509  1.00  0.00     0.058 A 
ATOM    101  C   UNL A   1      47.026  33.420  27.532  1.00  0.00     0.135 A 
ATOM    102  C   UNL A   1      47.441  32.722  29.796  1.00  0.00     0.135 A 
ATOM    103  F   UNL A   1      46.596  33.174  26.284  1.00  0.00    -0.206 F 
ATOM    104  C   UNL A   1      47.546  34.679  27.815  1.00  0.00     0.059 A 
ATOM    105  C   UNL A   1      47.945  33.981  30.107  1.00  0.00     0.059 A 
ATOM    106  F   UNL A   1      47.400  31.796  30.768  1.00  0.00    -0.206 F 
ATOM    107  C   UNL A   1      48.004  34.950  29.106  1.00  0.00     0.060 A 
BRANCH 107 108
ATOM    108  S   UNL A   1      48.645  36.597  29.474  1.00  0.00     0.124 S 
ATOM    109  O   UNL A   1      49.421  36.345  30.683  1.00  0.00    -0.237 OA
ATOM    110  O   UNL A   1      49.421  36.907  28.277  1.00  0.00    -0.237 OA
ATOM    111  O   UNL A   1      47.439  37.397  29.655  1.00  0.00    -0.744 OA
ENDBRANCH 107 108
ENDBRANCH  75 100
ENDBRANCH  49  50
ENDBRANCH  41  44
ENDBRANCH  39  40
ENDBRANCH  38  39
ENDBRANCH  37  38
ENDBRANCH   1  37
TORSDOF 21
ENDMDL
MODEL 3
REMARK VINA RESULT:     -12.3      6.122     11.407
REMARK SMILES COC(=O)c1c(NC(=O)[C@@H]2[C@H]3CC[C@H](CC3)[C@H]2C(=O)NCCCCCCNC(=O)c2ccc(-c3c4nc(c(-c5c(F)cc(S(=O)(=O)[O-])cc5F)c5ccc([nH]5)c(-c5c(F)cc(S(=O)(=O)[O-])cc5F)c5nc(c(-c6c(F)cc(S(=O)(=O)[O-])cc6F)c6ccc3[nH]6)C=C5)C=C4)cc2)sc(C)c1-c1ccc(C)cc1
REMARK SMILES IDX 23 1 22 2 21 3 20 4 18 5 19 6 17 8 10 9 11 10 16 11 12 12
REMARK SMILES IDX 14 13 15 14 13 15 8 16 7 17 9 19 6 20 5 21 99 22 96 23 97 24
REMARK SMILES IDX 98 25 3 26 4 27 2 28 1 29 100 30 101 31 106 32 102 33 105 34
REMARK SMILES IDX 103 35 104 36 24 37 25 38 26 39 27 40 28 41 29 43 30 44
REMARK SMILES IDX 31 45 95 46 32 47 94 48 33 49 34 50 35 51 88 52 36 53 93 54
REMARK SMILES IDX 87 55 89 56 37 57 92 58 86 59 85 60 38 62 72 63 51 64 71 65
REMARK SMILES IDX 52 66 55 67 70 68 90 69 53 70 54 71 69 73 91 74 56 75 39 76
REMARK SMILES IDX 40 77 49 78 41 79 42 80 48 81 50 82 43 83 44 84 45 85 46 86
REMARK SMILES IDX 47 87 73 88 74 89 83 90 75 91 76 92 82 93 84 94 77 95 78 96
REMARK SMILES IDX 79 97 80 98 81 99 57 100 58 101 67 102 59 103 60 104 66 105
REMARK SMILES IDX 68 106 61 107 62 108 63 109 64 110 65 111
REMARK H PARENT 20 7 7 18 27 42 89 61 55 72
REMARK Flexibility Score: inf
ROOT
ATOM      1  C   UNL A   1      32.178  29.693  27.257  1.00  0.00     0.002 C 
ENDROOT
BRANCH   1   2
ATOM      2  C   UNL A   1      31.864  28.231  27.585  1.00  0.00     0.021 C 
BRANCH   2   3
ATOM      3  C   UNL A   1      32.030  27.226  26.455  1.00  0.00     0.116 C 
BRANCH   3   4
ATOM      4  N   UNL A   1      33.372  26.753  26.265  1.00  0.00    -0.356 N 
ATOM      5  C   UNL A   1      33.813  25.588  25.737  1.00  0.00     0.224 C 
ATOM      6  O   UNL A   1      35.001  25.593  25.386  1.00  0.00    -0.275 OA
ATOM      7  H   UNL A   1      34.079  27.370  26.564  1.00  0.00     0.163 HD
BRANCH   5   8
ATOM      8  C   UNL A   1      32.971  24.310  25.571  1.00  0.00     0.094 C 
ATOM      9  C   UNL A   1      33.356  23.364  24.431  1.00  0.00     0.094 C 
ATOM     10  C   UNL A   1      33.197  21.895  24.957  1.00  0.00     0.002 C 
ATOM     11  C   UNL A   1      34.045  21.674  26.235  1.00  0.00     0.005 C 
ATOM     12  C   UNL A   1      31.734  21.642  25.362  1.00  0.00     0.005 C 
ATOM     13  C   UNL A   1      32.510  23.554  26.839  1.00  0.00     0.002 C 
ATOM     14  C   UNL A   1      33.568  22.591  27.366  1.00  0.00     0.005 C 
ATOM     15  C   UNL A   1      31.299  22.670  26.420  1.00  0.00     0.005 C 
BRANCH   9  16
ATOM     16  C   UNL A   1      32.727  23.472  23.000  1.00  0.00     0.229 C 
ATOM     17  N   UNL A   1      31.612  24.143  22.586  1.00  0.00    -0.317 N 
ATOM     18  H   UNL A   1      31.183  23.726  21.803  1.00  0.00     0.170 HD
ATOM     19  O   UNL A   1      33.182  22.678  22.152  1.00  0.00    -0.274 OA
BRANCH  17  20
ATOM     20  C   UNL A   1      30.956  25.271  23.020  1.00  0.00     0.111 A 
ATOM     21  C   UNL A   1      31.251  26.631  22.886  1.00  0.00     0.102 A 
ATOM     22  C   UNL A   1      30.068  27.408  23.252  1.00  0.00     0.012 A 
ATOM     23  S   UNL A   1      29.950  25.203  24.402  1.00  0.00    -0.122 S 
ATOM     24  C   UNL A   1      29.098  26.555  23.768  1.00  0.00     0.012 A 
ATOM     25  C   UNL A   1      27.624  26.674  23.944  1.00  0.00     0.057 C 
BRANCH  21  26
ATOM     26  C   UNL A   1      32.553  27.115  22.450  1.00  0.00     0.341 C 
ATOM     27  O   UNL A   1      33.140  26.684  21.470  1.00  0.00    -0.246 OA
BRANCH  26  28
ATOM     28  O   UNL A   1      33.094  27.983  23.354  1.00  0.00    -0.465 OA
ATOM     29  C   UNL A   1      34.028  28.920  22.823  1.00  0.00     0.282 C 
ENDBRANCH  26  28
ENDBRANCH  21  26
BRANCH  22  30
ATOM     30  C   UNL A   1      29.824  28.847  23.173  1.00  0.00    -0.016 A 
ATOM     31  C   UNL A   1      30.140  29.721  24.217  1.00  0.00     0.009 A 
ATOM     32  C   UNL A   1      29.223  29.363  22.015  1.00  0.00     0.009 A 
ATOM     33  C   UNL A   1      29.846  31.088  24.099  1.00  0.00     0.004 A 
ATOM     34  C   UNL A   1      28.950  30.723  21.890  1.00  0.00     0.004 A 
ATOM     35  C   UNL A   1      29.255  31.597  22.934  1.00  0.00    -0.051 A 
ATOM     36  C   UNL A   1      28.900  33.050  22.824  1.00  0.00     0.044 C 
ENDBRANCH  22  30
ENDBRANCH  17  20
ENDBRANCH   9  16
ENDBRANCH   5   8
ENDBRANCH   3   4
ENDBRANCH   2   3
ENDBRANCH   1   2
BRANCH   1  37
ATOM     37  C   UNL A   1      33.604  30.051  26.828  1.00  0.00     0.002 C 
BRANCH  37  38
ATOM     38  C   UNL A   1      34.309  31.203  27.546  1.00  0.00     0.021 C 
BRANCH  38  39
ATOM     39  C   UNL A   1      35.649  30.892  28.196  1.00  0.00     0.116 C 
BRANCH  39  40
ATOM     40  N   UNL A   1      35.539  30.572  29.606  1.00  0.00    -0.352 N 
ATOM     41  C   UNL A   1      36.491  30.052  30.448  1.00  0.00     0.251 C 
ATOM     42  H   UNL A   1      34.663  30.754  30.016  1.00  0.00     0.163 HD
ATOM     43  O   UNL A   1      36.187  29.749  31.598  1.00  0.00    -0.269 OA
BRANCH  41  44
ATOM     44  C   UNL A   1      37.869  29.823  29.959  1.00  0.00     0.039 A 
ATOM     45  C   UNL A   1      38.875  29.577  30.897  1.00  0.00     0.014 A 
ATOM     46  C   UNL A   1      38.175  29.855  28.595  1.00  0.00     0.014 A 
ATOM     47  C   UNL A   1      40.178  29.316  30.467  1.00  0.00     0.010 A 
ATOM     48  C   UNL A   1      39.462  29.535  28.163  1.00  0.00     0.010 A 
ATOM     49  C   UNL A   1      40.477  29.271  29.095  1.00  0.00    -0.014 A 
BRANCH  49  50
ATOM     50  C   UNL A   1      41.853  28.972  28.625  1.00  0.00     0.031 A 
ATOM     51  C   UNL A   1      42.206  27.584  28.166  1.00  0.00     0.074 A 
ATOM     52  C   UNL A   1      42.792  29.937  28.653  1.00  0.00     0.049 A 
ATOM     53  N   UNL A   1      43.359  27.115  27.767  1.00  0.00    -0.248 NA
ATOM     54  C   UNL A   1      41.125  26.585  28.184  1.00  0.00     0.031 C 
ATOM     55  C   UNL A   1      42.583  31.309  29.121  1.00  0.00     0.029 A 
ATOM     56  N   UNL A   1      44.115  29.910  28.289  1.00  0.00    -0.354 N 
ATOM     57  C   UNL A   1      43.149  25.766  27.502  1.00  0.00     0.074 A 
ATOM     58  C   UNL A   1      41.768  25.483  27.827  1.00  0.00     0.031 C 
ATOM     59  C   UNL A   1      43.730  31.995  28.999  1.00  0.00     0.029 A 
ATOM     60  C   UNL A   1      44.762  31.109  28.469  1.00  0.00     0.049 A 
ATOM     61  H   UNL A   1      44.559  29.106  27.932  1.00  0.00     0.167 HD
ATOM     62  C   UNL A   1      44.021  24.853  27.011  1.00  0.00     0.037 A 
ATOM     63  C   UNL A   1      46.043  31.454  28.235  1.00  0.00     0.037 A 
ATOM     64  C   UNL A   1      45.383  25.150  26.656  1.00  0.00     0.049 A 
ATOM     65  C   UNL A   1      46.985  30.431  27.663  1.00  0.00     0.074 A 
ATOM     66  C   UNL A   1      46.331  24.309  26.097  1.00  0.00     0.029 A 
ATOM     67  N   UNL A   1      45.993  26.385  26.820  1.00  0.00    -0.354 N 
ATOM     68  N   UNL A   1      46.754  29.174  27.367  1.00  0.00    -0.248 NA
ATOM     69  C   UNL A   1      48.359  30.873  27.384  1.00  0.00     0.031 C 
ATOM     70  C   UNL A   1      47.522  25.030  25.949  1.00  0.00     0.029 A 
ATOM     71  C   UNL A   1      47.306  26.327  26.384  1.00  0.00     0.049 A 
ATOM     72  H   UNL A   1      45.556  27.185  27.193  1.00  0.00     0.167 HD
ATOM     73  C   UNL A   1      47.946  28.681  26.847  1.00  0.00     0.074 A 
ATOM     74  C   UNL A   1      48.893  29.778  26.860  1.00  0.00     0.031 C 
ATOM     75  C   UNL A   1      48.230  27.433  26.399  1.00  0.00     0.037 A 
BRANCH  62  76
ATOM     76  C   UNL A   1      43.519  23.449  26.822  1.00  0.00     0.058 A 
ATOM     77  C   UNL A   1      43.234  22.936  25.547  1.00  0.00     0.135 A 
ATOM     78  C   UNL A   1      43.339  22.601  27.926  1.00  0.00     0.135 A 
ATOM     79  F   UNL A   1      43.374  23.711  24.459  1.00  0.00    -0.206 F 
ATOM     80  C   UNL A   1      42.757  21.641  25.374  1.00  0.00     0.059 A 
ATOM     81  C   UNL A   1      42.886  21.293  27.775  1.00  0.00     0.059 A 
ATOM     82  F   UNL A   1      43.596  23.041  29.168  1.00  0.00    -0.206 F 
ATOM     83  C   UNL A   1      42.581  20.829  26.495  1.00  0.00     0.060 A 
BRANCH  83  84
ATOM     84  S   UNL A   1      41.957  19.151  26.258  1.00  0.00     0.124 S 
ATOM     85  O   UNL A   1      42.695  18.734  25.070  1.00  0.00    -0.237 OA
ATOM     86  O   UNL A   1      42.337  18.493  27.503  1.00  0.00    -0.237 OA
ATOM     87  O   UNL A   1      40.523  19.347  26.069  1.00  0.00    -0.744 OA
ENDBRANCH  83  84
ENDBRANCH  62  76
BRANCH  63  88
ATOM     88  C   UNL A   1      46.499  32.840  28.512  1.00  0.00     0.058 A 
ATOM     89  C   UNL A   1      47.010  33.192  29.769  1.00  0.00     0.135 A 
ATOM     90  C   UNL A   1      46.455  33.832  27.521  1.00  0.00     0.135 A 
ATOM     91  F   UNL A   1      47.067  32.278  30.749  1.00  0.00    -0.206 F 
ATOM     92  C   UNL A   1      47.453  34.482  30.041  1.00  0.00     0.059 A 
ATOM     93  C   UNL A   1      46.910  35.125  27.763  1.00  0.00     0.059 A 
ATOM     94  F   UNL A   1      45.990  33.540  26.296  1.00  0.00    -0.206 F 
ATOM     95  C   UNL A   1      47.399  35.443  29.030  1.00  0.00     0.060 A 
BRANCH  95  96
ATOM     96  S   UNL A   1      48.029  37.101  29.371  1.00  0.00     0.124 S 
ATOM     97  O   UNL A   1      49.421  36.824  29.703  1.00  0.00    -0.237 OA
ATOM     98  O   UNL A   1      47.798  37.787  28.103  1.00  0.00    -0.237 OA
ATOM     99  O   UNL A   1      47.192  37.554  30.478  1.00  0.00    -0.744 OA
ENDBRANCH  95  96
ENDBRANCH  63  88
BRANCH  75 100
ATOM    100  C   UNL A   1      49.613  27.194  25.864  1.00  0.00     0.058 A 
ATOM    101  C   UNL A   1      50.678  26.852  26.709  1.00  0.00     0.135 A 
ATOM    102  C   UNL A   1      49.861  27.262  24.484  1.00  0.00     0.135 A 
ATOM    103  F   UNL A   1      50.492  26.781  28.037  1.00  0.00    -0.206 F 
ATOM    104  C   UNL A   1      51.951  26.604  26.207  1.00  0.00     0.059 A 
ATOM    105  C   UNL A   1      51.122  26.997  23.957  1.00  0.00     0.059 A 
ATOM    106  F   UNL A   1      48.871  27.576  23.633  1.00  0.00    -0.206 F 
ATOM    107  C   UNL A   1      52.163  26.680  24.829  1.00  0.00     0.060 A 
BRANCH 107 108
ATOM    108  S   UNL A   1      53.810  26.323  24.181  1.00  0.00     0.124 S 
ATOM    109  O   UNL A   1      53.601  26.480  22.746  1.00  0.00    -0.237 OA
ATOM    110  O   UNL A   1      54.628  27.352  24.818  1.00  0.00    -0.237 OA
ATOM    111  O   UNL A   1      54.065  24.961  24.635  1.00  0.00    -0.744 OA
ENDBRANCH 107 108
ENDBRANCH  75 100
ENDBRANCH  49  50
ENDBRANCH  41  44
ENDBRANCH  39  40
ENDBRANCH  38  39
ENDBRANCH  37  38
ENDBRANCH   1  37
TORSDOF 21
ENDMDL
