MODEL 1
REMARK VINA RESULT:     -11.4      0.000      0.000
REMARK SMILES CC(C)c1nc(N(C)CCc2ccccn2)sc1C(=O)NCCCCCCNC(=O)c1ccc(-c2c3nc(c(-c4c(F)cc(S(=O)(=O)[O-])cc4F)c4ccc([nH]4)c(-c4c(F)cc(S(=O)(=O)[O-])cc4F)c4nc(c(-c5c(F)cc(S(=O)(=O)[O-])cc5F)c5ccc2[nH]5)C=C4)C=C3)cc1
REMARK SMILES IDX 24 1 23 2 22 3 21 4 19 5 20 6 18 8 4 9 5 10 6 11 17 12 2 13
REMARK SMILES IDX 1 14 3 15 7 16 8 17 9 18 10 19 11 20 12 21 16 22 13 23 15 24
REMARK SMILES IDX 14 25 25 26 26 27 27 28 28 29 29 30 30 32 31 33 32 34 96 35
REMARK SMILES IDX 33 36 95 37 34 38 35 39 36 40 89 41 37 42 94 43 88 44 90 45
REMARK SMILES IDX 38 46 93 47 87 48 86 49 39 51 73 52 52 53 72 54 53 55 56 56
REMARK SMILES IDX 71 57 91 58 54 59 55 60 70 62 92 63 57 64 40 65 41 66 50 67
REMARK SMILES IDX 42 68 43 69 49 70 51 71 44 72 45 73 46 74 47 75 48 76 74 77
REMARK SMILES IDX 75 78 84 79 76 80 77 81 83 82 85 83 78 84 79 85 80 86 81 87
REMARK SMILES IDX 82 88 58 89 59 90 68 91 60 92 61 93 67 94 69 95 62 96 63 97
REMARK SMILES IDX 64 98 65 99 66 100
REMARK H PARENT 21 7 28 31 90 50 56 61
REMARK Flexibility Score: inf
ROOT
ATOM      1  C   UNL A   1      35.997  21.982  25.687  1.00  0.00     0.002 C 
ENDROOT
BRANCH   1   2
ATOM      2  C   UNL A   1      35.439  20.735  25.000  1.00  0.00     0.021 C 
BRANCH   2   3
ATOM      3  C   UNL A   1      33.928  20.533  25.173  1.00  0.00     0.116 C 
BRANCH   3   4
ATOM      4  N   UNL A   1      33.180  21.093  24.064  1.00  0.00    -0.351 N 
ATOM      5  C   UNL A   1      32.688  22.290  23.624  1.00  0.00     0.263 C 
ATOM      6  O   UNL A   1      32.200  22.152  22.490  1.00  0.00    -0.268 OA
ATOM      7  H   UNL A   1      32.954  20.383  23.421  1.00  0.00     0.163 HD
BRANCH   5   8
ATOM      8  C   UNL A   1      32.663  23.581  24.310  1.00  0.00     0.117 A 
ATOM      9  C   UNL A   1      32.286  24.141  25.529  1.00  0.00     0.069 A 
ATOM     10  N   UNL A   1      32.399  25.526  25.585  1.00  0.00    -0.224 NA
ATOM     11  C   UNL A   1      32.811  26.072  24.472  1.00  0.00     0.186 A 
ATOM     12  S   UNL A   1      33.253  24.903  23.310  1.00  0.00    -0.091 S 
BRANCH   9  13
ATOM     13  C   UNL A   1      31.712  23.537  26.781  1.00  0.00     0.034 C 
ATOM     14  C   UNL A   1      30.467  22.667  26.531  1.00  0.00     0.014 C 
ATOM     15  C   UNL A   1      32.754  22.679  27.491  1.00  0.00     0.014 C 
ENDBRANCH   9  13
BRANCH  11  16
ATOM     16  N   UNL A   1      32.841  27.424  24.290  1.00  0.00    -0.351 N 
ATOM     17  C   UNL A   1      34.037  28.166  23.945  1.00  0.00     0.146 C 
BRANCH  16  18
ATOM     18  C   UNL A   1      31.608  28.188  24.539  1.00  0.00     0.125 C 
BRANCH  18  19
ATOM     19  C   UNL A   1      30.608  28.101  23.380  1.00  0.00     0.077 C 
BRANCH  19  20
ATOM     20  C   UNL A   1      29.599  29.219  23.314  1.00  0.00     0.042 A 
ATOM     21  C   UNL A   1      29.894  30.476  23.839  1.00  0.00     0.024 A 
ATOM     22  N   UNL A   1      28.389  28.925  22.777  1.00  0.00    -0.261 NA
ATOM     23  C   UNL A   1      28.915  31.466  23.817  1.00  0.00     0.003 A 
ATOM     24  C   UNL A   1      27.461  29.908  22.759  1.00  0.00     0.111 A 
ATOM     25  C   UNL A   1      27.670  31.176  23.273  1.00  0.00     0.020 A 
ENDBRANCH  19  20
ENDBRANCH  18  19
ENDBRANCH  16  18
ENDBRANCH  11  16
ENDBRANCH   5   8
ENDBRANCH   3   4
ENDBRANCH   2   3
ENDBRANCH   1   2
BRANCH   1  26
ATOM     26  C   UNL A   1      37.441  22.350  25.328  1.00  0.00     0.002 C 
BRANCH  26  27
ATOM     27  C   UNL A   1      38.003  23.615  25.984  1.00  0.00     0.021 C 
BRANCH  27  28
ATOM     28  C   UNL A   1      39.236  23.416  26.868  1.00  0.00     0.116 C 
BRANCH  28  29
ATOM     29  N   UNL A   1      40.471  23.756  26.182  1.00  0.00    -0.352 N 
ATOM     30  C   UNL A   1      41.289  24.849  26.290  1.00  0.00     0.251 C 
ATOM     31  H   UNL A   1      40.770  23.085  25.525  1.00  0.00     0.163 HD
ATOM     32  O   UNL A   1      42.165  25.024  25.440  1.00  0.00    -0.269 OA
BRANCH  30  33
ATOM     33  C   UNL A   1      41.145  25.821  27.398  1.00  0.00     0.039 A 
ATOM     34  C   UNL A   1      42.047  26.889  27.474  1.00  0.00     0.014 A 
ATOM     35  C   UNL A   1      40.193  25.647  28.405  1.00  0.00     0.014 A 
ATOM     36  C   UNL A   1      41.962  27.805  28.528  1.00  0.00     0.010 A 
ATOM     37  C   UNL A   1      40.074  26.591  29.426  1.00  0.00     0.010 A 
ATOM     38  C   UNL A   1      40.960  27.677  29.501  1.00  0.00    -0.014 A 
BRANCH  38  39
ATOM     39  C   UNL A   1      40.829  28.664  30.606  1.00  0.00     0.031 A 
ATOM     40  C   UNL A   1      41.699  28.554  31.830  1.00  0.00     0.074 A 
ATOM     41  C   UNL A   1      39.884  29.621  30.535  1.00  0.00     0.049 A 
ATOM     42  N   UNL A   1      41.670  29.262  32.931  1.00  0.00    -0.248 NA
ATOM     43  C   UNL A   1      42.721  27.497  31.825  1.00  0.00     0.031 C 
ATOM     44  C   UNL A   1      38.954  29.810  29.420  1.00  0.00     0.029 A 
ATOM     45  N   UNL A   1      39.538  30.607  31.426  1.00  0.00    -0.354 N 
ATOM     46  C   UNL A   1      42.652  28.725  33.755  1.00  0.00     0.074 A 
ATOM     47  C   UNL A   1      43.236  27.609  33.041  1.00  0.00     0.031 C 
ATOM     48  C   UNL A   1      38.150  30.852  29.690  1.00  0.00     0.029 A 
ATOM     49  C   UNL A   1      38.484  31.385  31.007  1.00  0.00     0.049 A 
ATOM     50  H   UNL A   1      40.000  30.744  32.285  1.00  0.00     0.167 HD
ATOM     51  C   UNL A   1      43.043  29.134  34.987  1.00  0.00     0.037 A 
ATOM     52  C   UNL A   1      37.851  32.405  31.618  1.00  0.00     0.037 A 
ATOM     53  C   UNL A   1      42.483  30.265  35.680  1.00  0.00     0.049 A 
ATOM     54  C   UNL A   1      38.314  32.852  32.977  1.00  0.00     0.074 A 
ATOM     55  C   UNL A   1      42.848  30.791  36.908  1.00  0.00     0.029 A 
ATOM     56  N   UNL A   1      41.442  31.050  35.205  1.00  0.00    -0.354 N 
ATOM     57  N   UNL A   1      39.276  32.360  33.722  1.00  0.00    -0.248 NA
ATOM     58  C   UNL A   1      37.613  33.996  33.577  1.00  0.00     0.031 C 
ATOM     59  C   UNL A   1      42.010  31.875  37.189  1.00  0.00     0.029 A 
ATOM     60  C   UNL A   1      41.146  32.048  36.119  1.00  0.00     0.049 A 
ATOM     61  H   UNL A   1      40.982  30.917  34.345  1.00  0.00     0.167 HD
ATOM     62  C   UNL A   1      39.311  33.150  34.866  1.00  0.00     0.074 A 
ATOM     63  C   UNL A   1      38.281  34.156  34.712  1.00  0.00     0.031 C 
ATOM     64  C   UNL A   1      40.124  33.050  35.946  1.00  0.00     0.037 A 
BRANCH  51  65
ATOM     65  C   UNL A   1      44.134  28.354  35.666  1.00  0.00     0.058 A 
ATOM     66  C   UNL A   1      43.843  27.291  36.537  1.00  0.00     0.135 A 
ATOM     67  C   UNL A   1      45.485  28.646  35.417  1.00  0.00     0.135 A 
ATOM     68  F   UNL A   1      42.570  26.978  36.819  1.00  0.00    -0.206 F 
ATOM     69  C   UNL A   1      44.853  26.564  37.158  1.00  0.00     0.059 A 
ATOM     70  C   UNL A   1      46.511  27.917  36.010  1.00  0.00     0.059 A 
ATOM     71  F   UNL A   1      45.817  29.651  34.593  1.00  0.00    -0.206 F 
ATOM     72  C   UNL A   1      46.186  26.886  36.891  1.00  0.00     0.060 A 
BRANCH  72  73
ATOM     73  S   UNL A   1      47.485  25.935  37.706  1.00  0.00     0.124 S 
ATOM     74  O   UNL A   1      48.147  26.966  38.498  1.00  0.00    -0.237 OA
ATOM     75  O   UNL A   1      46.724  24.946  38.463  1.00  0.00    -0.237 OA
ATOM     76  O   UNL A   1      48.264  25.402  36.592  1.00  0.00    -0.744 OA
ENDBRANCH  72  73
ENDBRANCH  51  65
BRANCH  52  77
ATOM     77  C   UNL A   1      36.722  33.090  30.937  1.00  0.00     0.058 A 
ATOM     78  C   UNL A   1      35.399  32.891  31.361  1.00  0.00     0.135 A 
ATOM     79  C   UNL A   1      36.941  33.967  29.864  1.00  0.00     0.135 A 
ATOM     80  F   UNL A   1      35.140  32.057  32.379  1.00  0.00    -0.206 F 
ATOM     81  C   UNL A   1      34.331  33.526  30.736  1.00  0.00     0.059 A 
ATOM     82  C   UNL A   1      35.891  34.631  29.237  1.00  0.00     0.059 A 
ATOM     83  F   UNL A   1      38.190  34.203  29.433  1.00  0.00    -0.206 F 
ATOM     84  C   UNL A   1      34.589  34.396  29.675  1.00  0.00     0.060 A 
BRANCH  84  85
ATOM     85  S   UNL A   1      33.199  35.256  28.904  1.00  0.00     0.124 S 
ATOM     86  O   UNL A   1      33.874  36.333  28.198  1.00  0.00    -0.237 OA
ATOM     87  O   UNL A   1      32.613  34.209  28.070  1.00  0.00    -0.237 OA
ATOM     88  O   UNL A   1      32.383  35.660  30.049  1.00  0.00    -0.744 OA
ENDBRANCH  84  85
ENDBRANCH  52  77
BRANCH  64  89
ATOM     89  C   UNL A   1      39.960  34.075  37.031  1.00  0.00     0.058 A 
ATOM     90  C   UNL A   1      40.516  35.359  36.919  1.00  0.00     0.135 A 
ATOM     91  C   UNL A   1      39.195  33.786  38.173  1.00  0.00     0.135 A 
ATOM     92  F   UNL A   1      41.262  35.682  35.852  1.00  0.00    -0.206 F 
ATOM     93  C   UNL A   1      40.333  36.317  37.911  1.00  0.00     0.059 A 
ATOM     94  C   UNL A   1      38.981  34.736  39.166  1.00  0.00     0.059 A 
ATOM     95  F   UNL A   1      38.635  32.576  38.322  1.00  0.00    -0.206 F 
ATOM     96  C   UNL A   1      39.563  35.995  39.032  1.00  0.00     0.060 A 
BRANCH  96  97
ATOM     97  S   UNL A   1      39.299  37.258  40.296  1.00  0.00     0.124 S 
ATOM     98  O   UNL A   1      38.606  38.293  39.537  1.00  0.00    -0.237 OA
ATOM     99  O   UNL A   1      38.494  36.550  41.287  1.00  0.00    -0.237 OA
ATOM    100  O   UNL A   1      40.654  37.595  40.725  1.00  0.00    -0.744 OA
ENDBRANCH  96  97
ENDBRANCH  64  89
ENDBRANCH  38  39
ENDBRANCH  30  33
ENDBRANCH  28  29
ENDBRANCH  27  28
ENDBRANCH  26  27
ENDBRANCH   1  26
TORSDOF 21
ENDMDL
MODEL 2
REMARK VINA RESULT:     -11.3      6.304     12.186
REMARK SMILES CC(C)c1nc(N(C)CCc2ccccn2)sc1C(=O)NCCCCCCNC(=O)c1ccc(-c2c3nc(c(-c4c(F)cc(S(=O)(=O)[O-])cc4F)c4ccc([nH]4)c(-c4c(F)cc(S(=O)(=O)[O-])cc4F)c4nc(c(-c5c(F)cc(S(=O)(=O)[O-])cc5F)c5ccc2[nH]5)C=C4)C=C3)cc1
REMARK SMILES IDX 24 1 23 2 22 3 21 4 19 5 20 6 18 8 4 9 5 10 6 11 17 12 2 13
REMARK SMILES IDX 1 14 3 15 7 16 8 17 9 18 10 19 11 20 12 21 16 22 13 23 15 24
REMARK SMILES IDX 14 25 25 26 26 27 27 28 28 29 29 30 30 32 31 33 32 34 96 35
REMARK SMILES IDX 33 36 95 37 34 38 35 39 36 40 89 41 37 42 94 43 88 44 90 45
REMARK SMILES IDX 38 46 93 47 87 48 86 49 39 51 73 52 52 53 72 54 53 55 56 56
REMARK SMILES IDX 71 57 91 58 54 59 55 60 70 62 92 63 57 64 40 65 41 66 50 67
REMARK SMILES IDX 42 68 43 69 49 70 51 71 44 72 45 73 46 74 47 75 48 76 74 77
REMARK SMILES IDX 75 78 84 79 76 80 77 81 83 82 85 83 78 84 79 85 80 86 81 87
REMARK SMILES IDX 82 88 58 89 59 90 68 91 60 92 61 93 67 94 69 95 62 96 63 97
REMARK SMILES IDX 64 98 65 99 66 100
REMARK H PARENT 21 7 28 31 90 50 56 61
REMARK Flexibility Score: inf
ROOT
ATOM      1  C   UNL A   1      32.938  30.452  27.230  1.00  0.00     0.002 C 
ENDROOT
BRANCH   1   2
ATOM      2  C   UNL A   1      33.437  29.753  25.964  1.00  0.00     0.021 C 
BRANCH   2   3
ATOM      3  C   UNL A   1      32.331  29.147  25.090  1.00  0.00     0.116 C 
BRANCH   3   4
ATOM      4  N   UNL A   1      31.589  28.121  25.796  1.00  0.00    -0.351 N 
ATOM      5  C   UNL A   1      31.489  26.760  25.873  1.00  0.00     0.263 C 
ATOM      6  O   UNL A   1      30.709  26.447  26.788  1.00  0.00    -0.268 OA
ATOM      7  H   UNL A   1      30.954  28.538  26.421  1.00  0.00     0.163 HD
BRANCH   5   8
ATOM      8  C   UNL A   1      32.131  25.742  25.043  1.00  0.00     0.117 A 
ATOM      9  C   UNL A   1      32.471  25.501  23.712  1.00  0.00     0.069 A 
ATOM     10  N   UNL A   1      33.003  24.238  23.476  1.00  0.00    -0.224 NA
ATOM     11  C   UNL A   1      33.066  23.479  24.536  1.00  0.00     0.186 A 
ATOM     12  S   UNL A   1      32.625  24.321  25.954  1.00  0.00    -0.091 S 
BRANCH   9  13
ATOM     13  C   UNL A   1      32.308  26.325  22.465  1.00  0.00     0.034 C 
ATOM     14  C   UNL A   1      30.956  27.056  22.381  1.00  0.00     0.014 C 
ATOM     15  C   UNL A   1      33.416  27.367  22.361  1.00  0.00     0.014 C 
ENDBRANCH   9  13
BRANCH  11  16
ATOM     16  N   UNL A   1      33.419  22.162  24.473  1.00  0.00    -0.351 N 
ATOM     17  C   UNL A   1      32.629  21.145  23.809  1.00  0.00     0.146 C 
BRANCH  16  18
ATOM     18  C   UNL A   1      34.630  21.731  25.190  1.00  0.00     0.125 C 
BRANCH  18  19
ATOM     19  C   UNL A   1      35.921  22.051  24.427  1.00  0.00     0.077 C 
BRANCH  19  20
ATOM     20  C   UNL A   1      37.075  22.517  25.279  1.00  0.00     0.042 A 
ATOM     21  C   UNL A   1      37.105  23.813  25.790  1.00  0.00     0.024 A 
ATOM     22  N   UNL A   1      38.090  21.639  25.471  1.00  0.00    -0.261 NA
ATOM     23  C   UNL A   1      38.215  24.227  26.520  1.00  0.00     0.003 A 
ATOM     24  C   UNL A   1      39.152  22.065  26.191  1.00  0.00     0.111 A 
ATOM     25  C   UNL A   1      39.265  23.339  26.720  1.00  0.00     0.020 A 
ENDBRANCH  19  20
ENDBRANCH  18  19
ENDBRANCH  16  18
ENDBRANCH  11  16
ENDBRANCH   5   8
ENDBRANCH   3   4
ENDBRANCH   2   3
ENDBRANCH   1   2
BRANCH   1  26
ATOM     26  C   UNL A   1      33.732  31.688  27.664  1.00  0.00     0.002 C 
BRANCH  26  27
ATOM     27  C   UNL A   1      35.259  31.559  27.634  1.00  0.00     0.021 C 
BRANCH  27  28
ATOM     28  C   UNL A   1      36.002  32.154  28.831  1.00  0.00     0.116 C 
BRANCH  28  29
ATOM     29  N   UNL A   1      35.764  31.411  30.057  1.00  0.00    -0.352 N 
ATOM     30  C   UNL A   1      36.461  30.384  30.637  1.00  0.00     0.251 C 
ATOM     31  H   UNL A   1      34.963  31.693  30.556  1.00  0.00     0.163 HD
ATOM     32  O   UNL A   1      35.941  29.760  31.564  1.00  0.00    -0.269 OA
BRANCH  30  33
ATOM     33  C   UNL A   1      37.818  30.008  30.177  1.00  0.00     0.039 A 
ATOM     34  C   UNL A   1      38.818  29.804  31.134  1.00  0.00     0.014 A 
ATOM     35  C   UNL A   1      38.136  29.940  28.818  1.00  0.00     0.014 A 
ATOM     36  C   UNL A   1      40.119  29.483  30.733  1.00  0.00     0.010 A 
ATOM     37  C   UNL A   1      39.421  29.567  28.419  1.00  0.00     0.010 A 
ATOM     38  C   UNL A   1      40.426  29.340  29.371  1.00  0.00    -0.014 A 
BRANCH  38  39
ATOM     39  C   UNL A   1      41.794  28.960  28.926  1.00  0.00     0.031 A 
ATOM     40  C   UNL A   1      42.884  29.996  28.852  1.00  0.00     0.074 A 
ATOM     41  C   UNL A   1      42.039  27.696  28.530  1.00  0.00     0.049 A 
ATOM     42  N   UNL A   1      44.109  29.877  28.405  1.00  0.00    -0.248 NA
ATOM     43  C   UNL A   1      42.546  31.348  29.320  1.00  0.00     0.031 C 
ATOM     44  C   UNL A   1      41.058  26.609  28.520  1.00  0.00     0.029 A 
ATOM     45  N   UNL A   1      43.183  27.113  28.045  1.00  0.00    -0.354 N 
ATOM     46  C   UNL A   1      44.680  31.138  28.519  1.00  0.00     0.074 A 
ATOM     47  C   UNL A   1      43.657  32.017  29.045  1.00  0.00     0.031 C 
ATOM     48  C   UNL A   1      41.645  25.491  28.060  1.00  0.00     0.029 A 
ATOM     49  C   UNL A   1      43.031  25.788  27.714  1.00  0.00     0.049 A 
ATOM     50  H   UNL A   1      44.034  27.600  27.942  1.00  0.00     0.167 HD
ATOM     51  C   UNL A   1      45.946  31.526  28.228  1.00  0.00     0.037 A 
ATOM     52  C   UNL A   1      43.905  24.912  27.181  1.00  0.00     0.037 A 
ATOM     53  C   UNL A   1      46.971  30.641  27.736  1.00  0.00     0.049 A 
ATOM     54  C   UNL A   1      45.309  25.361  26.882  1.00  0.00     0.074 A 
ATOM     55  C   UNL A   1      48.298  30.928  27.463  1.00  0.00     0.029 A 
ATOM     56  N   UNL A   1      46.787  29.296  27.449  1.00  0.00    -0.354 N 
ATOM     57  N   UNL A   1      45.845  26.548  27.041  1.00  0.00    -0.248 NA
ATOM     58  C   UNL A   1      46.230  24.352  26.340  1.00  0.00     0.031 C 
ATOM     59  C   UNL A   1      48.908  29.764  26.982  1.00  0.00     0.029 A 
ATOM     60  C   UNL A   1      47.971  28.742  26.992  1.00  0.00     0.049 A 
ATOM     61  H   UNL A   1      45.938  28.809  27.555  1.00  0.00     0.167 HD
ATOM     62  C   UNL A   1      47.171  26.422  26.642  1.00  0.00     0.074 A 
ATOM     63  C   UNL A   1      47.359  25.042  26.243  1.00  0.00     0.031 C 
ATOM     64  C   UNL A   1      48.145  27.364  26.609  1.00  0.00     0.037 A 
BRANCH  51  65
ATOM     65  C   UNL A   1      46.298  32.973  28.437  1.00  0.00     0.058 A 
ATOM     66  C   UNL A   1      46.707  33.455  29.691  1.00  0.00     0.135 A 
ATOM     67  C   UNL A   1      46.262  33.880  27.366  1.00  0.00     0.135 A 
ATOM     68  F   UNL A   1      46.747  32.634  30.750  1.00  0.00    -0.206 F 
ATOM     69  C   UNL A   1      47.040  34.792  29.881  1.00  0.00     0.059 A 
ATOM     70  C   UNL A   1      46.613  35.217  27.529  1.00  0.00     0.059 A 
ATOM     71  F   UNL A   1      45.879  33.470  26.146  1.00  0.00    -0.206 F 
ATOM     72  C   UNL A   1      46.988  35.667  28.794  1.00  0.00     0.060 A 
BRANCH  72  73
ATOM     73  S   UNL A   1      47.421  37.400  29.057  1.00  0.00     0.124 S 
ATOM     74  O   UNL A   1      47.996  37.355  30.397  1.00  0.00    -0.237 OA
ATOM     75  O   UNL A   1      48.364  37.656  27.972  1.00  0.00    -0.237 OA
ATOM     76  O   UNL A   1      46.140  38.090  28.944  1.00  0.00    -0.744 OA
ENDBRANCH  72  73
ENDBRANCH  51  65
BRANCH  52  77
ATOM     77  C   UNL A   1      43.482  23.512  26.916  1.00  0.00     0.058 A 
ATOM     78  C   UNL A   1      43.308  22.602  27.969  1.00  0.00     0.135 A 
ATOM     79  C   UNL A   1      43.227  23.062  25.612  1.00  0.00     0.135 A 
ATOM     80  F   UNL A   1      43.546  22.985  29.233  1.00  0.00    -0.206 F 
ATOM     81  C   UNL A   1      42.910  21.289  27.739  1.00  0.00     0.059 A 
ATOM     82  C   UNL A   1      42.807  21.760  25.358  1.00  0.00     0.059 A 
ATOM     83  F   UNL A   1      43.363  23.901  24.573  1.00  0.00    -0.206 F 
ATOM     84  C   UNL A   1      42.661  20.879  26.428  1.00  0.00     0.060 A 
BRANCH  84  85
ATOM     85  S   UNL A   1      42.094  19.187  26.143  1.00  0.00     0.124 S 
ATOM     86  O   UNL A   1      40.672  19.386  25.915  1.00  0.00    -0.237 OA
ATOM     87  O   UNL A   1      42.883  18.789  24.980  1.00  0.00    -0.237 OA
ATOM     88  O   UNL A   1      42.448  18.505  27.389  1.00  0.00    -0.744 OA
ENDBRANCH  84  85
ENDBRANCH  52  77
BRANCH  64  89
ATOM     89  C   UNL A   1      49.512  26.930  26.162  1.00  0.00     0.058 A 
ATOM     90  C   UNL A   1      50.378  26.235  27.019  1.00  0.00     0.135 A 
ATOM     91  C   UNL A   1      49.938  27.169  24.846  1.00  0.00     0.135 A 
ATOM     92  F   UNL A   1      50.020  25.989  28.289  1.00  0.00    -0.206 F 
ATOM     93  C   UNL A   1      51.630  25.804  26.590  1.00  0.00     0.059 A 
ATOM     94  C   UNL A   1      51.176  26.728  24.390  1.00  0.00     0.059 A 
ATOM     95  F   UNL A   1      49.142  27.822  23.986  1.00  0.00    -0.206 F 
ATOM     96  C   UNL A   1      52.020  26.056  25.273  1.00  0.00     0.060 A 
BRANCH  96  97
ATOM     97  S   UNL A   1      53.631  25.460  24.715  1.00  0.00     0.124 S 
ATOM     98  O   UNL A   1      54.533  26.415  25.348  1.00  0.00    -0.237 OA
ATOM     99  O   UNL A   1      53.667  24.102  25.250  1.00  0.00    -0.237 OA
ATOM    100  O   UNL A   1      53.540  25.550  23.260  1.00  0.00    -0.744 OA
ENDBRANCH  96  97
ENDBRANCH  64  89
ENDBRANCH  38  39
ENDBRANCH  30  33
ENDBRANCH  28  29
ENDBRANCH  27  28
ENDBRANCH  26  27
ENDBRANCH   1  26
TORSDOF 21
ENDMDL
MODEL 3
REMARK VINA RESULT:     -11.2      6.497     11.745
REMARK SMILES CC(C)c1nc(N(C)CCc2ccccn2)sc1C(=O)NCCCCCCNC(=O)c1ccc(-c2c3nc(c(-c4c(F)cc(S(=O)(=O)[O-])cc4F)c4ccc([nH]4)c(-c4c(F)cc(S(=O)(=O)[O-])cc4F)c4nc(c(-c5c(F)cc(S(=O)(=O)[O-])cc5F)c5ccc2[nH]5)C=C4)C=C3)cc1
REMARK SMILES IDX 24 1 23 2 22 3 21 4 19 5 20 6 18 8 4 9 5 10 6 11 17 12 2 13
REMARK SMILES IDX 1 14 3 15 7 16 8 17 9 18 10 19 11 20 12 21 16 22 13 23 15 24
REMARK SMILES IDX 14 25 25 26 26 27 27 28 28 29 29 30 30 32 31 33 32 34 96 35
REMARK SMILES IDX 33 36 95 37 34 38 35 39 36 40 89 41 37 42 94 43 88 44 90 45
REMARK SMILES IDX 38 46 93 47 87 48 86 49 39 51 73 52 52 53 72 54 53 55 56 56
REMARK SMILES IDX 71 57 91 58 54 59 55 60 70 62 92 63 57 64 40 65 41 66 50 67
REMARK SMILES IDX 42 68 43 69 49 70 51 71 44 72 45 73 46 74 47 75 48 76 74 77
REMARK SMILES IDX 75 78 84 79 76 80 77 81 83 82 85 83 78 84 79 85 80 86 81 87
REMARK SMILES IDX 82 88 58 89 59 90 68 91 60 92 61 93 67 94 69 95 62 96 63 97
REMARK SMILES IDX 64 98 65 99 66 100
REMARK H PARENT 21 7 28 31 90 50 56 61
REMARK Flexibility Score: inf
ROOT
ATOM      1  C   UNL A   1      33.396  28.455  26.100  1.00  0.00     0.002 C 
ENDROOT
BRANCH   1   2
ATOM      2  C   UNL A   1      33.794  28.405  24.624  1.00  0.00     0.021 C 
BRANCH   2   3
ATOM      3  C   UNL A   1      32.620  28.233  23.652  1.00  0.00     0.116 C 
BRANCH   3   4
ATOM      4  N   UNL A   1      32.964  27.369  22.539  1.00  0.00    -0.351 N 
ATOM      5  C   UNL A   1      32.925  26.051  22.179  1.00  0.00     0.263 C 
ATOM      6  O   UNL A   1      33.281  25.929  20.994  1.00  0.00    -0.268 OA
ATOM      7  H   UNL A   1      33.348  27.904  21.807  1.00  0.00     0.163 HD
BRANCH   5   8
ATOM      8  C   UNL A   1      32.567  24.887  22.987  1.00  0.00     0.117 A 
ATOM      9  C   UNL A   1      31.635  24.492  23.945  1.00  0.00     0.069 A 
ATOM     10  N   UNL A   1      31.856  23.224  24.473  1.00  0.00    -0.224 NA
ATOM     11  C   UNL A   1      32.920  22.630  24.004  1.00  0.00     0.186 A 
ATOM     12  S   UNL A   1      33.649  23.520  22.743  1.00  0.00    -0.091 S 
BRANCH   9  13
ATOM     13  C   UNL A   1      30.468  25.205  24.571  1.00  0.00     0.034 C 
ATOM     14  C   UNL A   1      30.847  26.041  25.807  1.00  0.00     0.014 C 
ATOM     15  C   UNL A   1      29.800  26.131  23.560  1.00  0.00     0.014 C 
ENDBRANCH   9  13
BRANCH  11  16
ATOM     16  N   UNL A   1      33.379  21.448  24.509  1.00  0.00    -0.351 N 
ATOM     17  C   UNL A   1      32.853  20.151  24.135  1.00  0.00     0.146 C 
BRANCH  16  18
ATOM     18  C   UNL A   1      34.410  21.494  25.558  1.00  0.00     0.125 C 
BRANCH  18  19
ATOM     19  C   UNL A   1      35.800  21.101  25.046  1.00  0.00     0.077 C 
BRANCH  19  20
ATOM     20  C   UNL A   1      36.943  21.925  25.584  1.00  0.00     0.042 A 
ATOM     21  C   UNL A   1      36.762  23.270  25.902  1.00  0.00     0.024 A 
ATOM     22  N   UNL A   1      38.148  21.312  25.686  1.00  0.00    -0.261 NA
ATOM     23  C   UNL A   1      37.855  24.015  26.338  1.00  0.00     0.003 A 
ATOM     24  C   UNL A   1      39.189  22.058  26.120  1.00  0.00     0.111 A 
ATOM     25  C   UNL A   1      39.096  23.401  26.442  1.00  0.00     0.020 A 
ENDBRANCH  19  20
ENDBRANCH  18  19
ENDBRANCH  16  18
ENDBRANCH  11  16
ENDBRANCH   5   8
ENDBRANCH   3   4
ENDBRANCH   2   3
ENDBRANCH   1   2
BRANCH   1  26
ATOM     26  C   UNL A   1      33.154  29.854  26.677  1.00  0.00     0.002 C 
BRANCH  26  27
ATOM     27  C   UNL A   1      34.368  30.551  27.299  1.00  0.00     0.021 C 
BRANCH  27  28
ATOM     28  C   UNL A   1      35.371  29.638  28.008  1.00  0.00     0.116 C 
BRANCH  28  29
ATOM     29  N   UNL A   1      35.490  29.941  29.425  1.00  0.00    -0.352 N 
ATOM     30  C   UNL A   1      36.544  29.804  30.289  1.00  0.00     0.251 C 
ATOM     31  H   UNL A   1      34.671  30.306  29.834  1.00  0.00     0.163 HD
ATOM     32  O   UNL A   1      36.340  29.916  31.500  1.00  0.00    -0.269 OA
BRANCH  30  33
ATOM     33  C   UNL A   1      37.915  29.524  29.804  1.00  0.00     0.039 A 
ATOM     34  C   UNL A   1      38.881  29.110  30.728  1.00  0.00     0.014 A 
ATOM     35  C   UNL A   1      38.280  29.747  28.474  1.00  0.00     0.014 A 
ATOM     36  C   UNL A   1      40.195  28.872  30.311  1.00  0.00     0.010 A 
ATOM     37  C   UNL A   1      39.578  29.457  28.047  1.00  0.00     0.010 A 
ATOM     38  C   UNL A   1      40.549  29.022  28.962  1.00  0.00    -0.014 A 
BRANCH  38  39
ATOM     39  C   UNL A   1      41.931  28.736  28.492  1.00  0.00     0.031 A 
ATOM     40  C   UNL A   1      42.309  27.349  28.045  1.00  0.00     0.074 A 
ATOM     41  C   UNL A   1      42.862  29.709  28.528  1.00  0.00     0.049 A 
ATOM     42  N   UNL A   1      43.481  26.886  27.689  1.00  0.00    -0.248 NA
ATOM     43  C   UNL A   1      41.235  26.346  28.014  1.00  0.00     0.031 C 
ATOM     44  C   UNL A   1      42.631  31.084  28.975  1.00  0.00     0.029 A 
ATOM     45  N   UNL A   1      44.194  29.688  28.196  1.00  0.00    -0.354 N 
ATOM     46  C   UNL A   1      43.290  25.537  27.413  1.00  0.00     0.074 A 
ATOM     47  C   UNL A   1      41.896  25.248  27.676  1.00  0.00     0.031 C 
ATOM     48  C   UNL A   1      43.779  31.776  28.882  1.00  0.00     0.029 A 
ATOM     49  C   UNL A   1      44.833  30.889  28.400  1.00  0.00     0.049 A 
ATOM     50  H   UNL A   1      44.650  28.888  27.846  1.00  0.00     0.167 HD
ATOM     51  C   UNL A   1      44.189  24.627  26.965  1.00  0.00     0.037 A 
ATOM     52  C   UNL A   1      46.124  31.235  28.229  1.00  0.00     0.037 A 
ATOM     53  C   UNL A   1      45.567  24.925  26.673  1.00  0.00     0.049 A 
ATOM     54  C   UNL A   1      47.099  30.212  27.715  1.00  0.00     0.074 A 
ATOM     55  C   UNL A   1      46.542  24.085  26.165  1.00  0.00     0.029 A 
ATOM     56  N   UNL A   1      46.166  26.164  26.858  1.00  0.00    -0.354 N 
ATOM     57  N   UNL A   1      46.888  28.952  27.415  1.00  0.00    -0.248 NA
ATOM     58  C   UNL A   1      48.485  30.657  27.509  1.00  0.00     0.031 C 
ATOM     59  C   UNL A   1      47.738  24.805  26.070  1.00  0.00     0.029 A 
ATOM     60  C   UNL A   1      47.499  26.106  26.484  1.00  0.00     0.049 A 
ATOM     61  H   UNL A   1      45.710  26.964  27.204  1.00  0.00     0.167 HD
ATOM     62  C   UNL A   1      48.108  28.462  26.961  1.00  0.00     0.074 A 
ATOM     63  C   UNL A   1      49.049  29.561  27.018  1.00  0.00     0.031 C 
ATOM     64  C   UNL A   1      48.420  27.213  26.536  1.00  0.00     0.037 A 
BRANCH  51  65
ATOM     65  C   UNL A   1      43.710  23.217  26.760  1.00  0.00     0.058 A 
ATOM     66  C   UNL A   1      43.543  22.678  25.474  1.00  0.00     0.135 A 
ATOM     67  C   UNL A   1      43.450  22.381  27.859  1.00  0.00     0.135 A 
ATOM     68  F   UNL A   1      43.765  23.436  24.390  1.00  0.00    -0.206 F 
ATOM     69  C   UNL A   1      43.107  21.370  25.284  1.00  0.00     0.059 A 
ATOM     70  C   UNL A   1      43.036  21.063  27.692  1.00  0.00     0.059 A 
ATOM     71  F   UNL A   1      43.595  22.846  29.109  1.00  0.00    -0.206 F 
ATOM     72  C   UNL A   1      42.853  20.570  26.401  1.00  0.00     0.060 A 
BRANCH  72  73
ATOM     73  S   UNL A   1      42.288  18.876  26.140  1.00  0.00     0.124 S 
ATOM     74  O   UNL A   1      43.203  18.421  25.099  1.00  0.00    -0.237 OA
ATOM     75  O   UNL A   1      42.477  18.275  27.456  1.00  0.00    -0.237 OA
ATOM     76  O   UNL A   1      40.897  19.044  25.725  1.00  0.00    -0.744 OA
ENDBRANCH  72  73
ENDBRANCH  51  65
BRANCH  52  77
ATOM     77  C   UNL A   1      46.564  32.623  28.526  1.00  0.00     0.058 A 
ATOM     78  C   UNL A   1      46.563  33.607  27.526  1.00  0.00     0.135 A 
ATOM     79  C   UNL A   1      46.976  32.996  29.814  1.00  0.00     0.135 A 
ATOM     80  F   UNL A   1      46.183  33.295  26.278  1.00  0.00    -0.206 F 
ATOM     81  C   UNL A   1      46.970  34.911  27.789  1.00  0.00     0.059 A 
ATOM     82  C   UNL A   1      47.366  34.300  30.106  1.00  0.00     0.059 A 
ATOM     83  F   UNL A   1      46.977  32.094  30.808  1.00  0.00    -0.206 F 
ATOM     84  C   UNL A   1      47.369  35.247  29.084  1.00  0.00     0.060 A 
BRANCH  84  85
ATOM     85  S   UNL A   1      47.845  36.956  29.427  1.00  0.00     0.124 S 
ATOM     86  O   UNL A   1      47.801  36.989  30.879  1.00  0.00    -0.237 OA
ATOM     87  O   UNL A   1      49.172  37.034  28.821  1.00  0.00    -0.237 OA
ATOM     88  O   UNL A   1      46.811  37.732  28.742  1.00  0.00    -0.744 OA
ENDBRANCH  84  85
ENDBRANCH  52  77
BRANCH  64  89
ATOM     89  C   UNL A   1      49.825  26.975  26.062  1.00  0.00     0.058 A 
ATOM     90  C   UNL A   1      50.180  27.119  24.712  1.00  0.00     0.135 A 
ATOM     91  C   UNL A   1      50.838  26.648  26.978  1.00  0.00     0.135 A 
ATOM     92  F   UNL A   1      49.248  27.423  23.797  1.00  0.00    -0.206 F 
ATOM     93  C   UNL A   1      51.491  26.932  24.284  1.00  0.00     0.059 A 
ATOM     94  C   UNL A   1      52.159  26.478  26.575  1.00  0.00     0.059 A 
ATOM     95  F   UNL A   1      50.551  26.508  28.281  1.00  0.00    -0.206 F 
ATOM     96  C   UNL A   1      52.473  26.611  25.223  1.00  0.00     0.060 A 
BRANCH  96  97
ATOM     97  S   UNL A   1      54.178  26.407  24.663  1.00  0.00     0.124 S 
ATOM     98  O   UNL A   1      54.123  27.006  23.334  1.00  0.00    -0.237 OA
ATOM     99  O   UNL A   1      54.932  27.154  25.665  1.00  0.00    -0.237 OA
ATOM    100  O   UNL A   1      54.373  24.960  24.692  1.00  0.00    -0.744 OA
ENDBRANCH  96  97
ENDBRANCH  64  89
ENDBRANCH  38  39
ENDBRANCH  30  33
ENDBRANCH  28  29
ENDBRANCH  27  28
ENDBRANCH  26  27
ENDBRANCH   1  26
TORSDOF 21
ENDMDL
