MODEL 1
REMARK VINA RESULT:     -12.5      0.000      0.000
REMARK SMILES O=C(NCCCCCCNC(=O)c1ccc(-c2c3nc(c(-c4c(F)cc(S(=O)(=O)[O-])cc4F)c4ccc([nH]4)c(-c4c(F)cc(S(=O)(=O)[O-])cc4F)c4nc(c(-c5c(F)cc(S(=O)(=O)[O-])cc5F)c5ccc2[nH]5)C=C4)C=C3)cc1)C1=Cc2cc(S(F)(F)(F)(F)F)ccc2O[C@@H]1C(F)(F)F
REMARK SMILES IDX 7 1 6 2 5 3 4 4 3 5 1 6 2 7 79 9 80 10 94 11 81 12 93 13
REMARK SMILES IDX 82 14 92 15 83 16 91 17 90 18 95 19 96 20 97 21 98 22 84 23
REMARK SMILES IDX 85 24 86 25 87 26 88 27 89 28 8 29 9 30 10 31 11 32 12 34
REMARK SMILES IDX 13 35 14 36 78 37 15 38 77 39 16 40 17 41 18 42 71 43 19 44
REMARK SMILES IDX 76 45 70 46 72 47 20 48 75 49 69 50 68 51 21 53 55 54 34 55
REMARK SMILES IDX 54 56 35 57 38 58 53 59 73 60 36 61 37 62 52 64 74 65 39 66
REMARK SMILES IDX 22 67 23 68 32 69 24 70 25 71 31 72 33 73 26 74 27 75 28 76
REMARK SMILES IDX 29 77 30 78 56 79 57 80 66 81 58 82 59 83 65 84 67 85 60 86
REMARK SMILES IDX 61 87 62 88 63 89 64 90 40 91 41 92 50 93 42 94 43 95 49 96
REMARK SMILES IDX 51 97 44 98 45 99 46 100 47 101 48 102
REMARK H PARENT 3 8 10 33 72 52 38 63
REMARK Flexibility Score: inf
ROOT
ATOM      1  C   UNL A   1      34.420  32.102  28.532  1.00  0.00     0.002 C 
ENDROOT
BRANCH   1   2
ATOM      2  C   UNL A   1      33.958  31.045  27.542  1.00  0.00     0.002 C 
BRANCH   2   3
ATOM      3  C   UNL A   1      35.002  29.944  27.452  1.00  0.00     0.021 C 
BRANCH   3   4
ATOM      4  C   UNL A   1      34.402  28.732  26.760  1.00  0.00     0.116 C 
BRANCH   4   5
ATOM      5  N   UNL A   1      33.197  28.301  27.484  1.00  0.00    -0.352 N 
ATOM      6  O   UNL A   1      30.916  27.646  27.371  1.00  0.00    -0.270 OA
ATOM      7  C   UNL A   1      31.958  28.018  26.746  1.00  0.00     0.251 C 
ATOM      8  H   UNL A   1      33.220  28.201  28.463  1.00  0.00     0.163 HD
BRANCH   7   9
ATOM      9  C   UNL A   1      31.922  28.171  25.234  1.00  0.00     0.067 C 
ATOM     10  C   UNL A   1      32.501  27.230  24.441  1.00  0.00     0.025 C 
ATOM     11  C   UNL A   1      31.238  29.376  24.608  1.00  0.00     0.314 C 
ATOM     12  C   UNL A   1      33.184  26.025  25.067  1.00  0.00     0.019 A 
ATOM     13  O   UNL A   1      31.389  26.032  26.625  1.00  0.00    -0.475 OA
ATOM     14  C   UNL A   1      34.387  25.532  24.588  1.00  0.00     0.036 A 
ATOM     15  C   UNL A   1      32.532  25.416  26.051  1.00  0.00     0.128 A 
ATOM     16  C   UNL A   1      34.681  24.217  25.021  1.00  0.00     0.107 A 
ATOM     17  C   UNL A   1      32.955  24.194  26.519  1.00  0.00     0.048 A 
ATOM     18  C   UNL A   1      34.103  23.620  26.048  1.00  0.00     0.028 A 
BRANCH  11  19
ATOM     19  C   UNL A   1      30.106  28.906  23.709  1.00  0.00     0.429 C 
ATOM     20  F   UNL A   1      29.557  27.810  24.224  1.00  0.00    -0.167 F 
ATOM     21  F   UNL A   1      29.187  29.863  23.617  1.00  0.00    -0.167 F 
ATOM     22  F   UNL A   1      30.585  28.635  22.499  1.00  0.00    -0.167 F 
ENDBRANCH  11  19
BRANCH  16  23
ATOM     23  S   UNL A   1      35.935  23.290  24.105  1.00  0.00     0.310 S 
ATOM     24  F   UNL A   1      35.798  22.030  25.058  1.00  0.00    -0.094 F 
ATOM     25  F   UNL A   1      37.025  23.839  25.102  1.00  0.00    -0.094 F 
ATOM     26  F   UNL A   1      37.016  22.498  23.315  1.00  0.00    -0.094 F 
ATOM     27  F   UNL A   1      34.813  22.640  23.203  1.00  0.00    -0.094 F 
ATOM     28  F   UNL A   1      34.815  23.998  24.964  1.00  0.00    -0.094 F 
ENDBRANCH  16  23
ENDBRANCH   7   9
ENDBRANCH   4   5
ENDBRANCH   3   4
ENDBRANCH   2   3
ENDBRANCH   1   2
BRANCH   1  29
ATOM     29  C   UNL A   1      35.821  32.562  28.164  1.00  0.00     0.021 C 
BRANCH  29  30
ATOM     30  C   UNL A   1      36.703  32.542  29.402  1.00  0.00     0.116 C 
BRANCH  30  31
ATOM     31  N   UNL A   1      36.071  31.713  30.440  1.00  0.00    -0.352 N 
ATOM     32  C   UNL A   1      36.769  30.529  30.960  1.00  0.00     0.251 C 
ATOM     33  H   UNL A   1      35.180  31.951  30.785  1.00  0.00     0.163 HD
ATOM     34  O   UNL A   1      36.223  29.812  31.857  1.00  0.00    -0.269 OA
BRANCH  32  35
ATOM     35  C   UNL A   1      38.144  30.160  30.427  1.00  0.00     0.039 A 
ATOM     36  C   UNL A   1      39.232  30.175  31.284  1.00  0.00     0.014 A 
ATOM     37  C   UNL A   1      38.278  29.829  29.148  1.00  0.00     0.014 A 
ATOM     38  C   UNL A   1      40.481  30.103  30.625  1.00  0.00     0.010 A 
ATOM     39  C   UNL A   1      39.524  29.641  28.602  1.00  0.00     0.010 A 
ATOM     40  C   UNL A   1      40.649  29.700  29.378  1.00  0.00    -0.014 A 
BRANCH  40  41
ATOM     41  C   UNL A   1      42.018  29.321  28.836  1.00  0.00     0.031 A 
ATOM     42  C   UNL A   1      42.990  30.318  28.752  1.00  0.00     0.074 A 
ATOM     43  C   UNL A   1      42.223  28.005  28.454  1.00  0.00     0.049 A 
ATOM     44  N   UNL A   1      44.251  30.192  28.340  1.00  0.00    -0.248 NA
ATOM     45  C   UNL A   1      42.762  31.723  29.124  1.00  0.00     0.031 C 
ATOM     46  C   UNL A   1      41.250  26.991  28.544  1.00  0.00     0.029 A 
ATOM     47  N   UNL A   1      43.368  27.447  27.933  1.00  0.00    -0.354 N 
ATOM     48  C   UNL A   1      44.883  31.366  28.420  1.00  0.00     0.074 A 
ATOM     49  C   UNL A   1      43.931  32.368  28.919  1.00  0.00     0.031 C 
ATOM     50  C   UNL A   1      41.797  25.840  28.072  1.00  0.00     0.029 A 
ATOM     51  C   UNL A   1      43.121  26.115  27.681  1.00  0.00     0.049 A 
ATOM     52  H   UNL A   1      44.217  27.917  27.768  1.00  0.00     0.167 HD
ATOM     53  C   UNL A   1      46.213  31.639  28.098  1.00  0.00     0.037 A 
ATOM     54  C   UNL A   1      43.987  25.178  27.139  1.00  0.00     0.037 A 
ATOM     55  C   UNL A   1      47.092  30.692  27.596  1.00  0.00     0.049 A 
ATOM     56  C   UNL A   1      45.301  25.465  26.761  1.00  0.00     0.074 A 
ATOM     57  C   UNL A   1      48.438  30.948  27.273  1.00  0.00     0.029 A 
ATOM     58  N   UNL A   1      46.837  29.366  27.321  1.00  0.00    -0.354 N 
ATOM     59  N   UNL A   1      45.942  26.629  26.877  1.00  0.00    -0.248 NA
ATOM     60  C   UNL A   1      46.217  24.489  26.156  1.00  0.00     0.031 C 
ATOM     61  C   UNL A   1      48.985  29.797  26.801  1.00  0.00     0.029 A 
ATOM     62  C   UNL A   1      47.989  28.801  26.821  1.00  0.00     0.049 A 
ATOM     63  H   UNL A   1      45.979  28.903  27.459  1.00  0.00     0.167 HD
ATOM     64  C   UNL A   1      47.193  26.511  26.427  1.00  0.00     0.074 A 
ATOM     65  C   UNL A   1      47.386  25.136  25.950  1.00  0.00     0.031 C 
ATOM     66  C   UNL A   1      48.182  27.496  26.397  1.00  0.00     0.037 A 
BRANCH  53  67
ATOM     67  C   UNL A   1      46.726  33.054  28.308  1.00  0.00     0.058 A 
ATOM     68  C   UNL A   1      46.550  34.040  27.352  1.00  0.00     0.135 A 
ATOM     69  C   UNL A   1      47.313  33.318  29.470  1.00  0.00     0.135 A 
ATOM     70  F   UNL A   1      45.755  33.894  26.296  1.00  0.00    -0.206 F 
ATOM     71  C   UNL A   1      47.292  35.219  27.600  1.00  0.00     0.059 A 
ATOM     72  C   UNL A   1      47.900  34.539  29.695  1.00  0.00     0.059 A 
ATOM     73  F   UNL A   1      47.333  32.391  30.424  1.00  0.00    -0.206 F 
ATOM     74  C   UNL A   1      47.817  35.541  28.769  1.00  0.00     0.060 A 
BRANCH  74  75
ATOM     75  S   UNL A   1      48.393  37.219  29.125  1.00  0.00     0.124 S 
ATOM     76  O   UNL A   1      48.122  38.119  27.916  1.00  0.00    -0.237 OA
ATOM     77  O   UNL A   1      47.649  37.767  30.345  1.00  0.00    -0.237 OA
ATOM     78  O   UNL A   1      50.072  37.188  29.447  1.00  0.00    -0.744 OA
ENDBRANCH  74  75
ENDBRANCH  53  67
BRANCH  54  79
ATOM     79  C   UNL A   1      43.478  23.759  26.944  1.00  0.00     0.058 A 
ATOM     80  C   UNL A   1      42.974  23.427  25.698  1.00  0.00     0.135 A 
ATOM     81  C   UNL A   1      43.471  22.887  27.945  1.00  0.00     0.135 A 
ATOM     82  F   UNL A   1      43.184  24.163  24.611  1.00  0.00    -0.206 F 
ATOM     83  C   UNL A   1      42.214  22.233  25.687  1.00  0.00     0.059 A 
ATOM     84  C   UNL A   1      42.825  21.681  27.818  1.00  0.00     0.059 A 
ATOM     85  F   UNL A   1      44.097  23.183  29.082  1.00  0.00    -0.206 F 
ATOM     86  C   UNL A   1      42.253  21.312  26.632  1.00  0.00     0.060 A 
BRANCH  86  87
ATOM     87  S   UNL A   1      41.583  19.651  26.373  1.00  0.00     0.124 S 
ATOM     88  O   UNL A   1      42.366  18.953  25.258  1.00  0.00    -0.237 OA
ATOM     89  O   UNL A   1      41.709  18.843  27.667  1.00  0.00    -0.237 OA
ATOM     90  O   UNL A   1      39.935  19.763  25.928  1.00  0.00    -0.744 OA
ENDBRANCH  86  87
ENDBRANCH  54  79
BRANCH  66  91
ATOM     91  C   UNL A   1      49.556  27.112  25.870  1.00  0.00     0.058 A 
ATOM     92  C   UNL A   1      50.508  26.620  26.747  1.00  0.00     0.135 A 
ATOM     93  C   UNL A   1      49.820  27.256  24.577  1.00  0.00     0.135 A 
ATOM     94  F   UNL A   1      50.219  26.224  27.983  1.00  0.00    -0.206 F 
ATOM     95  C   UNL A   1      51.815  26.577  26.209  1.00  0.00     0.059 A 
ATOM     96  C   UNL A   1      51.093  27.065  24.097  1.00  0.00     0.059 A 
ATOM     97  F   UNL A   1      48.842  27.586  23.737  1.00  0.00    -0.206 F 
ATOM     98  C   UNL A   1      52.097  26.637  24.920  1.00  0.00     0.060 A 
BRANCH  98  99
ATOM     99  S   UNL A   1      53.725  26.174  24.278  1.00  0.00     0.124 S 
ATOM    100  O   UNL A   1      54.780  27.142  24.818  1.00  0.00    -0.237 OA
ATOM    101  O   UNL A   1      54.064  24.749  24.723  1.00  0.00    -0.237 OA
ATOM    102  O   UNL A   1      53.705  26.246  22.569  1.00  0.00    -0.744 OA
ENDBRANCH  98  99
ENDBRANCH  66  91
ENDBRANCH  40  41
ENDBRANCH  32  35
ENDBRANCH  30  31
ENDBRANCH  29  30
ENDBRANCH   1  29
TORSDOF 18
ENDMDL
MODEL 2
REMARK VINA RESULT:     -12.4      0.386      8.012
REMARK SMILES O=C(NCCCCCCNC(=O)c1ccc(-c2c3nc(c(-c4c(F)cc(S(=O)(=O)[O-])cc4F)c4ccc([nH]4)c(-c4c(F)cc(S(=O)(=O)[O-])cc4F)c4nc(c(-c5c(F)cc(S(=O)(=O)[O-])cc5F)c5ccc2[nH]5)C=C4)C=C3)cc1)C1=Cc2cc(S(F)(F)(F)(F)F)ccc2O[C@@H]1C(F)(F)F
REMARK SMILES IDX 7 1 6 2 5 3 4 4 3 5 1 6 2 7 79 9 80 10 94 11 81 12 93 13
REMARK SMILES IDX 82 14 92 15 83 16 91 17 90 18 95 19 96 20 97 21 98 22 84 23
REMARK SMILES IDX 85 24 86 25 87 26 88 27 89 28 8 29 9 30 10 31 11 32 12 34
REMARK SMILES IDX 13 35 14 36 78 37 15 38 77 39 16 40 17 41 18 42 71 43 19 44
REMARK SMILES IDX 76 45 70 46 72 47 20 48 75 49 69 50 68 51 21 53 55 54 34 55
REMARK SMILES IDX 54 56 35 57 38 58 53 59 73 60 36 61 37 62 52 64 74 65 39 66
REMARK SMILES IDX 22 67 23 68 32 69 24 70 25 71 31 72 33 73 26 74 27 75 28 76
REMARK SMILES IDX 29 77 30 78 56 79 57 80 66 81 58 82 59 83 65 84 67 85 60 86
REMARK SMILES IDX 61 87 62 88 63 89 64 90 40 91 41 92 50 93 42 94 43 95 49 96
REMARK SMILES IDX 51 97 44 98 45 99 46 100 47 101 48 102
REMARK H PARENT 3 8 10 33 72 52 38 63
REMARK Flexibility Score: inf
ROOT
ATOM      1  C   UNL A   1      34.294  32.262  28.471  1.00  0.00     0.002 C 
ENDROOT
BRANCH   1   2
ATOM      2  C   UNL A   1      33.876  31.130  27.547  1.00  0.00     0.002 C 
BRANCH   2   3
ATOM      3  C   UNL A   1      34.922  30.029  27.589  1.00  0.00     0.021 C 
BRANCH   3   4
ATOM      4  C   UNL A   1      34.396  28.801  26.865  1.00  0.00     0.116 C 
BRANCH   4   5
ATOM      5  N   UNL A   1      33.192  28.309  27.549  1.00  0.00    -0.352 N 
ATOM      6  O   UNL A   1      30.934  27.592  27.368  1.00  0.00    -0.270 OA
ATOM      7  C   UNL A   1      31.975  28.018  26.777  1.00  0.00     0.251 C 
ATOM      8  H   UNL A   1      33.199  28.173  28.525  1.00  0.00     0.163 HD
BRANCH   7   9
ATOM      9  C   UNL A   1      31.963  28.226  25.271  1.00  0.00     0.067 C 
ATOM     10  C   UNL A   1      32.531  27.302  24.452  1.00  0.00     0.025 C 
ATOM     11  C   UNL A   1      31.314  29.468  24.682  1.00  0.00     0.314 C 
ATOM     12  C   UNL A   1      33.179  26.059  25.042  1.00  0.00     0.019 A 
ATOM     13  O   UNL A   1      31.365  26.050  26.577  1.00  0.00    -0.475 OA
ATOM     14  C   UNL A   1      34.378  25.558  24.560  1.00  0.00     0.036 A 
ATOM     15  C   UNL A   1      32.502  25.430  25.995  1.00  0.00     0.128 A 
ATOM     16  C   UNL A   1      34.637  24.222  24.949  1.00  0.00     0.107 A 
ATOM     17  C   UNL A   1      32.891  24.183  26.423  1.00  0.00     0.048 A 
ATOM     18  C   UNL A   1      34.033  23.601  25.946  1.00  0.00     0.028 A 
BRANCH  11  19
ATOM     19  C   UNL A   1      30.184  29.057  23.752  1.00  0.00     0.429 C 
ATOM     20  F   UNL A   1      29.676  27.896  24.158  1.00  0.00    -0.167 F 
ATOM     21  F   UNL A   1      29.234  29.988  23.770  1.00  0.00    -0.167 F 
ATOM     22  F   UNL A   1      30.653  28.926  22.515  1.00  0.00    -0.167 F 
ENDBRANCH  11  19
BRANCH  16  23
ATOM     23  S   UNL A   1      35.883  23.300  24.015  1.00  0.00     0.310 S 
ATOM     24  F   UNL A   1      35.689  22.003  24.905  1.00  0.00    -0.094 F 
ATOM     25  F   UNL A   1      36.967  23.771  25.057  1.00  0.00    -0.094 F 
ATOM     26  F   UNL A   1      36.957  22.514  23.210  1.00  0.00    -0.094 F 
ATOM     27  F   UNL A   1      34.761  22.726  23.062  1.00  0.00    -0.094 F 
ATOM     28  F   UNL A   1      34.766  24.002  24.884  1.00  0.00    -0.094 F 
ENDBRANCH  16  23
ENDBRANCH   7   9
ENDBRANCH   4   5
ENDBRANCH   3   4
ENDBRANCH   2   3
ENDBRANCH   1   2
BRANCH   1  29
ATOM     29  C   UNL A   1      35.668  32.767  28.064  1.00  0.00     0.021 C 
BRANCH  29  30
ATOM     30  C   UNL A   1      36.546  32.897  29.298  1.00  0.00     0.116 C 
BRANCH  30  31
ATOM     31  N   UNL A   1      35.947  32.142  30.408  1.00  0.00    -0.352 N 
ATOM     32  C   UNL A   1      36.663  30.997  30.989  1.00  0.00     0.251 C 
ATOM     33  H   UNL A   1      35.065  32.402  30.761  1.00  0.00     0.163 HD
ATOM     34  O   UNL A   1      36.144  30.343  31.948  1.00  0.00    -0.269 OA
BRANCH  32  35
ATOM     35  C   UNL A   1      38.024  30.594  30.444  1.00  0.00     0.039 A 
ATOM     36  C   UNL A   1      38.210  30.512  29.074  1.00  0.00     0.014 A 
ATOM     37  C   UNL A   1      39.011  30.330  31.292  1.00  0.00     0.014 A 
ATOM     38  C   UNL A   1      39.405  29.856  28.697  1.00  0.00     0.010 A 
ATOM     39  C   UNL A   1      40.202  29.816  30.839  1.00  0.00     0.010 A 
ATOM     40  C   UNL A   1      40.434  29.652  29.501  1.00  0.00    -0.014 A 
BRANCH  40  41
ATOM     41  C   UNL A   1      41.802  29.256  28.968  1.00  0.00     0.031 A 
ATOM     42  C   UNL A   1      42.002  27.925  28.599  1.00  0.00     0.074 A 
ATOM     43  C   UNL A   1      42.773  30.239  28.879  1.00  0.00     0.049 A 
ATOM     44  N   UNL A   1      43.105  27.382  28.083  1.00  0.00    -0.248 NA
ATOM     45  C   UNL A   1      40.983  26.873  28.726  1.00  0.00     0.031 C 
ATOM     46  C   UNL A   1      42.575  31.586  29.241  1.00  0.00     0.029 A 
ATOM     47  N   UNL A   1      44.070  30.107  28.438  1.00  0.00    -0.354 N 
ATOM     48  C   UNL A   1      42.909  26.083  27.841  1.00  0.00     0.074 A 
ATOM     49  C   UNL A   1      41.544  25.737  28.257  1.00  0.00     0.031 C 
ATOM     50  C   UNL A   1      43.741  32.253  29.033  1.00  0.00     0.029 A 
ATOM     51  C   UNL A   1      44.686  31.335  28.536  1.00  0.00     0.049 A 
ATOM     52  H   UNL A   1      44.487  29.278  28.110  1.00  0.00     0.167 HD
ATOM     53  C   UNL A   1      43.815  25.176  27.288  1.00  0.00     0.037 A 
ATOM     54  C   UNL A   1      45.996  31.657  28.218  1.00  0.00     0.037 A 
ATOM     55  C   UNL A   1      45.112  25.508  26.930  1.00  0.00     0.049 A 
ATOM     56  C   UNL A   1      46.920  30.737  27.720  1.00  0.00     0.074 A 
ATOM     57  C   UNL A   1      46.036  24.609  26.364  1.00  0.00     0.029 A 
ATOM     58  N   UNL A   1      45.735  26.732  27.051  1.00  0.00    -0.354 N 
ATOM     59  N   UNL A   1      46.712  29.448  27.442  1.00  0.00    -0.248 NA
ATOM     60  C   UNL A   1      48.319  31.057  27.410  1.00  0.00     0.031 C 
ATOM     61  C   UNL A   1      47.202  25.276  26.156  1.00  0.00     0.029 A 
ATOM     62  C   UNL A   1      47.026  26.604  26.589  1.00  0.00     0.049 A 
ATOM     63  H   UNL A   1      45.326  27.554  27.406  1.00  0.00     0.167 HD
ATOM     64  C   UNL A   1      47.829  28.896  26.963  1.00  0.00     0.074 A 
ATOM     65  C   UNL A   1      48.881  29.920  26.942  1.00  0.00     0.031 C 
ATOM     66  C   UNL A   1      48.012  27.577  26.540  1.00  0.00     0.037 A 
BRANCH  53  67
ATOM     67  C   UNL A   1      43.353  23.746  27.068  1.00  0.00     0.058 A 
ATOM     68  C   UNL A   1      43.389  22.806  28.084  1.00  0.00     0.135 A 
ATOM     69  C   UNL A   1      42.871  23.444  25.868  1.00  0.00     0.135 A 
ATOM     70  F   UNL A   1      43.620  23.121  29.356  1.00  0.00    -0.206 F 
ATOM     71  C   UNL A   1      43.156  21.480  27.649  1.00  0.00     0.059 A 
ATOM     72  C   UNL A   1      42.536  22.149  25.554  1.00  0.00     0.059 A 
ATOM     73  F   UNL A   1      42.711  24.404  24.961  1.00  0.00    -0.206 F 
ATOM     74  C   UNL A   1      42.602  21.158  26.494  1.00  0.00     0.060 A 
BRANCH  74  75
ATOM     75  S   UNL A   1      41.968  19.494  26.172  1.00  0.00     0.124 S 
ATOM     76  O   UNL A   1      40.463  19.566  25.900  1.00  0.00    -0.237 OA
ATOM     77  O   UNL A   1      42.679  18.904  24.951  1.00  0.00    -0.237 OA
ATOM     78  O   UNL A   1      42.254  18.502  27.534  1.00  0.00    -0.744 OA
ENDBRANCH  74  75
ENDBRANCH  53  67
BRANCH  54  79
ATOM     79  C   UNL A   1      46.452  33.092  28.423  1.00  0.00     0.058 A 
ATOM     80  C   UNL A   1      46.337  33.958  27.347  1.00  0.00     0.135 A 
ATOM     81  C   UNL A   1      46.986  33.488  29.571  1.00  0.00     0.135 A 
ATOM     82  F   UNL A   1      45.592  33.692  26.278  1.00  0.00    -0.206 F 
ATOM     83  C   UNL A   1      47.084  35.151  27.490  1.00  0.00     0.059 A 
ATOM     84  C   UNL A   1      47.580  34.723  29.678  1.00  0.00     0.059 A 
ATOM     85  F   UNL A   1      46.945  32.683  30.630  1.00  0.00    -0.206 F 
ATOM     86  C   UNL A   1      47.556  35.607  28.636  1.00  0.00     0.060 A 
BRANCH  86  87
ATOM     87  S   UNL A   1      48.140  37.310  28.817  1.00  0.00     0.124 S 
ATOM     88  O   UNL A   1      49.139  37.388  29.973  1.00  0.00    -0.237 OA
ATOM     89  O   UNL A   1      48.823  37.755  27.521  1.00  0.00    -0.237 OA
ATOM     90  O   UNL A   1      46.811  38.337  29.141  1.00  0.00    -0.744 OA
ENDBRANCH  86  87
ENDBRANCH  54  79
BRANCH  66  91
ATOM     91  C   UNL A   1      49.375  27.186  25.991  1.00  0.00     0.058 A 
ATOM     92  C   UNL A   1      49.608  27.267  24.629  1.00  0.00     0.135 A 
ATOM     93  C   UNL A   1      50.319  26.774  26.829  1.00  0.00     0.135 A 
ATOM     94  F   UNL A   1      48.795  27.903  23.791  1.00  0.00    -0.206 F 
ATOM     95  C   UNL A   1      50.788  26.610  24.209  1.00  0.00     0.059 A 
ATOM     96  C   UNL A   1      51.505  26.269  26.352  1.00  0.00     0.059 A 
ATOM     97  F   UNL A   1      50.116  26.851  28.142  1.00  0.00    -0.206 F 
ATOM     98  C   UNL A   1      51.777  26.262  25.012  1.00  0.00     0.060 A 
BRANCH  98  99
ATOM     99  S   UNL A   1      53.408  25.804  24.374  1.00  0.00     0.124 S 
ATOM    100  O   UNL A   1      53.736  24.369  24.797  1.00  0.00    -0.237 OA
ATOM    101  O   UNL A   1      53.402  25.896  22.846  1.00  0.00    -0.237 OA
ATOM    102  O   UNL A   1      54.588  26.869  25.004  1.00  0.00    -0.744 OA
ENDBRANCH  98  99
ENDBRANCH  66  91
ENDBRANCH  40  41
ENDBRANCH  32  35
ENDBRANCH  30  31
ENDBRANCH  29  30
ENDBRANCH   1  29
TORSDOF 18
ENDMDL
MODEL 3
REMARK VINA RESULT:     -12.4      2.788      8.473
REMARK SMILES O=C(NCCCCCCNC(=O)c1ccc(-c2c3nc(c(-c4c(F)cc(S(=O)(=O)[O-])cc4F)c4ccc([nH]4)c(-c4c(F)cc(S(=O)(=O)[O-])cc4F)c4nc(c(-c5c(F)cc(S(=O)(=O)[O-])cc5F)c5ccc2[nH]5)C=C4)C=C3)cc1)C1=Cc2cc(S(F)(F)(F)(F)F)ccc2O[C@@H]1C(F)(F)F
REMARK SMILES IDX 7 1 6 2 5 3 4 4 3 5 1 6 2 7 79 9 80 10 94 11 81 12 93 13
REMARK SMILES IDX 82 14 92 15 83 16 91 17 90 18 95 19 96 20 97 21 98 22 84 23
REMARK SMILES IDX 85 24 86 25 87 26 88 27 89 28 8 29 9 30 10 31 11 32 12 34
REMARK SMILES IDX 13 35 14 36 78 37 15 38 77 39 16 40 17 41 18 42 71 43 19 44
REMARK SMILES IDX 76 45 70 46 72 47 20 48 75 49 69 50 68 51 21 53 55 54 34 55
REMARK SMILES IDX 54 56 35 57 38 58 53 59 73 60 36 61 37 62 52 64 74 65 39 66
REMARK SMILES IDX 22 67 23 68 32 69 24 70 25 71 31 72 33 73 26 74 27 75 28 76
REMARK SMILES IDX 29 77 30 78 56 79 57 80 66 81 58 82 59 83 65 84 67 85 60 86
REMARK SMILES IDX 61 87 62 88 63 89 64 90 40 91 41 92 50 93 42 94 43 95 49 96
REMARK SMILES IDX 51 97 44 98 45 99 46 100 47 101 48 102
REMARK H PARENT 3 8 10 33 72 52 38 63
REMARK Flexibility Score: inf
ROOT
ATOM      1  C   UNL A   1      36.768  20.805  25.248  1.00  0.00     0.002 C 
ENDROOT
BRANCH   1   2
ATOM      2  C   UNL A   1      36.943  22.282  24.936  1.00  0.00     0.002 C 
BRANCH   2   3
ATOM      3  C   UNL A   1      36.663  22.526  23.462  1.00  0.00     0.021 C 
BRANCH   3   4
ATOM      4  C   UNL A   1      35.424  23.394  23.318  1.00  0.00     0.116 C 
BRANCH   4   5
ATOM      5  N   UNL A   1      35.096  23.999  24.617  1.00  0.00    -0.352 N 
ATOM      6  O   UNL A   1      33.418  24.849  26.068  1.00  0.00    -0.270 OA
ATOM      7  C   UNL A   1      33.702  24.326  24.945  1.00  0.00     0.251 C 
ATOM      8  H   UNL A   1      35.812  24.185  25.269  1.00  0.00     0.163 HD
BRANCH   7   9
ATOM      9  C   UNL A   1      32.597  24.039  23.940  1.00  0.00     0.067 C 
ATOM     10  C   UNL A   1      32.191  22.759  23.724  1.00  0.00     0.025 C 
ATOM     11  C   UNL A   1      31.947  25.182  23.179  1.00  0.00     0.314 C 
ATOM     12  C   UNL A   1      32.842  21.616  24.486  1.00  0.00     0.019 A 
ATOM     13  O   UNL A   1      32.834  23.084  26.355  1.00  0.00    -0.475 OA
ATOM     14  C   UNL A   1      33.162  20.415  23.875  1.00  0.00     0.036 A 
ATOM     15  C   UNL A   1      33.020  21.795  25.790  1.00  0.00     0.128 A 
ATOM     16  C   UNL A   1      33.397  19.355  24.782  1.00  0.00     0.107 A 
ATOM     17  C   UNL A   1      33.383  20.744  26.597  1.00  0.00     0.048 A 
ATOM     18  C   UNL A   1      33.657  19.513  26.068  1.00  0.00     0.028 A 
BRANCH  11  19
ATOM     19  C   UNL A   1      30.458  25.212  23.484  1.00  0.00     0.429 C 
ATOM     20  F   UNL A   1      29.950  26.380  23.099  1.00  0.00    -0.167 F 
ATOM     21  F   UNL A   1      29.851  24.226  22.830  1.00  0.00    -0.167 F 
ATOM     22  F   UNL A   1      30.271  25.057  24.791  1.00  0.00    -0.167 F 
ENDBRANCH  11  19
BRANCH  16  23
ATOM     23  S   UNL A   1      33.339  17.665  24.137  1.00  0.00     0.310 S 
ATOM     24  F   UNL A   1      33.039  18.166  22.663  1.00  0.00    -0.094 F 
ATOM     25  F   UNL A   1      31.781  17.661  24.378  1.00  0.00    -0.094 F 
ATOM     26  F   UNL A   1      33.286  16.211  23.589  1.00  0.00    -0.094 F 
ATOM     27  F   UNL A   1      34.874  17.738  23.773  1.00  0.00    -0.094 F 
ATOM     28  F   UNL A   1      33.388  19.179  24.587  1.00  0.00    -0.094 F 
ENDBRANCH  16  23
ENDBRANCH   7   9
ENDBRANCH   4   5
ENDBRANCH   3   4
ENDBRANCH   2   3
ENDBRANCH   1   2
BRANCH   1  29
ATOM     29  C   UNL A   1      38.014  20.046  24.821  1.00  0.00     0.021 C 
BRANCH  29  30
ATOM     30  C   UNL A   1      39.144  20.340  25.795  1.00  0.00     0.116 C 
BRANCH  30  31
ATOM     31  N   UNL A   1      40.052  19.185  25.854  1.00  0.00    -0.352 N 
ATOM     32  C   UNL A   1      41.480  19.386  26.137  1.00  0.00     0.251 C 
ATOM     33  H   UNL A   1      39.703  18.276  25.704  1.00  0.00     0.163 HD
ATOM     34  O   UNL A   1      42.265  18.388  26.189  1.00  0.00    -0.269 OA
BRANCH  32  35
ATOM     35  C   UNL A   1      42.020  20.788  26.369  1.00  0.00     0.039 A 
ATOM     36  C   UNL A   1      42.275  21.607  25.281  1.00  0.00     0.014 A 
ATOM     37  C   UNL A   1      42.236  21.205  27.611  1.00  0.00     0.014 A 
ATOM     38  C   UNL A   1      43.037  22.757  25.596  1.00  0.00     0.010 A 
ATOM     39  C   UNL A   1      42.864  22.403  27.847  1.00  0.00     0.010 A 
ATOM     40  C   UNL A   1      43.200  23.237  26.816  1.00  0.00    -0.014 A 
BRANCH  40  41
ATOM     41  C   UNL A   1      43.731  24.640  27.061  1.00  0.00     0.031 A 
ATOM     42  C   UNL A   1      42.825  25.626  27.453  1.00  0.00     0.074 A 
ATOM     43  C   UNL A   1      45.086  24.862  26.879  1.00  0.00     0.049 A 
ATOM     44  N   UNL A   1      43.085  26.900  27.747  1.00  0.00    -0.248 NA
ATOM     45  C   UNL A   1      41.380  25.400  27.612  1.00  0.00     0.031 C 
ATOM     46  C   UNL A   1      46.008  23.870  26.491  1.00  0.00     0.029 A 
ATOM     47  N   UNL A   1      45.776  26.043  27.033  1.00  0.00    -0.354 N 
ATOM     48  C   UNL A   1      41.963  27.531  28.101  1.00  0.00     0.074 A 
ATOM     49  C   UNL A   1      40.850  26.576  28.013  1.00  0.00     0.031 C 
ATOM     50  C   UNL A   1      47.235  24.448  26.401  1.00  0.00     0.029 A 
ATOM     51  C   UNL A   1      47.100  25.810  26.732  1.00  0.00     0.049 A 
ATOM     52  H   UNL A   1      45.391  26.905  27.310  1.00  0.00     0.167 HD
ATOM     53  C   UNL A   1      41.826  28.863  28.494  1.00  0.00     0.037 A 
ATOM     54  C   UNL A   1      48.146  26.720  26.738  1.00  0.00     0.037 A 
ATOM     55  C   UNL A   1      42.879  29.763  28.541  1.00  0.00     0.049 A 
ATOM     56  C   UNL A   1      47.998  28.067  27.075  1.00  0.00     0.074 A 
ATOM     57  C   UNL A   1      42.759  31.107  28.943  1.00  0.00     0.029 A 
ATOM     58  N   UNL A   1      44.199  29.535  28.217  1.00  0.00    -0.354 N 
ATOM     59  N   UNL A   1      46.883  28.688  27.465  1.00  0.00    -0.248 NA
ATOM     60  C   UNL A   1      49.091  29.048  27.053  1.00  0.00     0.031 C 
ATOM     61  C   UNL A   1      43.986  31.685  28.852  1.00  0.00     0.029 A 
ATOM     62  C   UNL A   1      44.894  30.712  28.393  1.00  0.00     0.049 A 
ATOM     63  H   UNL A   1      44.579  28.680  27.912  1.00  0.00     0.167 HD
ATOM     64  C   UNL A   1      47.138  29.973  27.720  1.00  0.00     0.074 A 
ATOM     65  C   UNL A   1      48.559  30.225  27.452  1.00  0.00     0.031 C 
ATOM     66  C   UNL A   1      46.241  30.945  28.169  1.00  0.00     0.037 A 
BRANCH  53  67
ATOM     67  C   UNL A   1      40.444  29.354  28.892  1.00  0.00     0.058 A 
ATOM     68  C   UNL A   1      39.497  29.705  27.945  1.00  0.00     0.135 A 
ATOM     69  C   UNL A   1      40.166  29.391  30.190  1.00  0.00     0.135 A 
ATOM     70  F   UNL A   1      39.637  29.445  26.648  1.00  0.00    -0.206 F 
ATOM     71  C   UNL A   1      38.365  30.363  28.481  1.00  0.00     0.059 A 
ATOM     72  C   UNL A   1      38.982  29.925  30.637  1.00  0.00     0.059 A 
ATOM     73  F   UNL A   1      41.042  28.907  31.066  1.00  0.00    -0.206 F 
ATOM     74  C   UNL A   1      38.024  30.346  29.757  1.00  0.00     0.060 A 
BRANCH  74  75
ATOM     75  S   UNL A   1      36.377  30.853  30.310  1.00  0.00     0.124 S 
ATOM     76  O   UNL A   1      36.334  32.376  30.455  1.00  0.00    -0.237 OA
ATOM     77  O   UNL A   1      35.334  30.408  29.282  1.00  0.00    -0.237 OA
ATOM     78  O   UNL A   1      36.035  30.128  31.820  1.00  0.00    -0.744 OA
ENDBRANCH  74  75
ENDBRANCH  53  67
BRANCH  54  79
ATOM     79  C   UNL A   1      49.530  26.224  26.356  1.00  0.00     0.058 A 
ATOM     80  C   UNL A   1      50.298  25.644  27.352  1.00  0.00     0.135 A 
ATOM     81  C   UNL A   1      50.005  26.386  25.127  1.00  0.00     0.135 A 
ATOM     82  F   UNL A   1      49.792  25.235  28.512  1.00  0.00    -0.206 F 
ATOM     83  C   UNL A   1      51.670  25.529  27.025  1.00  0.00     0.059 A 
ATOM     84  C   UNL A   1      51.325  26.123  24.846  1.00  0.00     0.059 A 
ATOM     85  F   UNL A   1      49.197  26.805  24.158  1.00  0.00    -0.206 F 
ATOM     86  C   UNL A   1      52.156  25.604  25.800  1.00  0.00     0.060 A 
BRANCH  86  87
ATOM     87  S   UNL A   1      53.834  25.052  25.404  1.00  0.00     0.124 S 
ATOM     88  O   UNL A   1      53.804  23.575  25.002  1.00  0.00    -0.237 OA
ATOM     89  O   UNL A   1      54.385  25.885  24.244  1.00  0.00    -0.237 OA
ATOM     90  O   UNL A   1      54.837  25.249  26.775  1.00  0.00    -0.744 OA
ENDBRANCH  86  87
ENDBRANCH  54  79
BRANCH  66  91
ATOM     91  C   UNL A   1      46.776  32.344  28.429  1.00  0.00     0.058 A 
ATOM     92  C   UNL A   1      46.751  33.282  27.410  1.00  0.00     0.135 A 
ATOM     93  C   UNL A   1      47.259  32.643  29.629  1.00  0.00     0.135 A 
ATOM     94  F   UNL A   1      46.058  33.114  26.288  1.00  0.00    -0.206 F 
ATOM     95  C   UNL A   1      47.530  34.433  27.672  1.00  0.00     0.059 A 
ATOM     96  C   UNL A   1      47.888  33.845  29.850  1.00  0.00     0.059 A 
ATOM     97  F   UNL A   1      47.132  31.773  30.627  1.00  0.00    -0.206 F 
ATOM     98  C   UNL A   1      47.953  34.795  28.869  1.00  0.00     0.060 A 
BRANCH  98  99
ATOM     99  S   UNL A   1      48.584  36.460  29.195  1.00  0.00     0.124 S 
ATOM    100  O   UNL A   1      47.547  37.249  29.999  1.00  0.00    -0.237 OA
ATOM    101  O   UNL A   1      49.885  36.365  29.997  1.00  0.00    -0.237 OA
ATOM    102  O   UNL A   1      48.886  37.257  27.712  1.00  0.00    -0.744 OA
ENDBRANCH  98  99
ENDBRANCH  66  91
ENDBRANCH  40  41
ENDBRANCH  32  35
ENDBRANCH  30  31
ENDBRANCH  29  30
ENDBRANCH   1  29
TORSDOF 18
ENDMDL
