MODEL 1
REMARK VINA RESULT:     -12.3      0.000      0.000
REMARK SMILES C[C@H]1C[N@H+]2CCC[C@@H]2CN1c1cc(Cl)ccc1C(=O)NCCCCCCNC(=O)c1ccc(-c2c3nc(c(-c4c(F)cc(S(=O)(=O)[O-])cc4F)c4ccc([nH]4)c(-c4c(F)cc(S(=O)(=O)[O-])cc4F)c4nc(c(-c5c(F)cc(S(=O)(=O)[O-])cc5F)c5ccc2[nH]5)C=C4)C=C3)cc1
REMARK SMILES IDX 24 1 23 2 22 3 21 4 20 5 18 6 19 7 17 9 11 10 12 11 13 12
REMARK SMILES IDX 16 13 14 14 15 15 10 16 1 17 2 18 3 19 4 20 9 21 5 22 8 23
REMARK SMILES IDX 6 25 7 26 25 27 26 28 27 29 28 30 29 32 30 33 31 34 95 35
REMARK SMILES IDX 32 36 94 37 33 38 34 39 35 40 88 41 36 42 93 43 87 44 89 45
REMARK SMILES IDX 37 46 92 47 86 48 85 49 38 51 72 52 51 53 71 54 52 55 55 56
REMARK SMILES IDX 70 57 90 58 53 59 54 60 69 62 91 63 56 64 39 65 40 66 49 67
REMARK SMILES IDX 41 68 42 69 48 70 50 71 43 72 44 73 45 74 46 75 47 76 73 77
REMARK SMILES IDX 74 78 83 79 75 80 76 81 82 82 84 83 77 84 78 85 79 86 80 87
REMARK SMILES IDX 81 88 57 89 58 90 67 91 59 92 60 93 66 94 68 95 61 96 62 97
REMARK SMILES IDX 63 98 64 99 65 100
REMARK H PARENT 20 8 4 24 27 31 89 50 55 61
REMARK Flexibility Score: inf
ROOT
ATOM      1  C   UNL A   1      39.538  21.851  26.192  1.00  0.00     0.002 C 
ENDROOT
BRANCH   1   2
ATOM      2  C   UNL A   1      38.613  20.941  25.368  1.00  0.00     0.002 C 
BRANCH   2   3
ATOM      3  C   UNL A   1      37.213  21.440  24.977  1.00  0.00     0.021 C 
BRANCH   3   4
ATOM      4  C   UNL A   1      36.716  22.747  25.604  1.00  0.00     0.116 C 
BRANCH   4   5
ATOM      5  N   UNL A   1      35.550  22.706  26.452  1.00  0.00    -0.352 N 
ATOM      6  C   UNL A   1      34.587  21.711  26.545  1.00  0.00     0.253 C 
ATOM      7  O   UNL A   1      34.190  21.484  27.698  1.00  0.00    -0.269 OA
ATOM      8  H   UNL A   1      35.420  23.485  27.041  1.00  0.00     0.163 HD
BRANCH   6   9
ATOM      9  C   UNL A   1      33.845  21.020  25.415  1.00  0.00     0.063 A 
ATOM     10  C   UNL A   1      32.929  21.514  24.453  1.00  0.00     0.052 A 
ATOM     11  C   UNL A   1      32.415  20.617  23.477  1.00  0.00     0.047 A 
ATOM     12  C   UNL A   1      32.781  19.276  23.432  1.00  0.00     0.043 A 
ATOM     13  C   UNL A   1      34.209  19.647  25.320  1.00  0.00     0.017 A 
ATOM     14  Cl  UNL A   1      32.120  18.239  22.229  1.00  0.00    -0.084 Cl
ATOM     15  C   UNL A   1      33.688  18.784  24.350  1.00  0.00     0.021 A 
BRANCH  10  16
ATOM     16  N   UNL A   1      32.543  22.846  24.347  1.00  0.00    -0.357 N 
ATOM     17  C   UNL A   1      30.757  22.659  26.118  1.00  0.00     0.037 C 
ATOM     18  C   UNL A   1      31.178  23.297  24.784  1.00  0.00     0.134 C 
ATOM     19  C   UNL A   1      31.154  24.860  24.952  1.00  0.00     0.287 C 
ATOM     20  N   UNL A   1      31.761  25.587  23.828  1.00  0.00    -0.329 N 
ATOM     21  C   UNL A   1      33.038  23.549  23.137  1.00  0.00     0.182 C 
ATOM     22  C   UNL A   1      32.024  27.003  24.090  1.00  0.00     0.262 C 
ATOM     23  C   UNL A   1      33.081  25.034  23.482  1.00  0.00     0.203 C 
ATOM     24  H   UNL A   1      31.067  25.486  23.087  1.00  0.00     0.348 HD
ATOM     25  C   UNL A   1      33.202  27.344  23.161  1.00  0.00     0.068 C 
ATOM     26  C   UNL A   1      33.545  26.031  22.449  1.00  0.00     0.073 C 
ENDBRANCH  10  16
ENDBRANCH   6   9
ENDBRANCH   4   5
ENDBRANCH   3   4
ENDBRANCH   2   3
ENDBRANCH   1   2
BRANCH   1  27
ATOM     27  C   UNL A   1      41.081  21.772  26.154  1.00  0.00     0.021 C 
BRANCH  27  28
ATOM     28  C   UNL A   1      41.973  22.865  26.757  1.00  0.00     0.116 C 
BRANCH  28  29
ATOM     29  N   UNL A   1      42.017  24.014  25.858  1.00  0.00    -0.352 N 
ATOM     30  C   UNL A   1      41.571  25.305  26.016  1.00  0.00     0.251 C 
ATOM     31  H   UNL A   1      42.438  23.833  24.987  1.00  0.00     0.163 HD
ATOM     32  O   UNL A   1      41.216  25.909  25.002  1.00  0.00    -0.269 OA
BRANCH  30  33
ATOM     33  C   UNL A   1      41.566  26.027  27.321  1.00  0.00     0.039 A 
ATOM     34  C   UNL A   1      40.469  25.832  28.178  1.00  0.00     0.014 A 
ATOM     35  C   UNL A   1      42.483  27.035  27.632  1.00  0.00     0.014 A 
ATOM     36  C   UNL A   1      40.274  26.649  29.301  1.00  0.00     0.010 A 
ATOM     37  C   UNL A   1      42.311  27.826  28.783  1.00  0.00     0.010 A 
ATOM     38  C   UNL A   1      41.185  27.670  29.611  1.00  0.00    -0.014 A 
BRANCH  38  39
ATOM     39  C   UNL A   1      40.910  28.615  30.737  1.00  0.00     0.031 A 
ATOM     40  C   UNL A   1      41.735  28.553  32.005  1.00  0.00     0.074 A 
ATOM     41  C   UNL A   1      39.942  29.546  30.629  1.00  0.00     0.049 A 
ATOM     42  N   UNL A   1      41.647  29.281  33.091  1.00  0.00    -0.248 NA
ATOM     43  C   UNL A   1      42.787  27.526  32.063  1.00  0.00     0.031 C 
ATOM     44  C   UNL A   1      39.057  29.713  29.475  1.00  0.00     0.029 A 
ATOM     45  N   UNL A   1      39.536  30.531  31.500  1.00  0.00    -0.354 N 
ATOM     46  C   UNL A   1      42.629  28.805  33.956  1.00  0.00     0.074 A 
ATOM     47  C   UNL A   1      43.262  27.687  33.291  1.00  0.00     0.031 C 
ATOM     48  C   UNL A   1      38.226  30.746  29.703  1.00  0.00     0.029 A 
ATOM     49  C   UNL A   1      38.500  31.301  31.025  1.00  0.00     0.049 A 
ATOM     50  H   UNL A   1      39.951  30.671  32.382  1.00  0.00     0.167 HD
ATOM     51  C   UNL A   1      42.993  29.269  35.179  1.00  0.00     0.037 A 
ATOM     52  C   UNL A   1      37.844  32.337  31.586  1.00  0.00     0.037 A 
ATOM     53  C   UNL A   1      42.379  30.393  35.841  1.00  0.00     0.049 A 
ATOM     54  C   UNL A   1      38.265  32.832  32.948  1.00  0.00     0.074 A 
ATOM     55  C   UNL A   1      42.678  30.936  37.079  1.00  0.00     0.029 A 
ATOM     56  N   UNL A   1      41.349  31.157  35.313  1.00  0.00    -0.354 N 
ATOM     57  N   UNL A   1      39.210  32.377  33.736  1.00  0.00    -0.248 NA
ATOM     58  C   UNL A   1      37.540  33.991  33.488  1.00  0.00     0.031 C 
ATOM     59  C   UNL A   1      41.815  32.013  37.310  1.00  0.00     0.029 A 
ATOM     60  C   UNL A   1      41.004  32.166  36.198  1.00  0.00     0.049 A 
ATOM     61  H   UNL A   1      40.924  31.004  34.438  1.00  0.00     0.167 HD
ATOM     62  C   UNL A   1      39.214  33.216  34.847  1.00  0.00     0.074 A 
ATOM     63  C   UNL A   1      38.190  34.214  34.622  1.00  0.00     0.031 C 
ATOM     64  C   UNL A   1      39.995  33.166  35.955  1.00  0.00     0.037 A 
BRANCH  51  65
ATOM     65  C   UNL A   1      44.131  28.572  35.881  1.00  0.00     0.058 A 
ATOM     66  C   UNL A   1      43.901  27.485  36.740  1.00  0.00     0.135 A 
ATOM     67  C   UNL A   1      45.463  28.958  35.658  1.00  0.00     0.135 A 
ATOM     68  F   UNL A   1      42.648  27.082  36.998  1.00  0.00    -0.206 F 
ATOM     69  C   UNL A   1      44.948  26.822  37.373  1.00  0.00     0.059 A 
ATOM     70  C   UNL A   1      46.528  28.291  36.260  1.00  0.00     0.059 A 
ATOM     71  F   UNL A   1      45.743  29.986  34.843  1.00  0.00    -0.206 F 
ATOM     72  C   UNL A   1      46.260  27.233  37.127  1.00  0.00     0.060 A 
BRANCH  72  73
ATOM     73  S   UNL A   1      47.605  26.354  37.951  1.00  0.00     0.124 S 
ATOM     74  O   UNL A   1      48.544  26.161  36.850  1.00  0.00    -0.237 OA
ATOM     75  O   UNL A   1      48.018  27.304  38.977  1.00  0.00    -0.237 OA
ATOM     76  O   UNL A   1      46.963  25.139  38.448  1.00  0.00    -0.744 OA
ENDBRANCH  72  73
ENDBRANCH  51  65
BRANCH  52  77
ATOM     77  C   UNL A   1      36.726  33.002  30.863  1.00  0.00     0.058 A 
ATOM     78  C   UNL A   1      36.971  33.970  29.876  1.00  0.00     0.135 A 
ATOM     79  C   UNL A   1      35.387  32.709  31.167  1.00  0.00     0.135 A 
ATOM     80  F   UNL A   1      38.233  34.293  29.554  1.00  0.00    -0.206 F 
ATOM     81  C   UNL A   1      35.935  34.650  29.245  1.00  0.00     0.059 A 
ATOM     82  C   UNL A   1      34.333  33.354  30.529  1.00  0.00     0.059 A 
ATOM     83  F   UNL A   1      35.096  31.779  32.091  1.00  0.00    -0.206 F 
ATOM     84  C   UNL A   1      34.616  34.337  29.582  1.00  0.00     0.060 A 
BRANCH  84  85
ATOM     85  S   UNL A   1      33.274  35.214  28.750  1.00  0.00     0.124 S 
ATOM     86  O   UNL A   1      34.010  36.169  27.932  1.00  0.00    -0.237 OA
ATOM     87  O   UNL A   1      32.602  34.137  28.028  1.00  0.00    -0.237 OA
ATOM     88  O   UNL A   1      32.512  35.785  29.858  1.00  0.00    -0.744 OA
ENDBRANCH  84  85
ENDBRANCH  52  77
BRANCH  64  89
ATOM     89  C   UNL A   1      39.807  34.249  36.982  1.00  0.00     0.058 A 
ATOM     90  C   UNL A   1      40.402  35.513  36.844  1.00  0.00     0.135 A 
ATOM     91  C   UNL A   1      39.010  34.021  38.116  1.00  0.00     0.135 A 
ATOM     92  F   UNL A   1      41.175  35.783  35.779  1.00  0.00    -0.206 F 
ATOM     93  C   UNL A   1      40.250  36.498  37.815  1.00  0.00     0.059 A 
ATOM     94  C   UNL A   1      38.823  35.001  39.086  1.00  0.00     0.059 A 
ATOM     95  F   UNL A   1      38.407  32.835  38.291  1.00  0.00    -0.206 F 
ATOM     96  C   UNL A   1      39.463  36.230  38.937  1.00  0.00     0.060 A 
BRANCH  96  97
ATOM     97  S   UNL A   1      39.275  37.513  40.194  1.00  0.00     0.124 S 
ATOM     98  O   UNL A   1      38.258  38.367  39.589  1.00  0.00    -0.237 OA
ATOM     99  O   UNL A   1      38.847  36.750  41.362  1.00  0.00    -0.237 OA
ATOM    100  O   UNL A   1      40.610  38.094  40.286  1.00  0.00    -0.744 OA
ENDBRANCH  96  97
ENDBRANCH  64  89
ENDBRANCH  38  39
ENDBRANCH  30  33
ENDBRANCH  28  29
ENDBRANCH  27  28
ENDBRANCH   1  27
TORSDOF 17
ENDMDL
MODEL 2
REMARK VINA RESULT:     -12.2      6.472     11.968
REMARK SMILES C[C@H]1C[N@H+]2CCC[C@@H]2CN1c1cc(Cl)ccc1C(=O)NCCCCCCNC(=O)c1ccc(-c2c3nc(c(-c4c(F)cc(S(=O)(=O)[O-])cc4F)c4ccc([nH]4)c(-c4c(F)cc(S(=O)(=O)[O-])cc4F)c4nc(c(-c5c(F)cc(S(=O)(=O)[O-])cc5F)c5ccc2[nH]5)C=C4)C=C3)cc1
REMARK SMILES IDX 24 1 23 2 22 3 21 4 20 5 18 6 19 7 17 9 11 10 12 11 13 12
REMARK SMILES IDX 16 13 14 14 15 15 10 16 1 17 2 18 3 19 4 20 9 21 5 22 8 23
REMARK SMILES IDX 6 25 7 26 25 27 26 28 27 29 28 30 29 32 30 33 31 34 95 35
REMARK SMILES IDX 32 36 94 37 33 38 34 39 35 40 88 41 36 42 93 43 87 44 89 45
REMARK SMILES IDX 37 46 92 47 86 48 85 49 38 51 72 52 51 53 71 54 52 55 55 56
REMARK SMILES IDX 70 57 90 58 53 59 54 60 69 62 91 63 56 64 39 65 40 66 49 67
REMARK SMILES IDX 41 68 42 69 48 70 50 71 43 72 44 73 45 74 46 75 47 76 73 77
REMARK SMILES IDX 74 78 83 79 75 80 76 81 82 82 84 83 77 84 78 85 79 86 80 87
REMARK SMILES IDX 81 88 57 89 58 90 67 91 59 92 60 93 66 94 68 95 61 96 62 97
REMARK SMILES IDX 63 98 64 99 65 100
REMARK H PARENT 20 8 4 24 27 31 89 50 55 61
REMARK Flexibility Score: inf
ROOT
ATOM      1  C   UNL A   1      32.973  30.835  27.184  1.00  0.00     0.002 C 
ENDROOT
BRANCH   1   2
ATOM      2  C   UNL A   1      31.962  29.781  26.704  1.00  0.00     0.002 C 
BRANCH   2   3
ATOM      3  C   UNL A   1      31.800  28.473  27.494  1.00  0.00     0.021 C 
BRANCH   3   4
ATOM      4  C   UNL A   1      32.399  27.195  26.896  1.00  0.00     0.116 C 
BRANCH   4   5
ATOM      5  N   UNL A   1      31.529  26.069  26.662  1.00  0.00    -0.352 N 
ATOM      6  C   UNL A   1      31.718  25.000  25.798  1.00  0.00     0.253 C 
ATOM      7  O   UNL A   1      31.351  23.903  26.247  1.00  0.00    -0.269 OA
ATOM      8  H   UNL A   1      30.693  26.057  27.182  1.00  0.00     0.163 HD
BRANCH   6   9
ATOM      9  C   UNL A   1      32.134  25.039  24.339  1.00  0.00     0.063 A 
ATOM     10  C   UNL A   1      33.229  24.448  23.659  1.00  0.00     0.052 A 
ATOM     11  C   UNL A   1      33.341  24.637  22.254  1.00  0.00     0.047 A 
ATOM     12  C   UNL A   1      32.415  25.376  21.526  1.00  0.00     0.043 A 
ATOM     13  C   UNL A   1      31.200  25.770  23.552  1.00  0.00     0.017 A 
ATOM     14  Cl  UNL A   1      32.609  25.573  19.828  1.00  0.00    -0.084 Cl
ATOM     15  C   UNL A   1      31.333  25.941  22.170  1.00  0.00     0.021 A 
BRANCH  10  16
ATOM     16  N   UNL A   1      34.177  23.627  24.260  1.00  0.00    -0.357 N 
ATOM     17  C   UNL A   1      32.933  21.497  23.732  1.00  0.00     0.037 C 
ATOM     18  C   UNL A   1      33.820  22.248  24.738  1.00  0.00     0.134 C 
ATOM     19  C   UNL A   1      35.126  21.405  24.975  1.00  0.00     0.287 C 
ATOM     20  N   UNL A   1      36.165  22.119  25.732  1.00  0.00    -0.329 N 
ATOM     21  C   UNL A   1      35.146  24.327  25.140  1.00  0.00     0.182 C 
ATOM     22  C   UNL A   1      37.482  21.483  25.705  1.00  0.00     0.262 C 
ATOM     23  C   UNL A   1      36.403  23.462  25.179  1.00  0.00     0.203 C 
ATOM     24  H   UNL A   1      35.793  22.126  26.682  1.00  0.00     0.348 HD
ATOM     25  C   UNL A   1      38.466  22.648  25.909  1.00  0.00     0.068 C 
ATOM     26  C   UNL A   1      37.589  23.901  26.001  1.00  0.00     0.073 C 
ENDBRANCH  10  16
ENDBRANCH   6   9
ENDBRANCH   4   5
ENDBRANCH   3   4
ENDBRANCH   2   3
ENDBRANCH   1   2
BRANCH   1  27
ATOM     27  C   UNL A   1      34.404  30.501  27.661  1.00  0.00     0.021 C 
BRANCH  27  28
ATOM     28  C   UNL A   1      35.282  31.520  28.399  1.00  0.00     0.116 C 
BRANCH  28  29
ATOM     29  N   UNL A   1      35.451  31.107  29.789  1.00  0.00    -0.352 N 
ATOM     30  C   UNL A   1      36.399  30.312  30.389  1.00  0.00     0.251 C 
ATOM     31  H   UNL A   1      34.767  31.459  30.403  1.00  0.00     0.163 HD
ATOM     32  O   UNL A   1      36.053  29.674  31.385  1.00  0.00    -0.269 OA
BRANCH  30  33
ATOM     33  C   UNL A   1      37.822  30.240  29.948  1.00  0.00     0.039 A 
ATOM     34  C   UNL A   1      38.078  30.031  28.582  1.00  0.00     0.014 A 
ATOM     35  C   UNL A   1      38.890  30.160  30.846  1.00  0.00     0.014 A 
ATOM     36  C   UNL A   1      39.367  29.715  28.128  1.00  0.00     0.010 A 
ATOM     37  C   UNL A   1      40.191  29.886  30.385  1.00  0.00     0.010 A 
ATOM     38  C   UNL A   1      40.440  29.621  29.027  1.00  0.00    -0.014 A 
BRANCH  38  39
ATOM     39  C   UNL A   1      41.785  29.166  28.557  1.00  0.00     0.031 A 
ATOM     40  C   UNL A   1      42.944  30.138  28.498  1.00  0.00     0.074 A 
ATOM     41  C   UNL A   1      41.988  27.881  28.203  1.00  0.00     0.049 A 
ATOM     42  N   UNL A   1      44.181  29.936  28.117  1.00  0.00    -0.248 NA
ATOM     43  C   UNL A   1      42.669  31.523  28.910  1.00  0.00     0.031 C 
ATOM     44  C   UNL A   1      40.963  26.837  28.193  1.00  0.00     0.029 A 
ATOM     45  N   UNL A   1      43.125  27.230  27.782  1.00  0.00    -0.354 N 
ATOM     46  C   UNL A   1      44.830  31.161  28.244  1.00  0.00     0.074 A 
ATOM     47  C   UNL A   1      43.834  32.115  28.683  1.00  0.00     0.031 C 
ATOM     48  C   UNL A   1      41.519  25.676  27.803  1.00  0.00     0.029 A 
ATOM     49  C   UNL A   1      42.933  25.895  27.512  1.00  0.00     0.049 A 
ATOM     50  H   UNL A   1      43.995  27.680  27.685  1.00  0.00     0.167 HD
ATOM     51  C   UNL A   1      46.138  31.464  28.043  1.00  0.00     0.037 A 
ATOM     52  C   UNL A   1      43.795  24.952  27.081  1.00  0.00     0.037 A 
ATOM     53  C   UNL A   1      47.139  30.516  27.622  1.00  0.00     0.049 A 
ATOM     54  C   UNL A   1      45.242  25.314  26.861  1.00  0.00     0.074 A 
ATOM     55  C   UNL A   1      48.488  30.729  27.391  1.00  0.00     0.029 A 
ATOM     56  N   UNL A   1      46.905  29.171  27.382  1.00  0.00    -0.354 N 
ATOM     57  N   UNL A   1      45.835  26.475  27.008  1.00  0.00    -0.248 NA
ATOM     58  C   UNL A   1      46.142  24.232  26.432  1.00  0.00     0.031 C 
ATOM     59  C   UNL A   1      49.064  29.518  26.990  1.00  0.00     0.029 A 
ATOM     60  C   UNL A   1      48.082  28.542  27.009  1.00  0.00     0.049 A 
ATOM     61  H   UNL A   1      46.030  28.728  27.464  1.00  0.00     0.167 HD
ATOM     62  C   UNL A   1      47.179  26.254  26.723  1.00  0.00     0.074 A 
ATOM     63  C   UNL A   1      47.315  24.848  26.412  1.00  0.00     0.031 C 
ATOM     64  C   UNL A   1      48.210  27.136  26.719  1.00  0.00     0.037 A 
BRANCH  51  65
ATOM     65  C   UNL A   1      46.574  32.885  28.297  1.00  0.00     0.058 A 
ATOM     66  C   UNL A   1      47.070  33.282  29.550  1.00  0.00     0.135 A 
ATOM     67  C   UNL A   1      46.544  33.845  27.273  1.00  0.00     0.135 A 
ATOM     68  F   UNL A   1      47.109  32.410  30.568  1.00  0.00    -0.206 F 
ATOM     69  C   UNL A   1      47.496  34.586  29.785  1.00  0.00     0.059 A 
ATOM     70  C   UNL A   1      46.991  35.148  27.478  1.00  0.00     0.059 A 
ATOM     71  F   UNL A   1      46.085  33.521  26.054  1.00  0.00    -0.206 F 
ATOM     72  C   UNL A   1      47.452  35.514  28.742  1.00  0.00     0.060 A 
BRANCH  72  73
ATOM     73  S   UNL A   1      48.018  37.198  29.064  1.00  0.00     0.124 S 
ATOM     74  O   UNL A   1      48.641  37.544  27.790  1.00  0.00    -0.237 OA
ATOM     75  O   UNL A   1      46.774  37.893  29.372  1.00  0.00    -0.237 OA
ATOM     76  O   UNL A   1      48.938  37.038  30.188  1.00  0.00    -0.744 OA
ENDBRANCH  72  73
ENDBRANCH  51  65
BRANCH  52  77
ATOM     77  C   UNL A   1      43.329  23.558  26.842  1.00  0.00     0.058 A 
ATOM     78  C   UNL A   1      43.069  22.684  27.909  1.00  0.00     0.135 A 
ATOM     79  C   UNL A   1      43.167  23.060  25.539  1.00  0.00     0.135 A 
ATOM     80  F   UNL A   1      43.216  23.109  29.173  1.00  0.00    -0.206 F 
ATOM     81  C   UNL A   1      42.704  21.359  27.697  1.00  0.00     0.059 A 
ATOM     82  C   UNL A   1      42.773  21.747  25.301  1.00  0.00     0.059 A 
ATOM     83  F   UNL A   1      43.386  23.858  24.483  1.00  0.00    -0.206 F 
ATOM     84  C   UNL A   1      42.563  20.898  26.387  1.00  0.00     0.060 A 
BRANCH  84  85
ATOM     85  S   UNL A   1      42.075  19.179  26.117  1.00  0.00     0.124 S 
ATOM     86  O   UNL A   1      42.874  18.828  24.950  1.00  0.00    -0.237 OA
ATOM     87  O   UNL A   1      42.465  18.546  27.373  1.00  0.00    -0.237 OA
ATOM     88  O   UNL A   1      40.635  19.273  25.893  1.00  0.00    -0.744 OA
ENDBRANCH  84  85
ENDBRANCH  52  77
BRANCH  64  89
ATOM     89  C   UNL A   1      49.581  26.595  26.419  1.00  0.00     0.058 A 
ATOM     90  C   UNL A   1      50.369  25.980  27.405  1.00  0.00     0.135 A 
ATOM     91  C   UNL A   1      50.110  26.684  25.120  1.00  0.00     0.135 A 
ATOM     92  F   UNL A   1      49.911  25.871  28.663  1.00  0.00    -0.206 F 
ATOM     93  C   UNL A   1      51.649  25.512  27.126  1.00  0.00     0.059 A 
ATOM     94  C   UNL A   1      51.377  26.198  24.813  1.00  0.00     0.059 A 
ATOM     95  F   UNL A   1      49.394  27.250  24.136  1.00  0.00    -0.206 F 
ATOM     96  C   UNL A   1      52.147  25.632  25.828  1.00  0.00     0.060 A 
BRANCH  96  97
ATOM     97  S   UNL A   1      53.812  25.025  25.476  1.00  0.00     0.124 S 
ATOM     98  O   UNL A   1      54.545  25.485  26.650  1.00  0.00    -0.237 OA
ATOM     99  O   UNL A   1      53.608  23.583  25.382  1.00  0.00    -0.237 OA
ATOM    100  O   UNL A   1      54.154  25.686  24.221  1.00  0.00    -0.744 OA
ENDBRANCH  96  97
ENDBRANCH  64  89
ENDBRANCH  38  39
ENDBRANCH  30  33
ENDBRANCH  28  29
ENDBRANCH  27  28
ENDBRANCH   1  27
TORSDOF 17
ENDMDL
MODEL 3
REMARK VINA RESULT:     -12.0      2.443      3.948
REMARK SMILES C[C@H]1C[N@H+]2CCC[C@@H]2CN1c1cc(Cl)ccc1C(=O)NCCCCCCNC(=O)c1ccc(-c2c3nc(c(-c4c(F)cc(S(=O)(=O)[O-])cc4F)c4ccc([nH]4)c(-c4c(F)cc(S(=O)(=O)[O-])cc4F)c4nc(c(-c5c(F)cc(S(=O)(=O)[O-])cc5F)c5ccc2[nH]5)C=C4)C=C3)cc1
REMARK SMILES IDX 24 1 23 2 22 3 21 4 20 5 18 6 19 7 17 9 11 10 12 11 13 12
REMARK SMILES IDX 16 13 14 14 15 15 10 16 1 17 2 18 3 19 4 20 9 21 5 22 8 23
REMARK SMILES IDX 6 25 7 26 25 27 26 28 27 29 28 30 29 32 30 33 31 34 95 35
REMARK SMILES IDX 32 36 94 37 33 38 34 39 35 40 88 41 36 42 93 43 87 44 89 45
REMARK SMILES IDX 37 46 92 47 86 48 85 49 38 51 72 52 51 53 71 54 52 55 55 56
REMARK SMILES IDX 70 57 90 58 53 59 54 60 69 62 91 63 56 64 39 65 40 66 49 67
REMARK SMILES IDX 41 68 42 69 48 70 50 71 43 72 44 73 45 74 46 75 47 76 73 77
REMARK SMILES IDX 74 78 83 79 75 80 76 81 82 82 84 83 77 84 78 85 79 86 80 87
REMARK SMILES IDX 81 88 57 89 58 90 67 91 59 92 60 93 66 94 68 95 61 96 62 97
REMARK SMILES IDX 63 98 64 99 65 100
REMARK H PARENT 20 8 4 24 27 31 89 50 55 61
REMARK Flexibility Score: inf
ROOT
ATOM      1  C   UNL A   1      36.316  23.513  26.224  1.00  0.00     0.002 C 
ENDROOT
BRANCH   1   2
ATOM      2  C   UNL A   1      35.077  23.559  25.316  1.00  0.00     0.002 C 
BRANCH   2   3
ATOM      3  C   UNL A   1      34.536  24.918  24.843  1.00  0.00     0.021 C 
BRANCH   3   4
ATOM      4  C   UNL A   1      33.128  24.959  24.240  1.00  0.00     0.116 C 
BRANCH   4   5
ATOM      5  N   UNL A   1      32.014  25.254  25.107  1.00  0.00    -0.352 N 
ATOM      6  C   UNL A   1      31.455  26.490  25.400  1.00  0.00     0.253 C 
ATOM      7  O   UNL A   1      30.217  26.489  25.482  1.00  0.00    -0.269 OA
ATOM      8  H   UNL A   1      31.597  24.479  25.549  1.00  0.00     0.163 HD
BRANCH   6   9
ATOM      9  C   UNL A   1      32.168  27.766  25.807  1.00  0.00     0.063 A 
ATOM     10  C   UNL A   1      32.129  29.076  25.266  1.00  0.00     0.052 A 
ATOM     11  C   UNL A   1      32.895  30.097  25.894  1.00  0.00     0.047 A 
ATOM     12  C   UNL A   1      33.676  29.855  27.020  1.00  0.00     0.043 A 
ATOM     13  C   UNL A   1      32.964  27.569  26.971  1.00  0.00     0.017 A 
ATOM     14  Cl  UNL A   1      34.585  31.130  27.731  1.00  0.00    -0.084 Cl
ATOM     15  C   UNL A   1      33.709  28.589  27.570  1.00  0.00     0.021 A 
BRANCH  10  16
ATOM     16  N   UNL A   1      31.332  29.461  24.193  1.00  0.00    -0.357 N 
ATOM     17  C   UNL A   1      32.606  28.074  22.515  1.00  0.00     0.037 C 
ATOM     18  C   UNL A   1      31.837  29.379  22.781  1.00  0.00     0.134 C 
ATOM     19  C   UNL A   1      30.634  29.461  21.772  1.00  0.00     0.287 C 
ATOM     20  N   UNL A   1      29.681  30.540  22.071  1.00  0.00    -0.329 N 
ATOM     21  C   UNL A   1      30.467  30.641  24.445  1.00  0.00     0.182 C 
ATOM     22  C   UNL A   1      28.414  30.451  21.344  1.00  0.00     0.262 C 
ATOM     23  C   UNL A   1      29.284  30.526  23.488  1.00  0.00     0.203 C 
ATOM     24  H   UNL A   1      30.190  31.380  21.796  1.00  0.00     0.348 HD
ATOM     25  C   UNL A   1      27.406  31.168  22.258  1.00  0.00     0.068 C 
ATOM     26  C   UNL A   1      28.211  31.587  23.493  1.00  0.00     0.073 C 
ENDBRANCH  10  16
ENDBRANCH   6   9
ENDBRANCH   4   5
ENDBRANCH   3   4
ENDBRANCH   2   3
ENDBRANCH   1   2
BRANCH   1  27
ATOM     27  C   UNL A   1      37.763  23.711  25.717  1.00  0.00     0.021 C 
BRANCH  27  28
ATOM     28  C   UNL A   1      38.979  23.609  26.647  1.00  0.00     0.116 C 
BRANCH  28  29
ATOM     29  N   UNL A   1      40.154  24.164  25.981  1.00  0.00    -0.352 N 
ATOM     30  C   UNL A   1      40.789  25.375  26.125  1.00  0.00     0.251 C 
ATOM     31  H   UNL A   1      40.562  23.567  25.313  1.00  0.00     0.163 HD
ATOM     32  O   UNL A   1      41.367  25.831  25.136  1.00  0.00    -0.269 OA
BRANCH  30  33
ATOM     33  C   UNL A   1      40.877  26.118  27.415  1.00  0.00     0.039 A 
ATOM     34  C   UNL A   1      39.856  25.920  28.360  1.00  0.00     0.014 A 
ATOM     35  C   UNL A   1      41.800  27.145  27.636  1.00  0.00     0.014 A 
ATOM     36  C   UNL A   1      39.740  26.752  29.483  1.00  0.00     0.010 A 
ATOM     37  C   UNL A   1      41.708  27.951  28.785  1.00  0.00     0.010 A 
ATOM     38  C   UNL A   1      40.655  27.792  29.703  1.00  0.00    -0.014 A 
BRANCH  38  39
ATOM     39  C   UNL A   1      40.457  28.750  30.834  1.00  0.00     0.031 A 
ATOM     40  C   UNL A   1      41.325  28.664  32.071  1.00  0.00     0.074 A 
ATOM     41  C   UNL A   1      39.519  29.716  30.757  1.00  0.00     0.049 A 
ATOM     42  N   UNL A   1      41.304  29.399  33.155  1.00  0.00    -0.248 NA
ATOM     43  C   UNL A   1      42.342  27.600  32.095  1.00  0.00     0.031 C 
ATOM     44  C   UNL A   1      38.599  29.910  29.636  1.00  0.00     0.029 A 
ATOM     45  N   UNL A   1      39.182  30.718  31.637  1.00  0.00    -0.354 N 
ATOM     46  C   UNL A   1      42.300  28.892  33.986  1.00  0.00     0.074 A 
ATOM     47  C   UNL A   1      42.868  27.749  33.303  1.00  0.00     0.031 C 
ATOM     48  C   UNL A   1      37.814  30.973  29.888  1.00  0.00     0.029 A 
ATOM     49  C   UNL A   1      38.158  31.523  31.196  1.00  0.00     0.049 A 
ATOM     50  H   UNL A   1      39.634  30.847  32.502  1.00  0.00     0.167 HD
ATOM     51  C   UNL A   1      42.726  29.347  35.191  1.00  0.00     0.037 A 
ATOM     52  C   UNL A   1      37.560  32.585  31.776  1.00  0.00     0.037 A 
ATOM     53  C   UNL A   1      42.178  30.495  35.870  1.00  0.00     0.049 A 
ATOM     54  C   UNL A   1      38.049  33.069  33.118  1.00  0.00     0.074 A 
ATOM     55  C   UNL A   1      42.542  31.033  37.093  1.00  0.00     0.029 A 
ATOM     56  N   UNL A   1      41.157  31.293  35.377  1.00  0.00    -0.354 N 
ATOM     57  N   UNL A   1      39.006  32.584  33.873  1.00  0.00    -0.248 NA
ATOM     58  C   UNL A   1      37.387  34.257  33.679  1.00  0.00     0.031 C 
ATOM     59  C   UNL A   1      41.727  32.141  37.350  1.00  0.00     0.029 A 
ATOM     60  C   UNL A   1      40.881  32.318  36.268  1.00  0.00     0.049 A 
ATOM     61  H   UNL A   1      40.695  31.152  34.519  1.00  0.00     0.167 HD
ATOM     62  C   UNL A   1      39.082  33.427  34.978  1.00  0.00     0.074 A 
ATOM     63  C   UNL A   1      38.086  34.460  34.786  1.00  0.00     0.031 C 
ATOM     64  C   UNL A   1      39.901  33.353  36.057  1.00  0.00     0.037 A 
BRANCH  51  65
ATOM     65  C   UNL A   1      43.864  28.613  35.855  1.00  0.00     0.058 A 
ATOM     66  C   UNL A   1      43.626  27.556  36.749  1.00  0.00     0.135 A 
ATOM     67  C   UNL A   1      45.199  28.930  35.560  1.00  0.00     0.135 A 
ATOM     68  F   UNL A   1      42.370  27.218  37.076  1.00  0.00    -0.206 F 
ATOM     69  C   UNL A   1      44.671  26.858  37.347  1.00  0.00     0.059 A 
ATOM     70  C   UNL A   1      46.261  28.227  36.125  1.00  0.00     0.059 A 
ATOM     71  F   UNL A   1      45.487  29.927  34.708  1.00  0.00    -0.206 F 
ATOM     72  C   UNL A   1      45.987  27.201  37.029  1.00  0.00     0.060 A 
BRANCH  72  73
ATOM     73  S   UNL A   1      47.328  26.278  37.808  1.00  0.00     0.124 S 
ATOM     74  O   UNL A   1      46.719  24.961  37.972  1.00  0.00    -0.237 OA
ATOM     75  O   UNL A   1      48.390  26.366  36.812  1.00  0.00    -0.237 OA
ATOM     76  O   UNL A   1      47.572  27.013  39.048  1.00  0.00    -0.744 OA
ENDBRANCH  72  73
ENDBRANCH  51  65
BRANCH  52  77
ATOM     77  C   UNL A   1      36.440  33.287  31.090  1.00  0.00     0.058 A 
ATOM     78  C   UNL A   1      36.669  34.097  29.967  1.00  0.00     0.135 A 
ATOM     79  C   UNL A   1      35.123  33.189  31.566  1.00  0.00     0.135 A 
ATOM     80  F   UNL A   1      37.911  34.230  29.479  1.00  0.00    -0.206 F 
ATOM     81  C   UNL A   1      35.642  34.815  29.363  1.00  0.00     0.059 A 
ATOM     82  C   UNL A   1      34.074  33.874  30.960  1.00  0.00     0.059 A 
ATOM     83  F   UNL A   1      34.847  32.415  32.626  1.00  0.00    -0.206 F 
ATOM     84  C   UNL A   1      34.346  34.700  29.871  1.00  0.00     0.060 A 
BRANCH  84  85
ATOM     85  S   UNL A   1      33.014  35.625  29.074  1.00  0.00     0.124 S 
ATOM     86  O   UNL A   1      32.224  36.048  30.224  1.00  0.00    -0.237 OA
ATOM     87  O   UNL A   1      33.743  36.679  28.376  1.00  0.00    -0.237 OA
ATOM     88  O   UNL A   1      32.389  34.628  28.209  1.00  0.00    -0.744 OA
ENDBRANCH  84  85
ENDBRANCH  52  77
BRANCH  64  89
ATOM     89  C   UNL A   1      39.790  34.447  37.084  1.00  0.00     0.058 A 
ATOM     90  C   UNL A   1      39.030  34.292  38.254  1.00  0.00     0.135 A 
ATOM     91  C   UNL A   1      40.465  35.665  36.899  1.00  0.00     0.135 A 
ATOM     92  F   UNL A   1      38.363  33.148  38.480  1.00  0.00    -0.206 F 
ATOM     93  C   UNL A   1      38.906  35.321  39.183  1.00  0.00     0.059 A 
ATOM     94  C   UNL A   1      40.377  36.697  37.827  1.00  0.00     0.059 A 
ATOM     95  F   UNL A   1      41.217  35.861  35.804  1.00  0.00    -0.206 F 
ATOM     96  C   UNL A   1      39.579  36.523  38.957  1.00  0.00     0.060 A 
BRANCH  96  97
ATOM     97  S   UNL A   1      39.410  37.854  40.166  1.00  0.00     0.124 S 
ATOM     98  O   UNL A   1      39.125  37.106  41.385  1.00  0.00    -0.237 OA
ATOM     99  O   UNL A   1      40.718  38.499  40.109  1.00  0.00    -0.237 OA
ATOM    100  O   UNL A   1      38.303  38.648  39.642  1.00  0.00    -0.744 OA
ENDBRANCH  96  97
ENDBRANCH  64  89
ENDBRANCH  38  39
ENDBRANCH  30  33
ENDBRANCH  28  29
ENDBRANCH  27  28
ENDBRANCH   1  27
TORSDOF 17
ENDMDL
