MODEL 1
REMARK VINA RESULT:      -9.8      0.000      0.000
REMARK SMILES CCOC(=O)c1sc(NC(=O)CCC(=O)NCCCCCCNC(=O)c2ccc(-c3c4nc(c(-c5c(F)cc(S(=O)(=O)[O-])cc5F)c5ccc([nH]5)c(-c5c(F)cc(S(=O)(=O)[O-])cc5F)c5nc(c(-c6c(F)cc(S(=O)(=O)[O-])cc6F)c6ccc3[nH]6)C=C5)C=C4)cc2)c(C#N)c1C
REMARK SMILES IDX 18 1 17 2 16 3 14 4 15 5 13 7 12 8 10 9 9 10 11 12 8 13 6 14
REMARK SMILES IDX 7 15 95 16 92 17 96 18 4 19 5 20 3 21 2 22 1 23 93 24 94 25
REMARK SMILES IDX 19 26 20 27 21 28 22 29 23 30 24 31 25 33 26 34 27 35 91 36
REMARK SMILES IDX 28 37 90 38 29 39 30 40 31 41 84 42 32 43 89 44 83 45 85 46
REMARK SMILES IDX 33 47 88 48 82 49 81 50 34 52 68 53 47 54 67 55 48 56 51 57
REMARK SMILES IDX 66 58 86 59 49 60 50 61 65 63 87 64 52 65 35 66 36 67 45 68
REMARK SMILES IDX 37 69 38 70 44 71 46 72 39 73 40 74 41 75 42 76 43 77 69 78
REMARK SMILES IDX 70 79 79 80 71 81 72 82 78 83 80 84 73 85 74 86 75 87 76 88
REMARK SMILES IDX 77 89 53 90 54 91 63 92 55 93 56 94 62 95 64 96 57 97 58 98
REMARK SMILES IDX 59 99 60 100 61 101
REMARK H PARENT 16 6 9 11 23 32 85 51 51 62
REMARK Flexibility Score: inf
ROOT
ATOM      1  C   UNL A   1      37.263  23.558  25.771  1.00  0.00     0.021 C 
ENDROOT
BRANCH   1   2
ATOM      2  C   UNL A   1      35.771  23.296  25.578  1.00  0.00     0.116 C 
BRANCH   2   3
ATOM      3  N   UNL A   1      34.984  24.514  25.510  1.00  0.00    -0.356 N 
ATOM      4  C   UNL A   1      33.811  24.834  26.115  1.00  0.00     0.220 C 
ATOM      5  O   UNL A   1      33.446  26.010  26.063  1.00  0.00    -0.275 OA
ATOM      6  H   UNL A   1      35.360  25.218  24.934  1.00  0.00     0.163 HD
BRANCH   4   7
ATOM      7  C   UNL A   1      33.003  23.788  26.846  1.00  0.00     0.110 C 
BRANCH   7   8
ATOM      8  C   UNL A   1      31.484  23.848  26.718  1.00  0.00     0.110 C 
BRANCH   8   9
ATOM      9  C   UNL A   1      30.846  23.081  25.579  1.00  0.00     0.225 C 
ATOM     10  N   UNL A   1      30.533  23.598  24.353  1.00  0.00    -0.317 N 
ATOM     11  H   UNL A   1      29.996  23.003  23.782  1.00  0.00     0.170 HD
ATOM     12  O   UNL A   1      30.654  21.866  25.731  1.00  0.00    -0.275 OA
BRANCH  10  13
ATOM     13  C   UNL A   1      30.844  24.816  23.781  1.00  0.00     0.114 A 
ATOM     14  C   UNL A   1      30.938  27.214  23.292  1.00  0.00     0.118 A 
ATOM     15  S   UNL A   1      29.776  26.124  23.882  1.00  0.00    -0.109 S 
ATOM     16  C   UNL A   1      32.091  26.575  22.870  1.00  0.00    -0.006 A 
ATOM     17  C   UNL A   1      31.945  25.145  23.010  1.00  0.00     0.091 A 
ATOM     18  C   UNL A   1      33.330  27.258  22.379  1.00  0.00     0.048 C 
BRANCH  14  19
ATOM     19  C   UNL A   1      30.580  28.607  23.240  1.00  0.00     0.348 C 
ATOM     20  O   UNL A   1      30.686  29.430  24.140  1.00  0.00    -0.245 OA
BRANCH  19  21
ATOM     21  O   UNL A   1      30.012  28.847  22.025  1.00  0.00    -0.462 OA
BRANCH  21  22
ATOM     22  C   UNL A   1      28.949  29.801  22.019  1.00  0.00     0.230 C 
ATOM     23  C   UNL A   1      27.773  29.313  22.848  1.00  0.00     0.049 C 
ENDBRANCH  21  22
ENDBRANCH  19  21
ENDBRANCH  14  19
BRANCH  17  24
ATOM     24  C   UNL A   1      32.926  24.208  22.537  1.00  0.00     0.103 C 
ATOM     25  N   UNL A   1      33.686  23.448  22.110  1.00  0.00    -0.192 NA
ENDBRANCH  17  24
ENDBRANCH  10  13
ENDBRANCH   8   9
ENDBRANCH   7   8
ENDBRANCH   4   7
ENDBRANCH   2   3
ENDBRANCH   1   2
BRANCH   1  26
ATOM     26  C   UNL A   1      38.189  22.454  25.261  1.00  0.00     0.002 C 
BRANCH  26  27
ATOM     27  C   UNL A   1      39.233  21.955  26.258  1.00  0.00     0.002 C 
BRANCH  27  28
ATOM     28  C   UNL A   1      39.784  23.020  27.213  1.00  0.00     0.021 C 
BRANCH  28  29
ATOM     29  C   UNL A   1      40.269  24.282  26.512  1.00  0.00     0.116 C 
BRANCH  29  30
ATOM     30  N   UNL A   1      41.579  24.103  25.892  1.00  0.00    -0.352 N 
ATOM     31  C   UNL A   1      42.500  25.093  25.612  1.00  0.00     0.251 C 
ATOM     32  H   UNL A   1      41.833  23.182  25.649  1.00  0.00     0.163 HD
ATOM     33  O   UNL A   1      43.355  24.944  24.749  1.00  0.00    -0.269 OA
BRANCH  31  34
ATOM     34  C   UNL A   1      42.444  26.320  26.424  1.00  0.00     0.039 A 
ATOM     35  C   UNL A   1      41.654  27.415  26.068  1.00  0.00     0.014 A 
ATOM     36  C   UNL A   1      43.213  26.330  27.588  1.00  0.00     0.014 A 
ATOM     37  C   UNL A   1      41.615  28.511  26.927  1.00  0.00     0.010 A 
ATOM     38  C   UNL A   1      43.049  27.334  28.501  1.00  0.00     0.010 A 
ATOM     39  C   UNL A   1      42.318  28.457  28.142  1.00  0.00    -0.014 A 
BRANCH  39  40
ATOM     40  C   UNL A   1      42.214  29.516  29.133  1.00  0.00     0.031 A 
ATOM     41  C   UNL A   1      43.236  30.583  28.970  1.00  0.00     0.074 A 
ATOM     42  C   UNL A   1      41.141  29.633  29.948  1.00  0.00     0.049 A 
ATOM     43  N   UNL A   1      44.253  30.817  29.729  1.00  0.00    -0.248 NA
ATOM     44  C   UNL A   1      43.250  31.357  27.714  1.00  0.00     0.031 C 
ATOM     45  C   UNL A   1      39.923  28.813  29.983  1.00  0.00     0.029 A 
ATOM     46  N   UNL A   1      40.868  30.597  30.866  1.00  0.00    -0.354 N 
ATOM     47  C   UNL A   1      44.874  31.942  29.195  1.00  0.00     0.074 A 
ATOM     48  C   UNL A   1      44.368  32.074  27.855  1.00  0.00     0.031 C 
ATOM     49  C   UNL A   1      38.964  29.451  30.693  1.00  0.00     0.029 A 
ATOM     50  C   UNL A   1      39.541  30.635  31.298  1.00  0.00     0.049 A 
ATOM     51  H   UNL A   1      41.552  31.221  31.201  1.00  0.00     0.167 HD
ATOM     52  C   UNL A   1      45.536  32.821  30.000  1.00  0.00     0.037 A 
ATOM     53  C   UNL A   1      38.974  31.604  32.068  1.00  0.00     0.037 A 
ATOM     54  C   UNL A   1      45.772  32.241  31.302  1.00  0.00     0.049 A 
ATOM     55  C   UNL A   1      40.097  32.298  32.762  1.00  0.00     0.074 A 
ATOM     56  C   UNL A   1      46.421  31.104  31.748  1.00  0.00     0.029 A 
ATOM     57  N   UNL A   1      44.937  32.621  32.328  1.00  0.00    -0.354 N 
ATOM     58  N   UNL A   1      40.861  31.711  33.646  1.00  0.00    -0.248 NA
ATOM     59  C   UNL A   1      40.694  33.441  32.084  1.00  0.00     0.031 C 
ATOM     60  C   UNL A   1      45.577  30.582  32.772  1.00  0.00     0.029 A 
ATOM     61  C   UNL A   1      44.525  31.478  32.966  1.00  0.00     0.049 A 
ATOM     62  H   UNL A   1      44.684  33.543  32.561  1.00  0.00     0.167 HD
ATOM     63  C   UNL A   1      42.150  32.121  33.334  1.00  0.00     0.074 A 
ATOM     64  C   UNL A   1      41.978  33.228  32.391  1.00  0.00     0.031 C 
ATOM     65  C   UNL A   1      43.238  31.341  33.614  1.00  0.00     0.037 A 
BRANCH  52  66
ATOM     66  C   UNL A   1      45.617  34.313  29.768  1.00  0.00     0.058 A 
ATOM     67  C   UNL A   1      44.422  35.039  29.572  1.00  0.00     0.135 A 
ATOM     68  C   UNL A   1      46.805  35.009  29.450  1.00  0.00     0.135 A 
ATOM     69  F   UNL A   1      43.231  34.482  29.845  1.00  0.00    -0.206 F 
ATOM     70  C   UNL A   1      44.404  36.319  29.020  1.00  0.00     0.059 A 
ATOM     71  C   UNL A   1      46.813  36.305  28.947  1.00  0.00     0.059 A 
ATOM     72  F   UNL A   1      48.014  34.440  29.517  1.00  0.00    -0.206 F 
ATOM     73  C   UNL A   1      45.607  36.937  28.696  1.00  0.00     0.060 A 
BRANCH  73  74
ATOM     74  S   UNL A   1      45.585  38.552  27.900  1.00  0.00     0.124 S 
ATOM     75  O   UNL A   1      46.886  38.569  27.241  1.00  0.00    -0.237 OA
ATOM     76  O   UNL A   1      44.424  38.437  27.024  1.00  0.00    -0.237 OA
ATOM     77  O   UNL A   1      45.431  39.476  29.019  1.00  0.00    -0.744 OA
ENDBRANCH  73  74
ENDBRANCH  52  66
BRANCH  53  78
ATOM     78  C   UNL A   1      37.609  32.196  31.944  1.00  0.00     0.058 A 
ATOM     79  C   UNL A   1      36.779  32.386  33.066  1.00  0.00     0.135 A 
ATOM     80  C   UNL A   1      37.200  32.852  30.764  1.00  0.00     0.135 A 
ATOM     81  F   UNL A   1      37.095  31.818  34.241  1.00  0.00    -0.206 F 
ATOM     82  C   UNL A   1      35.645  33.213  33.034  1.00  0.00     0.059 A 
ATOM     83  C   UNL A   1      36.072  33.674  30.706  1.00  0.00     0.059 A 
ATOM     84  F   UNL A   1      37.936  32.785  29.645  1.00  0.00    -0.206 F 
ATOM     85  C   UNL A   1      35.313  33.873  31.851  1.00  0.00     0.060 A 
BRANCH  85  86
ATOM     86  S   UNL A   1      33.961  35.079  31.839  1.00  0.00     0.124 S 
ATOM     87  O   UNL A   1      33.759  35.297  30.412  1.00  0.00    -0.237 OA
ATOM     88  O   UNL A   1      32.896  34.359  32.530  1.00  0.00    -0.237 OA
ATOM     89  O   UNL A   1      34.515  36.216  32.570  1.00  0.00    -0.744 OA
ENDBRANCH  85  86
ENDBRANCH  53  78
BRANCH  65  90
ATOM     90  C   UNL A   1      43.060  30.129  34.498  1.00  0.00     0.058 A 
ATOM     91  C   UNL A   1      42.998  30.158  35.904  1.00  0.00     0.135 A 
ATOM     92  C   UNL A   1      42.758  28.908  33.875  1.00  0.00     0.135 A 
ATOM     93  F   UNL A   1      43.168  31.302  36.578  1.00  0.00    -0.206 F 
ATOM     94  C   UNL A   1      42.688  29.019  36.653  1.00  0.00     0.059 A 
ATOM     95  C   UNL A   1      42.417  27.770  34.598  1.00  0.00     0.059 A 
ATOM     96  F   UNL A   1      42.738  28.827  32.535  1.00  0.00    -0.206 F 
ATOM     97  C   UNL A   1      42.397  27.828  35.990  1.00  0.00     0.060 A 
BRANCH  97  98
ATOM     98  S   UNL A   1      41.941  26.366  36.948  1.00  0.00     0.124 S 
ATOM     99  O   UNL A   1      43.038  26.271  37.904  1.00  0.00    -0.237 OA
ATOM    100  O   UNL A   1      40.645  26.743  37.505  1.00  0.00    -0.237 OA
ATOM    101  O   UNL A   1      41.893  25.303  35.947  1.00  0.00    -0.744 OA
ENDBRANCH  97  98
ENDBRANCH  65  90
ENDBRANCH  39  40
ENDBRANCH  31  34
ENDBRANCH  29  30
ENDBRANCH  28  29
ENDBRANCH  27  28
ENDBRANCH  26  27
ENDBRANCH   1  26
TORSDOF 23
ENDMDL
MODEL 2
REMARK VINA RESULT:      -9.3      4.134     10.262
REMARK SMILES CCOC(=O)c1sc(NC(=O)CCC(=O)NCCCCCCNC(=O)c2ccc(-c3c4nc(c(-c5c(F)cc(S(=O)(=O)[O-])cc5F)c5ccc([nH]5)c(-c5c(F)cc(S(=O)(=O)[O-])cc5F)c5nc(c(-c6c(F)cc(S(=O)(=O)[O-])cc6F)c6ccc3[nH]6)C=C5)C=C4)cc2)c(C#N)c1C
REMARK SMILES IDX 18 1 17 2 16 3 14 4 15 5 13 7 12 8 10 9 9 10 11 12 8 13 6 14
REMARK SMILES IDX 7 15 95 16 92 17 96 18 4 19 5 20 3 21 2 22 1 23 93 24 94 25
REMARK SMILES IDX 19 26 20 27 21 28 22 29 23 30 24 31 25 33 26 34 27 35 91 36
REMARK SMILES IDX 28 37 90 38 29 39 30 40 31 41 84 42 32 43 89 44 83 45 85 46
REMARK SMILES IDX 33 47 88 48 82 49 81 50 34 52 68 53 47 54 67 55 48 56 51 57
REMARK SMILES IDX 66 58 86 59 49 60 50 61 65 63 87 64 52 65 35 66 36 67 45 68
REMARK SMILES IDX 37 69 38 70 44 71 46 72 39 73 40 74 41 75 42 76 43 77 69 78
REMARK SMILES IDX 70 79 79 80 71 81 72 82 78 83 80 84 73 85 74 86 75 87 76 88
REMARK SMILES IDX 77 89 53 90 54 91 63 92 55 93 56 94 62 95 64 96 57 97 58 98
REMARK SMILES IDX 59 99 60 100 61 101
REMARK H PARENT 16 6 9 11 23 32 85 51 51 62
REMARK Flexibility Score: inf
ROOT
ATOM      1  C   UNL A   1      35.008  29.993  27.864  1.00  0.00     0.021 C 
ENDROOT
BRANCH   1   2
ATOM      2  C   UNL A   1      34.053  29.188  26.986  1.00  0.00     0.116 C 
BRANCH   2   3
ATOM      3  N   UNL A   1      32.750  28.993  27.596  1.00  0.00    -0.356 N 
ATOM      4  C   UNL A   1      31.822  28.024  27.388  1.00  0.00     0.220 C 
ATOM      5  O   UNL A   1      30.879  27.957  28.178  1.00  0.00    -0.275 OA
ATOM      6  H   UNL A   1      32.499  29.671  28.264  1.00  0.00     0.163 HD
BRANCH   4   7
ATOM      7  C   UNL A   1      31.962  27.046  26.244  1.00  0.00     0.110 C 
BRANCH   7   8
ATOM      8  C   UNL A   1      31.612  27.538  24.843  1.00  0.00     0.110 C 
BRANCH   8   9
ATOM      9  C   UNL A   1      32.753  27.954  23.940  1.00  0.00     0.225 C 
ATOM     10  N   UNL A   1      33.703  27.116  23.427  1.00  0.00    -0.317 N 
ATOM     11  H   UNL A   1      34.453  27.570  22.978  1.00  0.00     0.170 HD
ATOM     12  O   UNL A   1      32.801  29.135  23.568  1.00  0.00    -0.275 OA
BRANCH  10  13
ATOM     13  C   UNL A   1      33.789  25.738  23.434  1.00  0.00     0.114 A 
ATOM     14  C   UNL A   1      33.951  23.407  24.172  1.00  0.00     0.118 A 
ATOM     15  S   UNL A   1      34.503  24.914  24.728  1.00  0.00    -0.109 S 
ATOM     16  C   UNL A   1      33.353  23.495  22.926  1.00  0.00    -0.006 A 
ATOM     17  C   UNL A   1      33.422  24.851  22.436  1.00  0.00     0.091 A 
ATOM     18  C   UNL A   1      32.691  22.363  22.202  1.00  0.00     0.048 C 
BRANCH  14  19
ATOM     19  C   UNL A   1      34.214  22.256  24.994  1.00  0.00     0.348 C 
ATOM     20  O   UNL A   1      33.656  21.954  26.040  1.00  0.00    -0.245 OA
BRANCH  19  21
ATOM     21  O   UNL A   1      35.268  21.586  24.449  1.00  0.00    -0.462 OA
BRANCH  21  22
ATOM     22  C   UNL A   1      36.145  20.954  25.382  1.00  0.00     0.230 C 
ATOM     23  C   UNL A   1      37.530  21.579  25.337  1.00  0.00     0.049 C 
ENDBRANCH  21  22
ENDBRANCH  19  21
ENDBRANCH  14  19
BRANCH  17  24
ATOM     24  C   UNL A   1      33.001  25.229  21.116  1.00  0.00     0.103 C 
ATOM     25  N   UNL A   1      32.681  25.486  20.035  1.00  0.00    -0.192 NA
ENDBRANCH  17  24
ENDBRANCH  10  13
ENDBRANCH   8   9
ENDBRANCH   7   8
ENDBRANCH   4   7
ENDBRANCH   2   3
ENDBRANCH   1   2
BRANCH   1  26
ATOM     26  C   UNL A   1      34.661  31.475  28.015  1.00  0.00     0.002 C 
BRANCH  26  27
ATOM     27  C   UNL A   1      35.642  32.302  28.843  1.00  0.00     0.002 C 
BRANCH  27  28
ATOM     28  C   UNL A   1      37.120  31.953  28.643  1.00  0.00     0.021 C 
BRANCH  28  29
ATOM     29  C   UNL A   1      37.764  31.285  29.850  1.00  0.00     0.116 C 
BRANCH  29  30
ATOM     30  N   UNL A   1      37.238  31.798  31.113  1.00  0.00    -0.352 N 
ATOM     31  C   UNL A   1      37.368  31.212  32.356  1.00  0.00     0.251 C 
ATOM     32  H   UNL A   1      36.742  32.648  31.074  1.00  0.00     0.163 HD
ATOM     33  O   UNL A   1      36.582  31.458  33.262  1.00  0.00    -0.269 OA
BRANCH  31  34
ATOM     34  C   UNL A   1      38.515  30.315  32.568  1.00  0.00     0.039 A 
ATOM     35  C   UNL A   1      38.422  28.931  32.401  1.00  0.00     0.014 A 
ATOM     36  C   UNL A   1      39.719  30.920  32.930  1.00  0.00     0.014 A 
ATOM     37  C   UNL A   1      39.574  28.165  32.562  1.00  0.00     0.010 A 
ATOM     38  C   UNL A   1      40.873  30.189  32.931  1.00  0.00     0.010 A 
ATOM     39  C   UNL A   1      40.794  28.808  32.828  1.00  0.00    -0.014 A 
BRANCH  39  40
ATOM     40  C   UNL A   1      42.049  28.074  32.882  1.00  0.00     0.031 A 
ATOM     41  C   UNL A   1      42.349  27.511  34.225  1.00  0.00     0.074 A 
ATOM     42  C   UNL A   1      42.729  27.732  31.764  1.00  0.00     0.049 A 
ATOM     43  N   UNL A   1      43.256  27.905  35.054  1.00  0.00    -0.248 NA
ATOM     44  C   UNL A   1      41.410  26.531  34.802  1.00  0.00     0.031 C 
ATOM     45  C   UNL A   1      42.362  27.965  30.361  1.00  0.00     0.029 A 
ATOM     46  N   UNL A   1      43.865  26.994  31.648  1.00  0.00    -0.354 N 
ATOM     47  C   UNL A   1      43.179  27.038  36.140  1.00  0.00     0.074 A 
ATOM     48  C   UNL A   1      41.898  26.390  36.037  1.00  0.00     0.031 C 
ATOM     49  C   UNL A   1      43.119  27.185  29.556  1.00  0.00     0.029 A 
ATOM     50  C   UNL A   1      44.129  26.525  30.360  1.00  0.00     0.049 A 
ATOM     51  H   UNL A   1      44.455  26.805  32.412  1.00  0.00     0.167 HD
ATOM     52  C   UNL A   1      44.290  26.729  36.866  1.00  0.00     0.037 A 
ATOM     53  C   UNL A   1      45.091  25.627  30.013  1.00  0.00     0.037 A 
ATOM     54  C   UNL A   1      45.362  27.652  36.574  1.00  0.00     0.049 A 
ATOM     55  C   UNL A   1      46.094  25.643  31.118  1.00  0.00     0.074 A 
ATOM     56  C   UNL A   1      45.501  29.025  36.654  1.00  0.00     0.029 A 
ATOM     57  N   UNL A   1      46.352  27.226  35.717  1.00  0.00    -0.354 N 
ATOM     58  N   UNL A   1      46.833  26.686  31.397  1.00  0.00    -0.248 NA
ATOM     59  C   UNL A   1      45.884  24.716  32.222  1.00  0.00     0.031 C 
ATOM     60  C   UNL A   1      46.204  29.389  35.468  1.00  0.00     0.029 A 
ATOM     61  C   UNL A   1      46.546  28.219  34.789  1.00  0.00     0.049 A 
ATOM     62  H   UNL A   1      46.831  26.368  35.761  1.00  0.00     0.167 HD
ATOM     63  C   UNL A   1      46.817  26.774  32.783  1.00  0.00     0.074 A 
ATOM     64  C   UNL A   1      46.256  25.501  33.237  1.00  0.00     0.031 C 
ATOM     65  C   UNL A   1      46.964  27.973  33.426  1.00  0.00     0.037 A 
BRANCH  52  66
ATOM     66  C   UNL A   1      44.549  25.392  37.525  1.00  0.00     0.058 A 
ATOM     67  C   UNL A   1      44.800  25.354  38.913  1.00  0.00     0.135 A 
ATOM     68  C   UNL A   1      44.840  24.200  36.825  1.00  0.00     0.135 A 
ATOM     69  F   UNL A   1      44.558  26.428  39.683  1.00  0.00    -0.206 F 
ATOM     70  C   UNL A   1      45.378  24.251  39.540  1.00  0.00     0.059 A 
ATOM     71  C   UNL A   1      45.367  23.070  37.439  1.00  0.00     0.059 A 
ATOM     72  F   UNL A   1      44.719  24.096  35.497  1.00  0.00    -0.206 F 
ATOM     73  C   UNL A   1      45.673  23.118  38.789  1.00  0.00     0.060 A 
BRANCH  73  74
ATOM     74  S   UNL A   1      46.501  21.726  39.575  1.00  0.00     0.124 S 
ATOM     75  O   UNL A   1      47.767  22.329  39.975  1.00  0.00    -0.237 OA
ATOM     76  O   UNL A   1      45.576  21.401  40.656  1.00  0.00    -0.237 OA
ATOM     77  O   UNL A   1      46.581  20.736  38.506  1.00  0.00    -0.744 OA
ENDBRANCH  73  74
ENDBRANCH  52  66
BRANCH  53  78
ATOM     78  C   UNL A   1      45.002  24.519  29.017  1.00  0.00     0.058 A 
ATOM     79  C   UNL A   1      43.837  23.738  28.880  1.00  0.00     0.135 A 
ATOM     80  C   UNL A   1      45.951  24.387  27.982  1.00  0.00     0.135 A 
ATOM     81  F   UNL A   1      42.867  23.810  29.805  1.00  0.00    -0.206 F 
ATOM     82  C   UNL A   1      43.607  22.918  27.765  1.00  0.00     0.059 A 
ATOM     83  C   UNL A   1      45.746  23.572  26.867  1.00  0.00     0.059 A 
ATOM     84  F   UNL A   1      47.076  25.116  27.978  1.00  0.00    -0.206 F 
ATOM     85  C   UNL A   1      44.561  22.859  26.749  1.00  0.00     0.060 A 
BRANCH  85  86
ATOM     86  S   UNL A   1      44.202  21.948  25.225  1.00  0.00     0.124 S 
ATOM     87  O   UNL A   1      43.186  22.786  24.601  1.00  0.00    -0.237 OA
ATOM     88  O   UNL A   1      45.503  21.925  24.564  1.00  0.00    -0.237 OA
ATOM     89  O   UNL A   1      43.730  20.653  25.708  1.00  0.00    -0.744 OA
ENDBRANCH  85  86
ENDBRANCH  53  78
BRANCH  65  90
ATOM     90  C   UNL A   1      47.395  29.181  32.630  1.00  0.00     0.058 A 
ATOM     91  C   UNL A   1      46.520  30.083  31.995  1.00  0.00     0.135 A 
ATOM     92  C   UNL A   1      48.752  29.537  32.669  1.00  0.00     0.135 A 
ATOM     93  F   UNL A   1      45.197  29.879  32.000  1.00  0.00    -0.206 F 
ATOM     94  C   UNL A   1      46.980  31.261  31.396  1.00  0.00     0.059 A 
ATOM     95  C   UNL A   1      49.228  30.717  32.108  1.00  0.00     0.059 A 
ATOM     96  F   UNL A   1      49.632  28.753  33.314  1.00  0.00    -0.206 F 
ATOM     97  C   UNL A   1      48.338  31.570  31.459  1.00  0.00     0.060 A 
BRANCH  97  98
ATOM     98  S   UNL A   1      48.931  33.115  30.738  1.00  0.00     0.124 S 
ATOM     99  O   UNL A   1      50.238  33.267  31.368  1.00  0.00    -0.237 OA
ATOM    100  O   UNL A   1      48.947  32.814  29.309  1.00  0.00    -0.237 OA
ATOM    101  O   UNL A   1      47.925  34.093  31.148  1.00  0.00    -0.744 OA
ENDBRANCH  97  98
ENDBRANCH  65  90
ENDBRANCH  39  40
ENDBRANCH  31  34
ENDBRANCH  29  30
ENDBRANCH  28  29
ENDBRANCH  27  28
ENDBRANCH  26  27
ENDBRANCH   1  26
TORSDOF 23
ENDMDL
MODEL 3
REMARK VINA RESULT:      -9.3      3.713      9.755
REMARK SMILES CCOC(=O)c1sc(NC(=O)CCC(=O)NCCCCCCNC(=O)c2ccc(-c3c4nc(c(-c5c(F)cc(S(=O)(=O)[O-])cc5F)c5ccc([nH]5)c(-c5c(F)cc(S(=O)(=O)[O-])cc5F)c5nc(c(-c6c(F)cc(S(=O)(=O)[O-])cc6F)c6ccc3[nH]6)C=C5)C=C4)cc2)c(C#N)c1C
REMARK SMILES IDX 18 1 17 2 16 3 14 4 15 5 13 7 12 8 10 9 9 10 11 12 8 13 6 14
REMARK SMILES IDX 7 15 95 16 92 17 96 18 4 19 5 20 3 21 2 22 1 23 93 24 94 25
REMARK SMILES IDX 19 26 20 27 21 28 22 29 23 30 24 31 25 33 26 34 27 35 91 36
REMARK SMILES IDX 28 37 90 38 29 39 30 40 31 41 84 42 32 43 89 44 83 45 85 46
REMARK SMILES IDX 33 47 88 48 82 49 81 50 34 52 68 53 47 54 67 55 48 56 51 57
REMARK SMILES IDX 66 58 86 59 49 60 50 61 65 63 87 64 52 65 35 66 36 67 45 68
REMARK SMILES IDX 37 69 38 70 44 71 46 72 39 73 40 74 41 75 42 76 43 77 69 78
REMARK SMILES IDX 70 79 79 80 71 81 72 82 78 83 80 84 73 85 74 86 75 87 76 88
REMARK SMILES IDX 77 89 53 90 54 91 63 92 55 93 56 94 62 95 64 96 57 97 58 98
REMARK SMILES IDX 59 99 60 100 61 101
REMARK H PARENT 16 6 9 11 23 32 85 51 51 62
REMARK Flexibility Score: inf
ROOT
ATOM      1  C   UNL A   1      32.757  28.825  26.388  1.00  0.00     0.021 C 
ENDROOT
BRANCH   1   2
ATOM      2  C   UNL A   1      32.122  29.088  25.024  1.00  0.00     0.116 C 
BRANCH   2   3
ATOM      3  N   UNL A   1      33.101  29.221  23.959  1.00  0.00    -0.356 N 
ATOM      4  C   UNL A   1      33.768  28.267  23.260  1.00  0.00     0.220 C 
ATOM      5  O   UNL A   1      34.395  28.626  22.261  1.00  0.00    -0.275 OA
ATOM      6  H   UNL A   1      33.316  30.147  23.706  1.00  0.00     0.163 HD
BRANCH   4   7
ATOM      7  C   UNL A   1      33.715  26.816  23.678  1.00  0.00     0.110 C 
BRANCH   7   8
ATOM      8  C   UNL A   1      33.521  25.769  22.585  1.00  0.00     0.110 C 
BRANCH   8   9
ATOM      9  C   UNL A   1      32.103  25.371  22.239  1.00  0.00     0.225 C 
ATOM     10  N   UNL A   1      31.476  24.229  22.653  1.00  0.00    -0.317 N 
ATOM     11  H   UNL A   1      30.608  24.056  22.222  1.00  0.00     0.170 HD
ATOM     12  O   UNL A   1      31.416  26.171  21.588  1.00  0.00    -0.275 OA
BRANCH  10  13
ATOM     13  C   UNL A   1      31.859  23.274  23.575  1.00  0.00     0.114 A 
ATOM     14  C   UNL A   1      32.980  21.384  24.658  1.00  0.00     0.118 A 
ATOM     15  S   UNL A   1      32.506  21.792  23.078  1.00  0.00    -0.109 S 
ATOM     16  C   UNL A   1      32.519  22.293  25.595  1.00  0.00    -0.006 A 
ATOM     17  C   UNL A   1      31.717  23.306  24.951  1.00  0.00     0.091 A 
ATOM     18  C   UNL A   1      32.837  22.265  27.058  1.00  0.00     0.048 C 
BRANCH  14  19
ATOM     19  C   UNL A   1      33.718  20.162  24.838  1.00  0.00     0.348 C 
ATOM     20  O   UNL A   1      34.929  20.012  24.748  1.00  0.00    -0.245 OA
BRANCH  19  21
ATOM     21  O   UNL A   1      32.819  19.160  25.047  1.00  0.00    -0.462 OA
BRANCH  21  22
ATOM     22  C   UNL A   1      32.449  18.412  23.888  1.00  0.00     0.230 C 
ATOM     23  C   UNL A   1      33.513  17.383  23.541  1.00  0.00     0.049 C 
ENDBRANCH  21  22
ENDBRANCH  19  21
ENDBRANCH  14  19
BRANCH  17  24
ATOM     24  C   UNL A   1      30.996  24.313  25.679  1.00  0.00     0.103 C 
ATOM     25  N   UNL A   1      30.444  25.161  26.238  1.00  0.00    -0.192 NA
ENDBRANCH  17  24
ENDBRANCH  10  13
ENDBRANCH   8   9
ENDBRANCH   7   8
ENDBRANCH   4   7
ENDBRANCH   2   3
ENDBRANCH   1   2
BRANCH   1  26
ATOM     26  C   UNL A   1      32.753  30.015  27.348  1.00  0.00     0.002 C 
BRANCH  26  27
ATOM     27  C   UNL A   1      34.062  30.796  27.438  1.00  0.00     0.002 C 
BRANCH  27  28
ATOM     28  C   UNL A   1      35.334  29.952  27.304  1.00  0.00     0.021 C 
BRANCH  28  29
ATOM     29  C   UNL A   1      36.467  30.397  28.217  1.00  0.00     0.116 C 
BRANCH  29  30
ATOM     30  N   UNL A   1      35.984  31.136  29.381  1.00  0.00    -0.352 N 
ATOM     31  C   UNL A   1      36.319  30.905  30.700  1.00  0.00     0.251 C 
ATOM     32  H   UNL A   1      35.354  31.874  29.208  1.00  0.00     0.163 HD
ATOM     33  O   UNL A   1      35.590  31.262  31.616  1.00  0.00    -0.269 OA
BRANCH  31  34
ATOM     34  C   UNL A   1      37.612  30.253  30.968  1.00  0.00     0.039 A 
ATOM     35  C   UNL A   1      37.748  28.865  31.034  1.00  0.00     0.014 A 
ATOM     36  C   UNL A   1      38.710  31.097  31.135  1.00  0.00     0.014 A 
ATOM     37  C   UNL A   1      39.020  28.332  31.231  1.00  0.00     0.010 A 
ATOM     38  C   UNL A   1      39.971  30.571  31.169  1.00  0.00     0.010 A 
ATOM     39  C   UNL A   1      40.124  29.198  31.296  1.00  0.00    -0.014 A 
BRANCH  39  40
ATOM     40  C   UNL A   1      41.486  28.695  31.375  1.00  0.00     0.031 A 
ATOM     41  C   UNL A   1      41.974  28.516  32.767  1.00  0.00     0.074 A 
ATOM     42  C   UNL A   1      42.133  28.205  30.292  1.00  0.00     0.049 A 
ATOM     43  N   UNL A   1      42.857  29.227  33.385  1.00  0.00    -0.248 NA
ATOM     44  C   UNL A   1      41.261  27.571  33.646  1.00  0.00     0.031 C 
ATOM     45  C   UNL A   1      41.633  28.043  28.921  1.00  0.00     0.029 A 
ATOM     46  N   UNL A   1      43.368  27.641  30.219  1.00  0.00    -0.354 N 
ATOM     47  C   UNL A   1      43.007  28.639  34.638  1.00  0.00     0.074 A 
ATOM     48  C   UNL A   1      41.853  27.800  34.821  1.00  0.00     0.031 C 
ATOM     49  C   UNL A   1      42.453  27.218  28.230  1.00  0.00     0.029 A 
ATOM     50  C   UNL A   1      43.616  26.926  29.046  1.00  0.00     0.049 A 
ATOM     51  H   UNL A   1      44.035  27.728  30.937  1.00  0.00     0.167 HD
ATOM     52  C   UNL A   1      44.204  28.681  35.289  1.00  0.00     0.037 A 
ATOM     53  C   UNL A   1      44.691  26.127  28.803  1.00  0.00     0.037 A 
ATOM     54  C   UNL A   1      45.078  29.659  34.684  1.00  0.00     0.049 A 
ATOM     55  C   UNL A   1      45.752  26.554  29.761  1.00  0.00     0.074 A 
ATOM     56  C   UNL A   1      44.985  31.017  34.443  1.00  0.00     0.029 A 
ATOM     57  N   UNL A   1      46.062  29.197  33.840  1.00  0.00    -0.354 N 
ATOM     58  N   UNL A   1      46.319  27.732  29.720  1.00  0.00    -0.248 NA
ATOM     59  C   UNL A   1      45.784  25.892  31.058  1.00  0.00     0.031 C 
ATOM     60  C   UNL A   1      45.529  31.193  33.137  1.00  0.00     0.029 A 
ATOM     61  C   UNL A   1      46.017  29.961  32.700  1.00  0.00     0.049 A 
ATOM     62  H   UNL A   1      46.683  28.455  34.021  1.00  0.00     0.167 HD
ATOM     63  C   UNL A   1      46.387  28.141  31.045  1.00  0.00     0.074 A 
ATOM     64  C   UNL A   1      46.088  26.941  31.829  1.00  0.00     0.031 C 
ATOM     65  C   UNL A   1      46.372  29.465  31.388  1.00  0.00     0.037 A 
BRANCH  52  66
ATOM     66  C   UNL A   1      44.735  27.591  36.194  1.00  0.00     0.058 A 
ATOM     67  C   UNL A   1      45.249  27.948  37.459  1.00  0.00     0.135 A 
ATOM     68  C   UNL A   1      45.020  26.273  35.775  1.00  0.00     0.135 A 
ATOM     69  F   UNL A   1      45.038  29.174  37.964  1.00  0.00    -0.206 F 
ATOM     70  C   UNL A   1      46.058  27.093  38.206  1.00  0.00     0.059 A 
ATOM     71  C   UNL A   1      45.781  25.386  36.528  1.00  0.00     0.059 A 
ATOM     72  F   UNL A   1      44.661  25.804  34.575  1.00  0.00    -0.206 F 
ATOM     73  C   UNL A   1      46.331  25.817  37.723  1.00  0.00     0.060 A 
BRANCH  73  74
ATOM     74  S   UNL A   1      47.447  24.744  38.641  1.00  0.00     0.124 S 
ATOM     75  O   UNL A   1      48.739  25.114  38.073  1.00  0.00    -0.237 OA
ATOM     76  O   UNL A   1      47.206  25.169  40.016  1.00  0.00    -0.237 OA
ATOM     77  O   UNL A   1      46.971  23.404  38.311  1.00  0.00    -0.744 OA
ENDBRANCH  73  74
ENDBRANCH  52  66
BRANCH  53  78
ATOM     78  C   UNL A   1      44.722  24.815  28.092  1.00  0.00     0.058 A 
ATOM     79  C   UNL A   1      43.792  23.795  28.377  1.00  0.00     0.135 A 
ATOM     80  C   UNL A   1      45.483  24.636  26.918  1.00  0.00     0.135 A 
ATOM     81  F   UNL A   1      43.008  23.885  29.463  1.00  0.00    -0.206 F 
ATOM     82  C   UNL A   1      43.594  22.696  27.527  1.00  0.00     0.059 A 
ATOM     83  C   UNL A   1      45.309  23.548  26.061  1.00  0.00     0.059 A 
ATOM     84  F   UNL A   1      46.364  25.564  26.518  1.00  0.00    -0.206 F 
ATOM     85  C   UNL A   1      44.344  22.593  26.356  1.00  0.00     0.060 A 
BRANCH  85  86
ATOM     86  S   UNL A   1      43.979  21.280  25.163  1.00  0.00     0.124 S 
ATOM     87  O   UNL A   1      42.581  20.984  25.454  1.00  0.00    -0.237 OA
ATOM     88  O   UNL A   1      44.238  21.939  23.887  1.00  0.00    -0.237 OA
ATOM     89  O   UNL A   1      44.926  20.226  25.518  1.00  0.00    -0.744 OA
ENDBRANCH  85  86
ENDBRANCH  53  78
BRANCH  65  90
ATOM     90  C   UNL A   1      46.532  30.503  30.302  1.00  0.00     0.058 A 
ATOM     91  C   UNL A   1      47.761  30.911  29.751  1.00  0.00     0.135 A 
ATOM     92  C   UNL A   1      45.368  30.968  29.670  1.00  0.00     0.135 A 
ATOM     93  F   UNL A   1      48.920  30.434  30.222  1.00  0.00    -0.206 F 
ATOM     94  C   UNL A   1      47.828  31.770  28.649  1.00  0.00     0.059 A 
ATOM     95  C   UNL A   1      45.410  31.798  28.555  1.00  0.00     0.059 A 
ATOM     96  F   UNL A   1      44.163  30.567  30.106  1.00  0.00    -0.206 F 
ATOM     97  C   UNL A   1      46.645  32.208  28.056  1.00  0.00     0.060 A 
BRANCH  97  98
ATOM     98  S   UNL A   1      46.722  33.272  26.599  1.00  0.00     0.124 S 
ATOM     99  O   UNL A   1      48.073  33.022  26.108  1.00  0.00    -0.237 OA
ATOM    100  O   UNL A   1      45.639  32.754  25.769  1.00  0.00    -0.237 OA
ATOM    101  O   UNL A   1      46.495  34.610  27.140  1.00  0.00    -0.744 OA
ENDBRANCH  97  98
ENDBRANCH  65  90
ENDBRANCH  39  40
ENDBRANCH  31  34
ENDBRANCH  29  30
ENDBRANCH  28  29
ENDBRANCH  27  28
ENDBRANCH  26  27
ENDBRANCH   1  26
TORSDOF 23
ENDMDL
