MODEL 1
REMARK VINA RESULT:      -9.0      0.000      0.000
REMARK SMILES C[C@@H](CO)CS[C@@H](C)C[C@@](C)([NH3+])C(=O)NCCCCCCNC(=O)c1ccc(-c2c3nc(c(-c4c(F)cc(S(=O)(=O)[O-])cc4F)c4ccc([nH]4)c(-c4c(F)cc(S(=O)(=O)[O-])cc4F)c4nc(c(-c5c(F)cc(S(=O)(=O)[O-])cc5F)c5ccc2[nH]5)C=C4)C=C3)cc1
REMARK SMILES IDX 16 1 15 2 13 3 14 4 10 6 11 7 9 8 7 9 8 10 6 11 5 12 2 13
REMARK SMILES IDX 1 14 3 15 4 16 12 18 17 22 18 23 19 24 20 25 21 26 22 27
REMARK SMILES IDX 23 28 24 30 25 31 26 32 90 33 27 34 89 35 28 36 29 37 30 38
REMARK SMILES IDX 83 39 31 40 88 41 82 42 84 43 32 44 87 45 81 46 80 47 33 49
REMARK SMILES IDX 67 50 46 51 66 52 47 53 50 54 65 55 85 56 48 57 49 58 64 60
REMARK SMILES IDX 86 61 51 62 34 63 35 64 44 65 36 66 37 67 43 68 45 69 38 70
REMARK SMILES IDX 39 71 40 72 41 73 42 74 68 75 69 76 78 77 70 78 71 79 77 80
REMARK SMILES IDX 79 81 72 82 73 83 74 84 75 85 76 86 52 87 53 88 62 89 54 90
REMARK SMILES IDX 55 91 61 92 63 93 56 94 57 95 58 96 59 97 60 98
REMARK H PARENT 15 5 4 17 12 19 12 20 12 21 22 29 84 48 50 59
REMARK Flexibility Score: inf
ROOT
ATOM      1  C   UNL A   1      33.365  26.897  25.863  1.00  0.00     0.116 C 
ENDROOT
BRANCH   1   2
ATOM      2  N   UNL A   1      32.066  27.530  25.764  1.00  0.00    -0.351 N 
ATOM      3  C   UNL A   1      30.988  27.100  25.048  1.00  0.00     0.281 C 
ATOM      4  O   UNL A   1      30.543  27.934  24.264  1.00  0.00    -0.268 OA
ATOM      5  H   UNL A   1      31.949  28.366  26.271  1.00  0.00     0.163 HD
BRANCH   3   6
ATOM      6  C   UNL A   1      30.471  25.627  25.164  1.00  0.00     0.172 C 
ATOM      7  C   UNL A   1      30.885  24.802  23.932  1.00  0.00     0.090 C 
BRANCH   6   8
ATOM      8  C   UNL A   1      30.897  24.850  26.453  1.00  0.00     0.093 C 
BRANCH   8   9
ATOM      9  C   UNL A   1      31.003  23.310  26.507  1.00  0.00     0.050 C 
ATOM     10  C   UNL A   1      29.689  22.719  27.041  1.00  0.00     0.019 C 
BRANCH   9  11
ATOM     11  S   UNL A   1      32.425  22.518  27.370  1.00  0.00    -0.158 SA
BRANCH  11  12
ATOM     12  C   UNL A   1      33.151  21.310  26.177  1.00  0.00     0.075 C 
BRANCH  12  13
ATOM     13  C   UNL A   1      32.319  20.834  24.961  1.00  0.00     0.021 C 
ATOM     14  C   UNL A   1      32.677  21.543  23.654  1.00  0.00     0.011 C 
BRANCH  13  15
ATOM     15  C   UNL A   1      32.492  19.321  24.752  1.00  0.00     0.160 C 
BRANCH  15  16
ATOM     16  O   UNL A   1      33.640  18.824  25.426  1.00  0.00    -0.396 OA
ATOM     17  H   UNL A   1      34.434  19.040  24.912  1.00  0.00     0.210 HD
ENDBRANCH  15  16
ENDBRANCH  13  15
ENDBRANCH  12  13
ENDBRANCH  11  12
ENDBRANCH   9  11
ENDBRANCH   8   9
ENDBRANCH   6   8
BRANCH   6  18
ATOM     18  N   UNL A   1      28.983  25.672  25.264  1.00  0.00    -0.345 N 
ATOM     19  H   UNL A   1      28.694  25.331  26.181  1.00  0.00     0.345 HD
ATOM     20  H   UNL A   1      28.576  25.081  24.539  1.00  0.00     0.345 HD
ATOM     21  H   UNL A   1      28.662  26.631  25.141  1.00  0.00     0.345 HD
ENDBRANCH   6  18
ENDBRANCH   3   6
ENDBRANCH   1   2
BRANCH   1  22
ATOM     22  C   UNL A   1      33.985  26.714  24.470  1.00  0.00     0.021 C 
BRANCH  22  23
ATOM     23  C   UNL A   1      34.540  25.309  24.184  1.00  0.00     0.002 C 
BRANCH  23  24
ATOM     24  C   UNL A   1      34.521  24.335  25.366  1.00  0.00     0.002 C 
BRANCH  24  25
ATOM     25  C   UNL A   1      35.893  23.974  25.937  1.00  0.00     0.021 C 
BRANCH  25  26
ATOM     26  C   UNL A   1      36.983  23.768  24.895  1.00  0.00     0.116 C 
BRANCH  26  27
ATOM     27  N   UNL A   1      37.935  22.742  25.288  1.00  0.00    -0.352 N 
ATOM     28  C   UNL A   1      39.073  22.870  26.042  1.00  0.00     0.251 C 
ATOM     29  H   UNL A   1      37.735  21.831  24.970  1.00  0.00     0.163 HD
ATOM     30  O   UNL A   1      39.863  21.931  26.133  1.00  0.00    -0.269 OA
BRANCH  28  31
ATOM     31  C   UNL A   1      39.363  24.153  26.719  1.00  0.00     0.039 A 
ATOM     32  C   UNL A   1      38.910  24.344  28.025  1.00  0.00     0.014 A 
ATOM     33  C   UNL A   1      40.102  25.151  26.075  1.00  0.00     0.014 A 
ATOM     34  C   UNL A   1      39.260  25.509  28.712  1.00  0.00     0.010 A 
ATOM     35  C   UNL A   1      40.508  26.278  26.784  1.00  0.00     0.010 A 
ATOM     36  C   UNL A   1      40.095  26.467  28.112  1.00  0.00    -0.014 A 
BRANCH  36  37
ATOM     37  C   UNL A   1      40.571  27.652  28.869  1.00  0.00     0.031 A 
ATOM     38  C   UNL A   1      41.928  27.649  29.516  1.00  0.00     0.074 A 
ATOM     39  C   UNL A   1      39.748  28.709  29.030  1.00  0.00     0.049 A 
ATOM     40  N   UNL A   1      42.490  28.567  30.262  1.00  0.00    -0.248 NA
ATOM     41  C   UNL A   1      42.755  26.448  29.321  1.00  0.00     0.031 C 
ATOM     42  C   UNL A   1      38.387  28.808  28.498  1.00  0.00     0.029 A 
ATOM     43  N   UNL A   1      39.929  29.894  29.698  1.00  0.00    -0.354 N 
ATOM     44  C   UNL A   1      43.725  28.051  30.633  1.00  0.00     0.074 A 
ATOM     45  C   UNL A   1      43.812  26.721  30.071  1.00  0.00     0.031 C 
ATOM     46  C   UNL A   1      37.864  29.995  28.842  1.00  0.00     0.029 A 
ATOM     47  C   UNL A   1      38.835  30.726  29.651  1.00  0.00     0.049 A 
ATOM     48  H   UNL A   1      40.763  30.128  30.166  1.00  0.00     0.167 HD
ATOM     49  C   UNL A   1      44.706  28.643  31.358  1.00  0.00     0.037 A 
ATOM     50  C   UNL A   1      38.629  31.937  30.207  1.00  0.00     0.037 A 
ATOM     51  C   UNL A   1      44.620  29.976  31.894  1.00  0.00     0.049 A 
ATOM     52  C   UNL A   1      39.730  32.570  31.011  1.00  0.00     0.074 A 
ATOM     53  C   UNL A   1      45.588  30.693  32.576  1.00  0.00     0.029 A 
ATOM     54  N   UNL A   1      43.500  30.792  31.818  1.00  0.00    -0.354 N 
ATOM     55  N   UNL A   1      40.925  32.100  31.285  1.00  0.00    -0.248 NA
ATOM     56  C   UNL A   1      39.459  33.897  31.581  1.00  0.00     0.031 C 
ATOM     57  C   UNL A   1      45.037  31.922  32.956  1.00  0.00     0.029 A 
ATOM     58  C   UNL A   1      43.741  31.991  32.470  1.00  0.00     0.049 A 
ATOM     59  H   UNL A   1      42.657  30.554  31.369  1.00  0.00     0.167 HD
ATOM     60  C   UNL A   1      41.552  33.080  32.048  1.00  0.00     0.074 A 
ATOM     61  C   UNL A   1      40.613  34.176  32.175  1.00  0.00     0.031 C 
ATOM     62  C   UNL A   1      42.792  33.069  32.597  1.00  0.00     0.037 A 
BRANCH  49  63
ATOM     63  C   UNL A   1      45.960  27.851  31.612  1.00  0.00     0.058 A 
ATOM     64  C   UNL A   1      46.108  27.052  32.757  1.00  0.00     0.135 A 
ATOM     65  C   UNL A   1      47.012  27.862  30.682  1.00  0.00     0.135 A 
ATOM     66  F   UNL A   1      45.139  27.013  33.686  1.00  0.00    -0.206 F 
ATOM     67  C   UNL A   1      47.266  26.316  32.986  1.00  0.00     0.059 A 
ATOM     68  C   UNL A   1      48.167  27.112  30.877  1.00  0.00     0.059 A 
ATOM     69  F   UNL A   1      46.923  28.609  29.571  1.00  0.00    -0.206 F 
ATOM     70  C   UNL A   1      48.292  26.354  32.040  1.00  0.00     0.060 A 
BRANCH  70  71
ATOM     71  S   UNL A   1      49.787  25.392  32.352  1.00  0.00     0.124 S 
ATOM     72  O   UNL A   1      49.296  24.386  33.289  1.00  0.00    -0.237 OA
ATOM     73  O   UNL A   1      50.130  24.905  31.020  1.00  0.00    -0.237 OA
ATOM     74  O   UNL A   1      50.711  26.373  32.915  1.00  0.00    -0.744 OA
ENDBRANCH  70  71
ENDBRANCH  49  63
BRANCH  50  75
ATOM     75  C   UNL A   1      37.329  32.630  30.009  1.00  0.00     0.058 A 
ATOM     76  C   UNL A   1      36.219  32.326  30.809  1.00  0.00     0.135 A 
ATOM     77  C   UNL A   1      37.177  33.628  29.032  1.00  0.00     0.135 A 
ATOM     78  F   UNL A   1      36.312  31.375  31.751  1.00  0.00    -0.206 F 
ATOM     79  C   UNL A   1      35.001  32.978  30.644  1.00  0.00     0.059 A 
ATOM     80  C   UNL A   1      35.977  34.310  28.864  1.00  0.00     0.059 A 
ATOM     81  F   UNL A   1      38.215  33.967  28.251  1.00  0.00    -0.206 F 
ATOM     82  C   UNL A   1      34.891  33.972  29.670  1.00  0.00     0.060 A 
BRANCH  82  83
ATOM     83  S   UNL A   1      33.325  34.855  29.505  1.00  0.00     0.124 S 
ATOM     84  O   UNL A   1      33.765  36.130  28.949  1.00  0.00    -0.237 OA
ATOM     85  O   UNL A   1      32.578  33.988  28.600  1.00  0.00    -0.237 OA
ATOM     86  O   UNL A   1      32.821  34.902  30.874  1.00  0.00    -0.744 OA
ENDBRANCH  82  83
ENDBRANCH  50  75
BRANCH  62  87
ATOM     87  C   UNL A   1      43.209  34.282  33.382  1.00  0.00     0.058 A 
ATOM     88  C   UNL A   1      43.828  35.379  32.763  1.00  0.00     0.135 A 
ATOM     89  C   UNL A   1      42.940  34.370  34.758  1.00  0.00     0.135 A 
ATOM     90  F   UNL A   1      44.115  35.342  31.452  1.00  0.00    -0.206 F 
ATOM     91  C   UNL A   1      44.185  36.513  33.485  1.00  0.00     0.059 A 
ATOM     92  C   UNL A   1      43.264  35.506  35.493  1.00  0.00     0.059 A 
ATOM     93  F   UNL A   1      42.341  33.352  35.396  1.00  0.00    -0.206 F 
ATOM     94  C   UNL A   1      43.896  36.569  34.849  1.00  0.00     0.060 A 
BRANCH  94  95
ATOM     95  S   UNL A   1      44.332  38.062  35.765  1.00  0.00     0.124 S 
ATOM     96  O   UNL A   1      43.798  39.107  34.898  1.00  0.00    -0.237 OA
ATOM     97  O   UNL A   1      43.629  37.868  37.030  1.00  0.00    -0.237 OA
ATOM     98  O   UNL A   1      45.788  37.997  35.848  1.00  0.00    -0.744 OA
ENDBRANCH  94  95
ENDBRANCH  62  87
ENDBRANCH  36  37
ENDBRANCH  28  31
ENDBRANCH  26  27
ENDBRANCH  25  26
ENDBRANCH  24  25
ENDBRANCH  23  24
ENDBRANCH  22  23
ENDBRANCH   1  22
TORSDOF 24
ENDMDL
MODEL 2
REMARK VINA RESULT:      -8.4      3.190      9.310
REMARK SMILES C[C@@H](CO)CS[C@@H](C)C[C@@](C)([NH3+])C(=O)NCCCCCCNC(=O)c1ccc(-c2c3nc(c(-c4c(F)cc(S(=O)(=O)[O-])cc4F)c4ccc([nH]4)c(-c4c(F)cc(S(=O)(=O)[O-])cc4F)c4nc(c(-c5c(F)cc(S(=O)(=O)[O-])cc5F)c5ccc2[nH]5)C=C4)C=C3)cc1
REMARK SMILES IDX 16 1 15 2 13 3 14 4 10 6 11 7 9 8 7 9 8 10 6 11 5 12 2 13
REMARK SMILES IDX 1 14 3 15 4 16 12 18 17 22 18 23 19 24 20 25 21 26 22 27
REMARK SMILES IDX 23 28 24 30 25 31 26 32 90 33 27 34 89 35 28 36 29 37 30 38
REMARK SMILES IDX 83 39 31 40 88 41 82 42 84 43 32 44 87 45 81 46 80 47 33 49
REMARK SMILES IDX 67 50 46 51 66 52 47 53 50 54 65 55 85 56 48 57 49 58 64 60
REMARK SMILES IDX 86 61 51 62 34 63 35 64 44 65 36 66 37 67 43 68 45 69 38 70
REMARK SMILES IDX 39 71 40 72 41 73 42 74 68 75 69 76 78 77 70 78 71 79 77 80
REMARK SMILES IDX 79 81 72 82 73 83 74 84 75 85 76 86 52 87 53 88 62 89 54 90
REMARK SMILES IDX 55 91 61 92 63 93 56 94 57 95 58 96 59 97 60 98
REMARK H PARENT 15 5 4 17 12 19 12 20 12 21 22 29 84 48 50 59
REMARK Flexibility Score: inf
ROOT
ATOM      1  C   UNL A   1      34.063  20.216  25.385  1.00  0.00     0.116 C 
ENDROOT
BRANCH   1   2
ATOM      2  N   UNL A   1      33.654  20.811  26.640  1.00  0.00    -0.351 N 
ATOM      3  C   UNL A   1      33.305  22.111  26.865  1.00  0.00     0.281 C 
ATOM      4  O   UNL A   1      33.948  22.653  27.760  1.00  0.00    -0.268 OA
ATOM      5  H   UNL A   1      33.625  20.210  27.419  1.00  0.00     0.163 HD
BRANCH   3   6
ATOM      6  C   UNL A   1      32.255  22.838  25.960  1.00  0.00     0.172 C 
ATOM      7  C   UNL A   1      31.254  23.636  26.815  1.00  0.00     0.090 C 
BRANCH   6   8
ATOM      8  C   UNL A   1      32.836  23.782  24.856  1.00  0.00     0.093 C 
BRANCH   8   9
ATOM      9  C   UNL A   1      32.277  23.832  23.417  1.00  0.00     0.050 C 
ATOM     10  C   UNL A   1      33.241  23.115  22.461  1.00  0.00     0.019 C 
BRANCH   9  11
ATOM     11  S   UNL A   1      31.776  25.447  22.685  1.00  0.00    -0.158 SA
BRANCH  11  12
ATOM     12  C   UNL A   1      31.415  26.573  24.104  1.00  0.00     0.075 C 
BRANCH  12  13
ATOM     13  C   UNL A   1      30.606  27.871  23.870  1.00  0.00     0.021 C 
ATOM     14  C   UNL A   1      31.144  29.079  24.641  1.00  0.00     0.011 C 
BRANCH  13  15
ATOM     15  C   UNL A   1      30.580  28.226  22.375  1.00  0.00     0.160 C 
BRANCH  15  16
ATOM     16  O   UNL A   1      29.418  28.971  22.032  1.00  0.00    -0.396 OA
ATOM     17  H   UNL A   1      29.617  29.919  22.080  1.00  0.00     0.210 HD
ENDBRANCH  15  16
ENDBRANCH  13  15
ENDBRANCH  12  13
ENDBRANCH  11  12
ENDBRANCH   9  11
ENDBRANCH   8   9
ENDBRANCH   6   8
BRANCH   6  18
ATOM     18  N   UNL A   1      31.529  21.796  25.176  1.00  0.00    -0.345 N 
ATOM     19  H   UNL A   1      32.035  20.912  25.236  1.00  0.00     0.345 HD
ATOM     20  H   UNL A   1      31.468  22.086  24.201  1.00  0.00     0.345 HD
ATOM     21  H   UNL A   1      30.590  21.677  25.556  1.00  0.00     0.345 HD
ENDBRANCH   6  18
ENDBRANCH   3   6
ENDBRANCH   1   2
BRANCH   1  22
ATOM     22  C   UNL A   1      35.146  21.069  24.709  1.00  0.00     0.021 C 
BRANCH  22  23
ATOM     23  C   UNL A   1      36.420  21.285  25.544  1.00  0.00     0.002 C 
BRANCH  23  24
ATOM     24  C   UNL A   1      37.426  22.286  24.970  1.00  0.00     0.002 C 
BRANCH  24  25
ATOM     25  C   UNL A   1      37.272  23.724  25.467  1.00  0.00     0.021 C 
BRANCH  25  26
ATOM     26  C   UNL A   1      38.218  24.115  26.593  1.00  0.00     0.116 C 
BRANCH  26  27
ATOM     27  N   UNL A   1      39.614  24.022  26.198  1.00  0.00    -0.352 N 
ATOM     28  C   UNL A   1      40.662  24.835  26.551  1.00  0.00     0.251 C 
ATOM     29  H   UNL A   1      39.838  23.276  25.596  1.00  0.00     0.163 HD
ATOM     30  O   UNL A   1      41.749  24.721  25.984  1.00  0.00    -0.269 OA
BRANCH  28  31
ATOM     31  C   UNL A   1      40.470  25.869  27.590  1.00  0.00     0.039 A 
ATOM     32  C   UNL A   1      39.544  25.638  28.610  1.00  0.00     0.014 A 
ATOM     33  C   UNL A   1      41.221  27.048  27.573  1.00  0.00     0.014 A 
ATOM     34  C   UNL A   1      39.423  26.560  29.652  1.00  0.00     0.010 A 
ATOM     35  C   UNL A   1      41.149  27.931  28.648  1.00  0.00     0.010 A 
ATOM     36  C   UNL A   1      40.252  27.693  29.701  1.00  0.00    -0.014 A 
BRANCH  36  37
ATOM     37  C   UNL A   1      40.216  28.619  30.861  1.00  0.00     0.031 A 
ATOM     38  C   UNL A   1      39.249  29.770  30.887  1.00  0.00     0.074 A 
ATOM     39  C   UNL A   1      41.105  28.461  31.863  1.00  0.00     0.049 A 
ATOM     40  N   UNL A   1      39.111  30.712  31.785  1.00  0.00    -0.248 NA
ATOM     41  C   UNL A   1      38.332  29.895  29.743  1.00  0.00     0.031 C 
ATOM     42  C   UNL A   1      42.130  27.416  31.925  1.00  0.00     0.029 A 
ATOM     43  N   UNL A   1      41.300  29.183  33.013  1.00  0.00    -0.354 N 
ATOM     44  C   UNL A   1      38.104  31.545  31.312  1.00  0.00     0.074 A 
ATOM     45  C   UNL A   1      37.699  31.024  30.024  1.00  0.00     0.031 C 
ATOM     46  C   UNL A   1      42.831  27.553  33.061  1.00  0.00     0.029 A 
ATOM     47  C   UNL A   1      42.334  28.716  33.790  1.00  0.00     0.049 A 
ATOM     48  H   UNL A   1      40.752  29.963  33.260  1.00  0.00     0.167 HD
ATOM     49  C   UNL A   1      37.554  32.630  31.907  1.00  0.00     0.037 A 
ATOM     50  C   UNL A   1      42.835  29.177  34.954  1.00  0.00     0.037 A 
ATOM     51  C   UNL A   1      37.947  33.128  33.200  1.00  0.00     0.049 A 
ATOM     52  C   UNL A   1      42.211  30.387  35.592  1.00  0.00     0.074 A 
ATOM     53  C   UNL A   1      37.399  34.174  33.922  1.00  0.00     0.029 A 
ATOM     54  N   UNL A   1      38.991  32.623  33.961  1.00  0.00    -0.354 N 
ATOM     55  N   UNL A   1      41.205  31.115  35.167  1.00  0.00    -0.248 NA
ATOM     56  C   UNL A   1      42.786  30.838  36.866  1.00  0.00     0.031 C 
ATOM     57  C   UNL A   1      38.144  34.333  35.096  1.00  0.00     0.029 A 
ATOM     58  C   UNL A   1      39.126  33.356  35.129  1.00  0.00     0.049 A 
ATOM     59  H   UNL A   1      39.555  31.856  33.708  1.00  0.00     0.167 HD
ATOM     60  C   UNL A   1      41.019  32.102  36.129  1.00  0.00     0.074 A 
ATOM     61  C   UNL A   1      42.002  31.865  37.166  1.00  0.00     0.031 C 
ATOM     62  C   UNL A   1      40.117  33.115  36.148  1.00  0.00     0.037 A 
BRANCH  49  63
ATOM     63  C   UNL A   1      36.462  33.354  31.166  1.00  0.00     0.058 A 
ATOM     64  C   UNL A   1      36.734  34.135  30.031  1.00  0.00     0.135 A 
ATOM     65  C   UNL A   1      35.124  33.236  31.573  1.00  0.00     0.135 A 
ATOM     66  F   UNL A   1      37.998  34.293  29.605  1.00  0.00    -0.206 F 
ATOM     67  C   UNL A   1      35.723  34.798  29.345  1.00  0.00     0.059 A 
ATOM     68  C   UNL A   1      34.093  33.868  30.885  1.00  0.00     0.059 A 
ATOM     69  F   UNL A   1      34.808  32.502  32.651  1.00  0.00    -0.206 F 
ATOM     70  C   UNL A   1      34.403  34.659  29.780  1.00  0.00     0.060 A 
BRANCH  70  71
ATOM     71  S   UNL A   1      33.103  35.526  28.877  1.00  0.00     0.124 S 
ATOM     72  O   UNL A   1      32.312  36.085  29.969  1.00  0.00    -0.237 OA
ATOM     73  O   UNL A   1      33.860  36.489  28.084  1.00  0.00    -0.237 OA
ATOM     74  O   UNL A   1      32.453  34.464  28.114  1.00  0.00    -0.744 OA
ENDBRANCH  70  71
ENDBRANCH  49  63
BRANCH  50  75
ATOM     75  C   UNL A   1      43.985  28.482  35.590  1.00  0.00     0.058 A 
ATOM     76  C   UNL A   1      43.782  27.477  36.547  1.00  0.00     0.135 A 
ATOM     77  C   UNL A   1      45.309  28.792  35.237  1.00  0.00     0.135 A 
ATOM     78  F   UNL A   1      42.536  27.152  36.923  1.00  0.00    -0.206 F 
ATOM     79  C   UNL A   1      44.849  26.809  37.139  1.00  0.00     0.059 A 
ATOM     80  C   UNL A   1      46.391  28.121  35.797  1.00  0.00     0.059 A 
ATOM     81  F   UNL A   1      45.555  29.735  34.314  1.00  0.00    -0.206 F 
ATOM     82  C   UNL A   1      46.151  27.136  36.755  1.00  0.00     0.060 A 
BRANCH  82  83
ATOM     83  S   UNL A   1      47.526  26.221  37.483  1.00  0.00     0.124 S 
ATOM     84  O   UNL A   1      48.606  26.524  36.552  1.00  0.00    -0.237 OA
ATOM     85  O   UNL A   1      47.633  26.829  38.806  1.00  0.00    -0.237 OA
ATOM     86  O   UNL A   1      47.052  24.840  37.474  1.00  0.00    -0.744 OA
ENDBRANCH  82  83
ENDBRANCH  50  75
BRANCH  62  87
ATOM     87  C   UNL A   1      40.148  34.043  37.331  1.00  0.00     0.058 A 
ATOM     88  C   UNL A   1      39.428  33.762  38.502  1.00  0.00     0.135 A 
ATOM     89  C   UNL A   1      40.945  35.199  37.311  1.00  0.00     0.135 A 
ATOM     90  F   UNL A   1      38.645  32.674  38.569  1.00  0.00    -0.206 F 
ATOM     91  C   UNL A   1      39.482  34.605  39.607  1.00  0.00     0.059 A 
ATOM     92  C   UNL A   1      41.035  36.043  38.414  1.00  0.00     0.059 A 
ATOM     93  F   UNL A   1      41.660  35.510  36.218  1.00  0.00    -0.206 F 
ATOM     94  C   UNL A   1      40.291  35.741  39.555  1.00  0.00     0.060 A 
BRANCH  94  95
ATOM     95  S   UNL A   1      40.379  36.807  41.010  1.00  0.00     0.124 S 
ATOM     96  O   UNL A   1      39.072  37.455  40.981  1.00  0.00    -0.237 OA
ATOM     97  O   UNL A   1      40.587  35.846  42.088  1.00  0.00    -0.237 OA
ATOM     98  O   UNL A   1      41.518  37.676  40.726  1.00  0.00    -0.744 OA
ENDBRANCH  94  95
ENDBRANCH  62  87
ENDBRANCH  36  37
ENDBRANCH  28  31
ENDBRANCH  26  27
ENDBRANCH  25  26
ENDBRANCH  24  25
ENDBRANCH  23  24
ENDBRANCH  22  23
ENDBRANCH   1  22
TORSDOF 24
ENDMDL
MODEL 3
REMARK VINA RESULT:      -8.2      1.159      2.429
REMARK SMILES C[C@@H](CO)CS[C@@H](C)C[C@@](C)([NH3+])C(=O)NCCCCCCNC(=O)c1ccc(-c2c3nc(c(-c4c(F)cc(S(=O)(=O)[O-])cc4F)c4ccc([nH]4)c(-c4c(F)cc(S(=O)(=O)[O-])cc4F)c4nc(c(-c5c(F)cc(S(=O)(=O)[O-])cc5F)c5ccc2[nH]5)C=C4)C=C3)cc1
REMARK SMILES IDX 16 1 15 2 13 3 14 4 10 6 11 7 9 8 7 9 8 10 6 11 5 12 2 13
REMARK SMILES IDX 1 14 3 15 4 16 12 18 17 22 18 23 19 24 20 25 21 26 22 27
REMARK SMILES IDX 23 28 24 30 25 31 26 32 90 33 27 34 89 35 28 36 29 37 30 38
REMARK SMILES IDX 83 39 31 40 88 41 82 42 84 43 32 44 87 45 81 46 80 47 33 49
REMARK SMILES IDX 67 50 46 51 66 52 47 53 50 54 65 55 85 56 48 57 49 58 64 60
REMARK SMILES IDX 86 61 51 62 34 63 35 64 44 65 36 66 37 67 43 68 45 69 38 70
REMARK SMILES IDX 39 71 40 72 41 73 42 74 68 75 69 76 78 77 70 78 71 79 77 80
REMARK SMILES IDX 79 81 72 82 73 83 74 84 75 85 76 86 52 87 53 88 62 89 54 90
REMARK SMILES IDX 55 91 61 92 63 93 56 94 57 95 58 96 59 97 60 98
REMARK H PARENT 15 5 4 17 12 19 12 20 12 21 22 29 84 48 50 59
REMARK Flexibility Score: inf
ROOT
ATOM      1  C   UNL A   1      32.968  26.614  26.612  1.00  0.00     0.116 C 
ENDROOT
BRANCH   1   2
ATOM      2  N   UNL A   1      31.769  27.358  26.288  1.00  0.00    -0.351 N 
ATOM      3  C   UNL A   1      30.855  27.073  25.316  1.00  0.00     0.281 C 
ATOM      4  O   UNL A   1      30.652  27.998  24.534  1.00  0.00    -0.268 OA
ATOM      5  H   UNL A   1      31.593  28.160  26.831  1.00  0.00     0.163 HD
BRANCH   3   6
ATOM      6  C   UNL A   1      30.233  25.643  25.181  1.00  0.00     0.172 C 
ATOM      7  C   UNL A   1      29.490  25.493  23.841  1.00  0.00     0.090 C 
BRANCH   6   8
ATOM      8  C   UNL A   1      31.225  24.444  25.342  1.00  0.00     0.093 C 
BRANCH   8   9
ATOM      9  C   UNL A   1      31.161  23.180  24.457  1.00  0.00     0.050 C 
ATOM     10  C   UNL A   1      31.935  22.036  25.131  1.00  0.00     0.019 C 
BRANCH   9  11
ATOM     11  S   UNL A   1      31.641  23.279  22.681  1.00  0.00    -0.158 SA
BRANCH  11  12
ATOM     12  C   UNL A   1      32.854  24.665  22.545  1.00  0.00     0.075 C 
BRANCH  12  13
ATOM     13  C   UNL A   1      32.409  26.024  21.953  1.00  0.00     0.021 C 
ATOM     14  C   UNL A   1      33.494  27.101  21.997  1.00  0.00     0.011 C 
BRANCH  13  15
ATOM     15  C   UNL A   1      31.959  25.852  20.493  1.00  0.00     0.160 C 
BRANCH  15  16
ATOM     16  O   UNL A   1      33.066  25.661  19.621  1.00  0.00    -0.396 OA
ATOM     17  H   UNL A   1      33.012  24.780  19.220  1.00  0.00     0.210 HD
ENDBRANCH  15  16
ENDBRANCH  13  15
ENDBRANCH  12  13
ENDBRANCH  11  12
ENDBRANCH   9  11
ENDBRANCH   8   9
ENDBRANCH   6   8
BRANCH   6  18
ATOM     18  N   UNL A   1      29.276  25.453  26.310  1.00  0.00    -0.345 N 
ATOM     19  H   UNL A   1      29.495  24.585  26.799  1.00  0.00     0.345 HD
ATOM     20  H   UNL A   1      28.325  25.406  25.946  1.00  0.00     0.345 HD
ATOM     21  H   UNL A   1      29.354  26.236  26.958  1.00  0.00     0.345 HD
ENDBRANCH   6  18
ENDBRANCH   3   6
ENDBRANCH   1   2
BRANCH   1  22
ATOM     22  C   UNL A   1      34.051  26.845  25.548  1.00  0.00     0.021 C 
BRANCH  22  23
ATOM     23  C   UNL A   1      34.762  25.573  25.056  1.00  0.00     0.002 C 
BRANCH  23  24
ATOM     24  C   UNL A   1      34.647  24.352  25.972  1.00  0.00     0.002 C 
BRANCH  24  25
ATOM     25  C   UNL A   1      35.971  23.678  26.332  1.00  0.00     0.021 C 
BRANCH  25  26
ATOM     26  C   UNL A   1      37.026  23.718  25.236  1.00  0.00     0.116 C 
BRANCH  26  27
ATOM     27  N   UNL A   1      38.100  22.767  25.469  1.00  0.00    -0.352 N 
ATOM     28  C   UNL A   1      39.304  22.968  26.096  1.00  0.00     0.251 C 
ATOM     29  H   UNL A   1      37.943  21.856  25.131  1.00  0.00     0.163 HD
ATOM     30  O   UNL A   1      40.176  22.100  26.052  1.00  0.00    -0.269 OA
BRANCH  28  31
ATOM     31  C   UNL A   1      39.560  24.244  26.798  1.00  0.00     0.039 A 
ATOM     32  C   UNL A   1      39.083  24.406  28.100  1.00  0.00     0.014 A 
ATOM     33  C   UNL A   1      40.292  25.265  26.183  1.00  0.00     0.014 A 
ATOM     34  C   UNL A   1      39.402  25.566  28.812  1.00  0.00     0.010 A 
ATOM     35  C   UNL A   1      40.667  26.387  26.916  1.00  0.00     0.010 A 
ATOM     36  C   UNL A   1      40.229  26.547  28.240  1.00  0.00    -0.014 A 
BRANCH  36  37
ATOM     37  C   UNL A   1      40.672  27.728  29.024  1.00  0.00     0.031 A 
ATOM     38  C   UNL A   1      42.000  27.721  29.729  1.00  0.00     0.074 A 
ATOM     39  C   UNL A   1      39.843  28.784  29.156  1.00  0.00     0.049 A 
ATOM     40  N   UNL A   1      42.529  28.634  30.503  1.00  0.00    -0.248 NA
ATOM     41  C   UNL A   1      42.834  26.520  29.562  1.00  0.00     0.031 C 
ATOM     42  C   UNL A   1      38.506  28.886  28.566  1.00  0.00     0.029 A 
ATOM     43  N   UNL A   1      39.995  29.965  29.838  1.00  0.00    -0.354 N 
ATOM     44  C   UNL A   1      43.748  28.116  30.924  1.00  0.00     0.074 A 
ATOM     45  C   UNL A   1      43.859  26.789  30.359  1.00  0.00     0.031 C 
ATOM     46  C   UNL A   1      37.969  30.072  28.894  1.00  0.00     0.029 A 
ATOM     47  C   UNL A   1      38.904  30.798  29.749  1.00  0.00     0.049 A 
ATOM     48  H   UNL A   1      40.808  30.196  30.343  1.00  0.00     0.167 HD
ATOM     49  C   UNL A   1      44.696  28.703  31.694  1.00  0.00     0.037 A 
ATOM     50  C   UNL A   1      38.675  32.006  30.302  1.00  0.00     0.037 A 
ATOM     51  C   UNL A   1      44.587  30.033  32.233  1.00  0.00     0.049 A 
ATOM     52  C   UNL A   1      39.740  32.634  31.157  1.00  0.00     0.074 A 
ATOM     53  C   UNL A   1      45.525  30.746  32.961  1.00  0.00     0.029 A 
ATOM     54  N   UNL A   1      43.472  30.850  32.114  1.00  0.00    -0.354 N 
ATOM     55  N   UNL A   1      40.922  32.162  31.478  1.00  0.00    -0.248 NA
ATOM     56  C   UNL A   1      39.445  33.957  31.722  1.00  0.00     0.031 C 
ATOM     57  C   UNL A   1      44.958  31.973  33.324  1.00  0.00     0.029 A 
ATOM     58  C   UNL A   1      43.685  32.045  32.783  1.00  0.00     0.049 A 
ATOM     59  H   UNL A   1      42.649  30.615  31.628  1.00  0.00     0.167 HD
ATOM     60  C   UNL A   1      41.516  33.137  32.273  1.00  0.00     0.074 A 
ATOM     61  C   UNL A   1      40.572  34.232  32.366  1.00  0.00     0.031 C 
ATOM     62  C   UNL A   1      42.731  33.123  32.875  1.00  0.00     0.037 A 
BRANCH  49  63
ATOM     63  C   UNL A   1      45.938  27.910  31.997  1.00  0.00     0.058 A 
ATOM     64  C   UNL A   1      47.087  28.004  31.195  1.00  0.00     0.135 A 
ATOM     65  C   UNL A   1      45.994  27.074  33.124  1.00  0.00     0.135 A 
ATOM     66  F   UNL A   1      47.086  28.779  30.098  1.00  0.00    -0.206 F 
ATOM     67  C   UNL A   1      48.236  27.274  31.482  1.00  0.00     0.059 A 
ATOM     68  C   UNL A   1      47.142  26.356  33.444  1.00  0.00     0.059 A 
ATOM     69  F   UNL A   1      44.924  26.946  33.924  1.00  0.00    -0.206 F 
ATOM     70  C   UNL A   1      48.254  26.451  32.609  1.00  0.00     0.060 A 
BRANCH  70  71
ATOM     71  S   UNL A   1      49.753  25.512  32.966  1.00  0.00     0.124 S 
ATOM     72  O   UNL A   1      50.004  24.865  31.682  1.00  0.00    -0.237 OA
ATOM     73  O   UNL A   1      50.696  26.560  33.344  1.00  0.00    -0.237 OA
ATOM     74  O   UNL A   1      49.346  24.620  34.048  1.00  0.00    -0.744 OA
ENDBRANCH  70  71
ENDBRANCH  49  63
BRANCH  50  75
ATOM     75  C   UNL A   1      37.384  32.700  30.053  1.00  0.00     0.058 A 
ATOM     76  C   UNL A   1      37.283  33.713  29.088  1.00  0.00     0.135 A 
ATOM     77  C   UNL A   1      36.221  32.348  30.757  1.00  0.00     0.135 A 
ATOM     78  F   UNL A   1      38.368  34.089  28.395  1.00  0.00    -0.206 F 
ATOM     79  C   UNL A   1      36.077  34.360  28.835  1.00  0.00     0.059 A 
ATOM     80  C   UNL A   1      34.999  32.964  30.505  1.00  0.00     0.059 A 
ATOM     81  F   UNL A   1      36.262  31.373  31.679  1.00  0.00    -0.206 F 
ATOM     82  C   UNL A   1      34.939  33.975  29.547  1.00  0.00     0.060 A 
BRANCH  82  83
ATOM     83  S   UNL A   1      33.367  34.777  29.168  1.00  0.00     0.124 S 
ATOM     84  O   UNL A   1      32.770  33.828  28.235  1.00  0.00    -0.237 OA
ATOM     85  O   UNL A   1      32.740  34.861  30.483  1.00  0.00    -0.237 OA
ATOM     86  O   UNL A   1      33.774  36.057  28.594  1.00  0.00    -0.744 OA
ENDBRANCH  82  83
ENDBRANCH  50  75
BRANCH  62  87
ATOM     87  C   UNL A   1      43.113  34.331  33.685  1.00  0.00     0.058 A 
ATOM     88  C   UNL A   1      42.863  34.399  35.064  1.00  0.00     0.135 A 
ATOM     89  C   UNL A   1      43.783  35.410  33.085  1.00  0.00     0.135 A 
ATOM     90  F   UNL A   1      42.218  33.397  35.683  1.00  0.00    -0.206 F 
ATOM     91  C   UNL A   1      43.245  35.503  35.818  1.00  0.00     0.059 A 
ATOM     92  C   UNL A   1      44.199  36.513  33.825  1.00  0.00     0.059 A 
ATOM     93  F   UNL A   1      44.055  35.392  31.771  1.00  0.00    -0.206 F 
ATOM     94  C   UNL A   1      43.916  36.554  35.190  1.00  0.00     0.060 A 
BRANCH  94  95
ATOM     95  S   UNL A   1      44.438  37.965  36.189  1.00  0.00     0.124 S 
ATOM     96  O   UNL A   1      44.114  39.083  35.310  1.00  0.00    -0.237 OA
ATOM     97  O   UNL A   1      43.604  37.830  37.379  1.00  0.00    -0.237 OA
ATOM     98  O   UNL A   1      45.863  37.723  36.399  1.00  0.00    -0.744 OA
ENDBRANCH  94  95
ENDBRANCH  62  87
ENDBRANCH  36  37
ENDBRANCH  28  31
ENDBRANCH  26  27
ENDBRANCH  25  26
ENDBRANCH  24  25
ENDBRANCH  23  24
ENDBRANCH  22  23
ENDBRANCH   1  22
TORSDOF 24
ENDMDL
