MODEL 1
REMARK VINA RESULT:     -10.7      0.000      0.000
REMARK SMILES CCOC(=O)NC(=O)C[N@H+]1CC[C@@H](C(=O)NCCCCCCNC(=O)c2ccc(-c3c4nc(c(-c5c(F)cc(S(=O)(=O)[O-])cc5F)c5ccc([nH]5)c(-c5c(F)cc(S(=O)(=O)[O-])cc5F)c5nc(c(-c6c(F)cc(S(=O)(=O)[O-])cc6F)c6ccc3[nH]6)C=C5)C=C4)cc2)[C@@H]1C
REMARK SMILES IDX 19 1 18 2 17 3 16 4 14 5 15 6 13 8 10 9 11 10 92 11 12 13
REMARK SMILES IDX 93 14 9 15 7 16 4 17 5 18 6 19 8 21 3 22 2 23 1 24 20 25
REMARK SMILES IDX 21 26 22 27 23 28 24 29 25 31 26 32 27 33 91 34 28 35 90 36
REMARK SMILES IDX 29 37 30 38 31 39 84 40 32 41 89 42 83 43 85 44 33 45 88 46
REMARK SMILES IDX 82 47 81 48 34 50 68 51 47 52 67 53 48 54 51 55 66 56 86 57
REMARK SMILES IDX 49 58 50 59 65 61 87 62 52 63 35 64 36 65 45 66 37 67 38 68
REMARK SMILES IDX 44 69 46 70 39 71 40 72 41 73 42 74 43 75 69 76 70 77 79 78
REMARK SMILES IDX 71 79 72 80 78 81 80 82 73 83 74 84 75 85 76 86 77 87 53 88
REMARK SMILES IDX 54 89 63 90 55 91 56 92 62 93 64 94 57 95 58 96 59 97 60 98
REMARK SMILES IDX 61 99
REMARK H PARENT 16 7 10 12 6 20 23 30 85 49 51 60
REMARK Flexibility Score: inf
ROOT
ATOM      1  C   UNL A   1      42.457  20.755  26.300  1.00  0.00     0.002 C 
ENDROOT
BRANCH   1   2
ATOM      2  C   UNL A   1      41.266  21.292  27.100  1.00  0.00     0.021 C 
BRANCH   2   3
ATOM      3  C   UNL A   1      39.967  21.353  26.295  1.00  0.00     0.116 C 
BRANCH   3   4
ATOM      4  N   UNL A   1      39.200  22.546  26.584  1.00  0.00    -0.356 N 
ATOM      5  C   UNL A   1      38.067  23.048  26.028  1.00  0.00     0.229 C 
ATOM      6  O   UNL A   1      37.645  24.105  26.511  1.00  0.00    -0.275 OA
ATOM      7  H   UNL A   1      39.566  23.091  27.317  1.00  0.00     0.163 HD
BRANCH   5   8
ATOM      8  C   UNL A   1      37.281  22.376  24.903  1.00  0.00     0.142 C 
ATOM      9  N   UNL A   1      35.036  21.525  24.492  1.00  0.00    -0.324 N 
ATOM     10  C   UNL A   1      35.407  22.465  23.435  1.00  0.00     0.263 C 
ATOM     11  C   UNL A   1      36.259  21.301  25.305  1.00  0.00     0.194 C 
ATOM     12  H   UNL A   1      34.707  20.661  24.060  1.00  0.00     0.348 HD
ATOM     13  C   UNL A   1      36.523  23.326  23.998  1.00  0.00     0.081 C 
ATOM     14  C   UNL A   1      36.797  19.907  24.962  1.00  0.00     0.076 C 
BRANCH   9  15
ATOM     15  C   UNL A   1      33.874  21.921  25.312  1.00  0.00     0.364 C 
BRANCH  15  16
ATOM     16  C   UNL A   1      33.714  21.096  26.588  1.00  0.00     0.284 C 
ATOM     17  C   UNL A   1      32.797  18.921  25.576  1.00  0.00     0.414 C 
ATOM     18  O   UNL A   1      32.356  17.820  25.878  1.00  0.00    -0.224 OA
ATOM     19  N   UNL A   1      33.094  19.859  26.548  1.00  0.00    -0.256 N 
ATOM     20  H   UNL A   1      32.785  19.575  27.438  1.00  0.00     0.176 HD
ATOM     21  O   UNL A   1      34.109  21.511  27.682  1.00  0.00    -0.268 OA
BRANCH  17  22
ATOM     22  O   UNL A   1      33.103  19.293  24.311  1.00  0.00    -0.450 OA
BRANCH  22  23
ATOM     23  C   UNL A   1      32.859  18.311  23.285  1.00  0.00     0.231 C 
ATOM     24  C   UNL A   1      33.984  17.287  23.241  1.00  0.00     0.049 C 
ENDBRANCH  22  23
ENDBRANCH  17  22
ENDBRANCH  15  16
ENDBRANCH   9  15
ENDBRANCH   5   8
ENDBRANCH   3   4
ENDBRANCH   2   3
ENDBRANCH   1   2
BRANCH   1  25
ATOM     25  C   UNL A   1      43.489  21.812  25.887  1.00  0.00     0.002 C 
BRANCH  25  26
ATOM     26  C   UNL A   1      44.059  22.669  27.022  1.00  0.00     0.021 C 
BRANCH  26  27
ATOM     27  C   UNL A   1      43.534  24.103  27.089  1.00  0.00     0.116 C 
BRANCH  27  28
ATOM     28  N   UNL A   1      42.567  24.386  26.040  1.00  0.00    -0.352 N 
ATOM     29  C   UNL A   1      41.490  25.238  26.044  1.00  0.00     0.251 C 
ATOM     30  H   UNL A   1      42.706  23.892  25.200  1.00  0.00     0.163 HD
ATOM     31  O   UNL A   1      40.685  25.201  25.117  1.00  0.00    -0.269 OA
BRANCH  29  32
ATOM     32  C   UNL A   1      41.288  26.187  27.162  1.00  0.00     0.039 A 
ATOM     33  C   UNL A   1      40.374  25.858  28.168  1.00  0.00     0.014 A 
ATOM     34  C   UNL A   1      41.964  27.409  27.205  1.00  0.00     0.014 A 
ATOM     35  C   UNL A   1      40.180  26.728  29.244  1.00  0.00     0.010 A 
ATOM     36  C   UNL A   1      41.813  28.249  28.306  1.00  0.00     0.010 A 
ATOM     37  C   UNL A   1      40.917  27.919  29.335  1.00  0.00    -0.014 A 
BRANCH  37  38
ATOM     38  C   UNL A   1      40.758  28.838  30.491  1.00  0.00     0.031 A 
ATOM     39  C   UNL A   1      41.634  28.685  31.705  1.00  0.00     0.074 A 
ATOM     40  C   UNL A   1      39.787  29.771  30.474  1.00  0.00     0.049 A 
ATOM     41  N   UNL A   1      41.597  29.336  32.840  1.00  0.00    -0.248 NA
ATOM     42  C   UNL A   1      42.675  27.646  31.642  1.00  0.00     0.031 C 
ATOM     43  C   UNL A   1      38.851  29.998  29.370  1.00  0.00     0.029 A 
ATOM     44  N   UNL A   1      39.418  30.699  31.416  1.00  0.00    -0.354 N 
ATOM     45  C   UNL A   1      42.596  28.778  33.629  1.00  0.00     0.074 A 
ATOM     46  C   UNL A   1      43.189  27.704  32.861  1.00  0.00     0.031 C 
ATOM     47  C   UNL A   1      38.032  31.013  29.690  1.00  0.00     0.029 A 
ATOM     48  C   UNL A   1      38.360  31.487  31.031  1.00  0.00     0.049 A 
ATOM     49  H   UNL A   1      39.871  30.790  32.286  1.00  0.00     0.167 HD
ATOM     50  C   UNL A   1      42.997  29.141  34.871  1.00  0.00     0.037 A 
ATOM     51  C   UNL A   1      37.723  32.477  31.687  1.00  0.00     0.037 A 
ATOM     52  C   UNL A   1      42.418  30.224  35.624  1.00  0.00     0.049 A 
ATOM     53  C   UNL A   1      38.182  32.860  33.066  1.00  0.00     0.074 A 
ATOM     54  C   UNL A   1      42.779  30.695  36.875  1.00  0.00     0.029 A 
ATOM     55  N   UNL A   1      41.359  31.008  35.193  1.00  0.00    -0.354 N 
ATOM     56  N   UNL A   1      39.154  32.347  33.783  1.00  0.00    -0.248 NA
ATOM     57  C   UNL A   1      37.462  33.959  33.725  1.00  0.00     0.031 C 
ATOM     58  C   UNL A   1      41.918  31.745  37.211  1.00  0.00     0.029 A 
ATOM     59  C   UNL A   1      41.046  31.954  36.155  1.00  0.00     0.049 A 
ATOM     60  H   UNL A   1      40.897  30.907  34.329  1.00  0.00     0.167 HD
ATOM     61  C   UNL A   1      39.181  33.079  34.965  1.00  0.00     0.074 A 
ATOM     62  C   UNL A   1      38.132  34.072  34.865  1.00  0.00     0.031 C 
ATOM     63  C   UNL A   1      40.003  32.942  36.035  1.00  0.00     0.037 A 
BRANCH  50  64
ATOM     64  C   UNL A   1      44.120  28.354  35.489  1.00  0.00     0.058 A 
ATOM     65  C   UNL A   1      43.871  27.234  36.300  1.00  0.00     0.135 A 
ATOM     66  C   UNL A   1      45.458  28.718  35.270  1.00  0.00     0.135 A 
ATOM     67  F   UNL A   1      42.610  26.851  36.554  1.00  0.00    -0.206 F 
ATOM     68  C   UNL A   1      44.906  26.529  36.905  1.00  0.00     0.059 A 
ATOM     69  C   UNL A   1      46.511  28.012  35.845  1.00  0.00     0.059 A 
ATOM     70  F   UNL A   1      45.752  29.779  34.502  1.00  0.00    -0.206 F 
ATOM     71  C   UNL A   1      46.223  26.931  36.678  1.00  0.00     0.060 A 
BRANCH  71  72
ATOM     72  S   UNL A   1      47.557  26.025  37.490  1.00  0.00     0.124 S 
ATOM     73  O   UNL A   1      47.044  25.917  38.853  1.00  0.00    -0.237 OA
ATOM     74  O   UNL A   1      47.600  24.779  36.731  1.00  0.00    -0.237 OA
ATOM     75  O   UNL A   1      48.713  26.898  37.321  1.00  0.00    -0.744 OA
ENDBRANCH  71  72
ENDBRANCH  50  64
BRANCH  51  76
ATOM     76  C   UNL A   1      36.606  33.201  31.027  1.00  0.00     0.058 A 
ATOM     77  C   UNL A   1      36.862  34.158  30.034  1.00  0.00     0.135 A 
ATOM     78  C   UNL A   1      35.268  32.939  31.355  1.00  0.00     0.135 A 
ATOM     79  F   UNL A   1      38.127  34.447  29.691  1.00  0.00    -0.206 F 
ATOM     80  C   UNL A   1      35.832  34.838  29.393  1.00  0.00     0.059 A 
ATOM     81  C   UNL A   1      34.218  33.591  30.713  1.00  0.00     0.059 A 
ATOM     82  F   UNL A   1      34.971  32.019  32.286  1.00  0.00    -0.206 F 
ATOM     83  C   UNL A   1      34.512  34.545  29.739  1.00  0.00     0.060 A 
BRANCH  83  84
ATOM     84  S   UNL A   1      33.178  35.388  28.860  1.00  0.00     0.124 S 
ATOM     85  O   UNL A   1      32.416  35.960  29.964  1.00  0.00    -0.237 OA
ATOM     86  O   UNL A   1      33.911  36.337  28.028  1.00  0.00    -0.237 OA
ATOM     87  O   UNL A   1      32.522  34.306  28.132  1.00  0.00    -0.744 OA
ENDBRANCH  83  84
ENDBRANCH  51  76
BRANCH  63  88
ATOM     88  C   UNL A   1      39.826  33.913  37.167  1.00  0.00     0.058 A 
ATOM     89  C   UNL A   1      40.396  35.195  37.136  1.00  0.00     0.135 A 
ATOM     90  C   UNL A   1      39.038  33.571  38.278  1.00  0.00     0.135 A 
ATOM     91  F   UNL A   1      41.164  35.567  36.100  1.00  0.00    -0.206 F 
ATOM     92  C   UNL A   1      40.205  36.099  38.175  1.00  0.00     0.059 A 
ATOM     93  C   UNL A   1      38.815  34.467  39.318  1.00  0.00     0.059 A 
ATOM     94  F   UNL A   1      38.464  32.360  38.352  1.00  0.00    -0.206 F 
ATOM     95  C   UNL A   1      39.412  35.726  39.262  1.00  0.00     0.060 A 
BRANCH  95  96
ATOM     96  S   UNL A   1      39.141  36.920  40.590  1.00  0.00     0.124 S 
ATOM     97  O   UNL A   1      38.490  36.093  41.600  1.00  0.00    -0.237 OA
ATOM     98  O   UNL A   1      40.499  37.355  40.904  1.00  0.00    -0.237 OA
ATOM     99  O   UNL A   1      38.295  37.933  39.966  1.00  0.00    -0.744 OA
ENDBRANCH  95  96
ENDBRANCH  63  88
ENDBRANCH  37  38
ENDBRANCH  29  32
ENDBRANCH  27  28
ENDBRANCH  26  27
ENDBRANCH  25  26
ENDBRANCH   1  25
TORSDOF 20
ENDMDL
MODEL 2
REMARK VINA RESULT:     -10.6      5.298     12.090
REMARK SMILES CCOC(=O)NC(=O)C[N@H+]1CC[C@@H](C(=O)NCCCCCCNC(=O)c2ccc(-c3c4nc(c(-c5c(F)cc(S(=O)(=O)[O-])cc5F)c5ccc([nH]5)c(-c5c(F)cc(S(=O)(=O)[O-])cc5F)c5nc(c(-c6c(F)cc(S(=O)(=O)[O-])cc6F)c6ccc3[nH]6)C=C5)C=C4)cc2)[C@@H]1C
REMARK SMILES IDX 19 1 18 2 17 3 16 4 14 5 15 6 13 8 10 9 11 10 92 11 12 13
REMARK SMILES IDX 93 14 9 15 7 16 4 17 5 18 6 19 8 21 3 22 2 23 1 24 20 25
REMARK SMILES IDX 21 26 22 27 23 28 24 29 25 31 26 32 27 33 91 34 28 35 90 36
REMARK SMILES IDX 29 37 30 38 31 39 84 40 32 41 89 42 83 43 85 44 33 45 88 46
REMARK SMILES IDX 82 47 81 48 34 50 68 51 47 52 67 53 48 54 51 55 66 56 86 57
REMARK SMILES IDX 49 58 50 59 65 61 87 62 52 63 35 64 36 65 45 66 37 67 38 68
REMARK SMILES IDX 44 69 46 70 39 71 40 72 41 73 42 74 43 75 69 76 70 77 79 78
REMARK SMILES IDX 71 79 72 80 78 81 80 82 73 83 74 84 75 85 76 86 77 87 53 88
REMARK SMILES IDX 54 89 63 90 55 91 56 92 62 93 64 94 57 95 58 96 59 97 60 98
REMARK SMILES IDX 61 99
REMARK H PARENT 16 7 10 12 6 20 23 30 85 49 51 60
REMARK Flexibility Score: inf
ROOT
ATOM      1  C   UNL A   1      33.239  34.919  28.754  1.00  0.00     0.002 C 
ENDROOT
BRANCH   1   2
ATOM      2  C   UNL A   1      33.303  35.989  29.848  1.00  0.00     0.021 C 
BRANCH   2   3
ATOM      3  C   UNL A   1      33.021  35.445  31.251  1.00  0.00     0.116 C 
BRANCH   3   4
ATOM      4  N   UNL A   1      34.084  35.758  32.182  1.00  0.00    -0.356 N 
ATOM      5  C   UNL A   1      35.222  35.092  32.511  1.00  0.00     0.229 C 
ATOM      6  O   UNL A   1      35.946  35.634  33.354  1.00  0.00    -0.275 OA
ATOM      7  H   UNL A   1      33.961  36.608  32.662  1.00  0.00     0.163 HD
BRANCH   5   8
ATOM      8  C   UNL A   1      35.666  33.772  31.882  1.00  0.00     0.142 C 
ATOM      9  N   UNL A   1      37.511  32.190  32.055  1.00  0.00    -0.324 N 
ATOM     10  C   UNL A   1      36.240  31.484  32.217  1.00  0.00     0.263 C 
ATOM     11  C   UNL A   1      37.172  33.579  31.647  1.00  0.00     0.194 C 
ATOM     12  H   UNL A   1      38.062  31.712  31.342  1.00  0.00     0.348 HD
ATOM     13  C   UNL A   1      35.217  32.529  32.624  1.00  0.00     0.081 C 
ATOM     14  C   UNL A   1      37.495  33.716  30.154  1.00  0.00     0.076 C 
BRANCH   9  15
ATOM     15  C   UNL A   1      38.413  32.146  33.223  1.00  0.00     0.364 C 
BRANCH  15  16
ATOM     16  C   UNL A   1      38.802  30.731  33.644  1.00  0.00     0.284 C 
ATOM     17  C   UNL A   1      38.061  30.799  36.103  1.00  0.00     0.414 C 
ATOM     18  O   UNL A   1      38.067  30.145  37.137  1.00  0.00    -0.224 OA
ATOM     19  N   UNL A   1      38.718  30.348  34.972  1.00  0.00    -0.256 N 
ATOM     20  H   UNL A   1      39.265  29.552  35.160  1.00  0.00     0.176 HD
ATOM     21  O   UNL A   1      39.219  29.903  32.829  1.00  0.00    -0.268 OA
BRANCH  17  22
ATOM     22  O   UNL A   1      37.370  31.952  35.939  1.00  0.00    -0.450 OA
BRANCH  22  23
ATOM     23  C   UNL A   1      37.584  32.966  36.941  1.00  0.00     0.231 C 
ATOM     24  C   UNL A   1      38.644  33.958  36.485  1.00  0.00     0.049 C 
ENDBRANCH  22  23
ENDBRANCH  17  22
ENDBRANCH  15  16
ENDBRANCH   9  15
ENDBRANCH   5   8
ENDBRANCH   3   4
ENDBRANCH   2   3
ENDBRANCH   1   2
BRANCH   1  25
ATOM     25  C   UNL A   1      34.558  34.674  28.009  1.00  0.00     0.002 C 
BRANCH  25  26
ATOM     26  C   UNL A   1      34.952  33.206  27.813  1.00  0.00     0.021 C 
BRANCH  26  27
ATOM     27  C   UNL A   1      34.481  32.248  28.907  1.00  0.00     0.116 C 
BRANCH  27  28
ATOM     28  N   UNL A   1      33.931  31.017  28.364  1.00  0.00    -0.352 N 
ATOM     29  C   UNL A   1      34.572  29.876  27.946  1.00  0.00     0.251 C 
ATOM     30  H   UNL A   1      32.950  30.998  28.283  1.00  0.00     0.163 HD
ATOM     31  O   UNL A   1      33.939  29.011  27.346  1.00  0.00    -0.269 OA
BRANCH  29  32
ATOM     32  C   UNL A   1      36.018  29.692  28.201  1.00  0.00     0.039 A 
ATOM     33  C   UNL A   1      36.431  29.280  29.472  1.00  0.00     0.014 A 
ATOM     34  C   UNL A   1      36.967  29.956  27.209  1.00  0.00     0.014 A 
ATOM     35  C   UNL A   1      37.790  29.080  29.731  1.00  0.00     0.010 A 
ATOM     36  C   UNL A   1      38.316  29.700  27.452  1.00  0.00     0.010 A 
ATOM     37  C   UNL A   1      38.741  29.263  28.715  1.00  0.00    -0.014 A 
BRANCH  37  38
ATOM     38  C   UNL A   1      40.185  29.015  28.958  1.00  0.00     0.031 A 
ATOM     39  C   UNL A   1      40.792  27.682  28.613  1.00  0.00     0.074 A 
ATOM     40  C   UNL A   1      40.938  29.968  29.542  1.00  0.00     0.049 A 
ATOM     41  N   UNL A   1      42.009  27.248  28.818  1.00  0.00    -0.248 NA
ATOM     42  C   UNL A   1      39.904  26.699  27.972  1.00  0.00     0.031 C 
ATOM     43  C   UNL A   1      40.460  31.289  29.954  1.00  0.00     0.029 A 
ATOM     44  N   UNL A   1      42.263  29.969  29.899  1.00  0.00    -0.354 N 
ATOM     45  C   UNL A   1      42.030  25.941  28.347  1.00  0.00     0.074 A 
ATOM     46  C   UNL A   1      40.691  25.637  27.889  1.00  0.00     0.031 C 
ATOM     47  C   UNL A   1      41.481  31.979  30.487  1.00  0.00     0.029 A 
ATOM     48  C   UNL A   1      42.676  31.142  30.486  1.00  0.00     0.049 A 
ATOM     49  H   UNL A   1      42.861  29.201  29.749  1.00  0.00     0.167 HD
ATOM     50  C   UNL A   1      43.074  25.080  28.282  1.00  0.00     0.037 A 
ATOM     51  C   UNL A   1      43.881  31.498  30.972  1.00  0.00     0.037 A 
ATOM     52  C   UNL A   1      44.410  25.394  28.720  1.00  0.00     0.049 A 
ATOM     53  C   UNL A   1      45.024  30.525  30.893  1.00  0.00     0.074 A 
ATOM     54  C   UNL A   1      45.545  24.603  28.661  1.00  0.00     0.029 A 
ATOM     55  N   UNL A   1      44.791  26.598  29.293  1.00  0.00    -0.354 N 
ATOM     56  N   UNL A   1      45.036  29.306  30.409  1.00  0.00    -0.248 NA
ATOM     57  C   UNL A   1      46.319  30.976  31.422  1.00  0.00     0.031 C 
ATOM     58  C   UNL A   1      46.606  25.319  29.226  1.00  0.00     0.029 A 
ATOM     59  C   UNL A   1      46.141  26.569  29.602  1.00  0.00     0.049 A 
ATOM     60  H   UNL A   1      44.190  27.360  29.457  1.00  0.00     0.167 HD
ATOM     61  C   UNL A   1      46.344  28.854  30.549  1.00  0.00     0.074 A 
ATOM     62  C   UNL A   1      47.095  29.933  31.158  1.00  0.00     0.031 C 
ATOM     63  C   UNL A   1      46.875  27.657  30.201  1.00  0.00     0.037 A 
BRANCH  50  64
ATOM     64  C   UNL A   1      42.805  23.714  27.713  1.00  0.00     0.058 A 
ATOM     65  C   UNL A   1      42.490  22.623  28.540  1.00  0.00     0.135 A 
ATOM     66  C   UNL A   1      42.859  23.490  26.328  1.00  0.00     0.135 A 
ATOM     67  F   UNL A   1      42.440  22.779  29.873  1.00  0.00    -0.206 F 
ATOM     68  C   UNL A   1      42.281  21.351  28.019  1.00  0.00     0.059 A 
ATOM     69  C   UNL A   1      42.627  22.230  25.782  1.00  0.00     0.059 A 
ATOM     70  F   UNL A   1      43.153  24.497  25.491  1.00  0.00    -0.206 F 
ATOM     71  C   UNL A   1      42.360  21.163  26.639  1.00  0.00     0.060 A 
BRANCH  71  72
ATOM     72  S   UNL A   1      42.112  19.501  25.977  1.00  0.00     0.124 S 
ATOM     73  O   UNL A   1      42.535  18.675  27.105  1.00  0.00    -0.237 OA
ATOM     74  O   UNL A   1      40.683  19.487  25.685  1.00  0.00    -0.237 OA
ATOM     75  O   UNL A   1      42.987  19.467  24.810  1.00  0.00    -0.744 OA
ENDBRANCH  71  72
ENDBRANCH  50  64
BRANCH  51  76
ATOM     76  C   UNL A   1      44.075  32.857  31.541  1.00  0.00     0.058 A 
ATOM     77  C   UNL A   1      44.372  33.945  30.708  1.00  0.00     0.135 A 
ATOM     78  C   UNL A   1      43.945  33.100  32.916  1.00  0.00     0.135 A 
ATOM     79  F   UNL A   1      44.512  33.760  29.386  1.00  0.00    -0.206 F 
ATOM     80  C   UNL A   1      44.544  35.228  31.217  1.00  0.00     0.059 A 
ATOM     81  C   UNL A   1      44.092  34.379  33.448  1.00  0.00     0.059 A 
ATOM     82  F   UNL A   1      43.644  32.095  33.752  1.00  0.00    -0.206 F 
ATOM     83  C   UNL A   1      44.399  35.434  32.590  1.00  0.00     0.060 A 
BRANCH  83  84
ATOM     84  S   UNL A   1      44.563  37.114  33.236  1.00  0.00     0.124 S 
ATOM     85  O   UNL A   1      44.691  37.888  32.007  1.00  0.00    -0.237 OA
ATOM     86  O   UNL A   1      43.314  37.284  33.971  1.00  0.00    -0.237 OA
ATOM     87  O   UNL A   1      45.763  37.037  34.064  1.00  0.00    -0.744 OA
ENDBRANCH  83  84
ENDBRANCH  51  76
BRANCH  63  88
ATOM     88  C   UNL A   1      48.346  27.461  30.435  1.00  0.00     0.058 A 
ATOM     89  C   UNL A   1      48.833  26.876  31.614  1.00  0.00     0.135 A 
ATOM     90  C   UNL A   1      49.276  27.821  29.447  1.00  0.00     0.135 A 
ATOM     91  F   UNL A   1      47.985  26.521  32.592  1.00  0.00    -0.206 F 
ATOM     92  C   UNL A   1      50.194  26.671  31.814  1.00  0.00     0.059 A 
ATOM     93  C   UNL A   1      50.640  27.605  29.615  1.00  0.00     0.059 A 
ATOM     94  F   UNL A   1      48.860  28.377  28.298  1.00  0.00    -0.206 F 
ATOM     95  C   UNL A   1      51.090  27.039  30.808  1.00  0.00     0.060 A 
BRANCH  95  96
ATOM     96  S   UNL A   1      52.852  26.737  31.061  1.00  0.00     0.124 S 
ATOM     97  O   UNL A   1      53.327  28.065  31.435  1.00  0.00    -0.237 OA
ATOM     98  O   UNL A   1      52.851  25.739  32.128  1.00  0.00    -0.237 OA
ATOM     99  O   UNL A   1      53.303  26.252  29.760  1.00  0.00    -0.744 OA
ENDBRANCH  95  96
ENDBRANCH  63  88
ENDBRANCH  37  38
ENDBRANCH  29  32
ENDBRANCH  27  28
ENDBRANCH  26  27
ENDBRANCH  25  26
ENDBRANCH   1  25
TORSDOF 20
ENDMDL
MODEL 3
REMARK VINA RESULT:     -10.5      5.132     12.522
REMARK SMILES CCOC(=O)NC(=O)C[N@H+]1CC[C@@H](C(=O)NCCCCCCNC(=O)c2ccc(-c3c4nc(c(-c5c(F)cc(S(=O)(=O)[O-])cc5F)c5ccc([nH]5)c(-c5c(F)cc(S(=O)(=O)[O-])cc5F)c5nc(c(-c6c(F)cc(S(=O)(=O)[O-])cc6F)c6ccc3[nH]6)C=C5)C=C4)cc2)[C@@H]1C
REMARK SMILES IDX 19 1 18 2 17 3 16 4 14 5 15 6 13 8 10 9 11 10 92 11 12 13
REMARK SMILES IDX 93 14 9 15 7 16 4 17 5 18 6 19 8 21 3 22 2 23 1 24 20 25
REMARK SMILES IDX 21 26 22 27 23 28 24 29 25 31 26 32 27 33 91 34 28 35 90 36
REMARK SMILES IDX 29 37 30 38 31 39 84 40 32 41 89 42 83 43 85 44 33 45 88 46
REMARK SMILES IDX 82 47 81 48 34 50 68 51 47 52 67 53 48 54 51 55 66 56 86 57
REMARK SMILES IDX 49 58 50 59 65 61 87 62 52 63 35 64 36 65 45 66 37 67 38 68
REMARK SMILES IDX 44 69 46 70 39 71 40 72 41 73 42 74 43 75 69 76 70 77 79 78
REMARK SMILES IDX 71 79 72 80 78 81 80 82 73 83 74 84 75 85 76 86 77 87 53 88
REMARK SMILES IDX 54 89 63 90 55 91 56 92 62 93 64 94 57 95 58 96 59 97 60 98
REMARK SMILES IDX 61 99
REMARK H PARENT 16 7 10 12 6 20 23 30 85 49 51 60
REMARK Flexibility Score: inf
ROOT
ATOM      1  C   UNL A   1      33.281  34.983  28.704  1.00  0.00     0.002 C 
ENDROOT
BRANCH   1   2
ATOM      2  C   UNL A   1      33.278  35.984  29.863  1.00  0.00     0.021 C 
BRANCH   2   3
ATOM      3  C   UNL A   1      33.000  35.342  31.224  1.00  0.00     0.116 C 
BRANCH   3   4
ATOM      4  N   UNL A   1      34.002  35.690  32.208  1.00  0.00    -0.356 N 
ATOM      5  C   UNL A   1      35.144  35.065  32.596  1.00  0.00     0.229 C 
ATOM      6  O   UNL A   1      35.804  35.631  33.475  1.00  0.00    -0.275 OA
ATOM      7  H   UNL A   1      33.824  36.535  32.681  1.00  0.00     0.163 HD
BRANCH   5   8
ATOM      8  C   UNL A   1      35.667  33.763  31.991  1.00  0.00     0.142 C 
ATOM      9  N   UNL A   1      37.517  32.210  32.306  1.00  0.00    -0.324 N 
ATOM     10  C   UNL A   1      36.251  31.480  32.345  1.00  0.00     0.263 C 
ATOM     11  C   UNL A   1      37.191  33.598  31.888  1.00  0.00     0.194 C 
ATOM     12  H   UNL A   1      38.138  31.752  31.639  1.00  0.00     0.348 HD
ATOM     13  C   UNL A   1      35.177  32.501  32.674  1.00  0.00     0.081 C 
ATOM     14  C   UNL A   1      37.641  33.763  30.431  1.00  0.00     0.076 C 
BRANCH   9  15
ATOM     15  C   UNL A   1      38.313  32.165  33.549  1.00  0.00     0.364 C 
BRANCH  15  16
ATOM     16  C   UNL A   1      38.532  30.752  34.085  1.00  0.00     0.284 C 
ATOM     17  C   UNL A   1      37.785  31.100  36.518  1.00  0.00     0.414 C 
ATOM     18  O   UNL A   1      37.708  30.534  37.601  1.00  0.00    -0.224 OA
ATOM     19  N   UNL A   1      38.394  30.488  35.438  1.00  0.00    -0.256 N 
ATOM     20  H   UNL A   1      38.843  29.651  35.696  1.00  0.00     0.176 HD
ATOM     21  O   UNL A   1      38.856  29.819  33.344  1.00  0.00    -0.268 OA
BRANCH  17  22
ATOM     22  O   UNL A   1      37.235  32.308  36.254  1.00  0.00    -0.450 OA
BRANCH  22  23
ATOM     23  C   UNL A   1      37.442  33.330  37.249  1.00  0.00     0.231 C 
ATOM     24  C   UNL A   1      38.897  33.773  37.273  1.00  0.00     0.049 C 
ENDBRANCH  22  23
ENDBRANCH  17  22
ENDBRANCH  15  16
ENDBRANCH   9  15
ENDBRANCH   5   8
ENDBRANCH   3   4
ENDBRANCH   2   3
ENDBRANCH   1   2
BRANCH   1  25
ATOM     25  C   UNL A   1      34.641  34.789  28.020  1.00  0.00     0.002 C 
BRANCH  25  26
ATOM     26  C   UNL A   1      35.186  33.356  28.013  1.00  0.00     0.021 C 
BRANCH  26  27
ATOM     27  C   UNL A   1      34.523  32.396  29.000  1.00  0.00     0.116 C 
BRANCH  27  28
ATOM     28  N   UNL A   1      33.953  31.232  28.340  1.00  0.00    -0.352 N 
ATOM     29  C   UNL A   1      34.566  30.087  27.892  1.00  0.00     0.251 C 
ATOM     30  H   UNL A   1      32.980  31.271  28.191  1.00  0.00     0.163 HD
ATOM     31  O   UNL A   1      33.935  29.296  27.195  1.00  0.00    -0.269 OA
BRANCH  29  32
ATOM     32  C   UNL A   1      35.979  29.810  28.233  1.00  0.00     0.039 A 
ATOM     33  C   UNL A   1      36.285  29.350  29.517  1.00  0.00     0.014 A 
ATOM     34  C   UNL A   1      37.003  30.034  27.308  1.00  0.00     0.014 A 
ATOM     35  C   UNL A   1      37.610  29.063  29.856  1.00  0.00     0.010 A 
ATOM     36  C   UNL A   1      38.316  29.692  27.629  1.00  0.00     0.010 A 
ATOM     37  C   UNL A   1      38.633  29.207  28.906  1.00  0.00    -0.014 A 
BRANCH  37  38
ATOM     38  C   UNL A   1      40.041  28.866  29.232  1.00  0.00     0.031 A 
ATOM     39  C   UNL A   1      40.918  29.865  29.937  1.00  0.00     0.074 A 
ATOM     40  C   UNL A   1      40.549  27.680  28.843  1.00  0.00     0.049 A 
ATOM     41  N   UNL A   1      42.188  29.785  30.239  1.00  0.00    -0.248 NA
ATOM     42  C   UNL A   1      40.286  31.134  30.335  1.00  0.00     0.031 C 
ATOM     43  C   UNL A   1      39.811  26.639  28.124  1.00  0.00     0.029 A 
ATOM     44  N   UNL A   1      41.807  27.153  28.989  1.00  0.00    -0.354 N 
ATOM     45  C   UNL A   1      42.511  30.992  30.847  1.00  0.00     0.074 A 
ATOM     46  C   UNL A   1      41.315  31.806  30.827  1.00  0.00     0.031 C 
ATOM     47  C   UNL A   1      40.624  25.592  27.911  1.00  0.00     0.029 A 
ATOM     48  C   UNL A   1      41.947  25.897  28.447  1.00  0.00     0.049 A 
ATOM     49  H   UNL A   1      42.541  27.630  29.439  1.00  0.00     0.167 HD
ATOM     50  C   UNL A   1      43.690  31.379  31.391  1.00  0.00     0.037 A 
ATOM     51  C   UNL A   1      43.020  25.086  28.386  1.00  0.00     0.037 A 
ATOM     52  C   UNL A   1      44.873  30.558  31.427  1.00  0.00     0.049 A 
ATOM     53  C   UNL A   1      44.320  25.538  28.992  1.00  0.00     0.074 A 
ATOM     54  C   UNL A   1      46.105  30.845  31.988  1.00  0.00     0.029 A 
ATOM     55  N   UNL A   1      44.968  29.286  30.882  1.00  0.00    -0.354 N 
ATOM     56  N   UNL A   1      44.597  26.668  29.597  1.00  0.00    -0.248 NA
ATOM     57  C   UNL A   1      45.452  24.604  28.912  1.00  0.00     0.031 C 
ATOM     58  C   UNL A   1      46.954  29.757  31.757  1.00  0.00     0.029 A 
ATOM     59  C   UNL A   1      46.240  28.778  31.085  1.00  0.00     0.049 A 
ATOM     60  H   UNL A   1      44.239  28.815  30.418  1.00  0.00     0.167 HD
ATOM     61  C   UNL A   1      45.927  26.570  29.995  1.00  0.00     0.074 A 
ATOM     62  C   UNL A   1      46.395  25.269  29.566  1.00  0.00     0.031 C 
ATOM     63  C   UNL A   1      46.688  27.475  30.659  1.00  0.00     0.037 A 
BRANCH  50  64
ATOM     64  C   UNL A   1      43.751  32.757  31.992  1.00  0.00     0.058 A 
ATOM     65  C   UNL A   1      43.571  32.964  33.369  1.00  0.00     0.135 A 
ATOM     66  C   UNL A   1      43.994  33.881  31.187  1.00  0.00     0.135 A 
ATOM     67  F   UNL A   1      43.321  31.926  34.182  1.00  0.00    -0.206 F 
ATOM     68  C   UNL A   1      43.586  34.241  33.921  1.00  0.00     0.059 A 
ATOM     69  C   UNL A   1      44.040  35.166  31.722  1.00  0.00     0.059 A 
ATOM     70  F   UNL A   1      44.176  33.740  29.865  1.00  0.00    -0.206 F 
ATOM     71  C   UNL A   1      43.814  35.337  33.087  1.00  0.00     0.060 A 
BRANCH  71  72
ATOM     72  S   UNL A   1      43.806  36.991  33.811  1.00  0.00     0.124 S 
ATOM     73  O   UNL A   1      42.374  37.228  33.974  1.00  0.00    -0.237 OA
ATOM     74  O   UNL A   1      44.558  36.799  35.046  1.00  0.00    -0.237 OA
ATOM     75  O   UNL A   1      44.466  37.808  32.799  1.00  0.00    -0.744 OA
ENDBRANCH  71  72
ENDBRANCH  50  64
BRANCH  51  76
ATOM     76  C   UNL A   1      42.898  23.745  27.759  1.00  0.00     0.058 A 
ATOM     77  C   UNL A   1      42.610  22.615  28.537  1.00  0.00     0.135 A 
ATOM     78  C   UNL A   1      43.042  23.568  26.375  1.00  0.00     0.135 A 
ATOM     79  F   UNL A   1      42.470  22.734  29.867  1.00  0.00    -0.206 F 
ATOM     80  C   UNL A   1      42.478  21.352  27.970  1.00  0.00     0.059 A 
ATOM     81  C   UNL A   1      42.894  22.317  25.780  1.00  0.00     0.059 A 
ATOM     82  F   UNL A   1      43.302  24.621  25.585  1.00  0.00    -0.206 F 
ATOM     83  C   UNL A   1      42.619  21.215  26.588  1.00  0.00     0.060 A 
BRANCH  83  84
ATOM     84  S   UNL A   1      42.385  19.582  25.851  1.00  0.00     0.124 S 
ATOM     85  O   UNL A   1      40.980  19.635  25.465  1.00  0.00    -0.237 OA
ATOM     86  O   UNL A   1      43.350  19.598  24.756  1.00  0.00    -0.237 OA
ATOM     87  O   UNL A   1      42.707  18.672  26.946  1.00  0.00    -0.744 OA
ENDBRANCH  83  84
ENDBRANCH  51  76
BRANCH  63  88
ATOM     88  C   UNL A   1      48.096  27.075  30.995  1.00  0.00     0.058 A 
ATOM     89  C   UNL A   1      49.165  27.338  30.125  1.00  0.00     0.135 A 
ATOM     90  C   UNL A   1      48.386  26.463  32.225  1.00  0.00     0.135 A 
ATOM     91  F   UNL A   1      48.939  27.914  28.933  1.00  0.00    -0.206 F 
ATOM     92  C   UNL A   1      50.471  26.992  30.454  1.00  0.00     0.059 A 
ATOM     93  C   UNL A   1      49.686  26.129  32.585  1.00  0.00     0.059 A 
ATOM     94  F   UNL A   1      47.399  26.199  33.096  1.00  0.00    -0.206 F 
ATOM     95  C   UNL A   1      50.722  26.387  31.688  1.00  0.00     0.060 A 
BRANCH  95  96
ATOM     96  S   UNL A   1      52.425  25.973  32.121  1.00  0.00     0.124 S 
ATOM     97  O   UNL A   1      53.044  25.858  30.805  1.00  0.00    -0.237 OA
ATOM     98  O   UNL A   1      52.837  27.126  32.917  1.00  0.00    -0.237 OA
ATOM     99  O   UNL A   1      52.291  24.723  32.864  1.00  0.00    -0.744 OA
ENDBRANCH  95  96
ENDBRANCH  63  88
ENDBRANCH  37  38
ENDBRANCH  29  32
ENDBRANCH  27  28
ENDBRANCH  26  27
ENDBRANCH  25  26
ENDBRANCH   1  25
TORSDOF 20
ENDMDL
