MODEL 1
REMARK VINA RESULT:     -11.2      0.000      0.000
REMARK SMILES CC[C@](C)(NC(=O)CNC(=O)c1cccc(Cl)c1)C(=O)NCCCCCCNC(=O)c1ccc(-c2c3nc(c(-c4c(F)cc(S(=O)(=O)[O-])cc4F)c4ccc([nH]4)c(-c4c(F)cc(S(=O)(=O)[O-])cc4F)c4nc(c(-c5c(F)cc(S(=O)(=O)[O-])cc5F)c5ccc2[nH]5)C=C4)C=C3)cc1
REMARK SMILES IDX 24 1 23 2 22 3 21 4 19 5 20 6 3 8 4 9 2 10 1 11 5 12 6 13
REMARK SMILES IDX 7 15 8 16 9 17 10 18 11 20 12 21 13 22 18 23 14 24 16 25
REMARK SMILES IDX 15 26 17 27 25 28 26 29 27 30 28 31 29 32 30 34 31 35 32 36
REMARK SMILES IDX 96 37 33 38 95 39 34 40 35 41 36 42 89 43 37 44 94 45 88 46
REMARK SMILES IDX 90 47 38 48 93 49 87 50 86 51 39 53 73 54 52 55 72 56 53 57
REMARK SMILES IDX 56 58 71 59 91 60 54 61 55 62 70 64 92 65 57 66 40 67 41 68
REMARK SMILES IDX 50 69 42 70 43 71 49 72 51 73 44 74 45 75 46 76 47 77 48 78
REMARK SMILES IDX 74 79 75 80 84 81 76 82 77 83 83 84 85 85 78 86 79 87 80 88
REMARK SMILES IDX 81 89 82 90 58 91 59 92 68 93 60 94 61 95 67 96 69 97 62 98
REMARK SMILES IDX 63 99 64 100 65 101 66 102
REMARK H PARENT 21 7 5 14 9 19 28 33 90 52 56 63
REMARK Flexibility Score: inf
ROOT
ATOM      1  C   UNL A   1      34.582  32.234  27.742  1.00  0.00     0.002 C 
ENDROOT
BRANCH   1   2
ATOM      2  C   UNL A   1      34.715  30.712  27.731  1.00  0.00     0.021 C 
BRANCH   2   3
ATOM      3  C   UNL A   1      33.724  29.946  26.850  1.00  0.00     0.116 C 
BRANCH   3   4
ATOM      4  N   UNL A   1      32.521  29.459  27.513  1.00  0.00    -0.354 N 
ATOM      5  C   UNL A   1      31.843  28.276  27.380  1.00  0.00     0.245 C 
ATOM      6  O   UNL A   1      31.103  27.922  28.299  1.00  0.00    -0.272 OA
ATOM      7  H   UNL A   1      32.131  30.085  28.165  1.00  0.00     0.163 HD
BRANCH   5   8
ATOM      8  C   UNL A   1      32.122  27.306  26.228  1.00  0.00     0.116 C 
ATOM      9  C   UNL A   1      33.602  27.305  25.792  1.00  0.00     0.045 C 
BRANCH   8  10
ATOM     10  C   UNL A   1      31.279  27.830  25.015  1.00  0.00     0.035 C 
ATOM     11  C   UNL A   1      32.117  28.497  23.909  1.00  0.00     0.007 C 
ENDBRANCH   8  10
BRANCH   8  12
ATOM     12  N   UNL A   1      31.781  25.927  26.625  1.00  0.00    -0.340 N 
ATOM     13  C   UNL A   1      31.089  24.988  25.895  1.00  0.00     0.240 C 
ATOM     14  H   UNL A   1      32.086  25.645  27.519  1.00  0.00     0.164 HD
ATOM     15  O   UNL A   1      30.419  24.170  26.533  1.00  0.00    -0.273 OA
BRANCH  13  16
ATOM     16  C   UNL A   1      31.207  24.863  24.342  1.00  0.00     0.216 C 
BRANCH  16  17
ATOM     17  N   UNL A   1      32.500  24.722  23.691  1.00  0.00    -0.343 N 
ATOM     18  C   UNL A   1      33.272  23.605  23.436  1.00  0.00     0.251 C 
ATOM     19  H   UNL A   1      32.892  25.569  23.377  1.00  0.00     0.164 HD
ATOM     20  O   UNL A   1      34.176  23.687  22.606  1.00  0.00    -0.269 OA
BRANCH  18  21
ATOM     21  C   UNL A   1      33.143  22.332  24.192  1.00  0.00     0.041 A 
ATOM     22  C   UNL A   1      33.455  22.183  25.543  1.00  0.00     0.014 A 
ATOM     23  C   UNL A   1      32.649  21.228  23.479  1.00  0.00     0.034 A 
ATOM     24  C   UNL A   1      33.404  20.910  26.135  1.00  0.00     0.002 A 
ATOM     25  C   UNL A   1      32.651  19.959  24.057  1.00  0.00     0.041 A 
ATOM     26  C   UNL A   1      33.047  19.790  25.380  1.00  0.00     0.020 A 
ATOM     27  Cl  UNL A   1      32.238  18.582  23.108  1.00  0.00    -0.084 Cl
ENDBRANCH  18  21
ENDBRANCH  16  17
ENDBRANCH  13  16
ENDBRANCH   8  12
ENDBRANCH   5   8
ENDBRANCH   3   4
ENDBRANCH   2   3
ENDBRANCH   1   2
BRANCH   1  28
ATOM     28  C   UNL A   1      35.879  33.006  27.973  1.00  0.00     0.002 C 
BRANCH  28  29
ATOM     29  C   UNL A   1      35.895  33.849  29.242  1.00  0.00     0.021 C 
BRANCH  29  30
ATOM     30  C   UNL A   1      36.711  33.251  30.381  1.00  0.00     0.116 C 
BRANCH  30  31
ATOM     31  N   UNL A   1      36.113  32.036  30.914  1.00  0.00    -0.352 N 
ATOM     32  C   UNL A   1      36.624  30.760  30.899  1.00  0.00     0.251 C 
ATOM     33  H   UNL A   1      35.231  32.141  31.339  1.00  0.00     0.163 HD
ATOM     34  O   UNL A   1      35.928  29.805  31.231  1.00  0.00    -0.269 OA
BRANCH  32  35
ATOM     35  C   UNL A   1      38.014  30.558  30.443  1.00  0.00     0.039 A 
ATOM     36  C   UNL A   1      39.031  30.441  31.390  1.00  0.00     0.014 A 
ATOM     37  C   UNL A   1      38.290  30.413  29.080  1.00  0.00     0.014 A 
ATOM     38  C   UNL A   1      40.319  30.101  30.972  1.00  0.00     0.010 A 
ATOM     39  C   UNL A   1      39.551  29.993  28.676  1.00  0.00     0.010 A 
ATOM     40  C   UNL A   1      40.579  29.833  29.617  1.00  0.00    -0.014 A 
BRANCH  40  41
ATOM     41  C   UNL A   1      41.916  29.370  29.168  1.00  0.00     0.031 A 
ATOM     42  C   UNL A   1      43.061  30.341  29.079  1.00  0.00     0.074 A 
ATOM     43  C   UNL A   1      42.079  28.094  28.767  1.00  0.00     0.049 A 
ATOM     44  N   UNL A   1      44.282  30.141  28.656  1.00  0.00    -0.248 NA
ATOM     45  C   UNL A   1      42.786  31.726  29.491  1.00  0.00     0.031 C 
ATOM     46  C   UNL A   1      41.027  27.075  28.740  1.00  0.00     0.029 A 
ATOM     47  N   UNL A   1      43.186  27.438  28.291  1.00  0.00    -0.354 N 
ATOM     48  C   UNL A   1      44.918  31.374  28.743  1.00  0.00     0.074 A 
ATOM     49  C   UNL A   1      43.928  32.328  29.193  1.00  0.00     0.031 C 
ATOM     50  C   UNL A   1      41.544  25.920  28.292  1.00  0.00     0.029 A 
ATOM     51  C   UNL A   1      42.952  26.123  27.965  1.00  0.00     0.049 A 
ATOM     52  H   UNL A   1      44.067  27.869  28.192  1.00  0.00     0.167 HD
ATOM     53  C   UNL A   1      46.215  31.678  28.496  1.00  0.00     0.037 A 
ATOM     54  C   UNL A   1      43.775  25.188  27.451  1.00  0.00     0.037 A 
ATOM     55  C   UNL A   1      47.196  30.719  28.059  1.00  0.00     0.049 A 
ATOM     56  C   UNL A   1      45.212  25.542  27.188  1.00  0.00     0.074 A 
ATOM     57  C   UNL A   1      48.548  30.910  27.840  1.00  0.00     0.029 A 
ATOM     58  N   UNL A   1      46.927  29.390  27.764  1.00  0.00    -0.354 N 
ATOM     59  N   UNL A   1      45.818  26.693  27.351  1.00  0.00    -0.248 NA
ATOM     60  C   UNL A   1      46.079  24.470  26.679  1.00  0.00     0.031 C 
ATOM     61  C   UNL A   1      49.087  29.709  27.366  1.00  0.00     0.029 A 
ATOM     62  C   UNL A   1      48.083  28.754  27.338  1.00  0.00     0.049 A 
ATOM     63  H   UNL A   1      46.044  28.961  27.844  1.00  0.00     0.167 HD
ATOM     64  C   UNL A   1      47.141  26.484  26.978  1.00  0.00     0.074 A 
ATOM     65  C   UNL A   1      47.249  25.090  26.599  1.00  0.00     0.031 C 
ATOM     66  C   UNL A   1      48.172  27.367  26.952  1.00  0.00     0.037 A 
BRANCH  53  67
ATOM     67  C   UNL A   1      46.635  33.110  28.695  1.00  0.00     0.058 A 
ATOM     68  C   UNL A   1      46.597  34.042  27.645  1.00  0.00     0.135 A 
ATOM     69  C   UNL A   1      47.089  33.556  29.946  1.00  0.00     0.135 A 
ATOM     70  F   UNL A   1      46.184  33.669  26.422  1.00  0.00    -0.206 F 
ATOM     71  C   UNL A   1      47.045  35.349  27.812  1.00  0.00     0.059 A 
ATOM     72  C   UNL A   1      47.510  34.869  30.146  1.00  0.00     0.059 A 
ATOM     73  F   UNL A   1      47.142  32.711  30.988  1.00  0.00    -0.206 F 
ATOM     74  C   UNL A   1      47.507  35.749  29.066  1.00  0.00     0.060 A 
BRANCH  74  75
ATOM     75  S   UNL A   1      48.117  37.438  29.259  1.00  0.00     0.124 S 
ATOM     76  O   UNL A   1      49.552  37.210  29.408  1.00  0.00    -0.237 OA
ATOM     77  O   UNL A   1      47.702  38.066  28.010  1.00  0.00    -0.237 OA
ATOM     78  O   UNL A   1      47.430  37.913  30.457  1.00  0.00    -0.744 OA
ENDBRANCH  74  75
ENDBRANCH  53  67
BRANCH  54  79
ATOM     79  C   UNL A   1      43.251  23.823  27.180  1.00  0.00     0.058 A 
ATOM     80  C   UNL A   1      42.946  23.410  25.876  1.00  0.00     0.135 A 
ATOM     81  C   UNL A   1      43.102  22.886  28.216  1.00  0.00     0.135 A 
ATOM     82  F   UNL A   1      43.066  24.272  24.855  1.00  0.00    -0.206 F 
ATOM     83  C   UNL A   1      42.515  22.115  25.604  1.00  0.00     0.059 A 
ATOM     84  C   UNL A   1      42.694  21.579  27.966  1.00  0.00     0.059 A 
ATOM     85  F   UNL A   1      43.396  23.228  29.480  1.00  0.00    -0.206 F 
ATOM     86  C   UNL A   1      42.403  21.203  26.655  1.00  0.00     0.060 A 
BRANCH  86  87
ATOM     87  S   UNL A   1      41.934  19.501  26.279  1.00  0.00     0.124 S 
ATOM     88  O   UNL A   1      40.485  19.612  26.164  1.00  0.00    -0.237 OA
ATOM     89  O   UNL A   1      42.657  19.252  25.036  1.00  0.00    -0.237 OA
ATOM     90  O   UNL A   1      42.420  18.756  27.436  1.00  0.00    -0.744 OA
ENDBRANCH  86  87
ENDBRANCH  54  79
BRANCH  66  91
ATOM     91  C   UNL A   1      49.512  26.850  26.505  1.00  0.00     0.058 A 
ATOM     92  C   UNL A   1      50.453  26.356  27.423  1.00  0.00     0.135 A 
ATOM     93  C   UNL A   1      49.838  26.800  25.141  1.00  0.00     0.135 A 
ATOM     94  F   UNL A   1      50.194  26.388  28.740  1.00  0.00    -0.206 F 
ATOM     95  C   UNL A   1      51.679  25.849  27.004  1.00  0.00     0.059 A 
ATOM     96  C   UNL A   1      51.046  26.270  24.697  1.00  0.00     0.059 A 
ATOM     97  F   UNL A   1      48.971  27.250  24.221  1.00  0.00    -0.206 F 
ATOM     98  C   UNL A   1      51.966  25.808  25.639  1.00  0.00     0.060 A 
BRANCH  98  99
ATOM     99  S   UNL A   1      53.546  25.115  25.107  1.00  0.00     0.124 S 
ATOM    100  O   UNL A   1      53.622  25.584  23.728  1.00  0.00    -0.237 OA
ATOM    101  O   UNL A   1      54.485  25.731  26.040  1.00  0.00    -0.237 OA
ATOM    102  O   UNL A   1      53.360  23.677  25.273  1.00  0.00    -0.744 OA
ENDBRANCH  98  99
ENDBRANCH  66  91
ENDBRANCH  40  41
ENDBRANCH  32  35
ENDBRANCH  30  31
ENDBRANCH  29  30
ENDBRANCH  28  29
ENDBRANCH   1  28
TORSDOF 21
ENDMDL
MODEL 2
REMARK VINA RESULT:     -11.0      1.349      2.151
REMARK SMILES CC[C@](C)(NC(=O)CNC(=O)c1cccc(Cl)c1)C(=O)NCCCCCCNC(=O)c1ccc(-c2c3nc(c(-c4c(F)cc(S(=O)(=O)[O-])cc4F)c4ccc([nH]4)c(-c4c(F)cc(S(=O)(=O)[O-])cc4F)c4nc(c(-c5c(F)cc(S(=O)(=O)[O-])cc5F)c5ccc2[nH]5)C=C4)C=C3)cc1
REMARK SMILES IDX 24 1 23 2 22 3 21 4 19 5 20 6 3 8 4 9 2 10 1 11 5 12 6 13
REMARK SMILES IDX 7 15 8 16 9 17 10 18 11 20 12 21 13 22 18 23 14 24 16 25
REMARK SMILES IDX 15 26 17 27 25 28 26 29 27 30 28 31 29 32 30 34 31 35 32 36
REMARK SMILES IDX 96 37 33 38 95 39 34 40 35 41 36 42 89 43 37 44 94 45 88 46
REMARK SMILES IDX 90 47 38 48 93 49 87 50 86 51 39 53 73 54 52 55 72 56 53 57
REMARK SMILES IDX 56 58 71 59 91 60 54 61 55 62 70 64 92 65 57 66 40 67 41 68
REMARK SMILES IDX 50 69 42 70 43 71 49 72 51 73 44 74 45 75 46 76 47 77 48 78
REMARK SMILES IDX 74 79 75 80 84 81 76 82 77 83 83 84 85 85 78 86 79 87 80 88
REMARK SMILES IDX 81 89 82 90 58 91 59 92 68 93 60 94 61 95 67 96 69 97 62 98
REMARK SMILES IDX 63 99 64 100 65 101 66 102
REMARK H PARENT 21 7 5 14 9 19 28 33 90 52 56 63
REMARK Flexibility Score: inf
ROOT
ATOM      1  C   UNL A   1      32.725  31.385  26.904  1.00  0.00     0.002 C 
ENDROOT
BRANCH   1   2
ATOM      2  C   UNL A   1      31.529  30.936  26.066  1.00  0.00     0.021 C 
BRANCH   2   3
ATOM      3  C   UNL A   1      31.677  29.603  25.326  1.00  0.00     0.116 C 
BRANCH   3   4
ATOM      4  N   UNL A   1      32.744  29.533  24.337  1.00  0.00    -0.354 N 
ATOM      5  C   UNL A   1      33.127  28.514  23.504  1.00  0.00     0.245 C 
ATOM      6  O   UNL A   1      33.778  28.797  22.499  1.00  0.00    -0.272 OA
ATOM      7  H   UNL A   1      33.278  30.356  24.252  1.00  0.00     0.163 HD
BRANCH   5   8
ATOM      8  C   UNL A   1      32.612  27.083  23.685  1.00  0.00     0.116 C 
ATOM      9  C   UNL A   1      32.964  26.490  25.065  1.00  0.00     0.045 C 
BRANCH   8  10
ATOM     10  C   UNL A   1      33.355  26.223  22.605  1.00  0.00     0.035 C 
ATOM     11  C   UNL A   1      33.811  24.841  23.107  1.00  0.00     0.007 C 
ENDBRANCH   8  10
BRANCH   8  12
ATOM     12  N   UNL A   1      31.144  27.047  23.553  1.00  0.00    -0.340 N 
ATOM     13  C   UNL A   1      30.253  26.282  24.272  1.00  0.00     0.240 C 
ATOM     14  H   UNL A   1      30.754  27.640  22.869  1.00  0.00     0.164 HD
ATOM     15  O   UNL A   1      29.217  25.941  23.692  1.00  0.00    -0.273 OA
BRANCH  13  16
ATOM     16  C   UNL A   1      30.457  25.936  25.781  1.00  0.00     0.216 C 
BRANCH  16  17
ATOM     17  N   UNL A   1      29.758  24.822  26.403  1.00  0.00    -0.343 N 
ATOM     18  C   UNL A   1      30.222  23.613  26.884  1.00  0.00     0.251 C 
ATOM     19  H   UNL A   1      28.787  24.953  26.497  1.00  0.00     0.164 HD
ATOM     20  O   UNL A   1      29.503  22.961  27.640  1.00  0.00    -0.269 OA
BRANCH  18  21
ATOM     21  C   UNL A   1      31.503  22.997  26.450  1.00  0.00     0.041 A 
ATOM     22  C   UNL A   1      32.745  23.276  27.020  1.00  0.00     0.014 A 
ATOM     23  C   UNL A   1      31.425  22.059  25.408  1.00  0.00     0.034 A 
ATOM     24  C   UNL A   1      33.910  22.724  26.461  1.00  0.00     0.002 A 
ATOM     25  C   UNL A   1      32.587  21.557  24.824  1.00  0.00     0.041 A 
ATOM     26  C   UNL A   1      33.835  21.902  25.334  1.00  0.00     0.020 A 
ATOM     27  Cl  UNL A   1      32.484  20.568  23.418  1.00  0.00    -0.084 Cl
ENDBRANCH  18  21
ENDBRANCH  16  17
ENDBRANCH  13  16
ENDBRANCH   8  12
ENDBRANCH   5   8
ENDBRANCH   3   4
ENDBRANCH   2   3
ENDBRANCH   1   2
BRANCH   1  28
ATOM     28  C   UNL A   1      33.410  30.288  27.714  1.00  0.00     0.002 C 
BRANCH  28  29
ATOM     29  C   UNL A   1      34.820  29.943  27.249  1.00  0.00     0.021 C 
BRANCH  29  30
ATOM     30  C   UNL A   1      35.739  29.438  28.353  1.00  0.00     0.116 C 
BRANCH  30  31
ATOM     31  N   UNL A   1      35.536  30.143  29.610  1.00  0.00    -0.352 N 
ATOM     32  C   UNL A   1      36.473  30.477  30.558  1.00  0.00     0.251 C 
ATOM     33  H   UNL A   1      34.610  30.415  29.806  1.00  0.00     0.163 HD
ATOM     34  O   UNL A   1      36.126  30.918  31.651  1.00  0.00    -0.269 OA
BRANCH  32  35
ATOM     35  C   UNL A   1      37.901  30.263  30.250  1.00  0.00     0.039 A 
ATOM     36  C   UNL A   1      38.706  29.599  31.176  1.00  0.00     0.014 A 
ATOM     37  C   UNL A   1      38.417  30.659  29.012  1.00  0.00     0.014 A 
ATOM     38  C   UNL A   1      40.016  29.263  30.827  1.00  0.00     0.010 A 
ATOM     39  C   UNL A   1      39.691  30.250  28.637  1.00  0.00     0.010 A 
ATOM     40  C   UNL A   1      40.504  29.548  29.540  1.00  0.00    -0.014 A 
BRANCH  40  41
ATOM     41  C   UNL A   1      41.856  29.108  29.116  1.00  0.00     0.031 A 
ATOM     42  C   UNL A   1      42.990  30.095  29.062  1.00  0.00     0.074 A 
ATOM     43  C   UNL A   1      42.046  27.838  28.706  1.00  0.00     0.049 A 
ATOM     44  N   UNL A   1      44.223  29.915  28.665  1.00  0.00    -0.248 NA
ATOM     45  C   UNL A   1      42.688  31.472  29.482  1.00  0.00     0.031 C 
ATOM     46  C   UNL A   1      41.008  26.806  28.645  1.00  0.00     0.029 A 
ATOM     47  N   UNL A   1      43.172  27.202  28.248  1.00  0.00    -0.354 N 
ATOM     48  C   UNL A   1      44.840  31.156  28.778  1.00  0.00     0.074 A 
ATOM     49  C   UNL A   1      43.828  32.092  29.215  1.00  0.00     0.031 C 
ATOM     50  C   UNL A   1      41.551  25.662  28.197  1.00  0.00     0.029 A 
ATOM     51  C   UNL A   1      42.963  25.888  27.904  1.00  0.00     0.049 A 
ATOM     52  H   UNL A   1      44.048  27.645  28.173  1.00  0.00     0.167 HD
ATOM     53  C   UNL A   1      46.138  31.479  28.563  1.00  0.00     0.037 A 
ATOM     54  C   UNL A   1      43.809  24.968  27.399  1.00  0.00     0.037 A 
ATOM     55  C   UNL A   1      47.140  30.539  28.138  1.00  0.00     0.049 A 
ATOM     56  C   UNL A   1      45.246  25.344  27.171  1.00  0.00     0.074 A 
ATOM     57  C   UNL A   1      48.495  30.749  27.950  1.00  0.00     0.029 A 
ATOM     58  N   UNL A   1      46.896  29.209  27.823  1.00  0.00    -0.354 N 
ATOM     59  N   UNL A   1      45.833  26.502  27.359  1.00  0.00    -0.248 NA
ATOM     60  C   UNL A   1      46.138  24.290  26.671  1.00  0.00     0.031 C 
ATOM     61  C   UNL A   1      49.060  29.561  27.476  1.00  0.00     0.029 A 
ATOM     62  C   UNL A   1      48.070  28.593  27.417  1.00  0.00     0.049 A 
ATOM     63  H   UNL A   1      46.018  28.767  27.880  1.00  0.00     0.167 HD
ATOM     64  C   UNL A   1      47.167  26.315  27.013  1.00  0.00     0.074 A 
ATOM     65  C   UNL A   1      47.302  24.926  26.623  1.00  0.00     0.031 C 
ATOM     66  C   UNL A   1      48.186  27.211  27.018  1.00  0.00     0.037 A 
BRANCH  53  67
ATOM     67  C   UNL A   1      46.533  32.915  28.785  1.00  0.00     0.058 A 
ATOM     68  C   UNL A   1      46.948  33.378  30.045  1.00  0.00     0.135 A 
ATOM     69  C   UNL A   1      46.491  33.842  27.732  1.00  0.00     0.135 A 
ATOM     70  F   UNL A   1      46.996  32.540  31.093  1.00  0.00    -0.206 F 
ATOM     71  C   UNL A   1      47.253  34.718  30.266  1.00  0.00     0.059 A 
ATOM     72  C   UNL A   1      46.824  35.181  27.922  1.00  0.00     0.059 A 
ATOM     73  F   UNL A   1      46.107  33.455  26.505  1.00  0.00    -0.206 F 
ATOM     74  C   UNL A   1      47.180  35.612  29.199  1.00  0.00     0.060 A 
BRANCH  74  75
ATOM     75  S   UNL A   1      47.544  37.354  29.507  1.00  0.00     0.124 S 
ATOM     76  O   UNL A   1      48.409  37.672  28.375  1.00  0.00    -0.237 OA
ATOM     77  O   UNL A   1      46.217  37.960  29.482  1.00  0.00    -0.237 OA
ATOM     78  O   UNL A   1      48.199  37.338  30.812  1.00  0.00    -0.744 OA
ENDBRANCH  74  75
ENDBRANCH  53  67
BRANCH  54  79
ATOM     79  C   UNL A   1      43.309  23.600  27.103  1.00  0.00     0.058 A 
ATOM     80  C   UNL A   1      43.028  23.201  25.789  1.00  0.00     0.135 A 
ATOM     81  C   UNL A   1      43.162  22.647  28.124  1.00  0.00     0.135 A 
ATOM     82  F   UNL A   1      43.146  24.078  24.782  1.00  0.00    -0.206 F 
ATOM     83  C   UNL A   1      42.619  21.903  25.494  1.00  0.00     0.059 A 
ATOM     84  C   UNL A   1      42.778  21.337  27.851  1.00  0.00     0.059 A 
ATOM     85  F   UNL A   1      43.435  22.975  29.395  1.00  0.00    -0.206 F 
ATOM     86  C   UNL A   1      42.509  20.975  26.531  1.00  0.00     0.060 A 
BRANCH  86  87
ATOM     87  S   UNL A   1      42.071  19.271  26.126  1.00  0.00     0.124 S 
ATOM     88  O   UNL A   1      40.634  19.380  25.900  1.00  0.00    -0.237 OA
ATOM     89  O   UNL A   1      42.888  19.019  24.943  1.00  0.00    -0.237 OA
ATOM     90  O   UNL A   1      42.468  18.530  27.320  1.00  0.00    -0.744 OA
ENDBRANCH  86  87
ENDBRANCH  54  79
BRANCH  66  91
ATOM     91  C   UNL A   1      49.542  26.717  26.597  1.00  0.00     0.058 A 
ATOM     92  C   UNL A   1      50.370  25.998  27.475  1.00  0.00     0.135 A 
ATOM     93  C   UNL A   1      49.998  26.918  25.284  1.00  0.00     0.135 A 
ATOM     94  F   UNL A   1      49.985  25.785  28.743  1.00  0.00    -0.206 F 
ATOM     95  C   UNL A   1      51.610  25.515  27.072  1.00  0.00     0.059 A 
ATOM     96  C   UNL A   1      51.222  26.418  24.851  1.00  0.00     0.059 A 
ATOM     97  F   UNL A   1      49.242  27.590  24.401  1.00  0.00    -0.206 F 
ATOM     98  C   UNL A   1      52.027  25.727  25.757  1.00  0.00     0.060 A 
BRANCH  98  99
ATOM     99  S   UNL A   1      53.624  25.065  25.237  1.00  0.00     0.124 S 
ATOM    100  O   UNL A   1      54.518  25.635  26.240  1.00  0.00    -0.237 OA
ATOM    101  O   UNL A   1      53.407  23.624  25.327  1.00  0.00    -0.237 OA
ATOM    102  O   UNL A   1      53.784  25.585  23.883  1.00  0.00    -0.744 OA
ENDBRANCH  98  99
ENDBRANCH  66  91
ENDBRANCH  40  41
ENDBRANCH  32  35
ENDBRANCH  30  31
ENDBRANCH  29  30
ENDBRANCH  28  29
ENDBRANCH   1  28
TORSDOF 21
ENDMDL
MODEL 3
REMARK VINA RESULT:     -10.9      1.614      8.375
REMARK SMILES CC[C@](C)(NC(=O)CNC(=O)c1cccc(Cl)c1)C(=O)NCCCCCCNC(=O)c1ccc(-c2c3nc(c(-c4c(F)cc(S(=O)(=O)[O-])cc4F)c4ccc([nH]4)c(-c4c(F)cc(S(=O)(=O)[O-])cc4F)c4nc(c(-c5c(F)cc(S(=O)(=O)[O-])cc5F)c5ccc2[nH]5)C=C4)C=C3)cc1
REMARK SMILES IDX 24 1 23 2 22 3 21 4 19 5 20 6 3 8 4 9 2 10 1 11 5 12 6 13
REMARK SMILES IDX 7 15 8 16 9 17 10 18 11 20 12 21 13 22 18 23 14 24 16 25
REMARK SMILES IDX 15 26 17 27 25 28 26 29 27 30 28 31 29 32 30 34 31 35 32 36
REMARK SMILES IDX 96 37 33 38 95 39 34 40 35 41 36 42 89 43 37 44 94 45 88 46
REMARK SMILES IDX 90 47 38 48 93 49 87 50 86 51 39 53 73 54 52 55 72 56 53 57
REMARK SMILES IDX 56 58 71 59 91 60 54 61 55 62 70 64 92 65 57 66 40 67 41 68
REMARK SMILES IDX 50 69 42 70 43 71 49 72 51 73 44 74 45 75 46 76 47 77 48 78
REMARK SMILES IDX 74 79 75 80 84 81 76 82 77 83 83 84 85 85 78 86 79 87 80 88
REMARK SMILES IDX 81 89 82 90 58 91 59 92 68 93 60 94 61 95 67 96 69 97 62 98
REMARK SMILES IDX 63 99 64 100 65 101 66 102
REMARK H PARENT 21 7 5 14 9 19 28 33 90 52 56 63
REMARK Flexibility Score: inf
ROOT
ATOM      1  C   UNL A   1      32.787  30.006  25.790  1.00  0.00     0.002 C 
ENDROOT
BRANCH   1   2
ATOM      2  C   UNL A   1      31.436  29.509  25.277  1.00  0.00     0.021 C 
BRANCH   2   3
ATOM      3  C   UNL A   1      31.473  28.395  24.228  1.00  0.00     0.116 C 
BRANCH   3   4
ATOM      4  N   UNL A   1      30.205  27.732  23.952  1.00  0.00    -0.354 N 
ATOM      5  C   UNL A   1      29.750  26.488  24.306  1.00  0.00     0.245 C 
ATOM      6  O   UNL A   1      28.535  26.292  24.308  1.00  0.00    -0.272 OA
ATOM      7  H   UNL A   1      29.570  28.266  23.423  1.00  0.00     0.163 HD
BRANCH   5   8
ATOM      8  C   UNL A   1      30.683  25.415  24.874  1.00  0.00     0.116 C 
ATOM      9  C   UNL A   1      32.114  25.936  25.123  1.00  0.00     0.045 C 
BRANCH   8  10
ATOM     10  C   UNL A   1      30.777  24.304  23.771  1.00  0.00     0.035 C 
ATOM     11  C   UNL A   1      31.525  24.744  22.499  1.00  0.00     0.007 C 
ENDBRANCH   8  10
BRANCH   8  12
ATOM     12  N   UNL A   1      30.167  24.918  26.162  1.00  0.00    -0.340 N 
ATOM     13  C   UNL A   1      30.365  23.678  26.726  1.00  0.00     0.240 C 
ATOM     14  H   UNL A   1      29.615  25.548  26.682  1.00  0.00     0.164 HD
ATOM     15  O   UNL A   1      29.459  23.241  27.444  1.00  0.00    -0.273 OA
BRANCH  13  16
ATOM     16  C   UNL A   1      31.700  22.880  26.577  1.00  0.00     0.216 C 
BRANCH  16  17
ATOM     17  N   UNL A   1      31.731  21.569  25.948  1.00  0.00    -0.343 N 
ATOM     18  C   UNL A   1      32.763  20.876  25.343  1.00  0.00     0.251 C 
ATOM     19  H   UNL A   1      30.869  21.094  25.954  1.00  0.00     0.164 HD
ATOM     20  O   UNL A   1      32.634  19.667  25.157  1.00  0.00    -0.269 OA
BRANCH  18  21
ATOM     21  C   UNL A   1      33.981  21.531  24.801  1.00  0.00     0.041 A 
ATOM     22  C   UNL A   1      33.968  22.615  23.922  1.00  0.00     0.014 A 
ATOM     23  C   UNL A   1      35.213  21.020  25.236  1.00  0.00     0.034 A 
ATOM     24  C   UNL A   1      35.175  23.089  23.381  1.00  0.00     0.002 A 
ATOM     25  C   UNL A   1      36.403  21.459  24.656  1.00  0.00     0.041 A 
ATOM     26  C   UNL A   1      36.388  22.481  23.712  1.00  0.00     0.020 A 
ATOM     27  Cl  UNL A   1      37.889  20.682  25.049  1.00  0.00    -0.084 Cl
ENDBRANCH  18  21
ENDBRANCH  16  17
ENDBRANCH  13  16
ENDBRANCH   8  12
ENDBRANCH   5   8
ENDBRANCH   3   4
ENDBRANCH   2   3
ENDBRANCH   1   2
BRANCH   1  28
ATOM     28  C   UNL A   1      33.306  29.318  27.050  1.00  0.00     0.002 C 
BRANCH  28  29
ATOM     29  C   UNL A   1      34.784  28.950  27.008  1.00  0.00     0.021 C 
BRANCH  29  30
ATOM     30  C   UNL A   1      35.699  29.952  27.700  1.00  0.00     0.116 C 
BRANCH  30  31
ATOM     31  N   UNL A   1      35.559  29.924  29.148  1.00  0.00    -0.352 N 
ATOM     32  C   UNL A   1      36.534  29.708  30.092  1.00  0.00     0.251 C 
ATOM     33  H   UNL A   1      34.651  30.081  29.495  1.00  0.00     0.163 HD
ATOM     34  O   UNL A   1      36.235  29.541  31.271  1.00  0.00    -0.269 OA
BRANCH  32  35
ATOM     35  C   UNL A   1      37.943  29.647  29.656  1.00  0.00     0.039 A 
ATOM     36  C   UNL A   1      38.951  29.569  30.617  1.00  0.00     0.014 A 
ATOM     37  C   UNL A   1      38.253  29.595  28.293  1.00  0.00     0.014 A 
ATOM     38  C   UNL A   1      40.271  29.361  30.209  1.00  0.00     0.010 A 
ATOM     39  C   UNL A   1      39.552  29.304  27.895  1.00  0.00     0.010 A 
ATOM     40  C   UNL A   1      40.574  29.184  28.849  1.00  0.00    -0.014 A 
BRANCH  40  41
ATOM     41  C   UNL A   1      41.953  28.859  28.404  1.00  0.00     0.031 A 
ATOM     42  C   UNL A   1      42.304  27.454  27.998  1.00  0.00     0.074 A 
ATOM     43  C   UNL A   1      42.907  29.810  28.440  1.00  0.00     0.049 A 
ATOM     44  N   UNL A   1      43.461  26.963  27.638  1.00  0.00    -0.248 NA
ATOM     45  C   UNL A   1      41.215  26.465  28.033  1.00  0.00     0.031 C 
ATOM     46  C   UNL A   1      42.707  31.192  28.882  1.00  0.00     0.029 A 
ATOM     47  N   UNL A   1      44.239  29.757  28.114  1.00  0.00    -0.354 N 
ATOM     48  C   UNL A   1      43.242  25.609  27.411  1.00  0.00     0.074 A 
ATOM     49  C   UNL A   1      41.859  25.344  27.741  1.00  0.00     0.031 C 
ATOM     50  C   UNL A   1      43.867  31.860  28.780  1.00  0.00     0.029 A 
ATOM     51  C   UNL A   1      44.901  30.947  28.302  1.00  0.00     0.049 A 
ATOM     52  H   UNL A   1      44.679  28.943  27.776  1.00  0.00     0.167 HD
ATOM     53  C   UNL A   1      44.108  24.677  26.945  1.00  0.00     0.037 A 
ATOM     54  C   UNL A   1      46.198  31.267  28.119  1.00  0.00     0.037 A 
ATOM     55  C   UNL A   1      45.480  24.952  26.609  1.00  0.00     0.049 A 
ATOM     56  C   UNL A   1      47.143  30.221  27.597  1.00  0.00     0.074 A 
ATOM     57  C   UNL A   1      46.424  24.095  26.071  1.00  0.00     0.029 A 
ATOM     58  N   UNL A   1      46.109  26.177  26.788  1.00  0.00    -0.354 N 
ATOM     59  N   UNL A   1      46.902  28.964  27.311  1.00  0.00    -0.248 NA
ATOM     60  C   UNL A   1      48.532  30.637  27.365  1.00  0.00     0.031 C 
ATOM     61  C   UNL A   1      47.636  24.787  25.971  1.00  0.00     0.029 A 
ATOM     62  C   UNL A   1      47.436  26.091  26.397  1.00  0.00     0.049 A 
ATOM     63  H   UNL A   1      45.677  26.987  27.142  1.00  0.00     0.167 HD
ATOM     64  C   UNL A   1      48.104  28.439  26.852  1.00  0.00     0.074 A 
ATOM     65  C   UNL A   1      49.067  29.522  26.881  1.00  0.00     0.031 C 
ATOM     66  C   UNL A   1      48.387  27.176  26.444  1.00  0.00     0.037 A 
BRANCH  53  67
ATOM     67  C   UNL A   1      43.584  23.276  26.777  1.00  0.00     0.058 A 
ATOM     68  C   UNL A   1      43.316  22.452  27.883  1.00  0.00     0.135 A 
ATOM     69  C   UNL A   1      43.355  22.745  25.498  1.00  0.00     0.135 A 
ATOM     70  F   UNL A   1      43.529  22.902  29.131  1.00  0.00    -0.206 F 
ATOM     71  C   UNL A   1      42.892  21.135  27.727  1.00  0.00     0.059 A 
ATOM     72  C   UNL A   1      42.898  21.441  25.318  1.00  0.00     0.059 A 
ATOM     73  F   UNL A   1      43.589  23.488  24.405  1.00  0.00    -0.206 F 
ATOM     74  C   UNL A   1      42.694  20.638  26.439  1.00  0.00     0.060 A 
BRANCH  74  75
ATOM     75  S   UNL A   1      42.178  18.918  26.250  1.00  0.00     0.124 S 
ATOM     76  O   UNL A   1      40.789  19.078  25.830  1.00  0.00    -0.237 OA
ATOM     77  O   UNL A   1      43.097  18.426  25.229  1.00  0.00    -0.237 OA
ATOM     78  O   UNL A   1      42.369  18.357  27.585  1.00  0.00    -0.744 OA
ENDBRANCH  74  75
ENDBRANCH  53  67
BRANCH  54  79
ATOM     79  C   UNL A   1      46.657  32.649  28.414  1.00  0.00     0.058 A 
ATOM     80  C   UNL A   1      46.630  33.647  27.431  1.00  0.00     0.135 A 
ATOM     81  C   UNL A   1      47.075  33.013  29.705  1.00  0.00     0.135 A 
ATOM     82  F   UNL A   1      46.246  33.347  26.181  1.00  0.00    -0.206 F 
ATOM     83  C   UNL A   1      46.998  34.959  27.714  1.00  0.00     0.059 A 
ATOM     84  C   UNL A   1      47.425  34.322  30.019  1.00  0.00     0.059 A 
ATOM     85  F   UNL A   1      47.102  32.097  30.686  1.00  0.00    -0.206 F 
ATOM     86  C   UNL A   1      47.384  35.289  29.015  1.00  0.00     0.060 A 
BRANCH  86  87
ATOM     87  S   UNL A   1      47.768  37.013  29.393  1.00  0.00     0.124 S 
ATOM     88  O   UNL A   1      48.736  36.869  30.474  1.00  0.00    -0.237 OA
ATOM     89  O   UNL A   1      48.295  37.495  28.121  1.00  0.00    -0.237 OA
ATOM     90  O   UNL A   1      46.473  37.568  29.776  1.00  0.00    -0.744 OA
ENDBRANCH  86  87
ENDBRANCH  54  79
BRANCH  66  91
ATOM     91  C   UNL A   1      49.792  26.895  25.987  1.00  0.00     0.058 A 
ATOM     92  C   UNL A   1      50.161  27.001  24.637  1.00  0.00     0.135 A 
ATOM     93  C   UNL A   1      50.792  26.569  26.917  1.00  0.00     0.135 A 
ATOM     94  F   UNL A   1      49.242  27.302  23.707  1.00  0.00    -0.206 F 
ATOM     95  C   UNL A   1      51.469  26.771  24.222  1.00  0.00     0.059 A 
ATOM     96  C   UNL A   1      52.112  26.364  26.528  1.00  0.00     0.059 A 
ATOM     97  F   UNL A   1      50.495  26.464  28.222  1.00  0.00    -0.206 F 
ATOM     98  C   UNL A   1      52.438  26.457  25.175  1.00  0.00     0.060 A 
BRANCH  98  99
ATOM     99  S   UNL A   1      54.138  26.196  24.627  1.00  0.00     0.124 S 
ATOM    100  O   UNL A   1      54.877  27.062  25.540  1.00  0.00    -0.237 OA
ATOM    101  O   UNL A   1      54.315  24.762  24.831  1.00  0.00    -0.237 OA
ATOM    102  O   UNL A   1      54.115  26.626  23.232  1.00  0.00    -0.744 OA
ENDBRANCH  98  99
ENDBRANCH  66  91
ENDBRANCH  40  41
ENDBRANCH  32  35
ENDBRANCH  30  31
ENDBRANCH  29  30
ENDBRANCH  28  29
ENDBRANCH   1  28
TORSDOF 21
ENDMDL
