MODEL 1
REMARK VINA RESULT:     -12.6      0.000      0.000
REMARK SMILES O=C(NCCCCCCNC(=O)c1cn([C@H]2CCc3ccccc3C2)c(=O)[nH]c1=O)c1ccc(-c2c3nc(c(-c4c(F)cc(S(=O)(=O)[O-])cc4F)c4ccc([nH]4)c(-c4c(F)cc(S(=O)(=O)[O-])cc4F)c4nc(c(-c5c(F)cc(S(=O)(=O)[O-])cc5F)c5ccc2[nH]5)C=C4)C=C3)cc1
REMARK SMILES IDX 5 1 4 2 3 3 1 4 2 5 31 7 32 8 96 9 33 10 95 11 34 12 35 13
REMARK SMILES IDX 36 14 89 15 37 16 94 17 88 18 90 19 38 20 93 21 87 22 86 23
REMARK SMILES IDX 39 25 73 26 52 27 72 28 53 29 56 30 71 31 91 32 54 33 55 34
REMARK SMILES IDX 70 36 92 37 57 38 40 39 41 40 50 41 42 42 43 43 49 44 51 45
REMARK SMILES IDX 44 46 45 47 46 48 47 49 48 50 74 51 75 52 84 53 76 54 77 55
REMARK SMILES IDX 83 56 85 57 78 58 79 59 80 60 81 61 82 62 58 63 59 64 68 65
REMARK SMILES IDX 60 66 61 67 67 68 69 69 62 70 63 71 64 72 65 73 66 74 6 75
REMARK SMILES IDX 7 76 8 77 9 78 10 79 11 80 12 82 13 83 14 84 29 85 15 86
REMARK SMILES IDX 28 87 30 88 26 89 27 91 16 92 17 93 25 94 18 95 24 96 19 97
REMARK SMILES IDX 23 98 20 99 22 100 21 101
REMARK H PARENT 3 6 90 24 56 35 10 81 28 90
REMARK Flexibility Score: inf
ROOT
ATOM      1  C   UNL A   1      38.039  22.847  25.769  1.00  0.00     0.021 C 
ENDROOT
BRANCH   1   2
ATOM      2  C   UNL A   1      38.856  23.921  26.475  1.00  0.00     0.116 C 
BRANCH   2   3
ATOM      3  N   UNL A   1      40.262  23.867  26.132  1.00  0.00    -0.352 N 
ATOM      4  O   UNL A   1      42.395  24.564  26.047  1.00  0.00    -0.269 OA
ATOM      5  C   UNL A   1      41.285  24.672  26.560  1.00  0.00     0.251 C 
ATOM      6  H   UNL A   1      40.518  23.152  25.505  1.00  0.00     0.163 HD
BRANCH   5   7
ATOM      7  C   UNL A   1      41.048  25.681  27.618  1.00  0.00     0.039 A 
ATOM      8  C   UNL A   1      41.957  26.733  27.745  1.00  0.00     0.014 A 
ATOM      9  C   UNL A   1      39.971  25.576  28.504  1.00  0.00     0.014 A 
ATOM     10  C   UNL A   1      41.780  27.685  28.751  1.00  0.00     0.010 A 
ATOM     11  C   UNL A   1      39.754  26.565  29.460  1.00  0.00     0.010 A 
ATOM     12  C   UNL A   1      40.675  27.612  29.613  1.00  0.00    -0.014 A 
BRANCH  12  13
ATOM     13  C   UNL A   1      40.525  28.571  30.737  1.00  0.00     0.031 A 
ATOM     14  C   UNL A   1      41.417  28.444  31.945  1.00  0.00     0.074 A 
ATOM     15  C   UNL A   1      39.592  29.542  30.679  1.00  0.00     0.049 A 
ATOM     16  N   UNL A   1      41.423  29.151  33.044  1.00  0.00    -0.248 NA
ATOM     17  C   UNL A   1      42.420  27.363  31.924  1.00  0.00     0.031 C 
ATOM     18  C   UNL A   1      38.649  29.746  29.579  1.00  0.00     0.029 A 
ATOM     19  N   UNL A   1      39.287  30.543  31.567  1.00  0.00    -0.354 N 
ATOM     20  C   UNL A   1      42.411  28.593  33.847  1.00  0.00     0.074 A 
ATOM     21  C   UNL A   1      42.949  27.457  33.135  1.00  0.00     0.031 C 
ATOM     22  C   UNL A   1      37.891  30.825  29.842  1.00  0.00     0.029 A 
ATOM     23  C   UNL A   1      38.276  31.372  31.141  1.00  0.00     0.049 A 
ATOM     24  H   UNL A   1      39.749  30.658  32.429  1.00  0.00     0.167 HD
ATOM     25  C   UNL A   1      42.852  29.010  35.056  1.00  0.00     0.037 A 
ATOM     26  C   UNL A   1      37.725  32.452  31.730  1.00  0.00     0.037 A 
ATOM     27  C   UNL A   1      42.360  30.178  35.733  1.00  0.00     0.049 A 
ATOM     28  C   UNL A   1      38.249  32.907  33.066  1.00  0.00     0.074 A 
ATOM     29  C   UNL A   1      42.786  30.719  36.933  1.00  0.00     0.029 A 
ATOM     30  N   UNL A   1      41.346  30.996  35.261  1.00  0.00    -0.354 N 
ATOM     31  N   UNL A   1      39.210  32.389  33.791  1.00  0.00    -0.248 NA
ATOM     32  C   UNL A   1      37.617  34.093  33.664  1.00  0.00     0.031 C 
ATOM     33  C   UNL A   1      42.012  31.850  37.200  1.00  0.00     0.029 A 
ATOM     34  C   UNL A   1      41.126  32.033  36.150  1.00  0.00     0.049 A 
ATOM     35  H   UNL A   1      40.855  30.860  34.418  1.00  0.00     0.167 HD
ATOM     36  C   UNL A   1      39.311  33.194  34.920  1.00  0.00     0.074 A 
ATOM     37  C   UNL A   1      38.322  34.242  34.777  1.00  0.00     0.031 C 
ATOM     38  C   UNL A   1      40.147  33.076  35.979  1.00  0.00     0.037 A 
BRANCH  25  39
ATOM     39  C   UNL A   1      43.949  28.223  35.715  1.00  0.00     0.058 A 
ATOM     40  C   UNL A   1      43.662  27.164  36.591  1.00  0.00     0.135 A 
ATOM     41  C   UNL A   1      45.296  28.480  35.413  1.00  0.00     0.135 A 
ATOM     42  F   UNL A   1      42.392  26.891  36.928  1.00  0.00    -0.206 F 
ATOM     43  C   UNL A   1      44.674  26.394  37.153  1.00  0.00     0.059 A 
ATOM     44  C   UNL A   1      46.323  27.706  35.946  1.00  0.00     0.059 A 
ATOM     45  F   UNL A   1      45.622  29.484  34.585  1.00  0.00    -0.206 F 
ATOM     46  C   UNL A   1      46.001  26.668  36.820  1.00  0.00     0.060 A 
BRANCH  46  47
ATOM     47  S   UNL A   1      47.296  25.631  37.528  1.00  0.00     0.124 S 
ATOM     48  O   UNL A   1      48.115  26.619  38.223  1.00  0.00    -0.237 OA
ATOM     49  O   UNL A   1      46.537  24.723  38.382  1.00  0.00    -0.237 OA
ATOM     50  O   UNL A   1      47.916  25.014  36.359  1.00  0.00    -0.744 OA
ENDBRANCH  46  47
ENDBRANCH  25  39
BRANCH  26  51
ATOM     51  C   UNL A   1      36.635  33.197  31.048  1.00  0.00     0.058 A 
ATOM     52  C   UNL A   1      35.300  33.050  31.453  1.00  0.00     0.135 A 
ATOM     53  C   UNL A   1      36.903  34.073  29.984  1.00  0.00     0.135 A 
ATOM     54  F   UNL A   1      34.994  32.219  32.461  1.00  0.00    -0.206 F 
ATOM     55  C   UNL A   1      34.266  33.733  30.819  1.00  0.00     0.059 A 
ATOM     56  C   UNL A   1      35.889  34.782  29.349  1.00  0.00     0.059 A 
ATOM     57  F   UNL A   1      38.165  34.260  29.569  1.00  0.00    -0.206 F 
ATOM     58  C   UNL A   1      34.572  34.598  29.767  1.00  0.00     0.060 A 
BRANCH  58  59
ATOM     59  S   UNL A   1      33.228  35.511  28.979  1.00  0.00     0.124 S 
ATOM     60  O   UNL A   1      33.962  36.404  28.089  1.00  0.00    -0.237 OA
ATOM     61  O   UNL A   1      32.469  34.446  28.333  1.00  0.00    -0.237 OA
ATOM     62  O   UNL A   1      32.556  36.154  30.105  1.00  0.00    -0.744 OA
ENDBRANCH  58  59
ENDBRANCH  26  51
BRANCH  38  63
ATOM     63  C   UNL A   1      40.052  34.104  37.067  1.00  0.00     0.058 A 
ATOM     64  C   UNL A   1      40.736  35.325  36.976  1.00  0.00     0.135 A 
ATOM     65  C   UNL A   1      39.177  33.915  38.150  1.00  0.00     0.135 A 
ATOM     66  F   UNL A   1      41.587  35.548  35.962  1.00  0.00    -0.206 F 
ATOM     67  C   UNL A   1      40.553  36.328  37.920  1.00  0.00     0.059 A 
ATOM     68  C   UNL A   1      38.964  34.914  39.095  1.00  0.00     0.059 A 
ATOM     69  F   UNL A   1      38.493  32.767  38.273  1.00  0.00    -0.206 F 
ATOM     70  C   UNL A   1      39.657  36.118  38.971  1.00  0.00     0.060 A 
BRANCH  70  71
ATOM     71  S   UNL A   1      39.368  37.461  40.140  1.00  0.00     0.124 S 
ATOM     72  O   UNL A   1      40.710  38.015  40.290  1.00  0.00    -0.237 OA
ATOM     73  O   UNL A   1      38.413  38.301  39.423  1.00  0.00    -0.237 OA
ATOM     74  O   UNL A   1      38.835  36.781  41.316  1.00  0.00    -0.744 OA
ENDBRANCH  70  71
ENDBRANCH  38  63
ENDBRANCH  12  13
ENDBRANCH   5   7
ENDBRANCH   2   3
ENDBRANCH   1   2
BRANCH   1  75
ATOM     75  C   UNL A   1      37.029  23.360  24.739  1.00  0.00     0.002 C 
BRANCH  75  76
ATOM     76  C   UNL A   1      36.028  22.328  24.208  1.00  0.00     0.002 C 
BRANCH  76  77
ATOM     77  C   UNL A   1      34.899  22.883  23.337  1.00  0.00     0.021 C 
BRANCH  77  78
ATOM     78  C   UNL A   1      33.896  23.738  24.094  1.00  0.00     0.116 C 
BRANCH  78  79
ATOM     79  N   UNL A   1      32.547  23.440  23.650  1.00  0.00    -0.352 N 
ATOM     80  C   UNL A   1      31.572  24.313  23.252  1.00  0.00     0.258 C 
ATOM     81  H   UNL A   1      32.303  22.486  23.632  1.00  0.00     0.163 HD
ATOM     82  O   UNL A   1      30.429  23.899  23.076  1.00  0.00    -0.269 OA
BRANCH  80  83
ATOM     83  C   UNL A   1      31.961  25.684  22.858  1.00  0.00     0.121 A 
ATOM     84  C   UNL A   1      31.756  26.582  23.823  1.00  0.00     0.110 A 
ATOM     85  C   UNL A   1      32.891  26.063  21.785  1.00  0.00     0.266 A 
ATOM     86  N   UNL A   1      32.442  27.780  23.913  1.00  0.00    -0.296 N 
ATOM     87  N   UNL A   1      33.295  27.380  21.790  1.00  0.00    -0.273 N 
ATOM     88  O   UNL A   1      33.280  25.270  20.931  1.00  0.00    -0.268 OA
ATOM     89  C   UNL A   1      33.197  28.261  22.853  1.00  0.00     0.328 A 
ATOM     90  H   UNL A   1      33.689  27.727  20.957  1.00  0.00     0.175 HD
ATOM     91  O   UNL A   1      33.818  29.310  22.869  1.00  0.00    -0.248 OA
BRANCH  86  92
ATOM     92  C   UNL A   1      32.676  28.206  25.291  1.00  0.00     0.096 C 
ATOM     93  C   UNL A   1      31.441  28.343  26.182  1.00  0.00     0.031 C 
ATOM     94  C   UNL A   1      33.845  27.711  26.148  1.00  0.00     0.061 C 
ATOM     95  C   UNL A   1      31.682  29.575  27.071  1.00  0.00     0.038 C 
ATOM     96  C   UNL A   1      34.190  28.952  26.988  1.00  0.00    -0.043 A 
ATOM     97  C   UNL A   1      33.160  29.882  27.317  1.00  0.00    -0.045 A 
ATOM     98  C   UNL A   1      35.533  29.308  27.161  1.00  0.00     0.004 A 
ATOM     99  C   UNL A   1      33.515  31.194  27.655  1.00  0.00     0.004 A 
ATOM    100  C   UNL A   1      35.860  30.618  27.513  1.00  0.00     0.000 A 
ATOM    101  C   UNL A   1      34.856  31.566  27.720  1.00  0.00     0.000 A 
ENDBRANCH  86  92
ENDBRANCH  80  83
ENDBRANCH  78  79
ENDBRANCH  77  78
ENDBRANCH  76  77
ENDBRANCH  75  76
ENDBRANCH   1  75
TORSDOF 17
ENDMDL
MODEL 2
REMARK VINA RESULT:     -12.6      4.587     10.352
REMARK SMILES O=C(NCCCCCCNC(=O)c1cn([C@H]2CCc3ccccc3C2)c(=O)[nH]c1=O)c1ccc(-c2c3nc(c(-c4c(F)cc(S(=O)(=O)[O-])cc4F)c4ccc([nH]4)c(-c4c(F)cc(S(=O)(=O)[O-])cc4F)c4nc(c(-c5c(F)cc(S(=O)(=O)[O-])cc5F)c5ccc2[nH]5)C=C4)C=C3)cc1
REMARK SMILES IDX 5 1 4 2 3 3 1 4 2 5 31 7 32 8 96 9 33 10 95 11 34 12 35 13
REMARK SMILES IDX 36 14 89 15 37 16 94 17 88 18 90 19 38 20 93 21 87 22 86 23
REMARK SMILES IDX 39 25 73 26 52 27 72 28 53 29 56 30 71 31 91 32 54 33 55 34
REMARK SMILES IDX 70 36 92 37 57 38 40 39 41 40 50 41 42 42 43 43 49 44 51 45
REMARK SMILES IDX 44 46 45 47 46 48 47 49 48 50 74 51 75 52 84 53 76 54 77 55
REMARK SMILES IDX 83 56 85 57 78 58 79 59 80 60 81 61 82 62 58 63 59 64 68 65
REMARK SMILES IDX 60 66 61 67 67 68 69 69 62 70 63 71 64 72 65 73 66 74 6 75
REMARK SMILES IDX 7 76 8 77 9 78 10 79 11 80 12 82 13 83 14 84 29 85 15 86
REMARK SMILES IDX 28 87 30 88 26 89 27 91 16 92 17 93 25 94 18 95 24 96 19 97
REMARK SMILES IDX 23 98 20 99 22 100 21 101
REMARK H PARENT 3 6 90 24 56 35 10 81 28 90
REMARK Flexibility Score: inf
ROOT
ATOM      1  C   UNL A   1      32.389  27.764  27.156  1.00  0.00     0.021 C 
ENDROOT
BRANCH   1   2
ATOM      2  C   UNL A   1      33.733  28.474  27.249  1.00  0.00     0.116 C 
BRANCH   2   3
ATOM      3  N   UNL A   1      33.606  29.852  27.676  1.00  0.00    -0.352 N 
ATOM      4  O   UNL A   1      34.209  31.764  28.688  1.00  0.00    -0.269 OA
ATOM      5  C   UNL A   1      34.543  30.662  28.262  1.00  0.00     0.251 C 
ATOM      6  H   UNL A   1      32.725  30.264  27.523  1.00  0.00     0.163 HD
BRANCH   5   7
ATOM      7  C   UNL A   1      35.944  30.203  28.402  1.00  0.00     0.039 A 
ATOM      8  C   UNL A   1      36.355  29.695  29.637  1.00  0.00     0.014 A 
ATOM      9  C   UNL A   1      36.859  30.307  27.349  1.00  0.00     0.014 A 
ATOM     10  C   UNL A   1      37.676  29.281  29.812  1.00  0.00     0.010 A 
ATOM     11  C   UNL A   1      38.158  29.826  27.503  1.00  0.00     0.010 A 
ATOM     12  C   UNL A   1      38.587  29.338  28.745  1.00  0.00    -0.014 A 
BRANCH  12  13
ATOM     13  C   UNL A   1      40.014  28.979  28.946  1.00  0.00     0.031 A 
ATOM     14  C   UNL A   1      40.956  29.990  29.547  1.00  0.00     0.074 A 
ATOM     15  C   UNL A   1      40.463  27.761  28.585  1.00  0.00     0.049 A 
ATOM     16  N   UNL A   1      42.240  29.890  29.770  1.00  0.00    -0.248 NA
ATOM     17  C   UNL A   1      40.383  31.294  29.927  1.00  0.00     0.031 C 
ATOM     18  C   UNL A   1      39.656  26.710  27.963  1.00  0.00     0.029 A 
ATOM     19  N   UNL A   1      41.711  27.199  28.693  1.00  0.00    -0.354 N 
ATOM     20  C   UNL A   1      42.629  31.117  30.296  1.00  0.00     0.074 A 
ATOM     21  C   UNL A   1      41.458  31.964  30.312  1.00  0.00     0.031 C 
ATOM     22  C   UNL A   1      40.420  25.621  27.774  1.00  0.00     0.029 A 
ATOM     23  C   UNL A   1      41.777  25.904  28.235  1.00  0.00     0.049 A 
ATOM     24  H   UNL A   1      42.486  27.678  29.065  1.00  0.00     0.167 HD
ATOM     25  C   UNL A   1      43.845  31.492  30.756  1.00  0.00     0.037 A 
ATOM     26  C   UNL A   1      42.814  25.044  28.194  1.00  0.00     0.037 A 
ATOM     27  C   UNL A   1      44.991  30.626  30.799  1.00  0.00     0.049 A 
ATOM     28  C   UNL A   1      44.151  25.480  28.731  1.00  0.00     0.074 A 
ATOM     29  C   UNL A   1      46.251  30.893  31.303  1.00  0.00     0.029 A 
ATOM     30  N   UNL A   1      45.011  29.319  30.338  1.00  0.00    -0.354 N 
ATOM     31  N   UNL A   1      44.489  26.631  29.259  1.00  0.00    -0.248 NA
ATOM     32  C   UNL A   1      45.248  24.502  28.667  1.00  0.00     0.031 C 
ATOM     33  C   UNL A   1      47.042  29.756  31.123  1.00  0.00     0.029 A 
ATOM     34  C   UNL A   1      46.265  28.769  30.537  1.00  0.00     0.049 A 
ATOM     35  H   UNL A   1      44.247  28.851  29.929  1.00  0.00     0.167 HD
ATOM     36  C   UNL A   1      45.829  26.510  29.609  1.00  0.00     0.074 A 
ATOM     37  C   UNL A   1      46.239  25.171  29.243  1.00  0.00     0.031 C 
ATOM     38  C   UNL A   1      46.646  27.427  30.180  1.00  0.00     0.037 A 
BRANCH  25  39
ATOM     39  C   UNL A   1      43.997  32.889  31.285  1.00  0.00     0.058 A 
ATOM     40  C   UNL A   1      44.362  33.953  30.444  1.00  0.00     0.135 A 
ATOM     41  C   UNL A   1      43.705  33.183  32.627  1.00  0.00     0.135 A 
ATOM     42  F   UNL A   1      44.669  33.722  29.159  1.00  0.00    -0.206 F 
ATOM     43  C   UNL A   1      44.442  35.257  30.918  1.00  0.00     0.059 A 
ATOM     44  C   UNL A   1      43.756  34.485  33.116  1.00  0.00     0.059 A 
ATOM     45  F   UNL A   1      43.357  32.200  33.472  1.00  0.00    -0.206 F 
ATOM     46  C   UNL A   1      44.132  35.515  32.254  1.00  0.00     0.060 A 
BRANCH  46  47
ATOM     47  S   UNL A   1      44.202  37.220  32.839  1.00  0.00     0.124 S 
ATOM     48  O   UNL A   1      45.530  37.267  33.443  1.00  0.00    -0.237 OA
ATOM     49  O   UNL A   1      44.040  37.980  31.604  1.00  0.00    -0.237 OA
ATOM     50  O   UNL A   1      43.084  37.306  33.775  1.00  0.00    -0.744 OA
ENDBRANCH  46  47
ENDBRANCH  25  39
BRANCH  26  51
ATOM     51  C   UNL A   1      42.623  23.673  27.653  1.00  0.00     0.058 A 
ATOM     52  C   UNL A   1      42.426  22.581  28.512  1.00  0.00     0.135 A 
ATOM     53  C   UNL A   1      42.626  23.427  26.271  1.00  0.00     0.135 A 
ATOM     54  F   UNL A   1      42.422  22.766  29.840  1.00  0.00    -0.206 F 
ATOM     55  C   UNL A   1      42.255  21.290  28.021  1.00  0.00     0.059 A 
ATOM     56  C   UNL A   1      42.436  22.148  25.757  1.00  0.00     0.059 A 
ATOM     57  F   UNL A   1      42.794  24.440  25.408  1.00  0.00    -0.206 F 
ATOM     58  C   UNL A   1      42.261  21.084  26.640  1.00  0.00     0.060 A 
BRANCH  58  59
ATOM     59  S   UNL A   1      41.996  19.411  26.013  1.00  0.00     0.124 S 
ATOM     60  O   UNL A   1      40.557  19.416  25.768  1.00  0.00    -0.237 OA
ATOM     61  O   UNL A   1      42.846  19.388  24.828  1.00  0.00    -0.237 OA
ATOM     62  O   UNL A   1      42.446  18.566  27.115  1.00  0.00    -0.744 OA
ENDBRANCH  58  59
ENDBRANCH  26  51
BRANCH  38  63
ATOM     63  C   UNL A   1      48.063  27.024  30.465  1.00  0.00     0.058 A 
ATOM     64  C   UNL A   1      49.087  27.266  29.539  1.00  0.00     0.135 A 
ATOM     65  C   UNL A   1      48.415  26.500  31.720  1.00  0.00     0.135 A 
ATOM     66  F   UNL A   1      48.798  27.760  28.325  1.00  0.00    -0.206 F 
ATOM     67  C   UNL A   1      50.418  27.006  29.849  1.00  0.00     0.059 A 
ATOM     68  C   UNL A   1      49.742  26.253  32.058  1.00  0.00     0.059 A 
ATOM     69  F   UNL A   1      47.469  26.262  32.642  1.00  0.00    -0.206 F 
ATOM     70  C   UNL A   1      50.736  26.510  31.115  1.00  0.00     0.060 A 
BRANCH  70  71
ATOM     71  S   UNL A   1      52.474  26.258  31.530  1.00  0.00     0.124 S 
ATOM     72  O   UNL A   1      52.454  24.904  32.074  1.00  0.00    -0.237 OA
ATOM     73  O   UNL A   1      53.130  26.411  30.235  1.00  0.00    -0.237 OA
ATOM     74  O   UNL A   1      52.751  27.318  32.495  1.00  0.00    -0.744 OA
ENDBRANCH  70  71
ENDBRANCH  38  63
ENDBRANCH  12  13
ENDBRANCH   5   7
ENDBRANCH   2   3
ENDBRANCH   1   2
BRANCH   1  75
ATOM     75  C   UNL A   1      31.893  27.477  25.737  1.00  0.00     0.002 C 
BRANCH  75  76
ATOM     76  C   UNL A   1      31.686  28.701  24.837  1.00  0.00     0.002 C 
BRANCH  76  77
ATOM     77  C   UNL A   1      32.645  28.824  23.650  1.00  0.00     0.021 C 
BRANCH  77  78
ATOM     78  C   UNL A   1      33.515  27.599  23.428  1.00  0.00     0.116 C 
BRANCH  78  79
ATOM     79  N   UNL A   1      33.431  27.168  22.045  1.00  0.00    -0.352 N 
ATOM     80  C   UNL A   1      32.955  25.982  21.553  1.00  0.00     0.258 C 
ATOM     81  H   UNL A   1      33.758  27.810  21.375  1.00  0.00     0.163 HD
ATOM     82  O   UNL A   1      33.121  25.714  20.367  1.00  0.00    -0.269 OA
BRANCH  80  83
ATOM     83  C   UNL A   1      32.087  25.151  22.414  1.00  0.00     0.121 A 
ATOM     84  C   UNL A   1      32.750  24.171  23.031  1.00  0.00     0.110 A 
ATOM     85  C   UNL A   1      30.783  25.527  22.978  1.00  0.00     0.266 A 
ATOM     86  N   UNL A   1      32.324  23.580  24.207  1.00  0.00    -0.296 N 
ATOM     87  N   UNL A   1      30.299  24.691  23.959  1.00  0.00    -0.273 N 
ATOM     88  O   UNL A   1      30.154  26.511  22.598  1.00  0.00    -0.268 OA
ATOM     89  C   UNL A   1      31.037  23.771  24.687  1.00  0.00     0.328 A 
ATOM     90  H   UNL A   1      29.338  24.753  24.163  1.00  0.00     0.175 HD
ATOM     91  O   UNL A   1      30.601  23.275  25.710  1.00  0.00    -0.248 OA
BRANCH  86  92
ATOM     92  C   UNL A   1      33.426  23.174  25.077  1.00  0.00     0.096 C 
ATOM     93  C   UNL A   1      33.836  24.164  26.167  1.00  0.00     0.031 C 
ATOM     94  C   UNL A   1      33.605  21.751  25.616  1.00  0.00     0.061 C 
ATOM     95  C   UNL A   1      35.369  24.090  26.267  1.00  0.00     0.038 C 
ATOM     96  C   UNL A   1      35.134  21.594  25.636  1.00  0.00    -0.043 A 
ATOM     97  C   UNL A   1      35.953  22.745  25.836  1.00  0.00    -0.045 A 
ATOM     98  C   UNL A   1      35.705  20.404  25.168  1.00  0.00     0.004 A 
ATOM     99  C   UNL A   1      37.286  22.710  25.405  1.00  0.00     0.004 A 
ATOM    100  C   UNL A   1      37.039  20.392  24.761  1.00  0.00     0.000 A 
ATOM    101  C   UNL A   1      37.814  21.550  24.841  1.00  0.00     0.000 A 
ENDBRANCH  86  92
ENDBRANCH  80  83
ENDBRANCH  78  79
ENDBRANCH  77  78
ENDBRANCH  76  77
ENDBRANCH  75  76
ENDBRANCH   1  75
TORSDOF 17
ENDMDL
MODEL 3
REMARK VINA RESULT:     -12.3      0.524      8.062
REMARK SMILES O=C(NCCCCCCNC(=O)c1cn([C@H]2CCc3ccccc3C2)c(=O)[nH]c1=O)c1ccc(-c2c3nc(c(-c4c(F)cc(S(=O)(=O)[O-])cc4F)c4ccc([nH]4)c(-c4c(F)cc(S(=O)(=O)[O-])cc4F)c4nc(c(-c5c(F)cc(S(=O)(=O)[O-])cc5F)c5ccc2[nH]5)C=C4)C=C3)cc1
REMARK SMILES IDX 5 1 4 2 3 3 1 4 2 5 31 7 32 8 96 9 33 10 95 11 34 12 35 13
REMARK SMILES IDX 36 14 89 15 37 16 94 17 88 18 90 19 38 20 93 21 87 22 86 23
REMARK SMILES IDX 39 25 73 26 52 27 72 28 53 29 56 30 71 31 91 32 54 33 55 34
REMARK SMILES IDX 70 36 92 37 57 38 40 39 41 40 50 41 42 42 43 43 49 44 51 45
REMARK SMILES IDX 44 46 45 47 46 48 47 49 48 50 74 51 75 52 84 53 76 54 77 55
REMARK SMILES IDX 83 56 85 57 78 58 79 59 80 60 81 61 82 62 58 63 59 64 68 65
REMARK SMILES IDX 60 66 61 67 67 68 69 69 62 70 63 71 64 72 65 73 66 74 6 75
REMARK SMILES IDX 7 76 8 77 9 78 10 79 11 80 12 82 13 83 14 84 29 85 15 86
REMARK SMILES IDX 28 87 30 88 26 89 27 91 16 92 17 93 25 94 18 95 24 96 19 97
REMARK SMILES IDX 23 98 20 99 22 100 21 101
REMARK H PARENT 3 6 90 24 56 35 10 81 28 90
REMARK Flexibility Score: inf
ROOT
ATOM      1  C   UNL A   1      37.570  24.123  26.129  1.00  0.00     0.021 C 
ENDROOT
BRANCH   1   2
ATOM      2  C   UNL A   1      38.848  23.809  26.896  1.00  0.00     0.116 C 
BRANCH   2   3
ATOM      3  N   UNL A   1      40.042  24.107  26.133  1.00  0.00    -0.352 N 
ATOM      4  O   UNL A   1      41.797  25.323  25.436  1.00  0.00    -0.269 OA
ATOM      5  C   UNL A   1      40.913  25.157  26.271  1.00  0.00     0.251 C 
ATOM      6  H   UNL A   1      40.258  23.468  25.417  1.00  0.00     0.163 HD
BRANCH   5   7
ATOM      7  C   UNL A   1      40.776  26.096  27.408  1.00  0.00     0.039 A 
ATOM      8  C   UNL A   1      41.562  27.250  27.413  1.00  0.00     0.014 A 
ATOM      9  C   UNL A   1      39.918  25.829  28.480  1.00  0.00     0.014 A 
ATOM     10  C   UNL A   1      41.479  28.141  28.484  1.00  0.00     0.010 A 
ATOM     11  C   UNL A   1      39.783  26.754  29.513  1.00  0.00     0.010 A 
ATOM     12  C   UNL A   1      40.586  27.904  29.540  1.00  0.00    -0.014 A 
BRANCH  12  13
ATOM     13  C   UNL A   1      40.552  28.803  30.722  1.00  0.00     0.031 A 
ATOM     14  C   UNL A   1      39.540  29.917  30.777  1.00  0.00     0.074 A 
ATOM     15  C   UNL A   1      41.427  28.627  31.732  1.00  0.00     0.049 A 
ATOM     16  N   UNL A   1      39.369  30.831  31.696  1.00  0.00    -0.248 NA
ATOM     17  C   UNL A   1      38.611  30.034  29.638  1.00  0.00     0.031 C 
ATOM     18  C   UNL A   1      42.474  27.605  31.778  1.00  0.00     0.029 A 
ATOM     19  N   UNL A   1      41.570  29.302  32.918  1.00  0.00    -0.354 N 
ATOM     20  C   UNL A   1      38.332  31.637  31.239  1.00  0.00     0.074 A 
ATOM     21  C   UNL A   1      37.945  31.138  29.939  1.00  0.00     0.031 C 
ATOM     22  C   UNL A   1      43.132  27.701  32.947  1.00  0.00     0.029 A 
ATOM     23  C   UNL A   1      42.572  28.807  33.720  1.00  0.00     0.049 A 
ATOM     24  H   UNL A   1      41.009  30.070  33.172  1.00  0.00     0.167 HD
ATOM     25  C   UNL A   1      37.733  32.678  31.862  1.00  0.00     0.037 A 
ATOM     26  C   UNL A   1      42.989  29.199  34.940  1.00  0.00     0.037 A 
ATOM     27  C   UNL A   1      38.077  33.130  33.182  1.00  0.00     0.049 A 
ATOM     28  C   UNL A   1      42.292  30.347  35.620  1.00  0.00     0.074 A 
ATOM     29  C   UNL A   1      37.488  34.138  33.924  1.00  0.00     0.029 A 
ATOM     30  N   UNL A   1      39.087  32.593  33.963  1.00  0.00    -0.354 N 
ATOM     31  N   UNL A   1      41.289  31.071  35.188  1.00  0.00    -0.248 NA
ATOM     32  C   UNL A   1      42.782  30.733  36.952  1.00  0.00     0.031 C 
ATOM     33  C   UNL A   1      38.159  34.227  35.146  1.00  0.00     0.029 A 
ATOM     34  C   UNL A   1      39.144  33.253  35.177  1.00  0.00     0.049 A 
ATOM     35  H   UNL A   1      39.677  31.851  33.695  1.00  0.00     0.167 HD
ATOM     36  C   UNL A   1      41.014  31.983  36.200  1.00  0.00     0.074 A 
ATOM     37  C   UNL A   1      41.949  31.714  37.272  1.00  0.00     0.031 C 
ATOM     38  C   UNL A   1      40.073  32.957  36.238  1.00  0.00     0.037 A 
BRANCH  25  39
ATOM     39  C   UNL A   1      36.619  33.382  31.143  1.00  0.00     0.058 A 
ATOM     40  C   UNL A   1      36.870  34.207  30.036  1.00  0.00     0.135 A 
ATOM     41  C   UNL A   1      35.281  33.174  31.517  1.00  0.00     0.135 A 
ATOM     42  F   UNL A   1      38.132  34.454  29.650  1.00  0.00    -0.206 F 
ATOM     43  C   UNL A   1      35.835  34.810  29.330  1.00  0.00     0.059 A 
ATOM     44  C   UNL A   1      34.229  33.748  30.810  1.00  0.00     0.059 A 
ATOM     45  F   UNL A   1      34.988  32.397  32.571  1.00  0.00    -0.206 F 
ATOM     46  C   UNL A   1      34.517  34.570  29.720  1.00  0.00     0.060 A 
BRANCH  46  47
ATOM     47  S   UNL A   1      33.187  35.329  28.766  1.00  0.00     0.124 S 
ATOM     48  O   UNL A   1      32.382  35.938  29.820  1.00  0.00    -0.237 OA
ATOM     49  O   UNL A   1      33.911  36.257  27.904  1.00  0.00    -0.237 OA
ATOM     50  O   UNL A   1      32.569  34.196  28.082  1.00  0.00    -0.744 OA
ENDBRANCH  46  47
ENDBRANCH  25  39
BRANCH  26  51
ATOM     51  C   UNL A   1      44.103  28.481  35.612  1.00  0.00     0.058 A 
ATOM     52  C   UNL A   1      43.847  27.420  36.495  1.00  0.00     0.135 A 
ATOM     53  C   UNL A   1      45.442  28.834  35.384  1.00  0.00     0.135 A 
ATOM     54  F   UNL A   1      42.583  27.050  36.749  1.00  0.00    -0.206 F 
ATOM     55  C   UNL A   1      44.878  26.744  37.139  1.00  0.00     0.059 A 
ATOM     56  C   UNL A   1      46.491  28.158  36.001  1.00  0.00     0.059 A 
ATOM     57  F   UNL A   1      45.740  29.830  34.537  1.00  0.00    -0.206 F 
ATOM     58  C   UNL A   1      46.198  27.121  36.885  1.00  0.00     0.060 A 
BRANCH  58  59
ATOM     59  S   UNL A   1      47.530  26.208  37.694  1.00  0.00     0.124 S 
ATOM     60  O   UNL A   1      48.617  26.363  36.732  1.00  0.00    -0.237 OA
ATOM     61  O   UNL A   1      47.682  26.934  38.951  1.00  0.00    -0.237 OA
ATOM     62  O   UNL A   1      46.984  24.860  37.819  1.00  0.00    -0.744 OA
ENDBRANCH  58  59
ENDBRANCH  26  51
BRANCH  38  63
ATOM     63  C   UNL A   1      39.985  33.801  37.475  1.00  0.00     0.058 A 
ATOM     64  C   UNL A   1      40.753  34.964  37.618  1.00  0.00     0.135 A 
ATOM     65  C   UNL A   1      39.039  33.506  38.471  1.00  0.00     0.135 A 
ATOM     66  F   UNL A   1      41.674  35.283  36.694  1.00  0.00    -0.206 F 
ATOM     67  C   UNL A   1      40.585  35.813  38.706  1.00  0.00     0.059 A 
ATOM     68  C   UNL A   1      38.840  34.353  39.557  1.00  0.00     0.059 A 
ATOM     69  F   UNL A   1      38.273  32.408  38.372  1.00  0.00    -0.206 F 
ATOM     70  C   UNL A   1      39.618  35.504  39.665  1.00  0.00     0.060 A 
BRANCH  70  71
ATOM     71  S   UNL A   1      39.354  36.660  41.026  1.00  0.00     0.124 S 
ATOM     72  O   UNL A   1      38.600  35.839  41.967  1.00  0.00    -0.237 OA
ATOM     73  O   UNL A   1      40.719  36.990  41.425  1.00  0.00    -0.237 OA
ATOM     74  O   UNL A   1      38.608  37.751  40.406  1.00  0.00    -0.744 OA
ENDBRANCH  70  71
ENDBRANCH  38  63
ENDBRANCH  12  13
ENDBRANCH   5   7
ENDBRANCH   2   3
ENDBRANCH   1   2
BRANCH   1  75
ATOM     75  C   UNL A   1      36.901  22.928  25.448  1.00  0.00     0.002 C 
BRANCH  75  76
ATOM     76  C   UNL A   1      36.667  23.058  23.938  1.00  0.00     0.002 C 
BRANCH  76  77
ATOM     77  C   UNL A   1      35.241  22.780  23.459  1.00  0.00     0.021 C 
BRANCH  77  78
ATOM     78  C   UNL A   1      34.202  23.735  24.023  1.00  0.00     0.116 C 
BRANCH  78  79
ATOM     79  N   UNL A   1      32.871  23.327  23.612  1.00  0.00    -0.352 N 
ATOM     80  C   UNL A   1      31.815  24.118  23.249  1.00  0.00     0.258 C 
ATOM     81  H   UNL A   1      32.708  22.357  23.591  1.00  0.00     0.163 HD
ATOM     82  O   UNL A   1      30.707  23.610  23.100  1.00  0.00    -0.269 OA
BRANCH  80  83
ATOM     83  C   UNL A   1      32.076  25.520  22.859  1.00  0.00     0.121 A 
ATOM     84  C   UNL A   1      31.831  26.389  23.841  1.00  0.00     0.110 A 
ATOM     85  C   UNL A   1      32.934  25.984  21.760  1.00  0.00     0.266 A 
ATOM     86  N   UNL A   1      32.419  27.638  23.922  1.00  0.00    -0.296 N 
ATOM     87  N   UNL A   1      33.227  27.330  21.766  1.00  0.00    -0.273 N 
ATOM     88  O   UNL A   1      33.356  25.234  20.884  1.00  0.00    -0.268 OA
ATOM     89  C   UNL A   1      33.095  28.190  22.844  1.00  0.00     0.328 A 
ATOM     90  H   UNL A   1      33.563  27.716  20.926  1.00  0.00     0.175 HD
ATOM     91  O   UNL A   1      33.627  29.286  22.850  1.00  0.00    -0.248 OA
BRANCH  86  92
ATOM     92  C   UNL A   1      32.665  28.069  25.297  1.00  0.00     0.096 C 
ATOM     93  C   UNL A   1      31.439  28.200  26.201  1.00  0.00     0.031 C 
ATOM     94  C   UNL A   1      33.847  27.586  26.142  1.00  0.00     0.061 C 
ATOM     95  C   UNL A   1      31.680  29.436  27.084  1.00  0.00     0.038 C 
ATOM     96  C   UNL A   1      34.192  28.831  26.975  1.00  0.00    -0.043 A 
ATOM     97  C   UNL A   1      33.158  29.754  27.313  1.00  0.00    -0.045 A 
ATOM     98  C   UNL A   1      35.534  29.198  27.132  1.00  0.00     0.004 A 
ATOM     99  C   UNL A   1      33.507  31.070  27.644  1.00  0.00     0.004 A 
ATOM    100  C   UNL A   1      35.855  30.511  27.478  1.00  0.00     0.000 A 
ATOM    101  C   UNL A   1      34.847  31.452  27.693  1.00  0.00     0.000 A 
ENDBRANCH  86  92
ENDBRANCH  80  83
ENDBRANCH  78  79
ENDBRANCH  77  78
ENDBRANCH  76  77
ENDBRANCH  75  76
ENDBRANCH   1  75
TORSDOF 17
ENDMDL
