MODEL 1
REMARK VINA RESULT:     -12.4      0.000      0.000
REMARK SMILES C[C@H](C(=O)NCCCCCCNC(=O)c1ccc(-c2c3nc(c(-c4c(F)cc(S(=O)(=O)[O-])cc4F)c4ccc([nH]4)c(-c4c(F)cc(S(=O)(=O)[O-])cc4F)c4nc(c(-c5c(F)cc(S(=O)(=O)[O-])cc5F)c5ccc2[nH]5)C=C4)C=C3)cc1)c1ccc2c(c1)[nH]c1ccc(Cl)cc12
REMARK SMILES IDX 9 1 8 2 7 3 6 4 5 5 3 6 4 7 2 9 1 10 81 11 82 12 86 13 83 14
REMARK SMILES IDX 85 15 84 16 87 17 94 18 88 19 93 21 89 22 91 23 90 24 92 25
REMARK SMILES IDX 10 26 11 27 12 28 13 29 14 31 15 32 16 33 80 34 17 35 79 36
REMARK SMILES IDX 18 37 19 38 20 39 73 40 21 41 78 42 72 43 74 44 22 45 77 46
REMARK SMILES IDX 71 47 70 48 23 50 57 51 36 52 56 53 37 54 40 55 55 56 75 57
REMARK SMILES IDX 38 58 39 59 54 61 76 62 41 63 24 64 25 65 34 66 26 67 27 68
REMARK SMILES IDX 33 69 35 70 28 71 29 72 30 73 31 74 32 75 58 76 59 77 68 78
REMARK SMILES IDX 60 79 61 80 67 81 69 82 62 83 63 84 64 85 65 86 66 87 42 88
REMARK SMILES IDX 43 89 52 90 44 91 45 92 51 93 53 94 46 95 47 96 48 97 49 98
REMARK SMILES IDX 50 99
REMARK H PARENT 5 8 87 20 12 30 74 49 40 60
REMARK Flexibility Score: inf
ROOT
ATOM      1  C   UNL A   1      39.432  22.380  26.147  1.00  0.00     0.002 C 
ENDROOT
BRANCH   1   2
ATOM      2  C   UNL A   1      38.310  23.417  26.219  1.00  0.00     0.002 C 
BRANCH   2   3
ATOM      3  C   UNL A   1      37.079  23.106  25.362  1.00  0.00     0.021 C 
BRANCH   3   4
ATOM      4  C   UNL A   1      36.682  21.627  25.318  1.00  0.00     0.116 C 
BRANCH   4   5
ATOM      5  N   UNL A   1      35.579  21.341  26.217  1.00  0.00    -0.356 N 
ATOM      6  C   UNL A   1      34.268  21.073  25.940  1.00  0.00     0.227 C 
ATOM      7  O   UNL A   1      33.510  20.934  26.903  1.00  0.00    -0.274 OA
ATOM      8  H   UNL A   1      35.811  21.341  27.173  1.00  0.00     0.163 HD
BRANCH   6   9
ATOM      9  C   UNL A   1      33.785  20.895  24.485  1.00  0.00     0.105 C 
ATOM     10  C   UNL A   1      32.831  19.701  24.380  1.00  0.00     0.023 C 
BRANCH   9  11
ATOM     11  C   UNL A   1      33.116  22.134  23.908  1.00  0.00    -0.034 A 
ATOM     12  C   UNL A   1      33.865  23.031  23.130  1.00  0.00     0.005 A 
ATOM     13  C   UNL A   1      31.774  22.421  24.207  1.00  0.00     0.031 A 
ATOM     14  C   UNL A   1      33.333  24.261  22.725  1.00  0.00     0.011 A 
ATOM     15  C   UNL A   1      31.287  23.684  23.854  1.00  0.00     0.047 A 
ATOM     16  C   UNL A   1      32.031  24.614  23.133  1.00  0.00     0.007 A 
ATOM     17  N   UNL A   1      30.091  24.282  24.173  1.00  0.00    -0.355 N 
ATOM     18  C   UNL A   1      31.239  25.800  23.018  1.00  0.00     0.009 A 
ATOM     19  C   UNL A   1      30.065  25.586  23.740  1.00  0.00     0.047 A 
ATOM     20  H   UNL A   1      29.353  23.836  24.648  1.00  0.00     0.167 HD
ATOM     21  C   UNL A   1      31.437  27.057  22.412  1.00  0.00     0.031 A 
ATOM     22  C   UNL A   1      29.101  26.579  23.939  1.00  0.00     0.028 A 
ATOM     23  C   UNL A   1      30.468  28.051  22.581  1.00  0.00     0.041 A 
ATOM     24  C   UNL A   1      29.327  27.824  23.347  1.00  0.00     0.022 A 
ATOM     25  Cl  UNL A   1      30.693  29.584  21.832  1.00  0.00    -0.084 Cl
ENDBRANCH   9  11
ENDBRANCH   6   9
ENDBRANCH   4   5
ENDBRANCH   3   4
ENDBRANCH   2   3
ENDBRANCH   1   2
BRANCH   1  26
ATOM     26  C   UNL A   1      40.240  22.207  27.435  1.00  0.00     0.021 C 
BRANCH  26  27
ATOM     27  C   UNL A   1      41.456  23.121  27.556  1.00  0.00     0.116 C 
BRANCH  27  28
ATOM     28  N   UNL A   1      41.670  23.898  26.347  1.00  0.00    -0.352 N 
ATOM     29  C   UNL A   1      41.524  25.248  26.141  1.00  0.00     0.251 C 
ATOM     30  H   UNL A   1      41.962  23.383  25.561  1.00  0.00     0.163 HD
ATOM     31  O   UNL A   1      41.539  25.691  24.996  1.00  0.00    -0.269 OA
BRANCH  29  32
ATOM     32  C   UNL A   1      41.341  26.164  27.289  1.00  0.00     0.039 A 
ATOM     33  C   UNL A   1      40.241  25.976  28.132  1.00  0.00     0.014 A 
ATOM     34  C   UNL A   1      42.217  27.230  27.512  1.00  0.00     0.014 A 
ATOM     35  C   UNL A   1      40.037  26.840  29.211  1.00  0.00     0.010 A 
ATOM     36  C   UNL A   1      42.055  28.044  28.631  1.00  0.00     0.010 A 
ATOM     37  C   UNL A   1      40.951  27.872  29.479  1.00  0.00    -0.014 A 
BRANCH  37  38
ATOM     38  C   UNL A   1      40.738  28.806  30.615  1.00  0.00     0.031 A 
ATOM     39  C   UNL A   1      41.591  28.692  31.853  1.00  0.00     0.074 A 
ATOM     40  C   UNL A   1      39.757  29.727  30.552  1.00  0.00     0.049 A 
ATOM     41  N   UNL A   1      41.547  29.396  32.955  1.00  0.00    -0.248 NA
ATOM     42  C   UNL A   1      42.611  27.631  31.862  1.00  0.00     0.031 C 
ATOM     43  C   UNL A   1      38.835  29.905  29.428  1.00  0.00     0.029 A 
ATOM     44  N   UNL A   1      39.370  30.687  31.453  1.00  0.00    -0.354 N 
ATOM     45  C   UNL A   1      42.512  28.849  33.793  1.00  0.00     0.074 A 
ATOM     46  C   UNL A   1      43.091  27.725  33.093  1.00  0.00     0.031 C 
ATOM     47  C   UNL A   1      38.011  30.932  29.693  1.00  0.00     0.029 A 
ATOM     48  C   UNL A   1      38.324  31.465  31.016  1.00  0.00     0.049 A 
ATOM     49  H   UNL A   1      39.801  30.807  32.329  1.00  0.00     0.167 HD
ATOM     50  C   UNL A   1      42.898  29.261  35.025  1.00  0.00     0.037 A 
ATOM     51  C   UNL A   1      37.691  32.494  31.613  1.00  0.00     0.037 A 
ATOM     52  C   UNL A   1      42.342  30.404  35.701  1.00  0.00     0.049 A 
ATOM     53  C   UNL A   1      38.152  32.946  32.973  1.00  0.00     0.074 A 
ATOM     54  C   UNL A   1      42.712  30.949  36.919  1.00  0.00     0.029 A 
ATOM     55  N   UNL A   1      41.298  31.180  35.217  1.00  0.00    -0.354 N 
ATOM     56  N   UNL A   1      39.115  32.464  33.722  1.00  0.00    -0.248 NA
ATOM     57  C   UNL A   1      37.446  34.092  33.564  1.00  0.00     0.031 C 
ATOM     58  C   UNL A   1      41.862  32.027  37.191  1.00  0.00     0.029 A 
ATOM     59  C   UNL A   1      40.997  32.186  36.119  1.00  0.00     0.049 A 
ATOM     60  H   UNL A   1      40.839  31.035  34.358  1.00  0.00     0.167 HD
ATOM     61  C   UNL A   1      39.155  33.267  34.856  1.00  0.00     0.074 A 
ATOM     62  C   UNL A   1      38.124  34.272  34.690  1.00  0.00     0.031 C 
ATOM     63  C   UNL A   1      39.974  33.186  35.933  1.00  0.00     0.037 A 
BRANCH  50  64
ATOM     64  C   UNL A   1      43.973  28.470  35.721  1.00  0.00     0.058 A 
ATOM     65  C   UNL A   1      45.337  28.745  35.530  1.00  0.00     0.135 A 
ATOM     66  C   UNL A   1      43.636  27.436  36.610  1.00  0.00     0.135 A 
ATOM     67  F   UNL A   1      45.719  29.712  34.681  1.00  0.00    -0.206 F 
ATOM     68  C   UNL A   1      46.327  28.003  36.166  1.00  0.00     0.059 A 
ATOM     69  C   UNL A   1      44.608  26.700  37.281  1.00  0.00     0.059 A 
ATOM     70  F   UNL A   1      42.348  27.131  36.834  1.00  0.00    -0.206 F 
ATOM     71  C   UNL A   1      45.952  26.979  37.039  1.00  0.00     0.060 A 
BRANCH  71  72
ATOM     72  S   UNL A   1      47.248  26.024  37.854  1.00  0.00     0.124 S 
ATOM     73  O   UNL A   1      46.580  24.742  38.058  1.00  0.00    -0.237 OA
ATOM     74  O   UNL A   1      48.315  26.029  36.859  1.00  0.00    -0.237 OA
ATOM     75  O   UNL A   1      47.522  26.787  39.067  1.00  0.00    -0.744 OA
ENDBRANCH  71  72
ENDBRANCH  50  64
BRANCH  51  76
ATOM     76  C   UNL A   1      36.586  33.198  30.909  1.00  0.00     0.058 A 
ATOM     77  C   UNL A   1      36.851  34.042  29.818  1.00  0.00     0.135 A 
ATOM     78  C   UNL A   1      35.249  33.037  31.300  1.00  0.00     0.135 A 
ATOM     79  F   UNL A   1      38.114  34.232  29.409  1.00  0.00    -0.206 F 
ATOM     80  C   UNL A   1      35.831  34.715  29.153  1.00  0.00     0.059 A 
ATOM     81  C   UNL A   1      34.209  33.680  30.633  1.00  0.00     0.059 A 
ATOM     82  F   UNL A   1      34.940  32.227  32.326  1.00  0.00    -0.206 F 
ATOM     83  C   UNL A   1      34.512  34.526  29.567  1.00  0.00     0.060 A 
BRANCH  83  84
ATOM     84  S   UNL A   1      33.193  35.369  28.667  1.00  0.00     0.124 S 
ATOM     85  O   UNL A   1      33.951  36.291  27.831  1.00  0.00    -0.237 OA
ATOM     86  O   UNL A   1      32.541  34.263  27.972  1.00  0.00    -0.237 OA
ATOM     87  O   UNL A   1      32.403  35.984  29.730  1.00  0.00    -0.744 OA
ENDBRANCH  83  84
ENDBRANCH  51  76
BRANCH  63  88
ATOM     88  C   UNL A   1      39.824  34.239  36.997  1.00  0.00     0.058 A 
ATOM     89  C   UNL A   1      39.047  34.026  38.146  1.00  0.00     0.135 A 
ATOM     90  C   UNL A   1      40.499  35.465  36.878  1.00  0.00     0.135 A 
ATOM     91  F   UNL A   1      38.377  32.874  38.307  1.00  0.00    -0.206 F 
ATOM     92  C   UNL A   1      38.919  35.006  39.127  1.00  0.00     0.059 A 
ATOM     93  C   UNL A   1      40.409  36.445  37.860  1.00  0.00     0.059 A 
ATOM     94  F   UNL A   1      41.266  35.713  35.805  1.00  0.00    -0.206 F 
ATOM     95  C   UNL A   1      39.603  36.214  38.973  1.00  0.00     0.060 A 
BRANCH  95  96
ATOM     96  S   UNL A   1      39.444  37.469  40.260  1.00  0.00     0.124 S 
ATOM     97  O   UNL A   1      38.913  36.685  41.371  1.00  0.00    -0.237 OA
ATOM     98  O   UNL A   1      40.818  37.937  40.415  1.00  0.00    -0.237 OA
ATOM     99  O   UNL A   1      38.521  38.439  39.677  1.00  0.00    -0.744 OA
ENDBRANCH  95  96
ENDBRANCH  63  88
ENDBRANCH  37  38
ENDBRANCH  29  32
ENDBRANCH  27  28
ENDBRANCH  26  27
ENDBRANCH   1  26
TORSDOF 17
ENDMDL
MODEL 2
REMARK VINA RESULT:     -12.4      1.747      2.569
REMARK SMILES C[C@H](C(=O)NCCCCCCNC(=O)c1ccc(-c2c3nc(c(-c4c(F)cc(S(=O)(=O)[O-])cc4F)c4ccc([nH]4)c(-c4c(F)cc(S(=O)(=O)[O-])cc4F)c4nc(c(-c5c(F)cc(S(=O)(=O)[O-])cc5F)c5ccc2[nH]5)C=C4)C=C3)cc1)c1ccc2c(c1)[nH]c1ccc(Cl)cc12
REMARK SMILES IDX 9 1 8 2 7 3 6 4 5 5 3 6 4 7 2 9 1 10 81 11 82 12 86 13 83 14
REMARK SMILES IDX 85 15 84 16 87 17 94 18 88 19 93 21 89 22 91 23 90 24 92 25
REMARK SMILES IDX 10 26 11 27 12 28 13 29 14 31 15 32 16 33 80 34 17 35 79 36
REMARK SMILES IDX 18 37 19 38 20 39 73 40 21 41 78 42 72 43 74 44 22 45 77 46
REMARK SMILES IDX 71 47 70 48 23 50 57 51 36 52 56 53 37 54 40 55 55 56 75 57
REMARK SMILES IDX 38 58 39 59 54 61 76 62 41 63 24 64 25 65 34 66 26 67 27 68
REMARK SMILES IDX 33 69 35 70 28 71 29 72 30 73 31 74 32 75 58 76 59 77 68 78
REMARK SMILES IDX 60 79 61 80 67 81 69 82 62 83 63 84 64 85 65 86 66 87 42 88
REMARK SMILES IDX 43 89 52 90 44 91 45 92 51 93 53 94 46 95 47 96 48 97 49 98
REMARK SMILES IDX 50 99
REMARK H PARENT 5 8 87 20 12 30 74 49 40 60
REMARK Flexibility Score: inf
ROOT
ATOM      1  C   UNL A   1      36.132  22.981  26.194  1.00  0.00     0.002 C 
ENDROOT
BRANCH   1   2
ATOM      2  C   UNL A   1      35.462  21.655  25.830  1.00  0.00     0.002 C 
BRANCH   2   3
ATOM      3  C   UNL A   1      34.767  21.628  24.466  1.00  0.00     0.021 C 
BRANCH   3   4
ATOM      4  C   UNL A   1      33.501  20.768  24.405  1.00  0.00     0.116 C 
BRANCH   4   5
ATOM      5  N   UNL A   1      32.462  21.282  25.278  1.00  0.00    -0.356 N 
ATOM      6  C   UNL A   1      31.776  22.463  25.225  1.00  0.00     0.227 C 
ATOM      7  O   UNL A   1      30.982  22.691  26.142  1.00  0.00    -0.274 OA
ATOM      8  H   UNL A   1      32.213  20.689  26.023  1.00  0.00     0.163 HD
BRANCH   6   9
ATOM      9  C   UNL A   1      31.951  23.429  24.035  1.00  0.00     0.105 C 
ATOM     10  C   UNL A   1      30.653  23.526  23.227  1.00  0.00     0.023 C 
BRANCH   9  11
ATOM     11  C   UNL A   1      32.401  24.825  24.442  1.00  0.00    -0.034 A 
ATOM     12  C   UNL A   1      33.598  24.989  25.157  1.00  0.00     0.005 A 
ATOM     13  C   UNL A   1      31.592  25.940  24.170  1.00  0.00     0.031 A 
ATOM     14  C   UNL A   1      33.959  26.230  25.694  1.00  0.00     0.011 A 
ATOM     15  C   UNL A   1      31.935  27.154  24.777  1.00  0.00     0.047 A 
ATOM     16  C   UNL A   1      33.087  27.326  25.538  1.00  0.00     0.007 A 
ATOM     17  N   UNL A   1      31.238  28.337  24.822  1.00  0.00    -0.355 N 
ATOM     18  C   UNL A   1      33.070  28.664  26.045  1.00  0.00     0.009 A 
ATOM     19  C   UNL A   1      31.867  29.245  25.640  1.00  0.00     0.047 A 
ATOM     20  H   UNL A   1      30.400  28.511  24.336  1.00  0.00     0.167 HD
ATOM     21  C   UNL A   1      33.942  29.418  26.856  1.00  0.00     0.031 A 
ATOM     22  C   UNL A   1      31.459  30.518  26.050  1.00  0.00     0.028 A 
ATOM     23  C   UNL A   1      33.558  30.704  27.251  1.00  0.00     0.041 A 
ATOM     24  C   UNL A   1      32.330  31.240  26.872  1.00  0.00     0.022 A 
ATOM     25  Cl  UNL A   1      34.622  31.638  28.229  1.00  0.00    -0.084 Cl
ENDBRANCH   9  11
ENDBRANCH   6   9
ENDBRANCH   4   5
ENDBRANCH   3   4
ENDBRANCH   2   3
ENDBRANCH   1   2
BRANCH   1  26
ATOM     26  C   UNL A   1      37.578  23.131  25.714  1.00  0.00     0.021 C 
BRANCH  26  27
ATOM     27  C   UNL A   1      38.436  24.078  26.549  1.00  0.00     0.116 C 
BRANCH  27  28
ATOM     28  N   UNL A   1      39.826  24.063  26.124  1.00  0.00    -0.352 N 
ATOM     29  C   UNL A   1      40.849  24.916  26.459  1.00  0.00     0.251 C 
ATOM     30  H   UNL A   1      40.070  23.335  25.508  1.00  0.00     0.163 HD
ATOM     31  O   UNL A   1      41.902  24.872  25.830  1.00  0.00    -0.269 OA
BRANCH  29  32
ATOM     32  C   UNL A   1      40.682  25.886  27.563  1.00  0.00     0.039 A 
ATOM     33  C   UNL A   1      41.497  27.021  27.591  1.00  0.00     0.014 A 
ATOM     34  C   UNL A   1      39.764  25.661  28.593  1.00  0.00     0.014 A 
ATOM     35  C   UNL A   1      41.370  27.942  28.635  1.00  0.00     0.010 A 
ATOM     36  C   UNL A   1      39.586  26.616  29.591  1.00  0.00     0.010 A 
ATOM     37  C   UNL A   1      40.404  27.755  29.636  1.00  0.00    -0.014 A 
BRANCH  37  38
ATOM     38  C   UNL A   1      40.268  28.719  30.758  1.00  0.00     0.031 A 
ATOM     39  C   UNL A   1      41.138  28.578  31.982  1.00  0.00     0.074 A 
ATOM     40  C   UNL A   1      39.341  29.694  30.697  1.00  0.00     0.049 A 
ATOM     41  N   UNL A   1      41.155  29.303  33.071  1.00  0.00    -0.248 NA
ATOM     42  C   UNL A   1      42.094  27.461  31.992  1.00  0.00     0.031 C 
ATOM     43  C   UNL A   1      38.407  29.905  29.586  1.00  0.00     0.029 A 
ATOM     44  N   UNL A   1      39.027  30.691  31.586  1.00  0.00    -0.354 N 
ATOM     45  C   UNL A   1      42.104  28.716  33.901  1.00  0.00     0.074 A 
ATOM     46  C   UNL A   1      42.604  27.548  33.212  1.00  0.00     0.031 C 
ATOM     47  C   UNL A   1      37.649  30.983  29.848  1.00  0.00     0.029 A 
ATOM     48  C   UNL A   1      38.019  31.520  31.155  1.00  0.00     0.049 A 
ATOM     49  H   UNL A   1      39.481  30.801  32.452  1.00  0.00     0.167 HD
ATOM     50  C   UNL A   1      42.538  29.126  35.118  1.00  0.00     0.037 A 
ATOM     51  C   UNL A   1      37.458  32.594  31.744  1.00  0.00     0.037 A 
ATOM     52  C   UNL A   1      42.061  30.312  35.782  1.00  0.00     0.049 A 
ATOM     53  C   UNL A   1      37.970  33.043  33.086  1.00  0.00     0.074 A 
ATOM     54  C   UNL A   1      42.485  30.855  36.982  1.00  0.00     0.029 A 
ATOM     55  N   UNL A   1      41.054  31.137  35.303  1.00  0.00    -0.354 N 
ATOM     56  N   UNL A   1      38.919  32.519  33.826  1.00  0.00    -0.248 NA
ATOM     57  C   UNL A   1      37.344  34.237  33.670  1.00  0.00     0.031 C 
ATOM     58  C   UNL A   1      41.704  31.985  37.250  1.00  0.00     0.029 A 
ATOM     59  C   UNL A   1      40.829  32.175  36.192  1.00  0.00     0.049 A 
ATOM     60  H   UNL A   1      40.571  31.004  34.456  1.00  0.00     0.167 HD
ATOM     61  C   UNL A   1      39.028  33.339  34.944  1.00  0.00     0.074 A 
ATOM     62  C   UNL A   1      38.053  34.398  34.778  1.00  0.00     0.031 C 
ATOM     63  C   UNL A   1      39.862  33.229  36.007  1.00  0.00     0.037 A 
BRANCH  50  64
ATOM     64  C   UNL A   1      43.579  28.287  35.808  1.00  0.00     0.058 A 
ATOM     65  C   UNL A   1      44.953  28.500  35.609  1.00  0.00     0.135 A 
ATOM     66  C   UNL A   1      43.199  27.270  36.699  1.00  0.00     0.135 A 
ATOM     67  F   UNL A   1      45.374  29.448  34.758  1.00  0.00    -0.206 F 
ATOM     68  C   UNL A   1      45.911  27.713  36.241  1.00  0.00     0.059 A 
ATOM     69  C   UNL A   1      44.141  26.489  37.364  1.00  0.00     0.059 A 
ATOM     70  F   UNL A   1      41.900  27.023  36.929  1.00  0.00    -0.206 F 
ATOM     71  C   UNL A   1      45.494  26.707  37.115  1.00  0.00     0.060 A 
BRANCH  71  72
ATOM     72  S   UNL A   1      46.750  25.693  37.924  1.00  0.00     0.124 S 
ATOM     73  O   UNL A   1      45.925  24.717  38.629  1.00  0.00    -0.237 OA
ATOM     74  O   UNL A   1      47.512  25.177  36.793  1.00  0.00    -0.237 OA
ATOM     75  O   UNL A   1      47.460  26.644  38.774  1.00  0.00    -0.744 OA
ENDBRANCH  71  72
ENDBRANCH  50  64
BRANCH  51  76
ATOM     76  C   UNL A   1      36.381  33.348  31.048  1.00  0.00     0.058 A 
ATOM     77  C   UNL A   1      35.050  33.271  31.488  1.00  0.00     0.135 A 
ATOM     78  C   UNL A   1      36.656  34.165  29.942  1.00  0.00     0.135 A 
ATOM     79  F   UNL A   1      34.735  32.498  32.539  1.00  0.00    -0.206 F 
ATOM     80  C   UNL A   1      34.028  33.961  30.845  1.00  0.00     0.059 A 
ATOM     81  C   UNL A   1      35.654  34.886  29.298  1.00  0.00     0.059 A 
ATOM     82  F   UNL A   1      37.915  34.288  29.492  1.00  0.00    -0.206 F 
ATOM     83  C   UNL A   1      34.341  34.768  29.750  1.00  0.00     0.060 A 
BRANCH  83  84
ATOM     84  S   UNL A   1      33.013  35.696  28.952  1.00  0.00     0.124 S 
ATOM     85  O   UNL A   1      33.752  36.784  28.324  1.00  0.00    -0.237 OA
ATOM     86  O   UNL A   1      32.446  34.702  28.046  1.00  0.00    -0.237 OA
ATOM     87  O   UNL A   1      32.153  36.078  30.069  1.00  0.00    -0.744 OA
ENDBRANCH  83  84
ENDBRANCH  51  76
BRANCH  63  88
ATOM     88  C   UNL A   1      39.793  34.307  37.054  1.00  0.00     0.058 A 
ATOM     89  C   UNL A   1      40.469  35.528  36.907  1.00  0.00     0.135 A 
ATOM     90  C   UNL A   1      39.008  34.126  38.204  1.00  0.00     0.135 A 
ATOM     91  F   UNL A   1      41.238  35.750  35.828  1.00  0.00    -0.206 F 
ATOM     92  C   UNL A   1      40.393  36.521  37.879  1.00  0.00     0.059 A 
ATOM     93  C   UNL A   1      38.895  35.116  39.174  1.00  0.00     0.059 A 
ATOM     94  F   UNL A   1      38.330  32.982  38.387  1.00  0.00    -0.206 F 
ATOM     95  C   UNL A   1      39.605  36.304  39.011  1.00  0.00     0.060 A 
BRANCH  95  96
ATOM     96  S   UNL A   1      39.500  37.606  40.257  1.00  0.00     0.124 S 
ATOM     97  O   UNL A   1      38.903  36.890  41.380  1.00  0.00    -0.237 OA
ATOM     98  O   UNL A   1      40.897  37.995  40.424  1.00  0.00    -0.237 OA
ATOM     99  O   UNL A   1      38.648  38.611  39.627  1.00  0.00    -0.744 OA
ENDBRANCH  95  96
ENDBRANCH  63  88
ENDBRANCH  37  38
ENDBRANCH  29  32
ENDBRANCH  27  28
ENDBRANCH  26  27
ENDBRANCH   1  26
TORSDOF 17
ENDMDL
MODEL 3
REMARK VINA RESULT:     -12.4      6.546     12.122
REMARK SMILES C[C@H](C(=O)NCCCCCCNC(=O)c1ccc(-c2c3nc(c(-c4c(F)cc(S(=O)(=O)[O-])cc4F)c4ccc([nH]4)c(-c4c(F)cc(S(=O)(=O)[O-])cc4F)c4nc(c(-c5c(F)cc(S(=O)(=O)[O-])cc5F)c5ccc2[nH]5)C=C4)C=C3)cc1)c1ccc2c(c1)[nH]c1ccc(Cl)cc12
REMARK SMILES IDX 9 1 8 2 7 3 6 4 5 5 3 6 4 7 2 9 1 10 81 11 82 12 86 13 83 14
REMARK SMILES IDX 85 15 84 16 87 17 94 18 88 19 93 21 89 22 91 23 90 24 92 25
REMARK SMILES IDX 10 26 11 27 12 28 13 29 14 31 15 32 16 33 80 34 17 35 79 36
REMARK SMILES IDX 18 37 19 38 20 39 73 40 21 41 78 42 72 43 74 44 22 45 77 46
REMARK SMILES IDX 71 47 70 48 23 50 57 51 36 52 56 53 37 54 40 55 55 56 75 57
REMARK SMILES IDX 38 58 39 59 54 61 76 62 41 63 24 64 25 65 34 66 26 67 27 68
REMARK SMILES IDX 33 69 35 70 28 71 29 72 30 73 31 74 32 75 58 76 59 77 68 78
REMARK SMILES IDX 60 79 61 80 67 81 69 82 62 83 63 84 64 85 65 86 66 87 42 88
REMARK SMILES IDX 43 89 52 90 44 91 45 92 51 93 53 94 46 95 47 96 48 97 49 98
REMARK SMILES IDX 50 99
REMARK H PARENT 5 8 87 20 12 30 74 49 40 60
REMARK Flexibility Score: inf
ROOT
ATOM      1  C   UNL A   1      34.616  29.601  27.514  1.00  0.00     0.002 C 
ENDROOT
BRANCH   1   2
ATOM      2  C   UNL A   1      33.413  28.985  26.797  1.00  0.00     0.002 C 
BRANCH   2   3
ATOM      3  C   UNL A   1      32.979  29.704  25.516  1.00  0.00     0.021 C 
BRANCH   3   4
ATOM      4  C   UNL A   1      31.464  29.852  25.344  1.00  0.00     0.116 C 
BRANCH   4   5
ATOM      5  N   UNL A   1      31.046  29.532  23.992  1.00  0.00    -0.356 N 
ATOM      6  C   UNL A   1      30.514  28.378  23.487  1.00  0.00     0.227 C 
ATOM      7  O   UNL A   1      30.309  28.343  22.271  1.00  0.00    -0.274 OA
ATOM      8  H   UNL A   1      31.163  30.258  23.337  1.00  0.00     0.163 HD
BRANCH   6   9
ATOM      9  C   UNL A   1      30.137  27.207  24.417  1.00  0.00     0.105 C 
ATOM     10  C   UNL A   1      28.913  26.463  23.873  1.00  0.00     0.023 C 
BRANCH   9  11
ATOM     11  C   UNL A   1      31.272  26.218  24.645  1.00  0.00    -0.034 A 
ATOM     12  C   UNL A   1      31.890  26.147  25.904  1.00  0.00     0.005 A 
ATOM     13  C   UNL A   1      31.751  25.429  23.586  1.00  0.00     0.031 A 
ATOM     14  C   UNL A   1      33.042  25.377  26.105  1.00  0.00     0.011 A 
ATOM     15  C   UNL A   1      32.942  24.725  23.790  1.00  0.00     0.047 A 
ATOM     16  C   UNL A   1      33.605  24.686  25.014  1.00  0.00     0.007 A 
ATOM     17  N   UNL A   1      33.712  24.027  22.890  1.00  0.00    -0.355 N 
ATOM     18  C   UNL A   1      34.806  23.931  24.826  1.00  0.00     0.009 A 
ATOM     19  C   UNL A   1      34.879  23.597  23.474  1.00  0.00     0.047 A 
ATOM     20  H   UNL A   1      33.461  23.860  21.953  1.00  0.00     0.167 HD
ATOM     21  C   UNL A   1      35.866  23.548  25.673  1.00  0.00     0.031 A 
ATOM     22  C   UNL A   1      35.982  22.951  22.906  1.00  0.00     0.028 A 
ATOM     23  C   UNL A   1      36.963  22.876  25.123  1.00  0.00     0.041 A 
ATOM     24  C   UNL A   1      37.031  22.599  23.760  1.00  0.00     0.022 A 
ATOM     25  Cl  UNL A   1      38.255  22.391  26.150  1.00  0.00    -0.084 Cl
ENDBRANCH   9  11
ENDBRANCH   6   9
ENDBRANCH   4   5
ENDBRANCH   3   4
ENDBRANCH   2   3
ENDBRANCH   1   2
BRANCH   1  26
ATOM     26  C   UNL A   1      34.566  31.122  27.677  1.00  0.00     0.021 C 
BRANCH  26  27
ATOM     27  C   UNL A   1      35.705  31.717  28.500  1.00  0.00     0.116 C 
BRANCH  27  28
ATOM     28  N   UNL A   1      35.592  31.369  29.907  1.00  0.00    -0.352 N 
ATOM     29  C   UNL A   1      36.412  30.582  30.678  1.00  0.00     0.251 C 
ATOM     30  H   UNL A   1      34.816  31.753  30.375  1.00  0.00     0.163 HD
ATOM     31  O   UNL A   1      36.036  30.226  31.791  1.00  0.00    -0.269 OA
BRANCH  29  32
ATOM     32  C   UNL A   1      37.736  30.159  30.170  1.00  0.00     0.039 A 
ATOM     33  C   UNL A   1      38.731  29.815  31.089  1.00  0.00     0.014 A 
ATOM     34  C   UNL A   1      38.016  30.146  28.801  1.00  0.00     0.014 A 
ATOM     35  C   UNL A   1      39.995  29.430  30.633  1.00  0.00     0.010 A 
ATOM     36  C   UNL A   1      39.251  29.691  28.345  1.00  0.00     0.010 A 
ATOM     37  C   UNL A   1      40.261  29.351  29.257  1.00  0.00    -0.014 A 
BRANCH  37  38
ATOM     38  C   UNL A   1      41.605  28.957  28.759  1.00  0.00     0.031 A 
ATOM     39  C   UNL A   1      42.707  29.981  28.676  1.00  0.00     0.074 A 
ATOM     40  C   UNL A   1      41.823  27.693  28.346  1.00  0.00     0.049 A 
ATOM     41  N   UNL A   1      43.937  29.840  28.250  1.00  0.00    -0.248 NA
ATOM     42  C   UNL A   1      42.377  31.350  29.103  1.00  0.00     0.031 C 
ATOM     43  C   UNL A   1      40.823  26.622  28.333  1.00  0.00     0.029 A 
ATOM     44  N   UNL A   1      42.956  27.093  27.856  1.00  0.00    -0.354 N 
ATOM     45  C   UNL A   1      44.515  31.102  28.337  1.00  0.00     0.074 A 
ATOM     46  C   UNL A   1      43.489  32.005  28.807  1.00  0.00     0.031 C 
ATOM     47  C   UNL A   1      41.395  25.491  27.890  1.00  0.00     0.029 A 
ATOM     48  C   UNL A   1      42.791  25.761  27.557  1.00  0.00     0.049 A 
ATOM     49  H   UNL A   1      43.806  27.572  27.730  1.00  0.00     0.167 HD
ATOM     50  C   UNL A   1      45.792  31.470  28.071  1.00  0.00     0.037 A 
ATOM     51  C   UNL A   1      43.667  24.859  27.073  1.00  0.00     0.037 A 
ATOM     52  C   UNL A   1      46.818  30.557  27.639  1.00  0.00     0.049 A 
ATOM     53  C   UNL A   1      45.085  25.287  26.806  1.00  0.00     0.074 A 
ATOM     54  C   UNL A   1      48.159  30.813  27.412  1.00  0.00     0.029 A 
ATOM     55  N   UNL A   1      46.617  29.211  27.367  1.00  0.00    -0.354 N 
ATOM     56  N   UNL A   1      45.635  26.468  26.961  1.00  0.00    -0.248 NA
ATOM     57  C   UNL A   1      46.006  24.256  26.307  1.00  0.00     0.031 C 
ATOM     58  C   UNL A   1      48.759  29.632  26.961  1.00  0.00     0.029 A 
ATOM     59  C   UNL A   1      47.804  28.627  26.956  1.00  0.00     0.049 A 
ATOM     60  H   UNL A   1      45.756  28.740  27.454  1.00  0.00     0.167 HD
ATOM     61  C   UNL A   1      46.973  26.315  26.615  1.00  0.00     0.074 A 
ATOM     62  C   UNL A   1      47.150  24.924  26.248  1.00  0.00     0.031 C 
ATOM     63  C   UNL A   1      47.966  27.238  26.607  1.00  0.00     0.037 A 
BRANCH  50  64
ATOM     64  C   UNL A   1      46.151  32.921  28.242  1.00  0.00     0.058 A 
ATOM     65  C   UNL A   1      46.025  33.845  27.192  1.00  0.00     0.135 A 
ATOM     66  C   UNL A   1      46.606  33.402  29.481  1.00  0.00     0.135 A 
ATOM     67  F   UNL A   1      45.609  33.439  25.981  1.00  0.00    -0.206 F 
ATOM     68  C   UNL A   1      46.370  35.183  27.352  1.00  0.00     0.059 A 
ATOM     69  C   UNL A   1      46.928  34.743  29.673  1.00  0.00     0.059 A 
ATOM     70  F   UNL A   1      46.743  32.565  30.522  1.00  0.00    -0.206 F 
ATOM     71  C   UNL A   1      46.824  35.622  28.598  1.00  0.00     0.060 A 
BRANCH  71  72
ATOM     72  S   UNL A   1      47.270  37.361  28.788  1.00  0.00     0.124 S 
ATOM     73  O   UNL A   1      46.563  37.709  30.018  1.00  0.00    -0.237 OA
ATOM     74  O   UNL A   1      48.724  37.302  28.890  1.00  0.00    -0.237 OA
ATOM     75  O   UNL A   1      46.753  37.981  27.572  1.00  0.00    -0.744 OA
ENDBRANCH  71  72
ENDBRANCH  50  64
BRANCH  51  76
ATOM     76  C   UNL A   1      43.242  23.451  26.856  1.00  0.00     0.058 A 
ATOM     77  C   UNL A   1      43.039  22.954  25.558  1.00  0.00     0.135 A 
ATOM     78  C   UNL A   1      43.039  22.572  27.930  1.00  0.00     0.135 A 
ATOM     79  F   UNL A   1      43.215  23.757  24.498  1.00  0.00    -0.206 F 
ATOM     80  C   UNL A   1      42.632  21.643  25.335  1.00  0.00     0.059 A 
ATOM     81  C   UNL A   1      42.658  21.248  27.730  1.00  0.00     0.059 A 
ATOM     82  F   UNL A   1      43.237  22.992  29.190  1.00  0.00    -0.206 F 
ATOM     83  C   UNL A   1      42.446  20.796  26.428  1.00  0.00     0.060 A 
BRANCH  83  84
ATOM     84  S   UNL A   1      41.963  19.083  26.124  1.00  0.00     0.124 S 
ATOM     85  O   UNL A   1      42.827  18.729  25.005  1.00  0.00    -0.237 OA
ATOM     86  O   UNL A   1      42.274  18.445  27.400  1.00  0.00    -0.237 OA
ATOM     87  O   UNL A   1      40.539  19.186  25.814  1.00  0.00    -0.744 OA
ENDBRANCH  83  84
ENDBRANCH  51  76
BRANCH  63  88
ATOM     88  C   UNL A   1      49.345  26.766  26.235  1.00  0.00     0.058 A 
ATOM     89  C   UNL A   1      49.839  26.875  24.925  1.00  0.00     0.135 A 
ATOM     90  C   UNL A   1      50.197  26.231  27.215  1.00  0.00     0.135 A 
ATOM     91  F   UNL A   1      49.064  27.375  23.950  1.00  0.00    -0.206 F 
ATOM     92  C   UNL A   1      51.119  26.440  24.594  1.00  0.00     0.059 A 
ATOM     93  C   UNL A   1      51.490  25.818  26.912  1.00  0.00     0.059 A 
ATOM     94  F   UNL A   1      49.779  26.118  28.486  1.00  0.00    -0.206 F 
ATOM     95  C   UNL A   1      51.936  25.911  25.595  1.00  0.00     0.060 A 
BRANCH  95  96
ATOM     96  S   UNL A   1      53.601  25.367  25.157  1.00  0.00     0.124 S 
ATOM     97  O   UNL A   1      53.518  23.933  25.417  1.00  0.00    -0.237 OA
ATOM     98  O   UNL A   1      53.698  25.752  23.753  1.00  0.00    -0.237 OA
ATOM     99  O   UNL A   1      54.455  26.123  26.068  1.00  0.00    -0.744 OA
ENDBRANCH  95  96
ENDBRANCH  63  88
ENDBRANCH  37  38
ENDBRANCH  29  32
ENDBRANCH  27  28
ENDBRANCH  26  27
ENDBRANCH   1  26
TORSDOF 17
ENDMDL
