MODEL 1
REMARK VINA RESULT:     -12.5      0.000      0.000
REMARK SMILES CC1=C[C@H](C)[C@H](CN2C[C@@]34C=C[C@@H](O3)[C@H](C(=O)NCCCCCCNC(=O)c3ccc(-c5c6nc(c(-c7c(F)cc(S(=O)(=O)[O-])cc7F)c7ccc([nH]7)c(-c7c(F)cc(S(=O)(=O)[O-])cc7F)c7nc(c(-c8c(F)cc(S(=O)(=O)[O-])cc8F)c8ccc5[nH]8)C=C7)C=C6)cc3)[C@@H]4C2=O)[C@H](C)C1
REMARK SMILES IDX 22 1 21 2 20 3 19 4 18 5 16 6 17 7 15 9 8 10 9 11 95 12
REMARK SMILES IDX 10 13 94 14 96 15 11 16 14 17 12 18 13 19 7 20 6 21 1 22
REMARK SMILES IDX 2 23 3 24 99 25 4 26 97 27 5 28 98 29 23 30 24 31 25 32
REMARK SMILES IDX 26 33 27 35 28 36 29 37 93 38 30 39 92 40 31 41 32 42 33 43
REMARK SMILES IDX 86 44 34 45 91 46 85 47 87 48 35 49 90 50 84 51 83 52 36 54
REMARK SMILES IDX 70 55 49 56 69 57 50 58 53 59 68 60 88 61 51 62 52 63 67 65
REMARK SMILES IDX 89 66 54 67 37 68 38 69 47 70 39 71 40 72 46 73 48 74 41 75
REMARK SMILES IDX 42 76 43 77 44 78 45 79 71 80 72 81 81 82 73 83 74 84 80 85
REMARK SMILES IDX 82 86 75 87 76 88 77 89 78 90 79 91 55 92 56 93 65 94 57 95
REMARK SMILES IDX 58 96 64 97 66 98 59 99 60 100 61 101 62 102 63 103
REMARK H PARENT 18 8 25 34 87 53 53 64
REMARK Flexibility Score: inf
ROOT
ATOM      1  C   UNL A   1      34.253  31.344  27.851  1.00  0.00     0.002 C 
ENDROOT
BRANCH   1   2
ATOM      2  C   UNL A   1      35.122  30.296  27.149  1.00  0.00     0.002 C 
BRANCH   2   3
ATOM      3  C   UNL A   1      34.650  28.845  27.321  1.00  0.00     0.021 C 
BRANCH   3   4
ATOM      4  C   UNL A   1      33.790  28.346  26.162  1.00  0.00     0.116 C 
BRANCH   4   5
ATOM      5  N   UNL A   1      32.706  27.552  26.683  1.00  0.00    -0.356 N 
ATOM      6  C   UNL A   1      31.583  27.066  26.122  1.00  0.00     0.227 C 
ATOM      7  O   UNL A   1      30.712  26.684  26.916  1.00  0.00    -0.275 OA
ATOM      8  H   UNL A   1      32.804  27.320  27.635  1.00  0.00     0.163 HD
BRANCH   6   9
ATOM      9  C   UNL A   1      31.347  26.859  24.645  1.00  0.00     0.127 C 
ATOM     10  N   UNL A   1      33.944  24.648  23.057  1.00  0.00    -0.339 N 
ATOM     11  C   UNL A   1      33.189  25.246  21.929  1.00  0.00     0.160 C 
ATOM     12  C   UNL A   1      33.522  25.218  24.297  1.00  0.00     0.230 C 
ATOM     13  C   UNL A   1      32.536  26.450  22.600  1.00  0.00     0.117 C 
ATOM     14  C   UNL A   1      32.212  25.835  23.961  1.00  0.00     0.132 C 
ATOM     15  O   UNL A   1      33.970  24.984  25.409  1.00  0.00    -0.274 OA
ATOM     16  C   UNL A   1      33.309  27.740  22.670  1.00  0.00     0.009 C 
ATOM     17  O   UNL A   1      31.227  26.987  22.338  1.00  0.00    -0.360 OA
ATOM     18  C   UNL A   1      32.484  28.639  23.225  1.00  0.00     0.004 C 
ATOM     19  C   UNL A   1      31.218  27.912  23.532  1.00  0.00     0.155 C 
BRANCH  10  20
ATOM     20  C   UNL A   1      34.328  23.252  23.174  1.00  0.00     0.124 C 
BRANCH  20  21
ATOM     21  C   UNL A   1      33.718  22.348  24.257  1.00  0.00     0.018 C 
ATOM     22  C   UNL A   1      32.906  18.074  25.347  1.00  0.00     0.039 C 
ATOM     23  C   UNL A   1      33.150  19.481  24.885  1.00  0.00    -0.077 C 
ATOM     24  C   UNL A   1      32.166  20.286  24.464  1.00  0.00    -0.025 C 
ATOM     25  C   UNL A   1      34.577  19.910  24.826  1.00  0.00     0.034 C 
ATOM     26  C   UNL A   1      32.386  21.646  23.850  1.00  0.00     0.014 C 
ATOM     27  C   UNL A   1      34.805  21.423  24.936  1.00  0.00    -0.005 C 
ATOM     28  C   UNL A   1      32.154  21.520  22.340  1.00  0.00     0.012 C 
ATOM     29  C   UNL A   1      36.273  21.685  24.547  1.00  0.00     0.008 C 
ENDBRANCH  20  21
ENDBRANCH  10  20
ENDBRANCH   6   9
ENDBRANCH   4   5
ENDBRANCH   3   4
ENDBRANCH   2   3
ENDBRANCH   1   2
BRANCH   1  30
ATOM     30  C   UNL A   1      34.956  32.670  28.146  1.00  0.00     0.021 C 
BRANCH  30  31
ATOM     31  C   UNL A   1      36.146  32.565  29.095  1.00  0.00     0.116 C 
BRANCH  31  32
ATOM     32  N   UNL A   1      35.809  31.864  30.322  1.00  0.00    -0.352 N 
ATOM     33  C   UNL A   1      36.510  30.873  30.963  1.00  0.00     0.251 C 
ATOM     34  H   UNL A   1      34.965  32.135  30.749  1.00  0.00     0.163 HD
ATOM     35  O   UNL A   1      36.004  30.266  31.901  1.00  0.00    -0.269 OA
BRANCH  33  36
ATOM     36  C   UNL A   1      37.870  30.531  30.500  1.00  0.00     0.039 A 
ATOM     37  C   UNL A   1      38.872  30.315  31.449  1.00  0.00     0.014 A 
ATOM     38  C   UNL A   1      38.151  30.418  29.134  1.00  0.00     0.014 A 
ATOM     39  C   UNL A   1      40.148  29.937  31.030  1.00  0.00     0.010 A 
ATOM     40  C   UNL A   1      39.411  29.990  28.721  1.00  0.00     0.010 A 
ATOM     41  C   UNL A   1      40.420  29.748  29.666  1.00  0.00    -0.014 A 
BRANCH  41  42
ATOM     42  C   UNL A   1      41.759  29.306  29.205  1.00  0.00     0.031 A 
ATOM     43  C   UNL A   1      42.889  30.293  29.123  1.00  0.00     0.074 A 
ATOM     44  C   UNL A   1      41.937  28.034  28.802  1.00  0.00     0.049 A 
ATOM     45  N   UNL A   1      44.104  30.120  28.673  1.00  0.00    -0.248 NA
ATOM     46  C   UNL A   1      42.607  31.662  29.584  1.00  0.00     0.031 C 
ATOM     47  C   UNL A   1      40.904  26.995  28.793  1.00  0.00     0.029 A 
ATOM     48  N   UNL A   1      43.049  27.399  28.309  1.00  0.00    -0.354 N 
ATOM     49  C   UNL A   1      44.727  31.358  28.778  1.00  0.00     0.074 A 
ATOM     50  C   UNL A   1      43.743  32.283  29.300  1.00  0.00     0.031 C 
ATOM     51  C   UNL A   1      41.435  25.851  28.329  1.00  0.00     0.029 A 
ATOM     52  C   UNL A   1      42.834  26.081  27.983  1.00  0.00     0.049 A 
ATOM     53  H   UNL A   1      43.919  27.846  28.199  1.00  0.00     0.167 HD
ATOM     54  C   UNL A   1      46.007  31.689  28.485  1.00  0.00     0.037 A 
ATOM     55  C   UNL A   1      43.669  25.165  27.459  1.00  0.00     0.037 A 
ATOM     56  C   UNL A   1      46.991  30.758  28.000  1.00  0.00     0.049 A 
ATOM     57  C   UNL A   1      45.093  25.549  27.166  1.00  0.00     0.074 A 
ATOM     58  C   UNL A   1      48.330  30.983  27.729  1.00  0.00     0.029 A 
ATOM     59  N   UNL A   1      46.744  29.423  27.716  1.00  0.00    -0.354 N 
ATOM     60  N   UNL A   1      45.679  26.712  27.319  1.00  0.00    -0.248 NA
ATOM     61  C   UNL A   1      45.970  24.497  26.632  1.00  0.00     0.031 C 
ATOM     62  C   UNL A   1      48.887  29.789  27.258  1.00  0.00     0.029 A 
ATOM     63  C   UNL A   1      47.902  28.814  27.263  1.00  0.00     0.049 A 
ATOM     64  H   UNL A   1      45.874  28.976  27.820  1.00  0.00     0.167 HD
ATOM     65  C   UNL A   1      46.997  26.529  26.920  1.00  0.00     0.074 A 
ATOM     66  C   UNL A   1      47.126  25.139  26.528  1.00  0.00     0.031 C 
ATOM     67  C   UNL A   1      48.011  27.428  26.881  1.00  0.00     0.037 A 
BRANCH  54  68
ATOM     68  C   UNL A   1      46.414  33.120  28.689  1.00  0.00     0.058 A 
ATOM     69  C   UNL A   1      46.304  34.068  27.659  1.00  0.00     0.135 A 
ATOM     70  C   UNL A   1      46.900  33.556  29.932  1.00  0.00     0.135 A 
ATOM     71  F   UNL A   1      45.861  33.699  26.447  1.00  0.00    -0.206 F 
ATOM     72  C   UNL A   1      46.691  35.391  27.845  1.00  0.00     0.059 A 
ATOM     73  C   UNL A   1      47.270  34.879  30.147  1.00  0.00     0.059 A 
ATOM     74  F   UNL A   1      47.026  32.689  30.950  1.00  0.00    -0.206 F 
ATOM     75  C   UNL A   1      47.178  35.786  29.091  1.00  0.00     0.060 A 
BRANCH  75  76
ATOM     76  S   UNL A   1      47.682  37.505  29.320  1.00  0.00     0.124 S 
ATOM     77  O   UNL A   1      47.509  38.039  27.973  1.00  0.00    -0.237 OA
ATOM     78  O   UNL A   1      46.730  37.982  30.319  1.00  0.00    -0.237 OA
ATOM     79  O   UNL A   1      49.064  37.394  29.779  1.00  0.00    -0.744 OA
ENDBRANCH  75  76
ENDBRANCH  54  68
BRANCH  55  80
ATOM     80  C   UNL A   1      43.185  23.784  27.203  1.00  0.00     0.058 A 
ATOM     81  C   UNL A   1      42.822  23.378  25.911  1.00  0.00     0.135 A 
ATOM     82  C   UNL A   1      43.097  22.840  28.237  1.00  0.00     0.135 A 
ATOM     83  F   UNL A   1      42.886  24.250  24.892  1.00  0.00    -0.206 F 
ATOM     84  C   UNL A   1      42.377  22.086  25.651  1.00  0.00     0.059 A 
ATOM     85  C   UNL A   1      42.672  21.536  28.000  1.00  0.00     0.059 A 
ATOM     86  F   UNL A   1      43.449  23.177  29.488  1.00  0.00    -0.206 F 
ATOM     87  C   UNL A   1      42.306  21.171  26.704  1.00  0.00     0.060 A 
BRANCH  87  88
ATOM     88  S   UNL A   1      41.783  19.479  26.352  1.00  0.00     0.124 S 
ATOM     89  O   UNL A   1      40.340  19.641  26.219  1.00  0.00    -0.237 OA
ATOM     90  O   UNL A   1      42.508  19.180  25.121  1.00  0.00    -0.237 OA
ATOM     91  O   UNL A   1      42.232  18.741  27.528  1.00  0.00    -0.744 OA
ENDBRANCH  87  88
ENDBRANCH  55  80
BRANCH  67  92
ATOM     92  C   UNL A   1      49.351  26.934  26.419  1.00  0.00     0.058 A 
ATOM     93  C   UNL A   1      50.220  26.258  27.289  1.00  0.00     0.135 A 
ATOM     94  C   UNL A   1      49.747  27.097  25.083  1.00  0.00     0.135 A 
ATOM     95  F   UNL A   1      49.887  26.084  28.577  1.00  0.00    -0.206 F 
ATOM     96  C   UNL A   1      51.448  25.773  26.852  1.00  0.00     0.059 A 
ATOM     97  C   UNL A   1      50.963  26.605  24.620  1.00  0.00     0.059 A 
ATOM     98  F   UNL A   1      48.946  27.731  24.212  1.00  0.00    -0.206 F 
ATOM     99  C   UNL A   1      51.811  25.952  25.516  1.00  0.00     0.060 A 
BRANCH  99 100
ATOM    100  S   UNL A   1      53.392  25.291  24.948  1.00  0.00     0.124 S 
ATOM    101  O   UNL A   1      54.339  26.102  25.706  1.00  0.00    -0.237 OA
ATOM    102  O   UNL A   1      53.305  23.887  25.338  1.00  0.00    -0.237 OA
ATOM    103  O   UNL A   1      53.364  25.536  23.510  1.00  0.00    -0.744 OA
ENDBRANCH  99 100
ENDBRANCH  67  92
ENDBRANCH  41  42
ENDBRANCH  33  36
ENDBRANCH  31  32
ENDBRANCH  30  31
ENDBRANCH   1  30
TORSDOF 18
ENDMDL
MODEL 2
REMARK VINA RESULT:     -12.4      6.068     11.737
REMARK SMILES CC1=C[C@H](C)[C@H](CN2C[C@@]34C=C[C@@H](O3)[C@H](C(=O)NCCCCCCNC(=O)c3ccc(-c5c6nc(c(-c7c(F)cc(S(=O)(=O)[O-])cc7F)c7ccc([nH]7)c(-c7c(F)cc(S(=O)(=O)[O-])cc7F)c7nc(c(-c8c(F)cc(S(=O)(=O)[O-])cc8F)c8ccc5[nH]8)C=C7)C=C6)cc3)[C@@H]4C2=O)[C@H](C)C1
REMARK SMILES IDX 22 1 21 2 20 3 19 4 18 5 16 6 17 7 15 9 8 10 9 11 95 12
REMARK SMILES IDX 10 13 94 14 96 15 11 16 14 17 12 18 13 19 7 20 6 21 1 22
REMARK SMILES IDX 2 23 3 24 99 25 4 26 97 27 5 28 98 29 23 30 24 31 25 32
REMARK SMILES IDX 26 33 27 35 28 36 29 37 93 38 30 39 92 40 31 41 32 42 33 43
REMARK SMILES IDX 86 44 34 45 91 46 85 47 87 48 35 49 90 50 84 51 83 52 36 54
REMARK SMILES IDX 70 55 49 56 69 57 50 58 53 59 68 60 88 61 51 62 52 63 67 65
REMARK SMILES IDX 89 66 54 67 37 68 38 69 47 70 39 71 40 72 46 73 48 74 41 75
REMARK SMILES IDX 42 76 43 77 44 78 45 79 71 80 72 81 81 82 73 83 74 84 80 85
REMARK SMILES IDX 82 86 75 87 76 88 77 89 78 90 79 91 55 92 56 93 65 94 57 95
REMARK SMILES IDX 58 96 64 97 66 98 59 99 60 100 61 101 62 102 63 103
REMARK H PARENT 18 8 25 34 87 53 53 64
REMARK Flexibility Score: inf
ROOT
ATOM      1  C   UNL A   1      40.550  22.014  26.227  1.00  0.00     0.002 C 
ENDROOT
BRANCH   1   2
ATOM      2  C   UNL A   1      39.194  22.411  26.817  1.00  0.00     0.002 C 
BRANCH   2   3
ATOM      3  C   UNL A   1      38.464  23.532  26.063  1.00  0.00     0.021 C 
BRANCH   3   4
ATOM      4  C   UNL A   1      36.954  23.323  25.980  1.00  0.00     0.116 C 
BRANCH   4   5
ATOM      5  N   UNL A   1      36.511  23.590  24.635  1.00  0.00    -0.356 N 
ATOM      6  C   UNL A   1      35.435  23.186  23.935  1.00  0.00     0.227 C 
ATOM      7  O   UNL A   1      35.507  23.345  22.708  1.00  0.00    -0.275 OA
ATOM      8  H   UNL A   1      37.113  24.183  24.128  1.00  0.00     0.163 HD
BRANCH   6   9
ATOM      9  C   UNL A   1      34.143  22.664  24.516  1.00  0.00     0.127 C 
ATOM     10  N   UNL A   1      32.313  25.252  26.541  1.00  0.00    -0.339 N 
ATOM     11  C   UNL A   1      31.632  23.968  26.831  1.00  0.00     0.160 C 
ATOM     12  C   UNL A   1      33.471  25.031  25.735  1.00  0.00     0.230 C 
ATOM     13  C   UNL A   1      32.688  22.955  26.403  1.00  0.00     0.117 C 
ATOM     14  C   UNL A   1      33.242  23.675  25.174  1.00  0.00     0.132 C 
ATOM     15  O   UNL A   1      34.280  25.865  25.358  1.00  0.00    -0.274 OA
ATOM     16  C   UNL A   1      33.734  22.541  27.404  1.00  0.00     0.009 C 
ATOM     17  O   UNL A   1      32.466  21.681  25.771  1.00  0.00    -0.360 OA
ATOM     18  C   UNL A   1      34.472  21.598  26.804  1.00  0.00     0.004 C 
ATOM     19  C   UNL A   1      33.918  21.446  25.427  1.00  0.00     0.155 C 
BRANCH  10  20
ATOM     20  C   UNL A   1      31.655  26.515  26.256  1.00  0.00     0.124 C 
BRANCH  20  21
ATOM     21  C   UNL A   1      31.607  27.084  24.829  1.00  0.00     0.018 C 
ATOM     22  C   UNL A   1      29.288  29.780  22.097  1.00  0.00     0.039 C 
ATOM     23  C   UNL A   1      29.973  28.842  23.047  1.00  0.00    -0.077 C 
ATOM     24  C   UNL A   1      29.901  27.509  22.928  1.00  0.00    -0.025 C 
ATOM     25  C   UNL A   1      30.669  29.478  24.203  1.00  0.00     0.034 C 
ATOM     26  C   UNL A   1      30.444  26.537  23.945  1.00  0.00     0.014 C 
ATOM     27  C   UNL A   1      31.810  28.651  24.808  1.00  0.00    -0.005 C 
ATOM     28  C   UNL A   1      29.255  25.960  24.721  1.00  0.00     0.012 C 
ATOM     29  C   UNL A   1      32.183  29.314  26.149  1.00  0.00     0.008 C 
ENDBRANCH  20  21
ENDBRANCH  10  20
ENDBRANCH   6   9
ENDBRANCH   4   5
ENDBRANCH   3   4
ENDBRANCH   2   3
ENDBRANCH   1   2
BRANCH   1  30
ATOM     30  C   UNL A   1      41.704  21.978  27.231  1.00  0.00     0.021 C 
BRANCH  30  31
ATOM     31  C   UNL A   1      42.590  23.220  27.231  1.00  0.00     0.116 C 
BRANCH  31  32
ATOM     32  N   UNL A   1      42.430  24.008  26.021  1.00  0.00    -0.352 N 
ATOM     33  C   UNL A   1      42.006  25.307  25.892  1.00  0.00     0.251 C 
ATOM     34  H   UNL A   1      42.657  23.548  25.180  1.00  0.00     0.163 HD
ATOM     35  O   UNL A   1      41.764  25.772  24.783  1.00  0.00    -0.269 OA
BRANCH  33  36
ATOM     36  C   UNL A   1      41.821  26.133  27.103  1.00  0.00     0.039 A 
ATOM     37  C   UNL A   1      42.714  27.178  27.350  1.00  0.00     0.014 A 
ATOM     38  C   UNL A   1      40.767  25.876  27.988  1.00  0.00     0.014 A 
ATOM     39  C   UNL A   1      42.520  28.002  28.459  1.00  0.00     0.010 A 
ATOM     40  C   UNL A   1      40.547  26.731  29.065  1.00  0.00     0.010 A 
ATOM     41  C   UNL A   1      41.422  27.799  29.311  1.00  0.00    -0.014 A 
BRANCH  41  42
ATOM     42  C   UNL A   1      41.177  28.690  30.472  1.00  0.00     0.031 A 
ATOM     43  C   UNL A   1      41.996  28.537  31.722  1.00  0.00     0.074 A 
ATOM     44  C   UNL A   1      40.179  29.591  30.419  1.00  0.00     0.049 A 
ATOM     45  N   UNL A   1      41.882  29.161  32.865  1.00  0.00    -0.248 NA
ATOM     46  C   UNL A   1      43.067  27.527  31.693  1.00  0.00     0.031 C 
ATOM     47  C   UNL A   1      39.287  29.803  29.277  1.00  0.00     0.029 A 
ATOM     48  N   UNL A   1      39.736  30.491  31.356  1.00  0.00    -0.354 N 
ATOM     49  C   UNL A   1      42.851  28.612  33.696  1.00  0.00     0.074 A 
ATOM     50  C   UNL A   1      43.519  27.576  32.937  1.00  0.00     0.031 C 
ATOM     51  C   UNL A   1      38.412  30.777  29.576  1.00  0.00     0.029 A 
ATOM     52  C   UNL A   1      38.662  31.240  30.938  1.00  0.00     0.049 A 
ATOM     53  H   UNL A   1      40.148  30.589  32.244  1.00  0.00     0.167 HD
ATOM     54  C   UNL A   1      43.167  28.953  34.968  1.00  0.00     0.037 A 
ATOM     55  C   UNL A   1      37.956  32.188  31.582  1.00  0.00     0.037 A 
ATOM     56  C   UNL A   1      42.524  30.008  35.704  1.00  0.00     0.049 A 
ATOM     57  C   UNL A   1      38.343  32.567  32.985  1.00  0.00     0.074 A 
ATOM     58  C   UNL A   1      42.812  30.469  36.978  1.00  0.00     0.029 A 
ATOM     59  N   UNL A   1      41.464  30.768  35.234  1.00  0.00    -0.354 N 
ATOM     60  N   UNL A   1      39.295  32.073  33.738  1.00  0.00    -0.248 NA
ATOM     61  C   UNL A   1      37.562  33.636  33.624  1.00  0.00     0.031 C 
ATOM     62  C   UNL A   1      41.909  31.493  37.286  1.00  0.00     0.029 A 
ATOM     63  C   UNL A   1      41.079  31.689  36.194  1.00  0.00     0.049 A 
ATOM     64  H   UNL A   1      41.047  30.668  34.349  1.00  0.00     0.167 HD
ATOM     65  C   UNL A   1      39.242  32.781  34.932  1.00  0.00     0.074 A 
ATOM     66  C   UNL A   1      38.170  33.747  34.797  1.00  0.00     0.031 C 
ATOM     67  C   UNL A   1      40.011  32.645  36.040  1.00  0.00     0.037 A 
BRANCH  54  68
ATOM     68  C   UNL A   1      44.265  28.178  35.637  1.00  0.00     0.058 A 
ATOM     69  C   UNL A   1      45.609  28.575  35.541  1.00  0.00     0.135 A 
ATOM     70  C   UNL A   1      43.973  27.036  36.400  1.00  0.00     0.135 A 
ATOM     71  F   UNL A   1      45.944  29.649  34.810  1.00  0.00    -0.206 F 
ATOM     72  C   UNL A   1      46.627  27.850  36.152  1.00  0.00     0.059 A 
ATOM     73  C   UNL A   1      44.972  26.309  37.039  1.00  0.00     0.059 A 
ATOM     74  F   UNL A   1      42.704  26.612  36.522  1.00  0.00    -0.206 F 
ATOM     75  C   UNL A   1      46.299  26.715  36.894  1.00  0.00     0.060 A 
BRANCH  75  76
ATOM     76  S   UNL A   1      47.628  25.779  37.679  1.00  0.00     0.124 S 
ATOM     77  O   UNL A   1      48.773  26.654  37.450  1.00  0.00    -0.237 OA
ATOM     78  O   UNL A   1      47.171  25.681  39.062  1.00  0.00    -0.237 OA
ATOM     79  O   UNL A   1      47.640  24.522  36.936  1.00  0.00    -0.744 OA
ENDBRANCH  75  76
ENDBRANCH  54  68
BRANCH  55  80
ATOM     80  C   UNL A   1      36.826  32.863  30.894  1.00  0.00     0.058 A 
ATOM     81  C   UNL A   1      35.500  32.505  31.170  1.00  0.00     0.135 A 
ATOM     82  C   UNL A   1      37.050  33.893  29.967  1.00  0.00     0.135 A 
ATOM     83  F   UNL A   1      35.240  31.522  32.046  1.00  0.00    -0.206 F 
ATOM     84  C   UNL A   1      34.429  33.135  30.544  1.00  0.00     0.059 A 
ATOM     85  C   UNL A   1      35.996  34.551  29.341  1.00  0.00     0.059 A 
ATOM     86  F   UNL A   1      38.302  34.282  29.682  1.00  0.00    -0.206 F 
ATOM     87  C   UNL A   1      34.689  34.159  29.629  1.00  0.00     0.060 A 
BRANCH  87  88
ATOM     88  S   UNL A   1      33.294  35.012  28.861  1.00  0.00     0.124 S 
ATOM     89  O   UNL A   1      32.477  35.342  30.024  1.00  0.00    -0.237 OA
ATOM     90  O   UNL A   1      33.946  36.138  28.200  1.00  0.00    -0.237 OA
ATOM     91  O   UNL A   1      32.741  34.004  27.964  1.00  0.00    -0.744 OA
ENDBRANCH  87  88
ENDBRANCH  55  80
BRANCH  67  92
ATOM     92  C   UNL A   1      39.736  33.575  37.185  1.00  0.00     0.058 A 
ATOM     93  C   UNL A   1      38.794  33.257  38.175  1.00  0.00     0.135 A 
ATOM     94  C   UNL A   1      40.455  34.773  37.318  1.00  0.00     0.135 A 
ATOM     95  F   UNL A   1      38.077  32.126  38.088  1.00  0.00    -0.206 F 
ATOM     96  C   UNL A   1      38.562  34.105  39.253  1.00  0.00     0.059 A 
ATOM     97  C   UNL A   1      40.252  35.628  38.396  1.00  0.00     0.059 A 
ATOM     98  F   UNL A   1      41.372  35.116  36.400  1.00  0.00    -0.206 F 
ATOM     99  C   UNL A   1      39.295  35.289  39.354  1.00  0.00     0.060 A 
BRANCH  99 100
ATOM    100  S   UNL A   1      39.012  36.369  40.773  1.00  0.00     0.124 S 
ATOM    101  O   UNL A   1      40.232  36.162  41.547  1.00  0.00    -0.237 OA
ATOM    102  O   UNL A   1      38.873  37.681  40.149  1.00  0.00    -0.237 OA
ATOM    103  O   UNL A   1      37.791  35.834  41.366  1.00  0.00    -0.744 OA
ENDBRANCH  99 100
ENDBRANCH  67  92
ENDBRANCH  41  42
ENDBRANCH  33  36
ENDBRANCH  31  32
ENDBRANCH  30  31
ENDBRANCH   1  30
TORSDOF 18
ENDMDL
MODEL 3
REMARK VINA RESULT:     -12.4      0.580      1.489
REMARK SMILES CC1=C[C@H](C)[C@H](CN2C[C@@]34C=C[C@@H](O3)[C@H](C(=O)NCCCCCCNC(=O)c3ccc(-c5c6nc(c(-c7c(F)cc(S(=O)(=O)[O-])cc7F)c7ccc([nH]7)c(-c7c(F)cc(S(=O)(=O)[O-])cc7F)c7nc(c(-c8c(F)cc(S(=O)(=O)[O-])cc8F)c8ccc5[nH]8)C=C7)C=C6)cc3)[C@@H]4C2=O)[C@H](C)C1
REMARK SMILES IDX 22 1 21 2 20 3 19 4 18 5 16 6 17 7 15 9 8 10 9 11 95 12
REMARK SMILES IDX 10 13 94 14 96 15 11 16 14 17 12 18 13 19 7 20 6 21 1 22
REMARK SMILES IDX 2 23 3 24 99 25 4 26 97 27 5 28 98 29 23 30 24 31 25 32
REMARK SMILES IDX 26 33 27 35 28 36 29 37 93 38 30 39 92 40 31 41 32 42 33 43
REMARK SMILES IDX 86 44 34 45 91 46 85 47 87 48 35 49 90 50 84 51 83 52 36 54
REMARK SMILES IDX 70 55 49 56 69 57 50 58 53 59 68 60 88 61 51 62 52 63 67 65
REMARK SMILES IDX 89 66 54 67 37 68 38 69 47 70 39 71 40 72 46 73 48 74 41 75
REMARK SMILES IDX 42 76 43 77 44 78 45 79 71 80 72 81 81 82 73 83 74 84 80 85
REMARK SMILES IDX 82 86 75 87 76 88 77 89 78 90 79 91 55 92 56 93 65 94 57 95
REMARK SMILES IDX 58 96 64 97 66 98 59 99 60 100 61 101 62 102 63 103
REMARK H PARENT 18 8 25 34 87 53 53 64
REMARK Flexibility Score: inf
ROOT
ATOM      1  C   UNL A   1      35.510  31.966  27.677  1.00  0.00     0.002 C 
ENDROOT
BRANCH   1   2
ATOM      2  C   UNL A   1      34.106  31.456  28.017  1.00  0.00     0.002 C 
BRANCH   2   3
ATOM      3  C   UNL A   1      33.353  30.807  26.846  1.00  0.00     0.021 C 
BRANCH   3   4
ATOM      4  C   UNL A   1      33.793  29.373  26.564  1.00  0.00     0.116 C 
BRANCH   4   5
ATOM      5  N   UNL A   1      32.865  28.460  27.184  1.00  0.00    -0.356 N 
ATOM      6  C   UNL A   1      31.777  27.817  26.723  1.00  0.00     0.227 C 
ATOM      7  O   UNL A   1      31.026  27.350  27.591  1.00  0.00    -0.275 OA
ATOM      8  H   UNL A   1      33.065  28.272  28.130  1.00  0.00     0.163 HD
BRANCH   6   9
ATOM      9  C   UNL A   1      31.458  27.538  25.273  1.00  0.00     0.127 C 
ATOM     10  N   UNL A   1      34.073  25.416  23.597  1.00  0.00    -0.339 N 
ATOM     11  C   UNL A   1      33.213  25.925  22.501  1.00  0.00     0.160 C 
ATOM     12  C   UNL A   1      33.699  26.010  24.841  1.00  0.00     0.230 C 
ATOM     13  C   UNL A   1      32.535  27.116  23.170  1.00  0.00     0.117 C 
ATOM     14  C   UNL A   1      32.336  26.538  24.571  1.00  0.00     0.132 C 
ATOM     15  O   UNL A   1      34.231  25.847  25.928  1.00  0.00    -0.274 OA
ATOM     16  C   UNL A   1      33.233  28.449  23.141  1.00  0.00     0.009 C 
ATOM     17  O   UNL A   1      31.182  27.566  22.976  1.00  0.00    -0.360 OA
ATOM     18  C   UNL A   1      32.394  29.321  23.717  1.00  0.00     0.004 C 
ATOM     19  C   UNL A   1      31.196  28.536  24.134  1.00  0.00     0.155 C 
BRANCH  10  20
ATOM     20  C   UNL A   1      34.546  24.050  23.739  1.00  0.00     0.124 C 
BRANCH  20  21
ATOM     21  C   UNL A   1      33.773  23.024  24.583  1.00  0.00     0.018 C 
ATOM     22  C   UNL A   1      32.984  18.639  25.097  1.00  0.00     0.039 C 
ATOM     23  C   UNL A   1      33.242  20.092  24.823  1.00  0.00    -0.077 C 
ATOM     24  C   UNL A   1      32.326  20.900  24.272  1.00  0.00    -0.025 C 
ATOM     25  C   UNL A   1      34.624  20.574  25.109  1.00  0.00     0.034 C 
ATOM     26  C   UNL A   1      32.596  22.319  23.840  1.00  0.00     0.014 C 
ATOM     27  C   UNL A   1      34.741  22.076  25.396  1.00  0.00    -0.005 C 
ATOM     28  C   UNL A   1      32.694  22.331  22.310  1.00  0.00     0.012 C 
ATOM     29  C   UNL A   1      36.241  22.426  25.355  1.00  0.00     0.008 C 
ENDBRANCH  20  21
ENDBRANCH  10  20
ENDBRANCH   6   9
ENDBRANCH   4   5
ENDBRANCH   3   4
ENDBRANCH   2   3
ENDBRANCH   1   2
BRANCH   1  30
ATOM     30  C   UNL A   1      35.934  33.231  28.426  1.00  0.00     0.021 C 
BRANCH  30  31
ATOM     31  C   UNL A   1      36.896  32.995  29.586  1.00  0.00     0.116 C 
BRANCH  31  32
ATOM     32  N   UNL A   1      36.326  32.128  30.604  1.00  0.00    -0.352 N 
ATOM     33  C   UNL A   1      36.762  30.896  31.023  1.00  0.00     0.251 C 
ATOM     34  H   UNL A   1      35.519  32.470  31.052  1.00  0.00     0.163 HD
ATOM     35  O   UNL A   1      36.070  30.219  31.776  1.00  0.00    -0.269 OA
BRANCH  33  36
ATOM     36  C   UNL A   1      38.063  30.385  30.544  1.00  0.00     0.039 A 
ATOM     37  C   UNL A   1      38.218  30.103  29.185  1.00  0.00     0.014 A 
ATOM     38  C   UNL A   1      39.125  30.191  31.435  1.00  0.00     0.014 A 
ATOM     39  C   UNL A   1      39.456  29.672  28.708  1.00  0.00     0.010 A 
ATOM     40  C   UNL A   1      40.373  29.812  30.948  1.00  0.00     0.010 A 
ATOM     41  C   UNL A   1      40.548  29.547  29.581  1.00  0.00    -0.014 A 
BRANCH  41  42
ATOM     42  C   UNL A   1      41.883  29.130  29.084  1.00  0.00     0.031 A 
ATOM     43  C   UNL A   1      42.994  30.137  28.982  1.00  0.00     0.074 A 
ATOM     44  C   UNL A   1      42.073  27.864  28.670  1.00  0.00     0.049 A 
ATOM     45  N   UNL A   1      44.201  29.988  28.501  1.00  0.00    -0.248 NA
ATOM     46  C   UNL A   1      42.700  31.499  29.457  1.00  0.00     0.031 C 
ATOM     47  C   UNL A   1      41.058  26.808  28.679  1.00  0.00     0.029 A 
ATOM     48  N   UNL A   1      43.183  27.251  28.146  1.00  0.00    -0.354 N 
ATOM     49  C   UNL A   1      44.805  31.235  28.599  1.00  0.00     0.074 A 
ATOM     50  C   UNL A   1      43.818  32.140  29.149  1.00  0.00     0.031 C 
ATOM     51  C   UNL A   1      41.596  25.676  28.195  1.00  0.00     0.029 A 
ATOM     52  C   UNL A   1      42.983  25.931  27.817  1.00  0.00     0.049 A 
ATOM     53  H   UNL A   1      44.043  27.713  28.017  1.00  0.00     0.167 HD
ATOM     54  C   UNL A   1      46.072  31.590  28.277  1.00  0.00     0.037 A 
ATOM     55  C   UNL A   1      43.821  25.032  27.268  1.00  0.00     0.037 A 
ATOM     56  C   UNL A   1      47.059  30.679  27.763  1.00  0.00     0.049 A 
ATOM     57  C   UNL A   1      45.230  25.443  26.942  1.00  0.00     0.074 A 
ATOM     58  C   UNL A   1      48.387  30.928  27.460  1.00  0.00     0.029 A 
ATOM     59  N   UNL A   1      46.828  29.342  27.476  1.00  0.00    -0.354 N 
ATOM     60  N   UNL A   1      45.800  26.615  27.088  1.00  0.00    -0.248 NA
ATOM     61  C   UNL A   1      46.111  24.409  26.381  1.00  0.00     0.031 C 
ATOM     62  C   UNL A   1      48.952  29.746  26.968  1.00  0.00     0.029 A 
ATOM     63  C   UNL A   1      47.985  28.754  26.991  1.00  0.00     0.049 A 
ATOM     64  H   UNL A   1      45.968  28.879  27.599  1.00  0.00     0.167 HD
ATOM     65  C   UNL A   1      47.111  26.456  26.656  1.00  0.00     0.074 A 
ATOM     66  C   UNL A   1      47.253  25.071  26.252  1.00  0.00     0.031 C 
ATOM     67  C   UNL A   1      48.107  27.373  26.599  1.00  0.00     0.037 A 
BRANCH  54  68
ATOM     68  C   UNL A   1      46.458  33.027  28.479  1.00  0.00     0.058 A 
ATOM     69  C   UNL A   1      46.986  33.480  29.699  1.00  0.00     0.135 A 
ATOM     70  C   UNL A   1      46.320  33.959  27.439  1.00  0.00     0.135 A 
ATOM     71  F   UNL A   1      47.123  32.632  30.731  1.00  0.00    -0.206 F 
ATOM     72  C   UNL A   1      47.334  34.813  29.890  1.00  0.00     0.059 A 
ATOM     73  C   UNL A   1      46.683  35.292  27.600  1.00  0.00     0.059 A 
ATOM     74  F   UNL A   1      45.819  33.578  26.253  1.00  0.00    -0.206 F 
ATOM     75  C   UNL A   1      47.174  35.712  28.836  1.00  0.00     0.060 A 
BRANCH  75  76
ATOM     76  S   UNL A   1      47.623  37.442  29.097  1.00  0.00     0.124 S 
ATOM     77  O   UNL A   1      48.977  37.312  29.625  1.00  0.00    -0.237 OA
ATOM     78  O   UNL A   1      47.519  38.001  27.752  1.00  0.00    -0.237 OA
ATOM     79  O   UNL A   1      46.621  37.913  30.047  1.00  0.00    -0.744 OA
ENDBRANCH  75  76
ENDBRANCH  54  68
BRANCH  55  80
ATOM     80  C   UNL A   1      43.353  23.645  27.015  1.00  0.00     0.058 A 
ATOM     81  C   UNL A   1      42.955  23.244  25.732  1.00  0.00     0.135 A 
ATOM     82  C   UNL A   1      43.317  22.691  28.043  1.00  0.00     0.135 A 
ATOM     83  F   UNL A   1      42.969  24.125  24.720  1.00  0.00    -0.206 F 
ATOM     84  C   UNL A   1      42.527  21.946  25.475  1.00  0.00     0.059 A 
ATOM     85  C   UNL A   1      42.909  21.382  27.808  1.00  0.00     0.059 A 
ATOM     86  F   UNL A   1      43.704  23.024  29.284  1.00  0.00    -0.206 F 
ATOM     87  C   UNL A   1      42.507  21.021  26.521  1.00  0.00     0.060 A 
BRANCH  87  88
ATOM     88  S   UNL A   1      42.004  19.322  26.171  1.00  0.00     0.124 S 
ATOM     89  O   UNL A   1      40.573  19.483  25.942  1.00  0.00    -0.237 OA
ATOM     90  O   UNL A   1      42.806  18.997  24.996  1.00  0.00    -0.237 OA
ATOM     91  O   UNL A   1      42.375  18.608  27.388  1.00  0.00    -0.744 OA
ENDBRANCH  87  88
ENDBRANCH  55  80
BRANCH  67  92
ATOM     92  C   UNL A   1      49.444  26.905  26.102  1.00  0.00     0.058 A 
ATOM     93  C   UNL A   1      49.817  27.054  24.757  1.00  0.00     0.135 A 
ATOM     94  C   UNL A   1      50.376  26.345  26.988  1.00  0.00     0.135 A 
ATOM     95  F   UNL A   1      48.957  27.578  23.871  1.00  0.00    -0.206 F 
ATOM     96  C   UNL A   1      51.068  26.647  24.304  1.00  0.00     0.059 A 
ATOM     97  C   UNL A   1      51.639  25.948  26.561  1.00  0.00     0.059 A 
ATOM     98  F   UNL A   1      50.067  26.189  28.285  1.00  0.00    -0.206 F 
ATOM     99  C   UNL A   1      51.972  26.094  25.214  1.00  0.00     0.060 A 
BRANCH  99 100
ATOM    100  S   UNL A   1      53.605  25.600  24.625  1.00  0.00     0.124 S 
ATOM    101  O   UNL A   1      54.479  26.346  25.524  1.00  0.00    -0.237 OA
ATOM    102  O   UNL A   1      53.586  24.152  24.817  1.00  0.00    -0.237 OA
ATOM    103  O   UNL A   1      53.610  26.040  23.233  1.00  0.00    -0.744 OA
ENDBRANCH  99 100
ENDBRANCH  67  92
ENDBRANCH  41  42
ENDBRANCH  33  36
ENDBRANCH  31  32
ENDBRANCH  30  31
ENDBRANCH   1  30
TORSDOF 18
ENDMDL
