MODEL 1
REMARK VINA RESULT:     -12.8      0.000      0.000
REMARK SMILES CC(C)C(=O)Nc1ccc2c([C@@H](C(=O)NCCCCCCNC(=O)c3ccc(-c4c5nc(c(-c6c(F)cc(S(=O)(=O)[O-])cc6F)c6ccc([nH]6)c(-c6c(F)cc(S(=O)(=O)[O-])cc6F)c6nc(c(-c7c(F)cc(S(=O)(=O)[O-])cc7F)c7ccc4[nH]7)C=C6)C=C5)cc3)[NH+]3CC[NH+](Cc4ccccc4)CC3)c[nH]c2c1
REMARK SMILES IDX 18 1 17 2 16 3 15 4 13 5 14 6 12 8 11 9 7 10 8 11 107 12
REMARK SMILES IDX 9 13 106 14 10 15 105 16 104 17 6 19 4 20 5 21 2 23 1 24
REMARK SMILES IDX 3 25 91 26 92 27 103 28 93 30 102 31 94 32 95 34 96 35 97 36
REMARK SMILES IDX 101 37 98 38 100 39 99 40 19 41 20 42 21 43 22 44 23 45
REMARK SMILES IDX 24 47 25 48 26 49 90 50 27 51 89 52 28 53 29 54 30 55 83 56
REMARK SMILES IDX 31 57 88 58 82 59 84 60 32 61 87 62 81 63 80 64 33 66 67 67
REMARK SMILES IDX 46 68 66 69 47 70 50 71 65 72 85 73 48 74 49 75 64 77 86 78
REMARK SMILES IDX 51 79 34 80 35 81 44 82 36 83 37 84 43 85 45 86 38 87 39 88
REMARK SMILES IDX 40 89 41 90 42 91 68 92 69 93 78 94 70 95 71 96 77 97 79 98
REMARK SMILES IDX 72 99 73 100 74 101 75 102 76 103 52 104 53 105 62 106
REMARK SMILES IDX 54 107 55 108 61 109 63 110 56 111 57 112 58 113 59 114
REMARK SMILES IDX 60 115
REMARK H PARENT 15 7 105 18 6 22 91 29 94 33 22 46 84 65 50 76
REMARK Flexibility Score: inf
ROOT
ATOM      1  C   UNL A   1      35.281  30.160  27.864  1.00  0.00     0.002 C 
ENDROOT
BRANCH   1   2
ATOM      2  C   UNL A   1      34.511  28.982  27.259  1.00  0.00     0.021 C 
BRANCH   2   3
ATOM      3  C   UNL A   1      33.514  29.399  26.180  1.00  0.00     0.116 C 
BRANCH   3   4
ATOM      4  N   UNL A   1      33.974  29.000  24.874  1.00  0.00    -0.351 N 
ATOM      5  C   UNL A   1      33.675  27.878  24.155  1.00  0.00     0.283 C 
ATOM      6  O   UNL A   1      34.329  27.745  23.112  1.00  0.00    -0.268 OA
ATOM      7  H   UNL A   1      34.593  29.626  24.437  1.00  0.00     0.163 HD
BRANCH   5   8
ATOM      8  C   UNL A   1      32.496  26.936  24.572  1.00  0.00     0.308 C 
BRANCH   8   9
ATOM      9  C   UNL A   1      32.443  25.573  23.908  1.00  0.00     0.044 A 
ATOM     10  C   UNL A   1      32.545  21.628  25.378  1.00  0.00     0.043 A 
ATOM     11  C   UNL A   1      32.979  22.610  26.255  1.00  0.00     0.027 A 
ATOM     12  C   UNL A   1      32.310  21.937  24.035  1.00  0.00     0.052 A 
ATOM     13  C   UNL A   1      32.949  23.956  25.900  1.00  0.00     0.013 A 
ATOM     14  C   UNL A   1      32.339  23.292  23.672  1.00  0.00     0.048 A 
ATOM     15  C   UNL A   1      32.596  24.314  24.586  1.00  0.00     0.009 A 
ATOM     16  N   UNL A   1      32.110  23.893  22.460  1.00  0.00    -0.361 N 
ATOM     17  C   UNL A   1      32.204  25.253  22.582  1.00  0.00     0.094 A 
ATOM     18  H   UNL A   1      31.907  23.414  21.623  1.00  0.00     0.166 HD
BRANCH  10  19
ATOM     19  N   UNL A   1      32.346  20.316  25.811  1.00  0.00    -0.326 N 
ATOM     20  C   UNL A   1      32.931  19.153  25.389  1.00  0.00     0.226 C 
ATOM     21  O   UNL A   1      32.449  18.093  25.805  1.00  0.00    -0.274 OA
ATOM     22  H   UNL A   1      31.682  20.211  26.531  1.00  0.00     0.169 HD
BRANCH  20  23
ATOM     23  C   UNL A   1      34.217  19.107  24.543  1.00  0.00     0.072 C 
ATOM     24  C   UNL A   1      35.344  20.034  24.986  1.00  0.00     0.018 C 
ATOM     25  C   UNL A   1      34.705  17.692  24.237  1.00  0.00     0.018 C 
ENDBRANCH  20  23
ENDBRANCH  10  19
ENDBRANCH   8   9
BRANCH   8  26
ATOM     26  N   UNL A   1      31.205  27.608  24.399  1.00  0.00    -0.312 N 
ATOM     27  C   UNL A   1      31.076  28.626  23.371  1.00  0.00     0.325 C 
ATOM     28  C   UNL A   1      29.996  26.933  24.837  1.00  0.00     0.325 C 
ATOM     29  H   UNL A   1      31.317  28.226  25.202  1.00  0.00     0.349 HD
ATOM     30  C   UNL A   1      29.948  28.406  22.345  1.00  0.00     0.324 C 
ATOM     31  C   UNL A   1      28.878  26.789  23.776  1.00  0.00     0.324 C 
ATOM     32  N   UNL A   1      28.669  27.918  22.863  1.00  0.00    -0.322 N 
ATOM     33  H   UNL A   1      28.146  27.543  22.071  1.00  0.00     0.348 HD
BRANCH  32  34
ATOM     34  C   UNL A   1      27.731  28.955  23.304  1.00  0.00     0.299 C 
BRANCH  34  35
ATOM     35  C   UNL A   1      27.926  30.359  22.782  1.00  0.00     0.006 A 
ATOM     36  C   UNL A   1      28.283  31.397  23.654  1.00  0.00     0.009 A 
ATOM     37  C   UNL A   1      27.786  30.648  21.418  1.00  0.00     0.009 A 
ATOM     38  C   UNL A   1      28.577  32.670  23.159  1.00  0.00     0.001 A 
ATOM     39  C   UNL A   1      28.110  31.909  20.919  1.00  0.00     0.001 A 
ATOM     40  C   UNL A   1      28.515  32.917  21.790  1.00  0.00     0.000 A 
ENDBRANCH  34  35
ENDBRANCH  32  34
ENDBRANCH   8  26
ENDBRANCH   5   8
ENDBRANCH   3   4
ENDBRANCH   2   3
ENDBRANCH   1   2
BRANCH   1  41
ATOM     41  C   UNL A   1      34.603  31.520  27.689  1.00  0.00     0.002 C 
BRANCH  41  42
ATOM     42  C   UNL A   1      34.833  32.501  28.842  1.00  0.00     0.021 C 
BRANCH  42  43
ATOM     43  C   UNL A   1      36.223  32.426  29.460  1.00  0.00     0.116 C 
BRANCH  43  44
ATOM     44  N   UNL A   1      36.161  32.062  30.864  1.00  0.00    -0.352 N 
ATOM     45  C   UNL A   1      36.953  31.190  31.561  1.00  0.00     0.251 C 
ATOM     46  H   UNL A   1      35.453  32.503  31.387  1.00  0.00     0.163 HD
ATOM     47  O   UNL A   1      36.611  30.821  32.686  1.00  0.00    -0.269 OA
BRANCH  45  48
ATOM     48  C   UNL A   1      38.208  30.690  30.964  1.00  0.00     0.039 A 
ATOM     49  C   UNL A   1      39.232  30.259  31.811  1.00  0.00     0.014 A 
ATOM     50  C   UNL A   1      38.393  30.687  29.577  1.00  0.00     0.014 A 
ATOM     51  C   UNL A   1      40.435  29.810  31.266  1.00  0.00     0.010 A 
ATOM     52  C   UNL A   1      39.566  30.171  29.034  1.00  0.00     0.010 A 
ATOM     53  C   UNL A   1      40.609  29.756  29.873  1.00  0.00    -0.014 A 
BRANCH  53  54
ATOM     54  C   UNL A   1      41.900  29.322  29.286  1.00  0.00     0.031 A 
ATOM     55  C   UNL A   1      43.037  30.303  29.168  1.00  0.00     0.074 A 
ATOM     56  C   UNL A   1      42.039  28.062  28.830  1.00  0.00     0.049 A 
ATOM     57  N   UNL A   1      44.231  30.129  28.664  1.00  0.00    -0.248 NA
ATOM     58  C   UNL A   1      42.789  31.669  29.659  1.00  0.00     0.031 C 
ATOM     59  C   UNL A   1      40.993  27.038  28.843  1.00  0.00     0.029 A 
ATOM     60  N   UNL A   1      43.116  27.429  28.266  1.00  0.00    -0.354 N 
ATOM     61  C   UNL A   1      44.867  31.361  28.761  1.00  0.00     0.074 A 
ATOM     62  C   UNL A   1      43.909  32.289  29.320  1.00  0.00     0.031 C 
ATOM     63  C   UNL A   1      41.487  25.898  28.333  1.00  0.00     0.029 A 
ATOM     64  C   UNL A   1      42.875  26.117  27.934  1.00  0.00     0.049 A 
ATOM     65  H   UNL A   1      43.982  27.873  28.112  1.00  0.00     0.167 HD
ATOM     66  C   UNL A   1      46.142  31.685  28.439  1.00  0.00     0.037 A 
ATOM     67  C   UNL A   1      43.683  25.195  27.377  1.00  0.00     0.037 A 
ATOM     68  C   UNL A   1      47.101  30.746  27.916  1.00  0.00     0.049 A 
ATOM     69  C   UNL A   1      45.107  25.567  27.062  1.00  0.00     0.074 A 
ATOM     70  C   UNL A   1      48.432  30.956  27.606  1.00  0.00     0.029 A 
ATOM     71  N   UNL A   1      46.830  29.415  27.634  1.00  0.00    -0.354 N 
ATOM     72  N   UNL A   1      45.710  26.723  27.213  1.00  0.00    -0.248 NA
ATOM     73  C   UNL A   1      45.965  24.507  26.517  1.00  0.00     0.031 C 
ATOM     74  C   UNL A   1      48.958  29.760  27.106  1.00  0.00     0.029 A 
ATOM     75  C   UNL A   1      47.967  28.793  27.147  1.00  0.00     0.049 A 
ATOM     76  H   UNL A   1      45.957  28.977  27.761  1.00  0.00     0.167 HD
ATOM     77  C   UNL A   1      47.026  26.520  26.813  1.00  0.00     0.074 A 
ATOM     78  C   UNL A   1      47.132  25.129  26.422  1.00  0.00     0.031 C 
ATOM     79  C   UNL A   1      48.055  27.403  26.775  1.00  0.00     0.037 A 
BRANCH  66  80
ATOM     80  C   UNL A   1      46.574  33.110  28.651  1.00  0.00     0.058 A 
ATOM     81  C   UNL A   1      46.469  34.072  27.632  1.00  0.00     0.135 A 
ATOM     82  C   UNL A   1      47.081  33.527  29.892  1.00  0.00     0.135 A 
ATOM     83  F   UNL A   1      46.007  33.724  26.420  1.00  0.00    -0.206 F 
ATOM     84  C   UNL A   1      46.880  35.386  27.825  1.00  0.00     0.059 A 
ATOM     85  C   UNL A   1      47.473  34.844  30.116  1.00  0.00     0.059 A 
ATOM     86  F   UNL A   1      47.205  32.650  30.900  1.00  0.00    -0.206 F 
ATOM     87  C   UNL A   1      47.384  35.763  29.071  1.00  0.00     0.060 A 
BRANCH  87  88
ATOM     88  S   UNL A   1      47.918  37.471  29.306  1.00  0.00     0.124 S 
ATOM     89  O   UNL A   1      49.360  37.353  29.114  1.00  0.00    -0.237 OA
ATOM     90  O   UNL A   1      47.193  38.174  28.252  1.00  0.00    -0.237 OA
ATOM     91  O   UNL A   1      47.489  37.776  30.667  1.00  0.00    -0.744 OA
ENDBRANCH  87  88
ENDBRANCH  66  80
BRANCH  67  92
ATOM     92  C   UNL A   1      43.177  23.821  27.125  1.00  0.00     0.058 A 
ATOM     93  C   UNL A   1      43.135  22.867  28.152  1.00  0.00     0.135 A 
ATOM     94  C   UNL A   1      42.708  23.438  25.858  1.00  0.00     0.135 A 
ATOM     95  F   UNL A   1      43.574  23.184  29.379  1.00  0.00    -0.206 F 
ATOM     96  C   UNL A   1      42.665  21.576  27.931  1.00  0.00     0.059 A 
ATOM     97  C   UNL A   1      42.212  22.161  25.618  1.00  0.00     0.059 A 
ATOM     98  F   UNL A   1      42.708  24.321  24.847  1.00  0.00    -0.206 F 
ATOM     99  C   UNL A   1      42.204  21.234  26.658  1.00  0.00     0.060 A 
BRANCH  99 100
ATOM    100  S   UNL A   1      41.549  19.571  26.393  1.00  0.00     0.124 S 
ATOM    101  O   UNL A   1      42.332  19.128  25.246  1.00  0.00    -0.237 OA
ATOM    102  O   UNL A   1      41.848  18.917  27.663  1.00  0.00    -0.237 OA
ATOM    103  O   UNL A   1      40.131  19.807  26.138  1.00  0.00    -0.744 OA
ENDBRANCH  99 100
ENDBRANCH  67  92
BRANCH  79 104
ATOM    104  C   UNL A   1      49.396  26.880  26.342  1.00  0.00     0.058 A 
ATOM    105  C   UNL A   1      49.857  27.024  25.025  1.00  0.00     0.135 A 
ATOM    106  C   UNL A   1      50.246  26.258  27.271  1.00  0.00     0.135 A 
ATOM    107  F   UNL A   1      49.080  27.608  24.097  1.00  0.00    -0.206 F 
ATOM    108  C   UNL A   1      51.101  26.541  24.634  1.00  0.00     0.059 A 
ATOM    109  C   UNL A   1      51.506  25.792  26.910  1.00  0.00     0.059 A 
ATOM    110  F   UNL A   1      49.858  26.108  28.548  1.00  0.00    -0.206 F 
ATOM    111  C   UNL A   1      51.917  25.924  25.584  1.00  0.00     0.060 A 
BRANCH 111 112
ATOM    112  S   UNL A   1      53.537  25.315  25.072  1.00  0.00     0.124 S 
ATOM    113  O   UNL A   1      53.548  25.665  23.655  1.00  0.00    -0.237 OA
ATOM    114  O   UNL A   1      54.444  26.081  25.922  1.00  0.00    -0.237 OA
ATOM    115  O   UNL A   1      53.471  23.886  25.366  1.00  0.00    -0.744 OA
ENDBRANCH 111 112
ENDBRANCH  79 104
ENDBRANCH  53  54
ENDBRANCH  45  48
ENDBRANCH  43  44
ENDBRANCH  42  43
ENDBRANCH  41  42
ENDBRANCH   1  41
TORSDOF 22
ENDMDL
MODEL 2
REMARK VINA RESULT:     -11.0      1.268      1.971
REMARK SMILES CC(C)C(=O)Nc1ccc2c([C@@H](C(=O)NCCCCCCNC(=O)c3ccc(-c4c5nc(c(-c6c(F)cc(S(=O)(=O)[O-])cc6F)c6ccc([nH]6)c(-c6c(F)cc(S(=O)(=O)[O-])cc6F)c6nc(c(-c7c(F)cc(S(=O)(=O)[O-])cc7F)c7ccc4[nH]7)C=C6)C=C5)cc3)[NH+]3CC[NH+](Cc4ccccc4)CC3)c[nH]c2c1
REMARK SMILES IDX 18 1 17 2 16 3 15 4 13 5 14 6 12 8 11 9 7 10 8 11 107 12
REMARK SMILES IDX 9 13 106 14 10 15 105 16 104 17 6 19 4 20 5 21 2 23 1 24
REMARK SMILES IDX 3 25 91 26 92 27 103 28 93 30 102 31 94 32 95 34 96 35 97 36
REMARK SMILES IDX 101 37 98 38 100 39 99 40 19 41 20 42 21 43 22 44 23 45
REMARK SMILES IDX 24 47 25 48 26 49 90 50 27 51 89 52 28 53 29 54 30 55 83 56
REMARK SMILES IDX 31 57 88 58 82 59 84 60 32 61 87 62 81 63 80 64 33 66 67 67
REMARK SMILES IDX 46 68 66 69 47 70 50 71 65 72 85 73 48 74 49 75 64 77 86 78
REMARK SMILES IDX 51 79 34 80 35 81 44 82 36 83 37 84 43 85 45 86 38 87 39 88
REMARK SMILES IDX 40 89 41 90 42 91 68 92 69 93 78 94 70 95 71 96 77 97 79 98
REMARK SMILES IDX 72 99 73 100 74 101 75 102 76 103 52 104 53 105 62 106
REMARK SMILES IDX 54 107 55 108 61 109 63 110 56 111 57 112 58 113 59 114
REMARK SMILES IDX 60 115
REMARK H PARENT 15 7 105 18 6 22 91 29 94 33 22 46 84 65 50 76
REMARK Flexibility Score: inf
ROOT
ATOM      1  C   UNL A   1      34.345  28.879  26.780  1.00  0.00     0.002 C 
ENDROOT
BRANCH   1   2
ATOM      2  C   UNL A   1      34.357  28.047  25.493  1.00  0.00     0.021 C 
BRANCH   2   3
ATOM      3  C   UNL A   1      34.151  28.880  24.230  1.00  0.00     0.116 C 
BRANCH   3   4
ATOM      4  N   UNL A   1      34.166  28.044  23.056  1.00  0.00    -0.351 N 
ATOM      5  C   UNL A   1      33.558  26.841  22.841  1.00  0.00     0.283 C 
ATOM      6  O   UNL A   1      33.860  26.293  21.772  1.00  0.00    -0.268 OA
ATOM      7  H   UNL A   1      34.691  28.390  22.300  1.00  0.00     0.163 HD
BRANCH   5   8
ATOM      8  C   UNL A   1      32.463  26.298  23.820  1.00  0.00     0.308 C 
BRANCH   8   9
ATOM      9  C   UNL A   1      31.945  24.896  23.557  1.00  0.00     0.044 A 
ATOM     10  C   UNL A   1      32.724  21.145  25.305  1.00  0.00     0.043 A 
ATOM     11  C   UNL A   1      33.652  22.140  25.572  1.00  0.00     0.027 A 
ATOM     12  C   UNL A   1      31.733  21.347  24.339  1.00  0.00     0.052 A 
ATOM     13  C   UNL A   1      33.481  23.434  25.087  1.00  0.00     0.013 A 
ATOM     14  C   UNL A   1      31.603  22.641  23.812  1.00  0.00     0.048 A 
ATOM     15  C   UNL A   1      32.416  23.703  24.206  1.00  0.00     0.009 A 
ATOM     16  N   UNL A   1      30.712  23.143  22.898  1.00  0.00    -0.361 N 
ATOM     17  C   UNL A   1      30.930  24.482  22.711  1.00  0.00     0.094 A 
ATOM     18  H   UNL A   1      30.016  22.615  22.441  1.00  0.00     0.166 HD
BRANCH  10  19
ATOM     19  N   UNL A   1      32.764  19.925  25.982  1.00  0.00    -0.326 N 
ATOM     20  C   UNL A   1      32.970  18.661  25.502  1.00  0.00     0.226 C 
ATOM     21  O   UNL A   1      32.777  17.720  26.281  1.00  0.00    -0.274 OA
ATOM     22  H   UNL A   1      32.622  19.983  26.954  1.00  0.00     0.169 HD
BRANCH  20  23
ATOM     23  C   UNL A   1      33.549  18.366  24.105  1.00  0.00     0.072 C 
ATOM     24  C   UNL A   1      34.622  17.285  24.039  1.00  0.00     0.018 C 
ATOM     25  C   UNL A   1      32.487  18.209  23.017  1.00  0.00     0.018 C 
ENDBRANCH  20  23
ENDBRANCH  10  19
ENDBRANCH   8   9
BRANCH   8  26
ATOM     26  N   UNL A   1      31.329  27.223  23.899  1.00  0.00    -0.312 N 
ATOM     27  C   UNL A   1      31.172  28.232  22.866  1.00  0.00     0.325 C 
ATOM     28  C   UNL A   1      30.145  26.824  24.638  1.00  0.00     0.325 C 
ATOM     29  H   UNL A   1      31.746  27.816  24.617  1.00  0.00     0.349 HD
ATOM     30  C   UNL A   1      29.816  28.239  22.135  1.00  0.00     0.324 C 
ATOM     31  C   UNL A   1      28.805  26.903  23.866  1.00  0.00     0.324 C 
ATOM     32  N   UNL A   1      28.621  28.038  22.955  1.00  0.00    -0.322 N 
ATOM     33  H   UNL A   1      27.864  27.771  22.326  1.00  0.00     0.348 HD
BRANCH  32  34
ATOM     34  C   UNL A   1      28.039  29.255  23.531  1.00  0.00     0.299 C 
BRANCH  34  35
ATOM     35  C   UNL A   1      28.144  30.536  22.738  1.00  0.00     0.006 A 
ATOM     36  C   UNL A   1      27.988  30.525  21.345  1.00  0.00     0.009 A 
ATOM     37  C   UNL A   1      28.366  31.763  23.377  1.00  0.00     0.009 A 
ATOM     38  C   UNL A   1      27.968  31.720  20.623  1.00  0.00     0.001 A 
ATOM     39  C   UNL A   1      28.315  32.960  22.661  1.00  0.00     0.001 A 
ATOM     40  C   UNL A   1      28.106  32.937  21.285  1.00  0.00     0.000 A 
ENDBRANCH  34  35
ENDBRANCH  32  34
ENDBRANCH   8  26
ENDBRANCH   5   8
ENDBRANCH   3   4
ENDBRANCH   2   3
ENDBRANCH   1   2
BRANCH   1  41
ATOM     41  C   UNL A   1      33.132  29.798  26.931  1.00  0.00     0.002 C 
BRANCH  41  42
ATOM     42  C   UNL A   1      33.385  31.058  27.764  1.00  0.00     0.021 C 
BRANCH  42  43
ATOM     43  C   UNL A   1      34.788  31.151  28.347  1.00  0.00     0.116 C 
BRANCH  43  44
ATOM     44  N   UNL A   1      34.766  31.665  29.705  1.00  0.00    -0.352 N 
ATOM     45  C   UNL A   1      35.728  31.572  30.674  1.00  0.00     0.251 C 
ATOM     46  H   UNL A   1      33.948  32.147  29.964  1.00  0.00     0.163 HD
ATOM     47  O   UNL A   1      35.448  31.856  31.840  1.00  0.00    -0.269 OA
BRANCH  45  48
ATOM     48  C   UNL A   1      37.093  31.128  30.323  1.00  0.00     0.039 A 
ATOM     49  C   UNL A   1      37.807  30.356  31.242  1.00  0.00     0.014 A 
ATOM     50  C   UNL A   1      37.683  31.508  29.113  1.00  0.00     0.014 A 
ATOM     51  C   UNL A   1      39.108  29.952  30.940  1.00  0.00     0.010 A 
ATOM     52  C   UNL A   1      38.953  31.043  28.783  1.00  0.00     0.010 A 
ATOM     53  C   UNL A   1      39.688  30.286  29.706  1.00  0.00    -0.014 A 
BRANCH  53  54
ATOM     54  C   UNL A   1      41.086  29.899  29.394  1.00  0.00     0.031 A 
ATOM     55  C   UNL A   1      42.188  30.919  29.503  1.00  0.00     0.074 A 
ATOM     56  C   UNL A   1      41.358  28.645  28.983  1.00  0.00     0.049 A 
ATOM     57  N   UNL A   1      43.465  30.788  29.252  1.00  0.00    -0.248 NA
ATOM     58  C   UNL A   1      41.798  32.276  29.925  1.00  0.00     0.031 C 
ATOM     59  C   UNL A   1      40.367  27.584  28.790  1.00  0.00     0.029 A 
ATOM     60  N   UNL A   1      42.548  28.051  28.652  1.00  0.00    -0.354 N 
ATOM     61  C   UNL A   1      44.025  32.042  29.468  1.00  0.00     0.074 A 
ATOM     62  C   UNL A   1      42.942  32.935  29.816  1.00  0.00     0.031 C 
ATOM     63  C   UNL A   1      40.994  26.464  28.398  1.00  0.00     0.029 A 
ATOM     64  C   UNL A   1      42.424  26.731  28.287  1.00  0.00     0.049 A 
ATOM     65  H   UNL A   1      43.411  28.526  28.674  1.00  0.00     0.167 HD
ATOM     66  C   UNL A   1      45.327  32.411  29.408  1.00  0.00     0.037 A 
ATOM     67  C   UNL A   1      43.361  25.840  27.910  1.00  0.00     0.037 A 
ATOM     68  C   UNL A   1      46.403  31.507  29.096  1.00  0.00     0.049 A 
ATOM     69  C   UNL A   1      44.805  26.262  27.887  1.00  0.00     0.074 A 
ATOM     70  C   UNL A   1      47.762  31.765  29.060  1.00  0.00     0.029 A 
ATOM     71  N   UNL A   1      46.241  30.168  28.772  1.00  0.00    -0.354 N 
ATOM     72  N   UNL A   1      45.324  27.438  28.150  1.00  0.00    -0.248 NA
ATOM     73  C   UNL A   1      45.792  25.233  27.533  1.00  0.00     0.031 C 
ATOM     74  C   UNL A   1      48.420  30.588  28.684  1.00  0.00     0.029 A 
ATOM     75  C   UNL A   1      47.475  29.587  28.530  1.00  0.00     0.049 A 
ATOM     76  H   UNL A   1      45.377  29.699  28.723  1.00  0.00     0.167 HD
ATOM     77  C   UNL A   1      46.700  27.282  28.026  1.00  0.00     0.074 A 
ATOM     78  C   UNL A   1      46.932  25.897  27.672  1.00  0.00     0.031 C 
ATOM     79  C   UNL A   1      47.684  28.201  28.192  1.00  0.00     0.037 A 
BRANCH  66  80
ATOM     80  C   UNL A   1      45.657  33.850  29.695  1.00  0.00     0.058 A 
ATOM     81  C   UNL A   1      45.943  34.296  30.995  1.00  0.00     0.135 A 
ATOM     82  C   UNL A   1      45.708  34.793  28.655  1.00  0.00     0.135 A 
ATOM     83  F   UNL A   1      45.893  33.441  32.029  1.00  0.00    -0.206 F 
ATOM     84  C   UNL A   1      46.236  35.630  31.261  1.00  0.00     0.059 A 
ATOM     85  C   UNL A   1      46.026  36.127  28.894  1.00  0.00     0.059 A 
ATOM     86  F   UNL A   1      45.441  34.423  27.393  1.00  0.00    -0.206 F 
ATOM     87  C   UNL A   1      46.273  36.539  30.203  1.00  0.00     0.060 A 
BRANCH  87  88
ATOM     88  S   UNL A   1      46.650  38.268  30.562  1.00  0.00     0.124 S 
ATOM     89  O   UNL A   1      47.123  38.737  29.264  1.00  0.00    -0.237 OA
ATOM     90  O   UNL A   1      45.355  38.788  30.991  1.00  0.00    -0.237 OA
ATOM     91  O   UNL A   1      47.665  38.183  31.608  1.00  0.00    -0.744 OA
ENDBRANCH  87  88
ENDBRANCH  66  80
BRANCH  67  92
ATOM     92  C   UNL A   1      42.964  24.449  27.569  1.00  0.00     0.058 A 
ATOM     93  C   UNL A   1      42.637  24.093  26.252  1.00  0.00     0.135 A 
ATOM     94  C   UNL A   1      42.920  23.443  28.548  1.00  0.00     0.135 A 
ATOM     95  F   UNL A   1      42.662  25.019  25.282  1.00  0.00    -0.206 F 
ATOM     96  C   UNL A   1      42.263  22.795  25.918  1.00  0.00     0.059 A 
ATOM     97  C   UNL A   1      42.572  22.134  28.235  1.00  0.00     0.059 A 
ATOM     98  F   UNL A   1      43.244  23.728  29.818  1.00  0.00    -0.206 F 
ATOM     99  C   UNL A   1      42.235  21.821  26.918  1.00  0.00     0.060 A 
BRANCH  99 100
ATOM    100  S   UNL A   1      41.796  20.128  26.467  1.00  0.00     0.124 S 
ATOM    101  O   UNL A   1      42.686  19.887  25.337  1.00  0.00    -0.237 OA
ATOM    102  O   UNL A   1      42.103  19.394  27.691  1.00  0.00    -0.237 OA
ATOM    103  O   UNL A   1      40.376  20.226  26.145  1.00  0.00    -0.744 OA
ENDBRANCH  99 100
ENDBRANCH  67  92
BRANCH  79 104
ATOM    104  C   UNL A   1      49.103  27.726  28.042  1.00  0.00     0.058 A 
ATOM    105  C   UNL A   1      49.770  27.766  26.808  1.00  0.00     0.135 A 
ATOM    106  C   UNL A   1      49.813  27.260  29.159  1.00  0.00     0.135 A 
ATOM    107  F   UNL A   1      49.133  28.200  25.709  1.00  0.00    -0.206 F 
ATOM    108  C   UNL A   1      51.084  27.328  26.680  1.00  0.00     0.059 A 
ATOM    109  C   UNL A   1      51.137  26.843  29.060  1.00  0.00     0.059 A 
ATOM    110  F   UNL A   1      49.224  27.214  30.365  1.00  0.00    -0.206 F 
ATOM    111  C   UNL A   1      51.758  26.867  27.812  1.00  0.00     0.060 A 
BRANCH 111 112
ATOM    112  S   UNL A   1      53.469  26.316  27.640  1.00  0.00     0.124 S 
ATOM    113  O   UNL A   1      53.328  25.214  26.694  1.00  0.00    -0.237 OA
ATOM    114  O   UNL A   1      54.133  27.511  27.127  1.00  0.00    -0.237 OA
ATOM    115  O   UNL A   1      53.842  25.935  28.999  1.00  0.00    -0.744 OA
ENDBRANCH 111 112
ENDBRANCH  79 104
ENDBRANCH  53  54
ENDBRANCH  45  48
ENDBRANCH  43  44
ENDBRANCH  42  43
ENDBRANCH  41  42
ENDBRANCH   1  41
TORSDOF 22
ENDMDL
MODEL 3
REMARK VINA RESULT:     -10.4      2.726      3.630
REMARK SMILES CC(C)C(=O)Nc1ccc2c([C@@H](C(=O)NCCCCCCNC(=O)c3ccc(-c4c5nc(c(-c6c(F)cc(S(=O)(=O)[O-])cc6F)c6ccc([nH]6)c(-c6c(F)cc(S(=O)(=O)[O-])cc6F)c6nc(c(-c7c(F)cc(S(=O)(=O)[O-])cc7F)c7ccc4[nH]7)C=C6)C=C5)cc3)[NH+]3CC[NH+](Cc4ccccc4)CC3)c[nH]c2c1
REMARK SMILES IDX 18 1 17 2 16 3 15 4 13 5 14 6 12 8 11 9 7 10 8 11 107 12
REMARK SMILES IDX 9 13 106 14 10 15 105 16 104 17 6 19 4 20 5 21 2 23 1 24
REMARK SMILES IDX 3 25 91 26 92 27 103 28 93 30 102 31 94 32 95 34 96 35 97 36
REMARK SMILES IDX 101 37 98 38 100 39 99 40 19 41 20 42 21 43 22 44 23 45
REMARK SMILES IDX 24 47 25 48 26 49 90 50 27 51 89 52 28 53 29 54 30 55 83 56
REMARK SMILES IDX 31 57 88 58 82 59 84 60 32 61 87 62 81 63 80 64 33 66 67 67
REMARK SMILES IDX 46 68 66 69 47 70 50 71 65 72 85 73 48 74 49 75 64 77 86 78
REMARK SMILES IDX 51 79 34 80 35 81 44 82 36 83 37 84 43 85 45 86 38 87 39 88
REMARK SMILES IDX 40 89 41 90 42 91 68 92 69 93 78 94 70 95 71 96 77 97 79 98
REMARK SMILES IDX 72 99 73 100 74 101 75 102 76 103 52 104 53 105 62 106
REMARK SMILES IDX 54 107 55 108 61 109 63 110 56 111 57 112 58 113 59 114
REMARK SMILES IDX 60 115
REMARK H PARENT 15 7 105 18 6 22 91 29 94 33 22 46 84 65 50 76
REMARK Flexibility Score: inf
ROOT
ATOM      1  C   UNL A   1      34.203  29.035  26.714  1.00  0.00     0.002 C 
ENDROOT
BRANCH   1   2
ATOM      2  C   UNL A   1      34.478  28.228  25.441  1.00  0.00     0.021 C 
BRANCH   2   3
ATOM      3  C   UNL A   1      34.163  28.993  24.158  1.00  0.00     0.116 C 
BRANCH   3   4
ATOM      4  N   UNL A   1      34.245  28.125  23.010  1.00  0.00    -0.351 N 
ATOM      5  C   UNL A   1      33.688  26.894  22.812  1.00  0.00     0.283 C 
ATOM      6  O   UNL A   1      34.044  26.328  21.770  1.00  0.00    -0.268 OA
ATOM      7  H   UNL A   1      34.781  28.469  22.261  1.00  0.00     0.163 HD
BRANCH   5   8
ATOM      8  C   UNL A   1      32.583  26.339  23.773  1.00  0.00     0.308 C 
BRANCH   8   9
ATOM      9  C   UNL A   1      32.066  24.942  23.486  1.00  0.00     0.044 A 
ATOM     10  C   UNL A   1      32.719  21.187  25.277  1.00  0.00     0.043 A 
ATOM     11  C   UNL A   1      33.642  22.174  25.590  1.00  0.00     0.027 A 
ATOM     12  C   UNL A   1      31.781  21.396  24.261  1.00  0.00     0.052 A 
ATOM     13  C   UNL A   1      33.508  23.468  25.095  1.00  0.00     0.013 A 
ATOM     14  C   UNL A   1      31.691  22.691  23.726  1.00  0.00     0.048 A 
ATOM     15  C   UNL A   1      32.493  23.745  24.160  1.00  0.00     0.009 A 
ATOM     16  N   UNL A   1      30.852  23.199  22.767  1.00  0.00    -0.361 N 
ATOM     17  C   UNL A   1      31.092  24.535  22.590  1.00  0.00     0.094 A 
ATOM     18  H   UNL A   1      30.176  22.677  22.276  1.00  0.00     0.166 HD
BRANCH  10  19
ATOM     19  N   UNL A   1      32.714  19.968  25.956  1.00  0.00    -0.326 N 
ATOM     20  C   UNL A   1      32.908  18.698  25.485  1.00  0.00     0.226 C 
ATOM     21  O   UNL A   1      32.671  17.763  26.260  1.00  0.00    -0.274 OA
ATOM     22  H   UNL A   1      32.543  20.031  26.924  1.00  0.00     0.169 HD
BRANCH  20  23
ATOM     23  C   UNL A   1      33.524  18.389  24.107  1.00  0.00     0.072 C 
ATOM     24  C   UNL A   1      34.700  17.419  24.102  1.00  0.00     0.018 C 
ATOM     25  C   UNL A   1      32.491  18.068  23.028  1.00  0.00     0.018 C 
ENDBRANCH  20  23
ENDBRANCH  10  19
ENDBRANCH   8   9
BRANCH   8  26
ATOM     26  N   UNL A   1      31.450  27.265  23.854  1.00  0.00    -0.312 N 
ATOM     27  C   UNL A   1      31.299  28.283  22.829  1.00  0.00     0.325 C 
ATOM     28  C   UNL A   1      30.261  26.860  24.583  1.00  0.00     0.325 C 
ATOM     29  H   UNL A   1      31.863  27.851  24.579  1.00  0.00     0.349 HD
ATOM     30  C   UNL A   1      29.947  28.297  22.090  1.00  0.00     0.324 C 
ATOM     31  C   UNL A   1      28.926  26.947  23.804  1.00  0.00     0.324 C 
ATOM     32  N   UNL A   1      28.747  28.090  22.902  1.00  0.00    -0.322 N 
ATOM     33  H   UNL A   1      27.994  27.828  22.266  1.00  0.00     0.348 HD
BRANCH  32  34
ATOM     34  C   UNL A   1      28.163  29.302  23.484  1.00  0.00     0.299 C 
BRANCH  34  35
ATOM     35  C   UNL A   1      28.205  30.573  22.670  1.00  0.00     0.006 A 
ATOM     36  C   UNL A   1      27.898  30.552  21.302  1.00  0.00     0.009 A 
ATOM     37  C   UNL A   1      28.520  31.802  23.266  1.00  0.00     0.009 A 
ATOM     38  C   UNL A   1      27.822  31.740  20.573  1.00  0.00     0.001 A 
ATOM     39  C   UNL A   1      28.414  32.992  22.547  1.00  0.00     0.001 A 
ATOM     40  C   UNL A   1      28.056  32.961  21.202  1.00  0.00     0.000 A 
ENDBRANCH  34  35
ENDBRANCH  32  34
ENDBRANCH   8  26
ENDBRANCH   5   8
ENDBRANCH   3   4
ENDBRANCH   2   3
ENDBRANCH   1   2
BRANCH   1  41
ATOM     41  C   UNL A   1      32.815  29.677  26.772  1.00  0.00     0.002 C 
BRANCH  41  42
ATOM     42  C   UNL A   1      32.786  31.081  27.382  1.00  0.00     0.021 C 
BRANCH  42  43
ATOM     43  C   UNL A   1      34.085  31.496  28.059  1.00  0.00     0.116 C 
BRANCH  43  44
ATOM     44  N   UNL A   1      33.835  32.326  29.224  1.00  0.00    -0.352 N 
ATOM     45  C   UNL A   1      34.668  32.606  30.273  1.00  0.00     0.251 C 
ATOM     46  H   UNL A   1      32.946  32.745  29.265  1.00  0.00     0.163 HD
ATOM     47  O   UNL A   1      34.212  33.133  31.290  1.00  0.00    -0.269 OA
BRANCH  45  48
ATOM     48  C   UNL A   1      36.105  32.274  30.188  1.00  0.00     0.039 A 
ATOM     49  C   UNL A   1      36.692  31.550  31.229  1.00  0.00     0.014 A 
ATOM     50  C   UNL A   1      36.881  32.710  29.109  1.00  0.00     0.014 A 
ATOM     51  C   UNL A   1      38.054  31.251  31.179  1.00  0.00     0.010 A 
ATOM     52  C   UNL A   1      38.223  32.348  29.026  1.00  0.00     0.010 A 
ATOM     53  C   UNL A   1      38.828  31.641  30.074  1.00  0.00    -0.014 A 
BRANCH  53  54
ATOM     54  C   UNL A   1      40.285  31.366  30.033  1.00  0.00     0.031 A 
ATOM     55  C   UNL A   1      41.257  32.399  30.541  1.00  0.00     0.074 A 
ATOM     56  C   UNL A   1      40.734  30.209  29.511  1.00  0.00     0.049 A 
ATOM     57  N   UNL A   1      42.563  32.362  30.569  1.00  0.00    -0.248 NA
ATOM     58  C   UNL A   1      40.683  33.652  31.062  1.00  0.00     0.031 C 
ATOM     59  C   UNL A   1      39.892  29.155  28.942  1.00  0.00     0.029 A 
ATOM     60  N   UNL A   1      42.009  29.725  29.374  1.00  0.00    -0.354 N 
ATOM     61  C   UNL A   1      42.966  33.586  31.091  1.00  0.00     0.074 A 
ATOM     62  C   UNL A   1      41.769  34.366  31.315  1.00  0.00     0.031 C 
ATOM     63  C   UNL A   1      40.672  28.139  28.538  1.00  0.00     0.029 A 
ATOM     64  C   UNL A   1      42.068  28.479  28.796  1.00  0.00     0.049 A 
ATOM     65  H   UNL A   1      42.808  30.224  29.661  1.00  0.00     0.167 HD
ATOM     66  C   UNL A   1      44.218  34.011  31.385  1.00  0.00     0.037 A 
ATOM     67  C   UNL A   1      43.129  27.699  28.512  1.00  0.00     0.037 A 
ATOM     68  C   UNL A   1      45.402  33.214  31.192  1.00  0.00     0.049 A 
ATOM     69  C   UNL A   1      44.507  28.177  28.880  1.00  0.00     0.074 A 
ATOM     70  C   UNL A   1      46.713  33.529  31.505  1.00  0.00     0.029 A 
ATOM     71  N   UNL A   1      45.417  31.941  30.644  1.00  0.00    -0.354 N 
ATOM     72  N   UNL A   1      44.866  29.314  29.428  1.00  0.00    -0.248 NA
ATOM     73  C   UNL A   1      45.622  27.260  28.610  1.00  0.00     0.031 C 
ATOM     74  C   UNL A   1      47.524  32.457  31.116  1.00  0.00     0.029 A 
ATOM     75  C   UNL A   1      46.714  31.457  30.603  1.00  0.00     0.049 A 
ATOM     76  H   UNL A   1      44.622  31.452  30.330  1.00  0.00     0.167 HD
ATOM     77  C   UNL A   1      46.244  29.236  29.597  1.00  0.00     0.074 A 
ATOM     78  C   UNL A   1      46.651  27.937  29.101  1.00  0.00     0.031 C 
ATOM     79  C   UNL A   1      47.096  30.154  30.117  1.00  0.00     0.037 A 
BRANCH  66  80
ATOM     80  C   UNL A   1      44.369  35.397  31.951  1.00  0.00     0.058 A 
ATOM     81  C   UNL A   1      44.540  36.518  31.122  1.00  0.00     0.135 A 
ATOM     82  C   UNL A   1      44.321  35.612  33.338  1.00  0.00     0.135 A 
ATOM     83  F   UNL A   1      44.610  36.368  29.789  1.00  0.00    -0.206 F 
ATOM     84  C   UNL A   1      44.692  37.797  31.647  1.00  0.00     0.059 A 
ATOM     85  C   UNL A   1      44.442  36.887  33.884  1.00  0.00     0.059 A 
ATOM     86  F   UNL A   1      44.161  34.577  34.177  1.00  0.00    -0.206 F 
ATOM     87  C   UNL A   1      44.644  37.971  33.031  1.00  0.00     0.060 A 
BRANCH  87  88
ATOM     88  S   UNL A   1      44.845  39.636  33.699  1.00  0.00     0.124 S 
ATOM     89  O   UNL A   1      44.748  40.448  32.490  1.00  0.00    -0.237 OA
ATOM     90  O   UNL A   1      43.721  39.740  34.624  1.00  0.00    -0.237 OA
ATOM     91  O   UNL A   1      46.164  39.594  34.323  1.00  0.00    -0.744 OA
ENDBRANCH  87  88
ENDBRANCH  66  80
BRANCH  67  92
ATOM     92  C   UNL A   1      42.922  26.367  27.885  1.00  0.00     0.058 A 
ATOM     93  C   UNL A   1      42.716  26.243  26.503  1.00  0.00     0.135 A 
ATOM     94  C   UNL A   1      42.945  25.191  28.651  1.00  0.00     0.135 A 
ATOM     95  F   UNL A   1      42.684  27.339  25.730  1.00  0.00    -0.206 F 
ATOM     96  C   UNL A   1      42.520  25.003  25.903  1.00  0.00     0.059 A 
ATOM     97  C   UNL A   1      42.775  23.938  28.071  1.00  0.00     0.059 A 
ATOM     98  F   UNL A   1      43.160  25.254  29.974  1.00  0.00    -0.206 F 
ATOM     99  C   UNL A   1      42.552  23.855  26.697  1.00  0.00     0.060 A 
BRANCH  99 100
ATOM    100  S   UNL A   1      42.347  22.247  25.902  1.00  0.00     0.124 S 
ATOM    101  O   UNL A   1      42.916  22.496  24.583  1.00  0.00    -0.237 OA
ATOM    102  O   UNL A   1      43.121  21.370  26.776  1.00  0.00    -0.237 OA
ATOM    103  O   UNL A   1      40.902  22.037  25.939  1.00  0.00    -0.744 OA
ENDBRANCH  99 100
ENDBRANCH  67  92
BRANCH  79 104
ATOM    104  C   UNL A   1      48.545  29.768  30.224  1.00  0.00     0.058 A 
ATOM    105  C   UNL A   1      49.461  30.040  29.196  1.00  0.00     0.135 A 
ATOM    106  C   UNL A   1      49.028  29.150  31.388  1.00  0.00     0.135 A 
ATOM    107  F   UNL A   1      49.048  30.626  28.060  1.00  0.00    -0.206 F 
ATOM    108  C   UNL A   1      50.801  29.682  29.305  1.00  0.00     0.059 A 
ATOM    109  C   UNL A   1      50.368  28.808  31.531  1.00  0.00     0.059 A 
ATOM    110  F   UNL A   1      48.195  28.880  32.406  1.00  0.00    -0.206 F 
ATOM    111  C   UNL A   1      51.244  29.065  30.476  1.00  0.00     0.060 A 
BRANCH 111 112
ATOM    112  S   UNL A   1      52.988  28.619  30.616  1.00  0.00     0.124 S 
ATOM    113  O   UNL A   1      53.134  28.454  32.059  1.00  0.00    -0.237 OA
ATOM    114  O   UNL A   1      53.063  27.394  29.826  1.00  0.00    -0.237 OA
ATOM    115  O   UNL A   1      53.679  29.770  30.042  1.00  0.00    -0.744 OA
ENDBRANCH 111 112
ENDBRANCH  79 104
ENDBRANCH  53  54
ENDBRANCH  45  48
ENDBRANCH  43  44
ENDBRANCH  42  43
ENDBRANCH  41  42
ENDBRANCH   1  41
TORSDOF 22
ENDMDL
