MODEL 1
REMARK VINA RESULT:     -11.6      0.000      0.000
REMARK SMILES C[C@H]1CCCC[C@@]1(NC(=O)N[C@@H]1CCOC1)C(=O)NCCCCCCNC(=O)c1ccc(-c2c3nc(c(-c4c(F)cc(S(=O)(=O)[O-])cc4F)c4ccc([nH]4)c(-c4c(F)cc(S(=O)(=O)[O-])cc4F)c4nc(c(-c5c(F)cc(S(=O)(=O)[O-])cc5F)c5ccc2[nH]5)C=C4)C=C3)cc1
REMARK SMILES IDX 23 1 22 2 21 3 20 4 19 5 17 6 18 7 7 9 1 10 2 11 3 12 4 13
REMARK SMILES IDX 6 14 5 15 8 16 9 17 10 19 11 20 12 22 13 23 16 24 14 25
REMARK SMILES IDX 15 26 24 27 25 28 26 29 27 30 28 32 29 33 30 34 94 35 31 36
REMARK SMILES IDX 93 37 32 38 33 39 34 40 87 41 35 42 92 43 86 44 88 45 36 46
REMARK SMILES IDX 91 47 85 48 84 49 37 51 71 52 50 53 70 54 51 55 54 56 69 57
REMARK SMILES IDX 89 58 52 59 53 60 68 62 90 63 55 64 38 65 39 66 48 67 40 68
REMARK SMILES IDX 41 69 47 70 49 71 42 72 43 73 44 74 45 75 46 76 72 77 73 78
REMARK SMILES IDX 82 79 74 80 75 81 81 82 83 83 76 84 77 85 78 86 79 87 80 88
REMARK SMILES IDX 56 89 57 90 66 91 58 92 59 93 65 94 67 95 60 96 61 97 62 98
REMARK SMILES IDX 63 99 64 100
REMARK H PARENT 19 8 8 18 11 21 26 31 88 50 54 61
REMARK Flexibility Score: inf
ROOT
ATOM      1  C   UNL A   1      32.936  30.049  26.842  1.00  0.00     0.002 C 
ENDROOT
BRANCH   1   2
ATOM      2  C   UNL A   1      32.126  29.645  25.606  1.00  0.00     0.002 C 
BRANCH   2   3
ATOM      3  C   UNL A   1      32.940  29.362  24.338  1.00  0.00     0.021 C 
BRANCH   3   4
ATOM      4  C   UNL A   1      32.199  28.609  23.240  1.00  0.00     0.116 C 
BRANCH   4   5
ATOM      5  N   UNL A   1      33.033  27.795  22.403  1.00  0.00    -0.354 N 
ATOM      6  C   UNL A   1      33.177  26.453  22.310  1.00  0.00     0.246 C 
ATOM      7  O   UNL A   1      33.367  26.065  21.144  1.00  0.00    -0.272 OA
ATOM      8  H   UNL A   1      33.605  28.307  21.786  1.00  0.00     0.163 HD
BRANCH   6   9
ATOM      9  C   UNL A   1      33.149  25.397  23.466  1.00  0.00     0.123 C 
ATOM     10  C   UNL A   1      33.880  26.277  25.834  1.00  0.00     0.011 C 
ATOM     11  C   UNL A   1      32.816  25.593  24.975  1.00  0.00     0.021 C 
ATOM     12  C   UNL A   1      31.403  26.090  25.322  1.00  0.00     0.006 C 
ATOM     13  C   UNL A   1      30.267  25.568  24.434  1.00  0.00     0.000 C 
ATOM     14  C   UNL A   1      32.009  24.438  22.965  1.00  0.00     0.039 C 
ATOM     15  C   UNL A   1      30.645  25.123  23.024  1.00  0.00     0.003 C 
BRANCH   9  16
ATOM     16  N   UNL A   1      34.446  24.621  23.370  1.00  0.00    -0.323 N 
ATOM     17  C   UNL A   1      34.840  23.343  23.315  1.00  0.00     0.315 C 
ATOM     18  H   UNL A   1      35.219  25.230  23.339  1.00  0.00     0.166 HD
ATOM     19  O   UNL A   1      35.902  23.113  22.724  1.00  0.00    -0.249 OA
ATOM     20  N   UNL A   1      34.216  22.288  23.853  1.00  0.00    -0.333 N 
ATOM     21  H   UNL A   1      34.550  21.425  23.516  1.00  0.00     0.165 HD
BRANCH  20  22
ATOM     22  C   UNL A   1      33.149  22.146  24.833  1.00  0.00     0.112 C 
ATOM     23  C   UNL A   1      33.617  22.456  26.240  1.00  0.00     0.056 C 
ATOM     24  C   UNL A   1      32.592  20.729  24.972  1.00  0.00     0.185 C 
ATOM     25  C   UNL A   1      33.844  21.117  26.897  1.00  0.00     0.162 C 
ATOM     26  O   UNL A   1      33.111  20.136  26.168  1.00  0.00    -0.379 OA
ENDBRANCH  20  22
ENDBRANCH   9  16
ENDBRANCH   6   9
ENDBRANCH   4   5
ENDBRANCH   3   4
ENDBRANCH   2   3
ENDBRANCH   1   2
BRANCH   1  27
ATOM     27  C   UNL A   1      34.452  29.866  26.725  1.00  0.00     0.021 C 
BRANCH  27  28
ATOM     28  C   UNL A   1      35.125  29.393  28.002  1.00  0.00     0.116 C 
BRANCH  28  29
ATOM     29  N   UNL A   1      35.176  30.447  28.998  1.00  0.00    -0.352 N 
ATOM     30  C   UNL A   1      36.222  30.782  29.826  1.00  0.00     0.251 C 
ATOM     31  H   UNL A   1      34.360  30.991  29.093  1.00  0.00     0.163 HD
ATOM     32  O   UNL A   1      36.051  31.516  30.785  1.00  0.00    -0.269 OA
BRANCH  30  33
ATOM     33  C   UNL A   1      37.557  30.219  29.530  1.00  0.00     0.039 A 
ATOM     34  C   UNL A   1      37.999  30.152  28.208  1.00  0.00     0.014 A 
ATOM     35  C   UNL A   1      38.381  29.803  30.579  1.00  0.00     0.014 A 
ATOM     36  C   UNL A   1      39.297  29.712  27.940  1.00  0.00     0.010 A 
ATOM     37  C   UNL A   1      39.696  29.448  30.318  1.00  0.00     0.010 A 
ATOM     38  C   UNL A   1      40.165  29.385  28.996  1.00  0.00    -0.014 A 
BRANCH  38  39
ATOM     39  C   UNL A   1      41.560  28.938  28.765  1.00  0.00     0.031 A 
ATOM     40  C   UNL A   1      42.665  29.959  28.778  1.00  0.00     0.074 A 
ATOM     41  C   UNL A   1      41.817  27.658  28.435  1.00  0.00     0.049 A 
ATOM     42  N   UNL A   1      43.916  29.830  28.423  1.00  0.00    -0.248 NA
ATOM     43  C   UNL A   1      42.301  31.317  29.214  1.00  0.00     0.031 C 
ATOM     44  C   UNL A   1      40.823  26.586  28.359  1.00  0.00     0.029 A 
ATOM     45  N   UNL A   1      42.992  27.048  28.070  1.00  0.00    -0.354 N 
ATOM     46  C   UNL A   1      44.477  31.095  28.558  1.00  0.00     0.074 A 
ATOM     47  C   UNL A   1      43.419  31.985  28.979  1.00  0.00     0.031 C 
ATOM     48  C   UNL A   1      41.430  25.452  27.976  1.00  0.00     0.029 A 
ATOM     49  C   UNL A   1      42.842  25.725  27.729  1.00  0.00     0.049 A 
ATOM     50  H   UNL A   1      43.858  27.514  28.054  1.00  0.00     0.167 HD
ATOM     51  C   UNL A   1      45.763  31.473  28.363  1.00  0.00     0.037 A 
ATOM     52  C   UNL A   1      43.737  24.839  27.247  1.00  0.00     0.037 A 
ATOM     53  C   UNL A   1      46.809  30.569  27.969  1.00  0.00     0.049 A 
ATOM     54  C   UNL A   1      45.161  25.278  27.033  1.00  0.00     0.074 A 
ATOM     55  C   UNL A   1      48.157  30.834  27.802  1.00  0.00     0.029 A 
ATOM     56  N   UNL A   1      46.626  29.224  27.675  1.00  0.00    -0.354 N 
ATOM     57  N   UNL A   1      45.690  26.466  27.212  1.00  0.00    -0.248 NA
ATOM     58  C   UNL A   1      46.110  24.263  26.559  1.00  0.00     0.031 C 
ATOM     59  C   UNL A   1      48.778  29.664  27.354  1.00  0.00     0.029 A 
ATOM     60  C   UNL A   1      47.831  28.653  27.308  1.00  0.00     0.049 A 
ATOM     61  H   UNL A   1      45.765  28.748  27.723  1.00  0.00     0.167 HD
ATOM     62  C   UNL A   1      47.040  26.331  26.910  1.00  0.00     0.074 A 
ATOM     63  C   UNL A   1      47.247  24.949  26.532  1.00  0.00     0.031 C 
ATOM     64  C   UNL A   1      48.022  27.266  26.955  1.00  0.00     0.037 A 
BRANCH  51  65
ATOM     65  C   UNL A   1      46.097  32.927  28.558  1.00  0.00     0.058 A 
ATOM     66  C   UNL A   1      46.045  33.850  27.501  1.00  0.00     0.135 A 
ATOM     67  C   UNL A   1      46.470  33.407  29.824  1.00  0.00     0.135 A 
ATOM     68  F   UNL A   1      45.709  33.447  26.265  1.00  0.00    -0.206 F 
ATOM     69  C   UNL A   1      46.396  35.185  27.681  1.00  0.00     0.059 A 
ATOM     70  C   UNL A   1      46.790  34.745  30.036  1.00  0.00     0.059 A 
ATOM     71  F   UNL A   1      46.536  32.571  30.872  1.00  0.00    -0.206 F 
ATOM     72  C   UNL A   1      46.771  35.622  28.952  1.00  0.00     0.060 A 
BRANCH  72  73
ATOM     73  S   UNL A   1      47.243  37.350  29.165  1.00  0.00     0.124 S 
ATOM     74  O   UNL A   1      45.938  38.003  29.215  1.00  0.00    -0.237 OA
ATOM     75  O   UNL A   1      47.983  37.318  30.423  1.00  0.00    -0.237 OA
ATOM     76  O   UNL A   1      48.042  37.635  27.977  1.00  0.00    -0.744 OA
ENDBRANCH  72  73
ENDBRANCH  51  65
BRANCH  52  77
ATOM     77  C   UNL A   1      43.306  23.446  26.953  1.00  0.00     0.058 A 
ATOM     78  C   UNL A   1      43.132  23.009  25.632  1.00  0.00     0.135 A 
ATOM     79  C   UNL A   1      43.106  22.511  27.982  1.00  0.00     0.135 A 
ATOM     80  F   UNL A   1      43.305  23.865  24.614  1.00  0.00    -0.206 F 
ATOM     81  C   UNL A   1      42.774  21.697  25.339  1.00  0.00     0.059 A 
ATOM     82  C   UNL A   1      42.773  21.187  27.713  1.00  0.00     0.059 A 
ATOM     83  F   UNL A   1      43.276  22.875  29.262  1.00  0.00    -0.206 F 
ATOM     84  C   UNL A   1      42.606  20.791  26.388  1.00  0.00     0.060 A 
BRANCH  84  85
ATOM     85  S   UNL A   1      42.217  19.071  25.991  1.00  0.00     0.124 S 
ATOM     86  O   UNL A   1      42.579  18.395  27.231  1.00  0.00    -0.237 OA
ATOM     87  O   UNL A   1      40.790  19.143  25.694  1.00  0.00    -0.237 OA
ATOM     88  O   UNL A   1      43.074  18.790  24.845  1.00  0.00    -0.744 OA
ENDBRANCH  84  85
ENDBRANCH  52  77
BRANCH  64  89
ATOM     89  C   UNL A   1      49.428  26.828  26.650  1.00  0.00     0.058 A 
ATOM     90  C   UNL A   1      50.262  26.267  27.628  1.00  0.00     0.135 A 
ATOM     91  C   UNL A   1      49.903  26.872  25.328  1.00  0.00     0.135 A 
ATOM     92  F   UNL A   1      49.861  26.209  28.907  1.00  0.00    -0.206 F 
ATOM     93  C   UNL A   1      51.520  25.766  27.306  1.00  0.00     0.059 A 
ATOM     94  C   UNL A   1      51.144  26.351  24.979  1.00  0.00     0.059 A 
ATOM     95  F   UNL A   1      49.140  27.392  24.353  1.00  0.00    -0.206 F 
ATOM     96  C   UNL A   1      51.946  25.801  25.977  1.00  0.00     0.060 A 
BRANCH  96  97
ATOM     97  S   UNL A   1      53.546  25.074  25.562  1.00  0.00     0.124 S 
ATOM     98  O   UNL A   1      53.185  23.679  25.331  1.00  0.00    -0.237 OA
ATOM     99  O   UNL A   1      53.935  25.834  24.379  1.00  0.00    -0.237 OA
ATOM    100  O   UNL A   1      54.353  25.324  26.753  1.00  0.00    -0.744 OA
ENDBRANCH  96  97
ENDBRANCH  64  89
ENDBRANCH  38  39
ENDBRANCH  30  33
ENDBRANCH  28  29
ENDBRANCH  27  28
ENDBRANCH   1  27
TORSDOF 18
ENDMDL
MODEL 2
REMARK VINA RESULT:     -11.6      6.350     11.743
REMARK SMILES C[C@H]1CCCC[C@@]1(NC(=O)N[C@@H]1CCOC1)C(=O)NCCCCCCNC(=O)c1ccc(-c2c3nc(c(-c4c(F)cc(S(=O)(=O)[O-])cc4F)c4ccc([nH]4)c(-c4c(F)cc(S(=O)(=O)[O-])cc4F)c4nc(c(-c5c(F)cc(S(=O)(=O)[O-])cc5F)c5ccc2[nH]5)C=C4)C=C3)cc1
REMARK SMILES IDX 23 1 22 2 21 3 20 4 19 5 17 6 18 7 7 9 1 10 2 11 3 12 4 13
REMARK SMILES IDX 6 14 5 15 8 16 9 17 10 19 11 20 12 22 13 23 16 24 14 25
REMARK SMILES IDX 15 26 24 27 25 28 26 29 27 30 28 32 29 33 30 34 94 35 31 36
REMARK SMILES IDX 93 37 32 38 33 39 34 40 87 41 35 42 92 43 86 44 88 45 36 46
REMARK SMILES IDX 91 47 85 48 84 49 37 51 71 52 50 53 70 54 51 55 54 56 69 57
REMARK SMILES IDX 89 58 52 59 53 60 68 62 90 63 55 64 38 65 39 66 48 67 40 68
REMARK SMILES IDX 41 69 47 70 49 71 42 72 43 73 44 74 45 75 46 76 72 77 73 78
REMARK SMILES IDX 82 79 74 80 75 81 81 82 83 83 76 84 77 85 78 86 79 87 80 88
REMARK SMILES IDX 56 89 57 90 66 91 58 92 59 93 65 94 67 95 60 96 61 97 62 98
REMARK SMILES IDX 63 99 64 100
REMARK H PARENT 19 8 8 18 11 21 26 31 88 50 54 61
REMARK Flexibility Score: inf
ROOT
ATOM      1  C   UNL A   1      37.642  22.444  24.923  1.00  0.00     0.002 C 
ENDROOT
BRANCH   1   2
ATOM      2  C   UNL A   1      36.918  21.248  25.549  1.00  0.00     0.002 C 
BRANCH   2   3
ATOM      3  C   UNL A   1      35.392  21.244  25.410  1.00  0.00     0.021 C 
BRANCH   3   4
ATOM      4  C   UNL A   1      34.623  21.751  26.624  1.00  0.00     0.116 C 
BRANCH   4   5
ATOM      5  N   UNL A   1      33.204  21.549  26.562  1.00  0.00    -0.354 N 
ATOM      6  C   UNL A   1      32.258  22.061  25.741  1.00  0.00     0.246 C 
ATOM      7  O   UNL A   1      31.365  21.243  25.460  1.00  0.00    -0.272 OA
ATOM      8  H   UNL A   1      32.856  20.926  27.240  1.00  0.00     0.163 HD
BRANCH   6   9
ATOM      9  C   UNL A   1      32.170  23.510  25.155  1.00  0.00     0.123 C 
ATOM     10  C   UNL A   1      34.091  25.154  25.883  1.00  0.00     0.011 C 
ATOM     11  C   UNL A   1      33.318  24.482  24.747  1.00  0.00     0.021 C 
ATOM     12  C   UNL A   1      34.255  24.025  23.618  1.00  0.00     0.006 C 
ATOM     13  C   UNL A   1      33.606  23.221  22.485  1.00  0.00     0.000 C 
ATOM     14  C   UNL A   1      31.427  23.238  23.797  1.00  0.00     0.039 C 
ATOM     15  C   UNL A   1      32.320  22.473  22.822  1.00  0.00     0.003 C 
BRANCH   9  16
ATOM     16  N   UNL A   1      31.204  24.273  26.037  1.00  0.00    -0.323 N 
ATOM     17  C   UNL A   1      30.287  25.240  25.907  1.00  0.00     0.315 C 
ATOM     18  H   UNL A   1      31.268  23.971  26.972  1.00  0.00     0.166 HD
ATOM     19  O   UNL A   1      29.352  25.231  26.716  1.00  0.00    -0.249 OA
ATOM     20  N   UNL A   1      30.289  26.229  25.005  1.00  0.00    -0.333 N 
ATOM     21  H   UNL A   1      29.425  26.697  24.941  1.00  0.00     0.165 HD
BRANCH  20  22
ATOM     22  C   UNL A   1      31.298  26.761  24.101  1.00  0.00     0.112 C 
ATOM     23  C   UNL A   1      31.355  28.275  24.132  1.00  0.00     0.056 C 
ATOM     24  C   UNL A   1      31.050  26.467  22.622  1.00  0.00     0.185 C 
ATOM     25  C   UNL A   1      30.602  28.735  22.909  1.00  0.00     0.162 C 
ATOM     26  O   UNL A   1      30.552  27.650  21.985  1.00  0.00    -0.379 OA
ENDBRANCH  20  22
ENDBRANCH   9  16
ENDBRANCH   6   9
ENDBRANCH   4   5
ENDBRANCH   3   4
ENDBRANCH   2   3
ENDBRANCH   1   2
BRANCH   1  27
ATOM     27  C   UNL A   1      37.448  23.782  25.641  1.00  0.00     0.021 C 
BRANCH  27  28
ATOM     28  C   UNL A   1      38.533  24.113  26.652  1.00  0.00     0.116 C 
BRANCH  28  29
ATOM     29  N   UNL A   1      39.854  23.809  26.131  1.00  0.00    -0.352 N 
ATOM     30  C   UNL A   1      41.032  24.479  26.364  1.00  0.00     0.251 C 
ATOM     31  H   UNL A   1      39.914  23.025  25.538  1.00  0.00     0.163 HD
ATOM     32  O   UNL A   1      42.015  24.276  25.671  1.00  0.00    -0.269 OA
BRANCH  30  33
ATOM     33  C   UNL A   1      41.072  25.463  27.468  1.00  0.00     0.039 A 
ATOM     34  C   UNL A   1      42.076  26.432  27.490  1.00  0.00     0.014 A 
ATOM     35  C   UNL A   1      40.079  25.441  28.451  1.00  0.00     0.014 A 
ATOM     36  C   UNL A   1      42.053  27.420  28.478  1.00  0.00     0.010 A 
ATOM     37  C   UNL A   1      40.011  26.470  29.379  1.00  0.00     0.010 A 
ATOM     38  C   UNL A   1      41.004  27.462  29.411  1.00  0.00    -0.014 A 
BRANCH  38  39
ATOM     39  C   UNL A   1      40.922  28.505  30.463  1.00  0.00     0.031 A 
ATOM     40  C   UNL A   1      41.807  28.391  31.674  1.00  0.00     0.074 A 
ATOM     41  C   UNL A   1      39.989  29.473  30.388  1.00  0.00     0.049 A 
ATOM     42  N   UNL A   1      41.777  29.072  32.789  1.00  0.00    -0.248 NA
ATOM     43  C   UNL A   1      42.839  27.343  31.638  1.00  0.00     0.031 C 
ATOM     44  C   UNL A   1      39.054  29.665  29.278  1.00  0.00     0.029 A 
ATOM     45  N   UNL A   1      39.653  30.461  31.281  1.00  0.00    -0.354 N 
ATOM     46  C   UNL A   1      42.759  28.512  33.598  1.00  0.00     0.074 A 
ATOM     47  C   UNL A   1      43.331  27.405  32.865  1.00  0.00     0.031 C 
ATOM     48  C   UNL A   1      38.254  30.708  29.555  1.00  0.00     0.029 A 
ATOM     49  C   UNL A   1      38.582  31.225  30.880  1.00  0.00     0.049 A 
ATOM     50  H   UNL A   1      40.132  30.607  32.128  1.00  0.00     0.167 HD
ATOM     51  C   UNL A   1      43.157  28.898  34.833  1.00  0.00     0.037 A 
ATOM     52  C   UNL A   1      37.924  32.212  31.519  1.00  0.00     0.037 A 
ATOM     53  C   UNL A   1      42.594  30.018  35.538  1.00  0.00     0.049 A 
ATOM     54  C   UNL A   1      38.377  32.625  32.893  1.00  0.00     0.074 A 
ATOM     55  C   UNL A   1      42.963  30.533  36.768  1.00  0.00     0.029 A 
ATOM     56  N   UNL A   1      41.539  30.795  35.079  1.00  0.00    -0.354 N 
ATOM     57  N   UNL A   1      39.340  32.120  33.627  1.00  0.00    -0.248 NA
ATOM     58  C   UNL A   1      37.663  33.742  33.526  1.00  0.00     0.031 C 
ATOM     59  C   UNL A   1      42.096  31.585  37.077  1.00  0.00     0.029 A 
ATOM     60  C   UNL A   1      41.231  31.771  36.010  1.00  0.00     0.049 A 
ATOM     61  H   UNL A   1      41.079  30.670  34.216  1.00  0.00     0.167 HD
ATOM     62  C   UNL A   1      39.373  32.881  34.790  1.00  0.00     0.074 A 
ATOM     63  C   UNL A   1      38.330  33.878  34.665  1.00  0.00     0.031 C 
ATOM     64  C   UNL A   1      40.202  32.771  35.859  1.00  0.00     0.037 A 
BRANCH  51  65
ATOM     65  C   UNL A   1      44.237  28.091  35.501  1.00  0.00     0.058 A 
ATOM     66  C   UNL A   1      43.948  26.944  36.259  1.00  0.00     0.135 A 
ATOM     67  C   UNL A   1      45.585  28.466  35.374  1.00  0.00     0.135 A 
ATOM     68  F   UNL A   1      42.677  26.546  36.427  1.00  0.00    -0.206 F 
ATOM     69  C   UNL A   1      44.950  26.228  36.907  1.00  0.00     0.059 A 
ATOM     70  C   UNL A   1      46.607  27.743  35.983  1.00  0.00     0.059 A 
ATOM     71  F   UNL A   1      45.921  29.552  34.660  1.00  0.00    -0.206 F 
ATOM     72  C   UNL A   1      46.277  26.638  36.766  1.00  0.00     0.060 A 
BRANCH  72  73
ATOM     73  S   UNL A   1      47.562  25.711  37.628  1.00  0.00     0.124 S 
ATOM     74  O   UNL A   1      47.667  26.456  38.879  1.00  0.00    -0.237 OA
ATOM     75  O   UNL A   1      46.971  24.381  37.731  1.00  0.00    -0.237 OA
ATOM     76  O   UNL A   1      48.714  25.816  36.738  1.00  0.00    -0.744 OA
ENDBRANCH  72  73
ENDBRANCH  51  65
BRANCH  52  77
ATOM     77  C   UNL A   1      36.777  32.883  30.849  1.00  0.00     0.058 A 
ATOM     78  C   UNL A   1      35.455  32.590  31.216  1.00  0.00     0.135 A 
ATOM     79  C   UNL A   1      36.979  33.864  29.865  1.00  0.00     0.135 A 
ATOM     80  F   UNL A   1      35.210  31.655  32.146  1.00  0.00    -0.206 F 
ATOM     81  C   UNL A   1      34.375  33.242  30.631  1.00  0.00     0.059 A 
ATOM     82  C   UNL A   1      35.915  34.548  29.284  1.00  0.00     0.059 A 
ATOM     83  F   UNL A   1      38.225  34.194  29.490  1.00  0.00    -0.206 F 
ATOM     84  C   UNL A   1      34.616  34.227  29.672  1.00  0.00     0.060 A 
BRANCH  84  85
ATOM     85  S   UNL A   1      33.208  35.121  28.977  1.00  0.00     0.124 S 
ATOM     86  O   UNL A   1      32.688  34.152  28.020  1.00  0.00    -0.237 OA
ATOM     87  O   UNL A   1      32.386  35.358  30.160  1.00  0.00    -0.237 OA
ATOM     88  O   UNL A   1      33.820  36.314  28.401  1.00  0.00    -0.744 OA
ENDBRANCH  84  85
ENDBRANCH  52  77
BRANCH  64  89
ATOM     89  C   UNL A   1      40.070  33.786  36.961  1.00  0.00     0.058 A 
ATOM     90  C   UNL A   1      40.800  34.985  36.960  1.00  0.00     0.135 A 
ATOM     91  C   UNL A   1      39.114  33.599  37.973  1.00  0.00     0.135 A 
ATOM     92  F   UNL A   1      41.731  35.210  36.020  1.00  0.00    -0.206 F 
ATOM     93  C   UNL A   1      40.586  35.962  37.927  1.00  0.00     0.059 A 
ATOM     94  C   UNL A   1      38.865  34.575  38.932  1.00  0.00     0.059 A 
ATOM     95  F   UNL A   1      38.385  32.473  38.014  1.00  0.00    -0.206 F 
ATOM     96  C   UNL A   1      39.608  35.753  38.901  1.00  0.00     0.060 A 
BRANCH  96  97
ATOM     97  S   UNL A   1      39.287  37.064  40.101  1.00  0.00     0.124 S 
ATOM     98  O   UNL A   1      38.540  38.024  39.295  1.00  0.00    -0.237 OA
ATOM     99  O   UNL A   1      38.522  36.365  41.128  1.00  0.00    -0.237 OA
ATOM    100  O   UNL A   1      40.624  37.491  40.505  1.00  0.00    -0.744 OA
ENDBRANCH  96  97
ENDBRANCH  64  89
ENDBRANCH  38  39
ENDBRANCH  30  33
ENDBRANCH  28  29
ENDBRANCH  27  28
ENDBRANCH   1  27
TORSDOF 18
ENDMDL
MODEL 3
REMARK VINA RESULT:     -11.4      2.417      8.443
REMARK SMILES C[C@H]1CCCC[C@@]1(NC(=O)N[C@@H]1CCOC1)C(=O)NCCCCCCNC(=O)c1ccc(-c2c3nc(c(-c4c(F)cc(S(=O)(=O)[O-])cc4F)c4ccc([nH]4)c(-c4c(F)cc(S(=O)(=O)[O-])cc4F)c4nc(c(-c5c(F)cc(S(=O)(=O)[O-])cc5F)c5ccc2[nH]5)C=C4)C=C3)cc1
REMARK SMILES IDX 23 1 22 2 21 3 20 4 19 5 17 6 18 7 7 9 1 10 2 11 3 12 4 13
REMARK SMILES IDX 6 14 5 15 8 16 9 17 10 19 11 20 12 22 13 23 16 24 14 25
REMARK SMILES IDX 15 26 24 27 25 28 26 29 27 30 28 32 29 33 30 34 94 35 31 36
REMARK SMILES IDX 93 37 32 38 33 39 34 40 87 41 35 42 92 43 86 44 88 45 36 46
REMARK SMILES IDX 91 47 85 48 84 49 37 51 71 52 50 53 70 54 51 55 54 56 69 57
REMARK SMILES IDX 89 58 52 59 53 60 68 62 90 63 55 64 38 65 39 66 48 67 40 68
REMARK SMILES IDX 41 69 47 70 49 71 42 72 43 73 44 74 45 75 46 76 72 77 73 78
REMARK SMILES IDX 82 79 74 80 75 81 81 82 83 83 76 84 77 85 78 86 79 87 80 88
REMARK SMILES IDX 56 89 57 90 66 91 58 92 59 93 65 94 67 95 60 96 61 97 62 98
REMARK SMILES IDX 63 99 64 100
REMARK H PARENT 19 8 8 18 11 21 26 31 88 50 54 61
REMARK Flexibility Score: inf
ROOT
ATOM      1  C   UNL A   1      37.381  21.197  24.530  1.00  0.00     0.002 C 
ENDROOT
BRANCH   1   2
ATOM      2  C   UNL A   1      36.996  22.220  25.602  1.00  0.00     0.002 C 
BRANCH   2   3
ATOM      3  C   UNL A   1      35.658  21.975  26.307  1.00  0.00     0.021 C 
BRANCH   3   4
ATOM      4  C   UNL A   1      34.584  21.306  25.458  1.00  0.00     0.116 C 
BRANCH   4   5
ATOM      5  N   UNL A   1      33.257  21.385  25.997  1.00  0.00    -0.354 N 
ATOM      6  C   UNL A   1      32.170  22.094  25.612  1.00  0.00     0.246 C 
ATOM      7  O   UNL A   1      31.105  21.473  25.768  1.00  0.00    -0.272 OA
ATOM      8  H   UNL A   1      33.110  20.821  26.791  1.00  0.00     0.163 HD
BRANCH   6   9
ATOM      9  C   UNL A   1      32.122  23.550  25.038  1.00  0.00     0.123 C 
ATOM     10  C   UNL A   1      34.082  25.137  25.787  1.00  0.00     0.011 C 
ATOM     11  C   UNL A   1      33.296  24.495  24.643  1.00  0.00     0.021 C 
ATOM     12  C   UNL A   1      34.225  24.023  23.513  1.00  0.00     0.006 C 
ATOM     13  C   UNL A   1      33.560  23.246  22.371  1.00  0.00     0.000 C 
ATOM     14  C   UNL A   1      31.378  23.308  23.676  1.00  0.00     0.039 C 
ATOM     15  C   UNL A   1      32.254  22.528  22.698  1.00  0.00     0.003 C 
BRANCH   9  16
ATOM     16  N   UNL A   1      31.172  24.330  25.923  1.00  0.00    -0.323 N 
ATOM     17  C   UNL A   1      30.276  25.316  25.796  1.00  0.00     0.315 C 
ATOM     18  H   UNL A   1      31.231  24.024  26.857  1.00  0.00     0.166 HD
ATOM     19  O   UNL A   1      29.342  25.325  26.606  1.00  0.00    -0.249 OA
ATOM     20  N   UNL A   1      30.298  26.308  24.898  1.00  0.00    -0.333 N 
ATOM     21  H   UNL A   1      29.444  26.794  24.835  1.00  0.00     0.165 HD
BRANCH  20  22
ATOM     22  C   UNL A   1      31.317  26.822  23.994  1.00  0.00     0.112 C 
ATOM     23  C   UNL A   1      31.534  28.312  24.162  1.00  0.00     0.056 C 
ATOM     24  C   UNL A   1      30.976  26.699  22.510  1.00  0.00     0.185 C 
ATOM     25  C   UNL A   1      30.781  28.962  23.028  1.00  0.00     0.162 C 
ATOM     26  O   UNL A   1      30.578  27.982  22.012  1.00  0.00    -0.379 OA
ENDBRANCH  20  22
ENDBRANCH   9  16
ENDBRANCH   6   9
ENDBRANCH   4   5
ENDBRANCH   3   4
ENDBRANCH   2   3
ENDBRANCH   1   2
BRANCH   1  27
ATOM     27  C   UNL A   1      38.225  20.016  25.017  1.00  0.00     0.021 C 
BRANCH  27  28
ATOM     28  C   UNL A   1      39.321  20.393  25.999  1.00  0.00     0.116 C 
BRANCH  28  29
ATOM     29  N   UNL A   1      40.380  19.400  26.019  1.00  0.00    -0.352 N 
ATOM     30  C   UNL A   1      41.737  19.610  26.089  1.00  0.00     0.251 C 
ATOM     31  H   UNL A   1      40.091  18.460  25.976  1.00  0.00     0.163 HD
ATOM     32  O   UNL A   1      42.523  18.710  25.843  1.00  0.00    -0.269 OA
BRANCH  30  33
ATOM     33  C   UNL A   1      42.220  20.958  26.458  1.00  0.00     0.039 A 
ATOM     34  C   UNL A   1      42.474  21.256  27.798  1.00  0.00     0.014 A 
ATOM     35  C   UNL A   1      42.461  21.906  25.459  1.00  0.00     0.014 A 
ATOM     36  C   UNL A   1      43.023  22.496  28.133  1.00  0.00     0.010 A 
ATOM     37  C   UNL A   1      43.083  23.101  25.785  1.00  0.00     0.010 A 
ATOM     38  C   UNL A   1      43.359  23.415  27.125  1.00  0.00    -0.014 A 
BRANCH  38  39
ATOM     39  C   UNL A   1      43.967  24.734  27.428  1.00  0.00     0.031 A 
ATOM     40  C   UNL A   1      43.084  25.851  27.913  1.00  0.00     0.074 A 
ATOM     41  C   UNL A   1      45.268  24.959  27.162  1.00  0.00     0.049 A 
ATOM     42  N   UNL A   1      43.359  27.120  28.061  1.00  0.00    -0.248 NA
ATOM     43  C   UNL A   1      41.693  25.495  28.239  1.00  0.00     0.031 C 
ATOM     44  C   UNL A   1      46.215  23.962  26.660  1.00  0.00     0.029 A 
ATOM     45  N   UNL A   1      46.011  26.110  27.249  1.00  0.00    -0.354 N 
ATOM     46  C   UNL A   1      42.169  27.718  28.461  1.00  0.00     0.074 A 
ATOM     47  C   UNL A   1      41.161  26.682  28.484  1.00  0.00     0.031 C 
ATOM     48  C   UNL A   1      47.413  24.544  26.486  1.00  0.00     0.029 A 
ATOM     49  C   UNL A   1      47.307  25.962  26.815  1.00  0.00     0.049 A 
ATOM     50  H   UNL A   1      45.650  26.960  27.589  1.00  0.00     0.167 HD
ATOM     51  C   UNL A   1      41.944  29.011  28.794  1.00  0.00     0.037 A 
ATOM     52  C   UNL A   1      48.291  26.873  26.673  1.00  0.00     0.037 A 
ATOM     53  C   UNL A   1      42.965  30.024  28.790  1.00  0.00     0.049 A 
ATOM     54  C   UNL A   1      48.023  28.306  27.044  1.00  0.00     0.074 A 
ATOM     55  C   UNL A   1      42.860  31.351  29.167  1.00  0.00     0.029 A 
ATOM     56  N   UNL A   1      44.278  29.825  28.386  1.00  0.00    -0.354 N 
ATOM     57  N   UNL A   1      46.906  28.850  27.468  1.00  0.00    -0.248 NA
ATOM     58  C   UNL A   1      49.142  29.250  26.924  1.00  0.00     0.031 C 
ATOM     59  C   UNL A   1      44.094  31.967  28.938  1.00  0.00     0.029 A 
ATOM     60  C   UNL A   1      44.987  31.009  28.484  1.00  0.00     0.049 A 
ATOM     61  H   UNL A   1      44.650  28.967  28.076  1.00  0.00     0.167 HD
ATOM     62  C   UNL A   1      47.199  30.189  27.703  1.00  0.00     0.074 A 
ATOM     63  C   UNL A   1      48.595  30.375  27.369  1.00  0.00     0.031 C 
ATOM     64  C   UNL A   1      46.386  31.171  28.166  1.00  0.00     0.037 A 
BRANCH  51  65
ATOM     65  C   UNL A   1      40.540  29.399  29.170  1.00  0.00     0.058 A 
ATOM     66  C   UNL A   1      39.518  29.512  28.214  1.00  0.00     0.135 A 
ATOM     67  C   UNL A   1      40.210  29.655  30.512  1.00  0.00     0.135 A 
ATOM     68  F   UNL A   1      39.778  29.294  26.915  1.00  0.00    -0.206 F 
ATOM     69  C   UNL A   1      38.232  29.912  28.566  1.00  0.00     0.059 A 
ATOM     70  C   UNL A   1      38.921  30.021  30.891  1.00  0.00     0.059 A 
ATOM     71  F   UNL A   1      41.145  29.560  31.469  1.00  0.00    -0.206 F 
ATOM     72  C   UNL A   1      37.944  30.168  29.907  1.00  0.00     0.060 A 
BRANCH  72  73
ATOM     73  S   UNL A   1      36.279  30.704  30.345  1.00  0.00     0.124 S 
ATOM     74  O   UNL A   1      35.911  29.715  31.354  1.00  0.00    -0.237 OA
ATOM     75  O   UNL A   1      36.507  32.058  30.840  1.00  0.00    -0.237 OA
ATOM     76  O   UNL A   1      35.549  30.614  29.084  1.00  0.00    -0.744 OA
ENDBRANCH  72  73
ENDBRANCH  51  65
BRANCH  52  77
ATOM     77  C   UNL A   1      49.624  26.442  26.170  1.00  0.00     0.058 A 
ATOM     78  C   UNL A   1      49.995  26.657  24.835  1.00  0.00     0.135 A 
ATOM     79  C   UNL A   1      50.569  25.850  27.024  1.00  0.00     0.135 A 
ATOM     80  F   UNL A   1      49.125  27.213  23.979  1.00  0.00    -0.206 F 
ATOM     81  C   UNL A   1      51.254  26.302  24.362  1.00  0.00     0.059 A 
ATOM     82  C   UNL A   1      51.843  25.509  26.580  1.00  0.00     0.059 A 
ATOM     83  F   UNL A   1      50.270  25.638  28.314  1.00  0.00    -0.206 F 
ATOM     84  C   UNL A   1      52.175  25.736  25.246  1.00  0.00     0.060 A 
BRANCH  84  85
ATOM     85  S   UNL A   1      53.832  25.350  24.638  1.00  0.00     0.124 S 
ATOM     86  O   UNL A   1      53.927  23.924  24.929  1.00  0.00    -0.237 OA
ATOM     87  O   UNL A   1      53.729  25.710  23.227  1.00  0.00    -0.237 OA
ATOM     88  O   UNL A   1      54.692  26.217  25.437  1.00  0.00    -0.744 OA
ENDBRANCH  84  85
ENDBRANCH  52  77
BRANCH  64  89
ATOM     89  C   UNL A   1      46.986  32.529  28.405  1.00  0.00     0.058 A 
ATOM     90  C   UNL A   1      46.952  33.540  27.432  1.00  0.00     0.135 A 
ATOM     91  C   UNL A   1      47.504  32.852  29.671  1.00  0.00     0.135 A 
ATOM     92  F   UNL A   1      46.475  33.282  26.205  1.00  0.00    -0.206 F 
ATOM     93  C   UNL A   1      47.412  34.824  27.708  1.00  0.00     0.059 A 
ATOM     94  C   UNL A   1      47.943  34.136  29.975  1.00  0.00     0.059 A 
ATOM     95  F   UNL A   1      47.552  31.922  30.638  1.00  0.00    -0.206 F 
ATOM     96  C   UNL A   1      47.894  35.115  28.985  1.00  0.00     0.060 A 
BRANCH  96  97
ATOM     97  S   UNL A   1      48.413  36.806  29.350  1.00  0.00     0.124 S 
ATOM     98  O   UNL A   1      49.828  36.621  29.652  1.00  0.00    -0.237 OA
ATOM     99  O   UNL A   1      48.115  37.499  28.101  1.00  0.00    -0.237 OA
ATOM    100  O   UNL A   1      47.573  37.182  30.484  1.00  0.00    -0.744 OA
ENDBRANCH  96  97
ENDBRANCH  64  89
ENDBRANCH  38  39
ENDBRANCH  30  33
ENDBRANCH  28  29
ENDBRANCH  27  28
ENDBRANCH   1  27
TORSDOF 18
ENDMDL
