MODEL 1
REMARK VINA RESULT:      -9.5      0.000      0.000
REMARK SMILES C[C@H]([NH2+]CC(C)(C)C(=O)NCCCCCCNC(=O)c1ccc(-c2c3nc(c(-c4c(F)cc(S(=O)(=O)[O-])cc4F)c4ccc([nH]4)c(-c4c(F)cc(S(=O)(=O)[O-])cc4F)c4nc(c(-c5c(F)cc(S(=O)(=O)[O-])cc5F)c5ccc2[nH]5)C=C4)C=C3)cc1)c1nccs1
REMARK SMILES IDX 13 1 12 2 11 3 10 4 8 5 9 6 5 8 6 9 7 10 4 11 3 12 2 15 1 16
REMARK SMILES IDX 86 17 87 18 90 19 88 20 89 21 14 22 15 23 16 24 17 25 18 26
REMARK SMILES IDX 19 28 20 29 21 30 85 31 22 32 84 33 23 34 24 35 25 36 78 37
REMARK SMILES IDX 26 38 83 39 77 40 79 41 27 42 82 43 76 44 75 45 28 47 62 48
REMARK SMILES IDX 41 49 61 50 42 51 45 52 60 53 80 54 43 55 44 56 59 58 81 59
REMARK SMILES IDX 46 60 29 61 30 62 39 63 31 64 32 65 38 66 40 67 33 68 34 69
REMARK SMILES IDX 35 70 36 71 37 72 63 73 64 74 73 75 65 76 66 77 72 78 74 79
REMARK SMILES IDX 67 80 68 81 69 82 70 83 71 84 47 85 48 86 57 87 49 88 50 89
REMARK SMILES IDX 56 90 58 91 51 92 52 93 53 94 54 95 55 96
REMARK H PARENT 10 7 3 13 3 14 17 27 79 46 45 57
REMARK Flexibility Score: inf
ROOT
ATOM      1  C   UNL A   1      35.598  31.609  28.110  1.00  0.00     0.002 C 
ENDROOT
BRANCH   1   2
ATOM      2  C   UNL A   1      35.483  30.086  28.222  1.00  0.00     0.021 C 
BRANCH   2   3
ATOM      3  C   UNL A   1      34.681  29.443  27.093  1.00  0.00     0.116 C 
BRANCH   3   4
ATOM      4  N   UNL A   1      33.480  28.822  27.614  1.00  0.00    -0.355 N 
ATOM      5  C   UNL A   1      32.569  27.986  27.049  1.00  0.00     0.231 C 
ATOM      6  O   UNL A   1      31.510  27.855  27.671  1.00  0.00    -0.274 OA
ATOM      7  H   UNL A   1      33.287  29.049  28.553  1.00  0.00     0.163 HD
BRANCH   5   8
ATOM      8  C   UNL A   1      32.830  27.284  25.701  1.00  0.00     0.092 C 
ATOM      9  C   UNL A   1      33.809  26.102  25.849  1.00  0.00     0.027 C 
ATOM     10  C   UNL A   1      33.346  28.309  24.671  1.00  0.00     0.027 C 
BRANCH   8  11
ATOM     11  C   UNL A   1      31.476  26.749  25.128  1.00  0.00     0.277 C 
BRANCH  11  12
ATOM     12  N   UNL A   1      30.560  27.794  24.664  1.00  0.00    -0.337 N 
ATOM     13  H   UNL A   1      29.944  28.047  25.437  1.00  0.00     0.346 HD
ATOM     14  H   UNL A   1      31.137  28.574  24.350  1.00  0.00     0.346 HD
BRANCH  12  15
ATOM     15  C   UNL A   1      29.725  27.393  23.519  1.00  0.00     0.239 C 
ATOM     16  C   UNL A   1      28.500  26.577  23.957  1.00  0.00     0.083 C 
BRANCH  15  17
ATOM     17  C   UNL A   1      29.278  28.644  22.780  1.00  0.00     0.150 A 
ATOM     18  N   UNL A   1      30.041  29.348  21.963  1.00  0.00    -0.243 NA
ATOM     19  S   UNL A   1      27.652  29.202  22.926  1.00  0.00    -0.121 S 
ATOM     20  C   UNL A   1      29.306  30.372  21.403  1.00  0.00     0.123 A 
ATOM     21  C   UNL A   1      27.987  30.444  21.795  1.00  0.00     0.087 A 
ENDBRANCH  15  17
ENDBRANCH  12  15
ENDBRANCH  11  12
ENDBRANCH   8  11
ENDBRANCH   5   8
ENDBRANCH   3   4
ENDBRANCH   2   3
ENDBRANCH   1   2
BRANCH   1  22
ATOM     22  C   UNL A   1      34.717  32.392  29.091  1.00  0.00     0.002 C 
BRANCH  22  23
ATOM     23  C   UNL A   1      33.769  33.401  28.439  1.00  0.00     0.021 C 
BRANCH  23  24
ATOM     24  C   UNL A   1      34.065  34.856  28.784  1.00  0.00     0.116 C 
BRANCH  24  25
ATOM     25  N   UNL A   1      33.123  35.382  29.760  1.00  0.00    -0.352 N 
ATOM     26  C   UNL A   1      33.095  35.199  31.119  1.00  0.00     0.251 C 
ATOM     27  H   UNL A   1      32.405  35.949  29.393  1.00  0.00     0.163 HD
ATOM     28  O   UNL A   1      32.107  35.535  31.767  1.00  0.00    -0.269 OA
BRANCH  26  29
ATOM     29  C   UNL A   1      34.253  34.576  31.791  1.00  0.00     0.039 A 
ATOM     30  C   UNL A   1      34.076  33.366  32.466  1.00  0.00     0.014 A 
ATOM     31  C   UNL A   1      35.515  35.175  31.733  1.00  0.00     0.014 A 
ATOM     32  C   UNL A   1      35.180  32.722  33.024  1.00  0.00     0.010 A 
ATOM     33  C   UNL A   1      36.624  34.495  32.225  1.00  0.00     0.010 A 
ATOM     34  C   UNL A   1      36.470  33.259  32.872  1.00  0.00    -0.014 A 
BRANCH  34  35
ATOM     35  C   UNL A   1      37.671  32.532  33.355  1.00  0.00     0.031 A 
ATOM     36  C   UNL A   1      38.337  32.936  34.642  1.00  0.00     0.074 A 
ATOM     37  C   UNL A   1      38.203  31.554  32.594  1.00  0.00     0.049 A 
ATOM     38  N   UNL A   1      39.435  32.475  35.182  1.00  0.00    -0.248 NA
ATOM     39  C   UNL A   1      37.698  34.018  35.409  1.00  0.00     0.031 C 
ATOM     40  C   UNL A   1      37.671  31.103  31.305  1.00  0.00     0.029 A 
ATOM     41  N   UNL A   1      39.314  30.772  32.785  1.00  0.00    -0.354 N 
ATOM     42  C   UNL A   1      39.624  33.212  36.344  1.00  0.00     0.074 A 
ATOM     43  C   UNL A   1      38.557  34.188  36.403  1.00  0.00     0.031 C 
ATOM     44  C   UNL A   1      38.444  30.113  30.832  1.00  0.00     0.029 A 
ATOM     45  C   UNL A   1      39.552  29.889  31.757  1.00  0.00     0.049 A 
ATOM     46  H   UNL A   1      39.887  30.836  33.582  1.00  0.00     0.167 HD
ATOM     47  C   UNL A   1      40.587  33.074  37.286  1.00  0.00     0.037 A 
ATOM     48  C   UNL A   1      40.556  29.011  31.569  1.00  0.00     0.037 A 
ATOM     49  C   UNL A   1      41.636  32.089  37.225  1.00  0.00     0.049 A 
ATOM     50  C   UNL A   1      41.631  28.896  32.616  1.00  0.00     0.074 A 
ATOM     51  C   UNL A   1      42.626  31.828  38.158  1.00  0.00     0.029 A 
ATOM     52  N   UNL A   1      41.842  31.210  36.170  1.00  0.00    -0.354 N 
ATOM     53  N   UNL A   1      41.755  29.551  33.746  1.00  0.00    -0.248 NA
ATOM     54  C   UNL A   1      42.703  27.922  32.367  1.00  0.00     0.031 C 
ATOM     55  C   UNL A   1      43.462  30.833  37.642  1.00  0.00     0.029 A 
ATOM     56  C   UNL A   1      42.960  30.431  36.414  1.00  0.00     0.049 A 
ATOM     57  H   UNL A   1      41.276  31.150  35.367  1.00  0.00     0.167 HD
ATOM     58  C   UNL A   1      42.903  29.054  34.351  1.00  0.00     0.074 A 
ATOM     59  C   UNL A   1      43.429  28.031  33.470  1.00  0.00     0.031 C 
ATOM     60  C   UNL A   1      43.473  29.414  35.528  1.00  0.00     0.037 A 
BRANCH  47  61
ATOM     61  C   UNL A   1      40.556  34.009  38.465  1.00  0.00     0.058 A 
ATOM     62  C   UNL A   1      39.779  33.737  39.603  1.00  0.00     0.135 A 
ATOM     63  C   UNL A   1      41.347  35.169  38.478  1.00  0.00     0.135 A 
ATOM     64  F   UNL A   1      38.992  32.650  39.642  1.00  0.00    -0.206 F 
ATOM     65  C   UNL A   1      39.764  34.596  40.698  1.00  0.00     0.059 A 
ATOM     66  C   UNL A   1      41.373  36.026  39.575  1.00  0.00     0.059 A 
ATOM     67  F   UNL A   1      42.110  35.479  37.418  1.00  0.00    -0.206 F 
ATOM     68  C   UNL A   1      40.567  35.738  40.675  1.00  0.00     0.060 A 
BRANCH  68  69
ATOM     69  S   UNL A   1      40.542  36.836  42.107  1.00  0.00     0.124 S 
ATOM     70  O   UNL A   1      40.419  38.143  41.469  1.00  0.00    -0.237 OA
ATOM     71  O   UNL A   1      39.364  36.372  42.834  1.00  0.00    -0.237 OA
ATOM     72  O   UNL A   1      41.821  36.574  42.759  1.00  0.00    -0.744 OA
ENDBRANCH  68  69
ENDBRANCH  47  61
BRANCH  48  73
ATOM     73  C   UNL A   1      40.590  28.169  30.343  1.00  0.00     0.058 A 
ATOM     74  C   UNL A   1      39.690  27.107  30.170  1.00  0.00     0.135 A 
ATOM     75  C   UNL A   1      41.512  28.416  29.313  1.00  0.00     0.135 A 
ATOM     76  F   UNL A   1      38.795  26.824  31.128  1.00  0.00    -0.206 F 
ATOM     77  C   UNL A   1      39.712  26.310  29.030  1.00  0.00     0.059 A 
ATOM     78  C   UNL A   1      41.534  27.653  28.151  1.00  0.00     0.059 A 
ATOM     79  F   UNL A   1      42.384  29.431  29.420  1.00  0.00    -0.206 F 
ATOM     80  C   UNL A   1      40.637  26.593  28.023  1.00  0.00     0.060 A 
BRANCH  80  81
ATOM     81  S   UNL A   1      40.626  25.582  26.527  1.00  0.00     0.124 S 
ATOM     82  O   UNL A   1      39.234  25.148  26.476  1.00  0.00    -0.237 OA
ATOM     83  O   UNL A   1      41.034  26.543  25.507  1.00  0.00    -0.237 OA
ATOM     84  O   UNL A   1      41.602  24.538  26.821  1.00  0.00    -0.744 OA
ENDBRANCH  80  81
ENDBRANCH  48  73
BRANCH  60  85
ATOM     85  C   UNL A   1      44.718  28.683  35.951  1.00  0.00     0.058 A 
ATOM     86  C   UNL A   1      44.659  27.498  36.699  1.00  0.00     0.135 A 
ATOM     87  C   UNL A   1      45.984  29.139  35.544  1.00  0.00     0.135 A 
ATOM     88  F   UNL A   1      43.477  27.023  37.122  1.00  0.00    -0.206 F 
ATOM     89  C   UNL A   1      45.811  26.797  37.042  1.00  0.00     0.059 A 
ATOM     90  C   UNL A   1      47.145  28.437  35.849  1.00  0.00     0.059 A 
ATOM     91  F   UNL A   1      46.097  30.264  34.820  1.00  0.00    -0.206 F 
ATOM     92  C   UNL A   1      47.049  27.271  36.605  1.00  0.00     0.060 A 
BRANCH  92  93
ATOM     93  S   UNL A   1      48.529  26.320  37.013  1.00  0.00     0.124 S 
ATOM     94  O   UNL A   1      49.136  26.142  35.698  1.00  0.00    -0.237 OA
ATOM     95  O   UNL A   1      49.235  27.218  37.921  1.00  0.00    -0.237 OA
ATOM     96  O   UNL A   1      47.997  25.108  37.628  1.00  0.00    -0.744 OA
ENDBRANCH  92  93
ENDBRANCH  60  85
ENDBRANCH  34  35
ENDBRANCH  26  29
ENDBRANCH  24  25
ENDBRANCH  23  24
ENDBRANCH  22  23
ENDBRANCH   1  22
TORSDOF 20
ENDMDL
MODEL 2
REMARK VINA RESULT:      -9.5      1.834      2.753
REMARK SMILES C[C@H]([NH2+]CC(C)(C)C(=O)NCCCCCCNC(=O)c1ccc(-c2c3nc(c(-c4c(F)cc(S(=O)(=O)[O-])cc4F)c4ccc([nH]4)c(-c4c(F)cc(S(=O)(=O)[O-])cc4F)c4nc(c(-c5c(F)cc(S(=O)(=O)[O-])cc5F)c5ccc2[nH]5)C=C4)C=C3)cc1)c1nccs1
REMARK SMILES IDX 13 1 12 2 11 3 10 4 8 5 9 6 5 8 6 9 7 10 4 11 3 12 2 15 1 16
REMARK SMILES IDX 86 17 87 18 90 19 88 20 89 21 14 22 15 23 16 24 17 25 18 26
REMARK SMILES IDX 19 28 20 29 21 30 85 31 22 32 84 33 23 34 24 35 25 36 78 37
REMARK SMILES IDX 26 38 83 39 77 40 79 41 27 42 82 43 76 44 75 45 28 47 62 48
REMARK SMILES IDX 41 49 61 50 42 51 45 52 60 53 80 54 43 55 44 56 59 58 81 59
REMARK SMILES IDX 46 60 29 61 30 62 39 63 31 64 32 65 38 66 40 67 33 68 34 69
REMARK SMILES IDX 35 70 36 71 37 72 63 73 64 74 73 75 65 76 66 77 72 78 74 79
REMARK SMILES IDX 67 80 68 81 69 82 70 83 71 84 47 85 48 86 57 87 49 88 50 89
REMARK SMILES IDX 56 90 58 91 51 92 52 93 53 94 54 95 55 96
REMARK H PARENT 10 7 3 13 3 14 17 27 79 46 45 57
REMARK Flexibility Score: inf
ROOT
ATOM      1  C   UNL A   1      35.315  31.030  28.734  1.00  0.00     0.002 C 
ENDROOT
BRANCH   1   2
ATOM      2  C   UNL A   1      35.413  29.702  27.977  1.00  0.00     0.021 C 
BRANCH   2   3
ATOM      3  C   UNL A   1      34.253  29.450  27.018  1.00  0.00     0.116 C 
BRANCH   3   4
ATOM      4  N   UNL A   1      33.142  28.836  27.715  1.00  0.00    -0.355 N 
ATOM      5  C   UNL A   1      32.098  28.081  27.279  1.00  0.00     0.231 C 
ATOM      6  O   UNL A   1      31.171  27.942  28.083  1.00  0.00    -0.274 OA
ATOM      7  H   UNL A   1      33.142  28.995  28.687  1.00  0.00     0.163 HD
BRANCH   5   8
ATOM      8  C   UNL A   1      32.062  27.479  25.859  1.00  0.00     0.092 C 
ATOM      9  C   UNL A   1      33.383  26.768  25.504  1.00  0.00     0.027 C 
ATOM     10  C   UNL A   1      31.730  28.582  24.835  1.00  0.00     0.027 C 
BRANCH   8  11
ATOM     11  C   UNL A   1      30.892  26.445  25.769  1.00  0.00     0.277 C 
BRANCH  11  12
ATOM     12  N   UNL A   1      31.049  25.275  26.636  1.00  0.00    -0.337 N 
ATOM     13  H   UNL A   1      31.983  25.302  27.044  1.00  0.00     0.346 HD
ATOM     14  H   UNL A   1      30.311  25.327  27.339  1.00  0.00     0.346 HD
BRANCH  12  15
ATOM     15  C   UNL A   1      30.885  23.987  25.940  1.00  0.00     0.239 C 
ATOM     16  C   UNL A   1      30.951  24.145  24.414  1.00  0.00     0.083 C 
BRANCH  15  17
ATOM     17  C   UNL A   1      31.973  23.037  26.411  1.00  0.00     0.150 A 
ATOM     18  N   UNL A   1      32.552  23.083  27.598  1.00  0.00    -0.243 NA
ATOM     19  S   UNL A   1      32.492  21.742  25.394  1.00  0.00    -0.121 S 
ATOM     20  C   UNL A   1      33.438  22.034  27.728  1.00  0.00     0.123 A 
ATOM     21  C   UNL A   1      33.531  21.193  26.641  1.00  0.00     0.087 A 
ENDBRANCH  15  17
ENDBRANCH  12  15
ENDBRANCH  11  12
ENDBRANCH   8  11
ENDBRANCH   5   8
ENDBRANCH   3   4
ENDBRANCH   2   3
ENDBRANCH   1   2
BRANCH   1  22
ATOM     22  C   UNL A   1      35.165  32.268  27.841  1.00  0.00     0.002 C 
BRANCH  22  23
ATOM     23  C   UNL A   1      33.905  33.096  28.100  1.00  0.00     0.021 C 
BRANCH  23  24
ATOM     24  C   UNL A   1      34.174  34.555  28.453  1.00  0.00     0.116 C 
BRANCH  24  25
ATOM     25  N   UNL A   1      33.213  35.063  29.420  1.00  0.00    -0.352 N 
ATOM     26  C   UNL A   1      33.206  34.924  30.785  1.00  0.00     0.251 C 
ATOM     27  H   UNL A   1      32.463  35.578  29.042  1.00  0.00     0.163 HD
ATOM     28  O   UNL A   1      32.207  35.228  31.431  1.00  0.00    -0.269 OA
BRANCH  26  29
ATOM     29  C   UNL A   1      34.401  34.386  31.465  1.00  0.00     0.039 A 
ATOM     30  C   UNL A   1      34.339  33.116  32.043  1.00  0.00     0.014 A 
ATOM     31  C   UNL A   1      35.586  35.127  31.512  1.00  0.00     0.014 A 
ATOM     32  C   UNL A   1      35.488  32.560  32.606  1.00  0.00     0.010 A 
ATOM     33  C   UNL A   1      36.746  34.542  32.007  1.00  0.00     0.010 A 
ATOM     34  C   UNL A   1      36.711  33.250  32.555  1.00  0.00    -0.014 A 
BRANCH  34  35
ATOM     35  C   UNL A   1      37.969  32.629  33.042  1.00  0.00     0.031 A 
ATOM     36  C   UNL A   1      38.465  32.910  34.434  1.00  0.00     0.074 A 
ATOM     37  C   UNL A   1      38.701  31.869  32.202  1.00  0.00     0.049 A 
ATOM     38  N   UNL A   1      39.576  32.525  35.007  1.00  0.00    -0.248 NA
ATOM     39  C   UNL A   1      37.611  33.755  35.285  1.00  0.00     0.031 C 
ATOM     40  C   UNL A   1      38.344  31.561  30.814  1.00  0.00     0.029 A 
ATOM     41  N   UNL A   1      39.900  31.228  32.384  1.00  0.00    -0.354 N 
ATOM     42  C   UNL A   1      39.561  33.085  36.278  1.00  0.00     0.074 A 
ATOM     43  C   UNL A   1      38.356  33.880  36.374  1.00  0.00     0.031 C 
ATOM     44  C   UNL A   1      39.293  30.777  30.279  1.00  0.00     0.029 A 
ATOM     45  C   UNL A   1      40.348  30.564  31.266  1.00  0.00     0.049 A 
ATOM     46  H   UNL A   1      40.394  31.243  33.236  1.00  0.00     0.167 HD
ATOM     47  C   UNL A   1      40.459  32.932  37.280  1.00  0.00     0.037 A 
ATOM     48  C   UNL A   1      41.486  29.875  31.051  1.00  0.00     0.037 A 
ATOM     49  C   UNL A   1      41.648  32.125  37.179  1.00  0.00     0.049 A 
ATOM     50  C   UNL A   1      42.483  29.744  32.171  1.00  0.00     0.074 A 
ATOM     51  C   UNL A   1      42.591  31.858  38.156  1.00  0.00     0.029 A 
ATOM     52  N   UNL A   1      42.065  31.464  36.031  1.00  0.00    -0.354 N 
ATOM     53  N   UNL A   1      42.418  30.220  33.392  1.00  0.00    -0.248 NA
ATOM     54  C   UNL A   1      43.706  28.981  31.888  1.00  0.00     0.031 C 
ATOM     55  C   UNL A   1      43.607  31.085  37.584  1.00  0.00     0.029 A 
ATOM     56  C   UNL A   1      43.268  30.818  36.267  1.00  0.00     0.049 A 
ATOM     57  H   UNL A   1      41.578  31.456  35.176  1.00  0.00     0.167 HD
ATOM     58  C   UNL A   1      43.579  29.796  34.028  1.00  0.00     0.074 A 
ATOM     59  C   UNL A   1      44.321  29.011  33.062  1.00  0.00     0.031 C 
ATOM     60  C   UNL A   1      43.995  30.038  35.296  1.00  0.00     0.037 A 
BRANCH  47  61
ATOM     61  C   UNL A   1      40.195  33.652  38.575  1.00  0.00     0.058 A 
ATOM     62  C   UNL A   1      39.294  33.151  39.529  1.00  0.00     0.135 A 
ATOM     63  C   UNL A   1      40.886  34.834  38.889  1.00  0.00     0.135 A 
ATOM     64  F   UNL A   1      38.595  32.033  39.277  1.00  0.00    -0.206 F 
ATOM     65  C   UNL A   1      39.064  33.812  40.732  1.00  0.00     0.059 A 
ATOM     66  C   UNL A   1      40.696  35.494  40.100  1.00  0.00     0.059 A 
ATOM     67  F   UNL A   1      41.761  35.358  38.016  1.00  0.00    -0.206 F 
ATOM     68  C   UNL A   1      39.772  34.982  41.009  1.00  0.00     0.060 A 
BRANCH  68  69
ATOM     69  S   UNL A   1      39.468  35.820  42.578  1.00  0.00     0.124 S 
ATOM     70  O   UNL A   1      38.010  35.791  42.646  1.00  0.00    -0.237 OA
ATOM     71  O   UNL A   1      40.164  34.960  43.530  1.00  0.00    -0.237 OA
ATOM     72  O   UNL A   1      40.060  37.139  42.381  1.00  0.00    -0.744 OA
ENDBRANCH  68  69
ENDBRANCH  47  61
BRANCH  48  73
ATOM     73  C   UNL A   1      41.741  29.254  29.724  1.00  0.00     0.058 A 
ATOM     74  C   UNL A   1      41.262  27.971  29.422  1.00  0.00     0.135 A 
ATOM     75  C   UNL A   1      42.456  29.935  28.725  1.00  0.00     0.135 A 
ATOM     76  F   UNL A   1      40.580  27.276  30.344  1.00  0.00    -0.206 F 
ATOM     77  C   UNL A   1      41.496  27.377  28.185  1.00  0.00     0.059 A 
ATOM     78  C   UNL A   1      42.678  29.375  27.472  1.00  0.00     0.059 A 
ATOM     79  F   UNL A   1      42.922  31.173  28.957  1.00  0.00    -0.206 F 
ATOM     80  C   UNL A   1      42.202  28.089  27.214  1.00  0.00     0.060 A 
BRANCH  80  81
ATOM     81  S   UNL A   1      42.460  27.328  25.597  1.00  0.00     0.124 S 
ATOM     82  O   UNL A   1      41.377  26.351  25.557  1.00  0.00    -0.237 OA
ATOM     83  O   UNL A   1      42.325  28.469  24.698  1.00  0.00    -0.237 OA
ATOM     84  O   UNL A   1      43.806  26.774  25.698  1.00  0.00    -0.744 OA
ENDBRANCH  80  81
ENDBRANCH  48  73
BRANCH  60  85
ATOM     85  C   UNL A   1      45.301  29.430  35.728  1.00  0.00     0.058 A 
ATOM     86  C   UNL A   1      45.369  28.137  36.269  1.00  0.00     0.135 A 
ATOM     87  C   UNL A   1      46.509  30.122  35.534  1.00  0.00     0.135 A 
ATOM     88  F   UNL A   1      44.245  27.435  36.485  1.00  0.00    -0.206 F 
ATOM     89  C   UNL A   1      46.585  27.557  36.618  1.00  0.00     0.059 A 
ATOM     90  C   UNL A   1      47.737  29.550  35.845  1.00  0.00     0.059 A 
ATOM     91  F   UNL A   1      46.502  31.359  35.011  1.00  0.00    -0.206 F 
ATOM     92  C   UNL A   1      47.765  28.270  36.394  1.00  0.00     0.060 A 
BRANCH  92  93
ATOM     93  S   UNL A   1      49.338  27.482  36.801  1.00  0.00     0.124 S 
ATOM     94  O   UNL A   1      49.668  28.123  38.070  1.00  0.00    -0.237 OA
ATOM     95  O   UNL A   1      48.968  26.072  36.879  1.00  0.00    -0.237 OA
ATOM     96  O   UNL A   1      50.198  27.837  35.676  1.00  0.00    -0.744 OA
ENDBRANCH  92  93
ENDBRANCH  60  85
ENDBRANCH  34  35
ENDBRANCH  26  29
ENDBRANCH  24  25
ENDBRANCH  23  24
ENDBRANCH  22  23
ENDBRANCH   1  22
TORSDOF 20
ENDMDL
MODEL 3
REMARK VINA RESULT:      -9.5      2.982      8.920
REMARK SMILES C[C@H]([NH2+]CC(C)(C)C(=O)NCCCCCCNC(=O)c1ccc(-c2c3nc(c(-c4c(F)cc(S(=O)(=O)[O-])cc4F)c4ccc([nH]4)c(-c4c(F)cc(S(=O)(=O)[O-])cc4F)c4nc(c(-c5c(F)cc(S(=O)(=O)[O-])cc5F)c5ccc2[nH]5)C=C4)C=C3)cc1)c1nccs1
REMARK SMILES IDX 13 1 12 2 11 3 10 4 8 5 9 6 5 8 6 9 7 10 4 11 3 12 2 15 1 16
REMARK SMILES IDX 86 17 87 18 90 19 88 20 89 21 14 22 15 23 16 24 17 25 18 26
REMARK SMILES IDX 19 28 20 29 21 30 85 31 22 32 84 33 23 34 24 35 25 36 78 37
REMARK SMILES IDX 26 38 83 39 77 40 79 41 27 42 82 43 76 44 75 45 28 47 62 48
REMARK SMILES IDX 41 49 61 50 42 51 45 52 60 53 80 54 43 55 44 56 59 58 81 59
REMARK SMILES IDX 46 60 29 61 30 62 39 63 31 64 32 65 38 66 40 67 33 68 34 69
REMARK SMILES IDX 35 70 36 71 37 72 63 73 64 74 73 75 65 76 66 77 72 78 74 79
REMARK SMILES IDX 67 80 68 81 69 82 70 83 71 84 47 85 48 86 57 87 49 88 50 89
REMARK SMILES IDX 56 90 58 91 51 92 52 93 53 94 54 95 55 96
REMARK H PARENT 10 7 3 13 3 14 17 27 79 46 45 57
REMARK Flexibility Score: inf
ROOT
ATOM      1  C   UNL A   1      37.280  21.404  24.582  1.00  0.00     0.002 C 
ENDROOT
BRANCH   1   2
ATOM      2  C   UNL A   1      36.340  20.269  25.001  1.00  0.00     0.021 C 
BRANCH   2   3
ATOM      3  C   UNL A   1      34.865  20.661  25.010  1.00  0.00     0.116 C 
BRANCH   3   4
ATOM      4  N   UNL A   1      34.434  20.986  26.354  1.00  0.00    -0.355 N 
ATOM      5  C   UNL A   1      33.684  22.007  26.848  1.00  0.00     0.231 C 
ATOM      6  O   UNL A   1      33.726  22.153  28.074  1.00  0.00    -0.274 OA
ATOM      7  H   UNL A   1      34.741  20.348  27.039  1.00  0.00     0.163 HD
BRANCH   5   8
ATOM      8  C   UNL A   1      32.871  22.942  25.930  1.00  0.00     0.092 C 
ATOM      9  C   UNL A   1      31.991  23.917  26.737  1.00  0.00     0.027 C 
ATOM     10  C   UNL A   1      32.021  22.104  24.953  1.00  0.00     0.027 C 
BRANCH   8  11
ATOM     11  C   UNL A   1      33.854  23.770  25.038  1.00  0.00     0.277 C 
BRANCH  11  12
ATOM     12  N   UNL A   1      33.569  25.206  24.994  1.00  0.00    -0.337 N 
ATOM     13  H   UNL A   1      32.659  25.365  25.428  1.00  0.00     0.346 HD
ATOM     14  H   UNL A   1      34.328  25.674  25.490  1.00  0.00     0.346 HD
BRANCH  12  15
ATOM     15  C   UNL A   1      33.538  25.769  23.633  1.00  0.00     0.239 C 
ATOM     16  C   UNL A   1      33.090  24.733  22.591  1.00  0.00     0.083 C 
BRANCH  15  17
ATOM     17  C   UNL A   1      32.593  26.960  23.620  1.00  0.00     0.150 A 
ATOM     18  N   UNL A   1      32.581  27.901  22.693  1.00  0.00    -0.243 NA
ATOM     19  S   UNL A   1      31.384  27.119  24.842  1.00  0.00    -0.121 S 
ATOM     20  C   UNL A   1      31.554  28.788  22.940  1.00  0.00     0.123 A 
ATOM     21  C   UNL A   1      30.789  28.520  24.054  1.00  0.00     0.087 A 
ENDBRANCH  15  17
ENDBRANCH  12  15
ENDBRANCH  11  12
ENDBRANCH   8  11
ENDBRANCH   5   8
ENDBRANCH   3   4
ENDBRANCH   2   3
ENDBRANCH   1   2
BRANCH   1  22
ATOM     22  C   UNL A   1      37.955  22.141  25.745  1.00  0.00     0.002 C 
BRANCH  22  23
ATOM     23  C   UNL A   1      37.459  23.570  25.973  1.00  0.00     0.021 C 
BRANCH  23  24
ATOM     24  C   UNL A   1      38.483  24.495  26.620  1.00  0.00     0.116 C 
BRANCH  24  25
ATOM     25  N   UNL A   1      39.824  24.261  26.106  1.00  0.00    -0.352 N 
ATOM     26  C   UNL A   1      40.996  24.895  26.432  1.00  0.00     0.251 C 
ATOM     27  H   UNL A   1      39.900  23.548  25.430  1.00  0.00     0.163 HD
ATOM     28  O   UNL A   1      42.002  24.723  25.747  1.00  0.00    -0.269 OA
BRANCH  26  29
ATOM     29  C   UNL A   1      41.032  25.799  27.599  1.00  0.00     0.039 A 
ATOM     30  C   UNL A   1      42.023  26.781  27.666  1.00  0.00     0.014 A 
ATOM     31  C   UNL A   1      40.073  25.691  28.612  1.00  0.00     0.014 A 
ATOM     32  C   UNL A   1      42.010  27.700  28.716  1.00  0.00     0.010 A 
ATOM     33  C   UNL A   1      40.019  26.652  29.615  1.00  0.00     0.010 A 
ATOM     34  C   UNL A   1      40.983  27.670  29.675  1.00  0.00    -0.014 A 
BRANCH  34  35
ATOM     35  C   UNL A   1      40.884  28.709  30.732  1.00  0.00     0.031 A 
ATOM     36  C   UNL A   1      41.787  28.658  31.934  1.00  0.00     0.074 A 
ATOM     37  C   UNL A   1      39.929  29.657  30.640  1.00  0.00     0.049 A 
ATOM     38  N   UNL A   1      41.794  29.426  32.993  1.00  0.00    -0.248 NA
ATOM     39  C   UNL A   1      42.797  27.587  31.961  1.00  0.00     0.031 C 
ATOM     40  C   UNL A   1      38.966  29.783  29.543  1.00  0.00     0.029 A 
ATOM     41  N   UNL A   1      39.601  30.685  31.487  1.00  0.00    -0.354 N 
ATOM     42  C   UNL A   1      42.799  28.929  33.814  1.00  0.00     0.074 A 
ATOM     43  C   UNL A   1      43.343  27.761  33.156  1.00  0.00     0.031 C 
ATOM     44  C   UNL A   1      38.171  30.838  29.775  1.00  0.00     0.029 A 
ATOM     45  C   UNL A   1      38.532  31.436  31.056  1.00  0.00     0.049 A 
ATOM     46  H   UNL A   1      40.085  30.868  32.325  1.00  0.00     0.167 HD
ATOM     47  C   UNL A   1      43.240  29.416  34.998  1.00  0.00     0.037 A 
ATOM     48  C   UNL A   1      37.902  32.478  31.634  1.00  0.00     0.037 A 
ATOM     49  C   UNL A   1      42.701  30.588  35.638  1.00  0.00     0.049 A 
ATOM     50  C   UNL A   1      38.393  32.982  32.964  1.00  0.00     0.074 A 
ATOM     51  C   UNL A   1      43.118  31.197  36.809  1.00  0.00     0.029 A 
ATOM     52  N   UNL A   1      41.621  31.325  35.169  1.00  0.00    -0.354 N 
ATOM     53  N   UNL A   1      39.392  32.545  33.694  1.00  0.00    -0.248 NA
ATOM     54  C   UNL A   1      37.674  34.121  33.551  1.00  0.00     0.031 C 
ATOM     55  C   UNL A   1      42.256  32.265  37.078  1.00  0.00     0.029 A 
ATOM     56  C   UNL A   1      41.338  32.360  36.044  1.00  0.00     0.049 A 
ATOM     57  H   UNL A   1      41.130  31.138  34.336  1.00  0.00     0.167 HD
ATOM     58  C   UNL A   1      39.435  33.369  34.813  1.00  0.00     0.074 A 
ATOM     59  C   UNL A   1      38.372  34.341  34.656  1.00  0.00     0.031 C 
ATOM     60  C   UNL A   1      40.277  33.323  35.875  1.00  0.00     0.037 A 
BRANCH  47  61
ATOM     61  C   UNL A   1      44.361  28.682  35.685  1.00  0.00     0.058 A 
ATOM     62  C   UNL A   1      45.708  29.003  35.448  1.00  0.00     0.135 A 
ATOM     63  C   UNL A   1      44.086  27.676  36.625  1.00  0.00     0.135 A 
ATOM     64  F   UNL A   1      46.031  29.946  34.550  1.00  0.00    -0.206 F 
ATOM     65  C   UNL A   1      46.741  28.333  36.097  1.00  0.00     0.059 A 
ATOM     66  C   UNL A   1      45.102  27.015  37.309  1.00  0.00     0.059 A 
ATOM     67  F   UNL A   1      42.817  27.328  36.892  1.00  0.00    -0.206 F 
ATOM     68  C   UNL A   1      46.428  27.341  37.027  1.00  0.00     0.060 A 
BRANCH  68  69
ATOM     69  S   UNL A   1      47.780  26.490  37.865  1.00  0.00     0.124 S 
ATOM     70  O   UNL A   1      47.052  25.548  38.710  1.00  0.00    -0.237 OA
ATOM     71  O   UNL A   1      48.516  25.901  36.749  1.00  0.00    -0.237 OA
ATOM     72  O   UNL A   1      48.473  27.562  38.572  1.00  0.00    -0.744 OA
ENDBRANCH  68  69
ENDBRANCH  47  61
BRANCH  48  73
ATOM     73  C   UNL A   1      36.741  33.115  30.955  1.00  0.00     0.058 A 
ATOM     74  C   UNL A   1      35.433  32.914  31.420  1.00  0.00     0.135 A 
ATOM     75  C   UNL A   1      36.916  33.947  29.838  1.00  0.00     0.135 A 
ATOM     76  F   UNL A   1      35.212  32.121  32.479  1.00  0.00    -0.206 F 
ATOM     77  C   UNL A   1      34.338  33.501  30.793  1.00  0.00     0.059 A 
ATOM     78  C   UNL A   1      35.841  34.568  29.212  1.00  0.00     0.059 A 
ATOM     79  F   UNL A   1      38.149  34.186  29.363  1.00  0.00    -0.206 F 
ATOM     80  C   UNL A   1      34.553  34.331  29.691  1.00  0.00     0.060 A 
BRANCH  80  81
ATOM     81  S   UNL A   1      33.129  35.125  28.914  1.00  0.00     0.124 S 
ATOM     82  O   UNL A   1      32.695  34.096  27.976  1.00  0.00    -0.237 OA
ATOM     83  O   UNL A   1      32.251  35.361  30.056  1.00  0.00    -0.237 OA
ATOM     84  O   UNL A   1      33.702  36.326  28.313  1.00  0.00    -0.744 OA
ENDBRANCH  80  81
ENDBRANCH  48  73
BRANCH  60  85
ATOM     85  C   UNL A   1      40.104  34.365  36.946  1.00  0.00     0.058 A 
ATOM     86  C   UNL A   1      40.846  35.556  36.941  1.00  0.00     0.135 A 
ATOM     87  C   UNL A   1      39.136  34.201  37.950  1.00  0.00     0.135 A 
ATOM     88  F   UNL A   1      41.791  35.760  36.010  1.00  0.00    -0.206 F 
ATOM     89  C   UNL A   1      40.645  36.541  37.903  1.00  0.00     0.059 A 
ATOM     90  C   UNL A   1      38.896  35.186  38.902  1.00  0.00     0.059 A 
ATOM     91  F   UNL A   1      38.392  33.084  37.996  1.00  0.00    -0.206 F 
ATOM     92  C   UNL A   1      39.662  36.350  38.875  1.00  0.00     0.060 A 
BRANCH  92  93
ATOM     93  S   UNL A   1      39.376  37.661  40.083  1.00  0.00     0.124 S 
ATOM     94  O   UNL A   1      40.617  38.424  39.988  1.00  0.00    -0.237 OA
ATOM     95  O   UNL A   1      38.186  38.318  39.553  1.00  0.00    -0.237 OA
ATOM     96  O   UNL A   1      39.180  36.935  41.334  1.00  0.00    -0.744 OA
ENDBRANCH  92  93
ENDBRANCH  60  85
ENDBRANCH  34  35
ENDBRANCH  26  29
ENDBRANCH  24  25
ENDBRANCH  23  24
ENDBRANCH  22  23
ENDBRANCH   1  22
TORSDOF 20
ENDMDL
