MODEL 1
REMARK VINA RESULT:     -13.7      0.000      0.000
REMARK SMILES Cc1cccc(C(=O)NCCCCCCNC(=O)c2ccc(-c3c4nc(c(-c5c(F)cc(S(=O)(=O)[O-])cc5F)c5ccc([nH]5)c(-c5c(F)cc(S(=O)(=O)[O-])cc5F)c5nc(c(-c6c(F)cc(S(=O)(=O)[O-])cc6F)c6ccc3[nH]6)C=C5)C=C4)cc2)c1OC[C@@H]1C[C@H]2CC[C@@H]1C2
REMARK SMILES IDX 12 1 11 2 10 3 9 4 7 5 8 6 6 8 1 9 2 10 3 11 85 12 4 13 5 14
REMARK SMILES IDX 86 15 87 16 88 17 89 18 93 19 90 20 92 21 94 22 91 23 13 24
REMARK SMILES IDX 14 25 15 26 16 27 17 28 18 30 19 31 20 32 84 33 21 34 83 35
REMARK SMILES IDX 22 36 23 37 24 38 77 39 25 40 82 41 76 42 78 43 26 44 81 45
REMARK SMILES IDX 75 46 74 47 27 49 61 50 40 51 60 52 41 53 44 54 59 55 79 56
REMARK SMILES IDX 42 57 43 58 58 60 80 61 45 62 28 63 29 64 38 65 30 66 31 67
REMARK SMILES IDX 37 68 39 69 32 70 33 71 34 72 35 73 36 74 62 75 63 76 72 77
REMARK SMILES IDX 64 78 65 79 71 80 73 81 66 82 67 83 68 84 69 85 70 86 46 87
REMARK SMILES IDX 47 88 56 89 48 90 49 91 55 92 57 93 50 94 51 95 52 96 53 97
REMARK SMILES IDX 54 98
REMARK H PARENT 9 7 16 29 78 48 44 59
REMARK Flexibility Score: inf
ROOT
ATOM      1  C   UNL A   1      33.578  28.934  24.634  1.00  0.00     0.002 C 
ENDROOT
BRANCH   1   2
ATOM      2  C   UNL A   1      33.296  29.144  23.139  1.00  0.00     0.021 C 
BRANCH   2   3
ATOM      3  C   UNL A   1      34.289  28.460  22.196  1.00  0.00     0.116 C 
BRANCH   3   4
ATOM      4  N   UNL A   1      33.628  27.435  21.431  1.00  0.00    -0.352 N 
ATOM      5  C   UNL A   1      32.977  26.288  21.773  1.00  0.00     0.255 C 
ATOM      6  O   UNL A   1      32.545  25.629  20.816  1.00  0.00    -0.269 OA
ATOM      7  H   UNL A   1      33.650  27.597  20.459  1.00  0.00     0.163 HD
BRANCH   5   8
ATOM      8  C   UNL A   1      32.678  25.778  23.154  1.00  0.00     0.082 A 
ATOM      9  C   UNL A   1      30.596  26.338  26.317  1.00  0.00     0.048 C 
ATOM     10  C   UNL A   1      31.593  25.779  25.333  1.00  0.00    -0.008 A 
ATOM     11  C   UNL A   1      32.771  25.267  25.913  1.00  0.00     0.007 A 
ATOM     12  C   UNL A   1      31.501  25.925  23.928  1.00  0.00     0.134 A 
ATOM     13  C   UNL A   1      33.882  24.985  25.138  1.00  0.00     0.001 A 
ATOM     14  C   UNL A   1      33.843  25.273  23.782  1.00  0.00     0.018 A 
BRANCH  12  15
ATOM     15  O   UNL A   1      30.343  26.324  23.329  1.00  0.00    -0.492 OA
BRANCH  15  16
ATOM     16  C   UNL A   1      30.250  27.633  22.710  1.00  0.00     0.233 C 
BRANCH  16  17
ATOM     17  C   UNL A   1      29.416  28.739  23.409  1.00  0.00     0.030 C 
ATOM     18  C   UNL A   1      27.907  28.679  23.022  1.00  0.00     0.011 C 
ATOM     19  C   UNL A   1      29.777  30.168  22.911  1.00  0.00    -0.004 C 
ATOM     20  C   UNL A   1      27.611  30.073  22.437  1.00  0.00    -0.010 C 
ATOM     21  C   UNL A   1      29.167  31.203  23.873  1.00  0.00     0.004 C 
ATOM     22  C   UNL A   1      28.898  30.352  21.672  1.00  0.00     0.007 C 
ATOM     23  C   UNL A   1      27.669  31.124  23.556  1.00  0.00     0.004 C 
ENDBRANCH  16  17
ENDBRANCH  15  16
ENDBRANCH  12  15
ENDBRANCH   5   8
ENDBRANCH   3   4
ENDBRANCH   2   3
ENDBRANCH   1   2
BRANCH   1  24
ATOM     24  C   UNL A   1      32.538  29.516  25.604  1.00  0.00     0.002 C 
BRANCH  24  25
ATOM     25  C   UNL A   1      33.057  29.916  26.987  1.00  0.00     0.021 C 
BRANCH  25  26
ATOM     26  C   UNL A   1      34.576  29.836  27.112  1.00  0.00     0.116 C 
BRANCH  26  27
ATOM     27  N   UNL A   1      35.120  30.940  27.879  1.00  0.00    -0.352 N 
ATOM     28  C   UNL A   1      36.179  30.906  28.779  1.00  0.00     0.251 C 
ATOM     29  H   UNL A   1      34.687  31.816  27.748  1.00  0.00     0.163 HD
ATOM     30  O   UNL A   1      36.408  31.804  29.574  1.00  0.00    -0.269 OA
BRANCH  28  31
ATOM     31  C   UNL A   1      37.112  29.778  28.625  1.00  0.00     0.039 A 
ATOM     32  C   UNL A   1      37.291  28.955  29.743  1.00  0.00     0.014 A 
ATOM     33  C   UNL A   1      37.984  29.744  27.545  1.00  0.00     0.014 A 
ATOM     34  C   UNL A   1      38.457  28.201  29.850  1.00  0.00     0.010 A 
ATOM     35  C   UNL A   1      39.172  29.053  27.685  1.00  0.00     0.010 A 
ATOM     36  C   UNL A   1      39.429  28.323  28.856  1.00  0.00    -0.014 A 
BRANCH  36  37
ATOM     37  C   UNL A   1      40.787  27.815  29.003  1.00  0.00     0.031 A 
ATOM     38  C   UNL A   1      41.136  26.453  28.544  1.00  0.00     0.074 A 
ATOM     39  C   UNL A   1      41.760  28.627  29.476  1.00  0.00     0.049 A 
ATOM     40  N   UNL A   1      42.180  25.807  28.939  1.00  0.00    -0.248 NA
ATOM     41  C   UNL A   1      40.309  25.694  27.611  1.00  0.00     0.031 C 
ATOM     42  C   UNL A   1      43.201  28.413  29.405  1.00  0.00     0.029 A 
ATOM     43  N   UNL A   1      41.616  29.740  30.307  1.00  0.00    -0.354 N 
ATOM     44  C   UNL A   1      42.308  24.691  28.151  1.00  0.00     0.074 A 
ATOM     45  C   UNL A   1      41.094  24.640  27.367  1.00  0.00     0.031 C 
ATOM     46  C   UNL A   1      43.799  29.169  30.337  1.00  0.00     0.029 A 
ATOM     47  C   UNL A   1      42.756  29.784  31.137  1.00  0.00     0.049 A 
ATOM     48  H   UNL A   1      40.862  30.374  30.312  1.00  0.00     0.167 HD
ATOM     49  C   UNL A   1      43.473  23.985  28.161  1.00  0.00     0.037 A 
ATOM     50  C   UNL A   1      42.627  29.649  32.490  1.00  0.00     0.037 A 
ATOM     51  C   UNL A   1      44.431  24.522  29.123  1.00  0.00     0.049 A 
ATOM     52  C   UNL A   1      43.253  28.388  33.061  1.00  0.00     0.074 A 
ATOM     53  C   UNL A   1      45.526  25.368  29.044  1.00  0.00     0.029 A 
ATOM     54  N   UNL A   1      44.130  24.425  30.467  1.00  0.00    -0.354 N 
ATOM     55  N   UNL A   1      43.906  27.498  32.364  1.00  0.00    -0.248 NA
ATOM     56  C   UNL A   1      43.118  27.991  34.466  1.00  0.00     0.031 C 
ATOM     57  C   UNL A   1      45.860  25.792  30.364  1.00  0.00     0.029 A 
ATOM     58  C   UNL A   1      44.974  25.196  31.241  1.00  0.00     0.049 A 
ATOM     59  H   UNL A   1      43.400  23.872  30.830  1.00  0.00     0.167 HD
ATOM     60  C   UNL A   1      44.184  26.411  33.154  1.00  0.00     0.074 A 
ATOM     61  C   UNL A   1      43.701  26.780  34.470  1.00  0.00     0.031 C 
ATOM     62  C   UNL A   1      44.735  25.260  32.673  1.00  0.00     0.037 A 
BRANCH  49  63
ATOM     63  C   UNL A   1      43.796  22.939  27.130  1.00  0.00     0.058 A 
ATOM     64  C   UNL A   1      43.039  21.753  27.044  1.00  0.00     0.135 A 
ATOM     65  C   UNL A   1      44.874  23.032  26.227  1.00  0.00     0.135 A 
ATOM     66  F   UNL A   1      41.951  21.561  27.802  1.00  0.00    -0.206 F 
ATOM     67  C   UNL A   1      43.382  20.699  26.199  1.00  0.00     0.059 A 
ATOM     68  C   UNL A   1      45.272  21.968  25.411  1.00  0.00     0.059 A 
ATOM     69  F   UNL A   1      45.572  24.172  26.102  1.00  0.00    -0.206 F 
ATOM     70  C   UNL A   1      44.522  20.798  25.413  1.00  0.00     0.060 A 
BRANCH  70  71
ATOM     71  S   UNL A   1      45.018  19.369  24.431  1.00  0.00     0.124 S 
ATOM     72  O   UNL A   1      44.397  19.651  23.139  1.00  0.00    -0.237 OA
ATOM     73  O   UNL A   1      46.473  19.467  24.468  1.00  0.00    -0.237 OA
ATOM     74  O   UNL A   1      44.443  18.241  25.158  1.00  0.00    -0.744 OA
ENDBRANCH  70  71
ENDBRANCH  49  63
BRANCH  50  75
ATOM     75  C   UNL A   1      41.408  30.333  33.009  1.00  0.00     0.058 A 
ATOM     76  C   UNL A   1      40.266  29.543  33.257  1.00  0.00     0.135 A 
ATOM     77  C   UNL A   1      41.481  31.580  33.641  1.00  0.00     0.135 A 
ATOM     78  F   UNL A   1      40.138  28.344  32.665  1.00  0.00    -0.206 F 
ATOM     79  C   UNL A   1      39.320  29.899  34.213  1.00  0.00     0.059 A 
ATOM     80  C   UNL A   1      40.535  31.965  34.595  1.00  0.00     0.059 A 
ATOM     81  F   UNL A   1      42.541  32.378  33.445  1.00  0.00    -0.206 F 
ATOM     82  C   UNL A   1      39.500  31.086  34.920  1.00  0.00     0.060 A 
BRANCH  82  83
ATOM     83  S   UNL A   1      38.459  31.378  36.370  1.00  0.00     0.124 S 
ATOM     84  O   UNL A   1      39.376  32.071  37.266  1.00  0.00    -0.237 OA
ATOM     85  O   UNL A   1      37.381  32.196  35.816  1.00  0.00    -0.237 OA
ATOM     86  O   UNL A   1      38.071  30.033  36.778  1.00  0.00    -0.744 OA
ENDBRANCH  82  83
ENDBRANCH  50  75
BRANCH  62  87
ATOM     87  C   UNL A   1      45.074  24.074  33.535  1.00  0.00     0.058 A 
ATOM     88  C   UNL A   1      46.386  23.813  33.962  1.00  0.00     0.135 A 
ATOM     89  C   UNL A   1      44.114  23.087  33.845  1.00  0.00     0.135 A 
ATOM     90  F   UNL A   1      47.382  24.668  33.675  1.00  0.00    -0.206 F 
ATOM     91  C   UNL A   1      46.719  22.663  34.679  1.00  0.00     0.059 A 
ATOM     92  C   UNL A   1      44.431  21.909  34.514  1.00  0.00     0.059 A 
ATOM     93  F   UNL A   1      42.819  23.249  33.531  1.00  0.00    -0.206 F 
ATOM     94  C   UNL A   1      45.734  21.714  34.949  1.00  0.00     0.060 A 
BRANCH  94  95
ATOM     95  S   UNL A   1      46.161  20.213  35.852  1.00  0.00     0.124 S 
ATOM     96  O   UNL A   1      47.604  20.116  35.645  1.00  0.00    -0.237 OA
ATOM     97  O   UNL A   1      45.739  20.560  37.204  1.00  0.00    -0.237 OA
ATOM     98  O   UNL A   1      45.370  19.182  35.187  1.00  0.00    -0.744 OA
ENDBRANCH  94  95
ENDBRANCH  62  87
ENDBRANCH  36  37
ENDBRANCH  28  31
ENDBRANCH  26  27
ENDBRANCH  25  26
ENDBRANCH  24  25
ENDBRANCH   1  24
TORSDOF 19
ENDMDL
MODEL 2
REMARK VINA RESULT:     -13.4      2.301      4.078
REMARK SMILES Cc1cccc(C(=O)NCCCCCCNC(=O)c2ccc(-c3c4nc(c(-c5c(F)cc(S(=O)(=O)[O-])cc5F)c5ccc([nH]5)c(-c5c(F)cc(S(=O)(=O)[O-])cc5F)c5nc(c(-c6c(F)cc(S(=O)(=O)[O-])cc6F)c6ccc3[nH]6)C=C5)C=C4)cc2)c1OC[C@@H]1C[C@H]2CC[C@@H]1C2
REMARK SMILES IDX 12 1 11 2 10 3 9 4 7 5 8 6 6 8 1 9 2 10 3 11 85 12 4 13 5 14
REMARK SMILES IDX 86 15 87 16 88 17 89 18 93 19 90 20 92 21 94 22 91 23 13 24
REMARK SMILES IDX 14 25 15 26 16 27 17 28 18 30 19 31 20 32 84 33 21 34 83 35
REMARK SMILES IDX 22 36 23 37 24 38 77 39 25 40 82 41 76 42 78 43 26 44 81 45
REMARK SMILES IDX 75 46 74 47 27 49 61 50 40 51 60 52 41 53 44 54 59 55 79 56
REMARK SMILES IDX 42 57 43 58 58 60 80 61 45 62 28 63 29 64 38 65 30 66 31 67
REMARK SMILES IDX 37 68 39 69 32 70 33 71 34 72 35 73 36 74 62 75 63 76 72 77
REMARK SMILES IDX 64 78 65 79 71 80 73 81 66 82 67 83 68 84 69 85 70 86 46 87
REMARK SMILES IDX 47 88 56 89 48 90 49 91 55 92 57 93 50 94 51 95 52 96 53 97
REMARK SMILES IDX 54 98
REMARK H PARENT 9 7 16 29 78 48 44 59
REMARK Flexibility Score: inf
ROOT
ATOM      1  C   UNL A   1      33.688  27.451  25.773  1.00  0.00     0.002 C 
ENDROOT
BRANCH   1   2
ATOM      2  C   UNL A   1      33.701  26.771  24.396  1.00  0.00     0.021 C 
BRANCH   2   3
ATOM      3  C   UNL A   1      32.558  25.779  24.158  1.00  0.00     0.116 C 
BRANCH   3   4
ATOM      4  N   UNL A   1      32.818  24.988  22.985  1.00  0.00    -0.352 N 
ATOM      5  C   UNL A   1      33.588  23.888  22.752  1.00  0.00     0.255 C 
ATOM      6  O   UNL A   1      33.583  23.487  21.579  1.00  0.00    -0.269 OA
ATOM      7  H   UNL A   1      32.340  25.307  22.184  1.00  0.00     0.163 HD
BRANCH   5   8
ATOM      8  C   UNL A   1      34.375  23.089  23.751  1.00  0.00     0.082 A 
ATOM      9  C   UNL A   1      34.446  21.756  27.339  1.00  0.00     0.048 C 
ATOM     10  C   UNL A   1      34.837  22.084  25.920  1.00  0.00    -0.008 A 
ATOM     11  C   UNL A   1      36.214  22.309  25.724  1.00  0.00     0.007 A 
ATOM     12  C   UNL A   1      33.918  22.365  24.880  1.00  0.00     0.134 A 
ATOM     13  C   UNL A   1      36.683  22.887  24.559  1.00  0.00     0.001 A 
ATOM     14  C   UNL A   1      35.768  23.304  23.603  1.00  0.00     0.018 A 
BRANCH  12  15
ATOM     15  O   UNL A   1      32.593  22.067  25.001  1.00  0.00    -0.492 OA
BRANCH  15  16
ATOM     16  C   UNL A   1      32.073  20.815  24.485  1.00  0.00     0.233 C 
BRANCH  16  17
ATOM     17  C   UNL A   1      33.061  19.778  23.890  1.00  0.00     0.030 C 
ATOM     18  C   UNL A   1      32.381  18.838  22.848  1.00  0.00     0.011 C 
ATOM     19  C   UNL A   1      33.539  18.733  24.941  1.00  0.00    -0.004 C 
ATOM     20  C   UNL A   1      32.622  17.421  23.403  1.00  0.00    -0.010 C 
ATOM     21  C   UNL A   1      34.748  17.969  24.373  1.00  0.00     0.004 C 
ATOM     22  C   UNL A   1      32.453  17.655  24.898  1.00  0.00     0.007 C 
ATOM     23  C   UNL A   1      34.116  17.075  23.299  1.00  0.00     0.004 C 
ENDBRANCH  16  17
ENDBRANCH  15  16
ENDBRANCH  12  15
ENDBRANCH   5   8
ENDBRANCH   3   4
ENDBRANCH   2   3
ENDBRANCH   1   2
BRANCH   1  24
ATOM     24  C   UNL A   1      32.682  28.600  25.946  1.00  0.00     0.002 C 
BRANCH  24  25
ATOM     25  C   UNL A   1      33.190  29.831  26.701  1.00  0.00     0.021 C 
BRANCH  25  26
ATOM     26  C   UNL A   1      34.401  29.544  27.584  1.00  0.00     0.116 C 
BRANCH  26  27
ATOM     27  N   UNL A   1      35.057  30.761  28.024  1.00  0.00    -0.352 N 
ATOM     28  C   UNL A   1      36.273  30.876  28.685  1.00  0.00     0.251 C 
ATOM     29  H   UNL A   1      34.584  31.604  27.832  1.00  0.00     0.163 HD
ATOM     30  O   UNL A   1      36.632  31.897  29.251  1.00  0.00    -0.269 OA
BRANCH  28  31
ATOM     31  C   UNL A   1      37.187  29.730  28.547  1.00  0.00     0.039 A 
ATOM     32  C   UNL A   1      37.397  28.952  29.692  1.00  0.00     0.014 A 
ATOM     33  C   UNL A   1      38.019  29.640  27.438  1.00  0.00     0.014 A 
ATOM     34  C   UNL A   1      38.557  28.189  29.789  1.00  0.00     0.010 A 
ATOM     35  C   UNL A   1      39.203  28.939  27.566  1.00  0.00     0.010 A 
ATOM     36  C   UNL A   1      39.494  28.256  28.757  1.00  0.00    -0.014 A 
BRANCH  36  37
ATOM     37  C   UNL A   1      40.851  27.737  28.877  1.00  0.00     0.031 A 
ATOM     38  C   UNL A   1      41.177  26.368  28.421  1.00  0.00     0.074 A 
ATOM     39  C   UNL A   1      41.841  28.543  29.321  1.00  0.00     0.049 A 
ATOM     40  N   UNL A   1      42.224  25.716  28.797  1.00  0.00    -0.248 NA
ATOM     41  C   UNL A   1      40.322  25.610  27.513  1.00  0.00     0.031 C 
ATOM     42  C   UNL A   1      43.279  28.315  29.220  1.00  0.00     0.029 A 
ATOM     43  N   UNL A   1      41.726  29.664  30.146  1.00  0.00    -0.354 N 
ATOM     44  C   UNL A   1      42.324  24.593  28.015  1.00  0.00     0.074 A 
ATOM     45  C   UNL A   1      41.092  24.546  27.259  1.00  0.00     0.031 C 
ATOM     46  C   UNL A   1      43.904  29.074  30.131  1.00  0.00     0.029 A 
ATOM     47  C   UNL A   1      42.886  29.704  30.950  1.00  0.00     0.049 A 
ATOM     48  H   UNL A   1      40.978  30.305  30.164  1.00  0.00     0.167 HD
ATOM     49  C   UNL A   1      43.483  23.877  28.004  1.00  0.00     0.037 A 
ATOM     50  C   UNL A   1      42.786  29.580  32.307  1.00  0.00     0.037 A 
ATOM     51  C   UNL A   1      44.467  24.412  28.939  1.00  0.00     0.049 A 
ATOM     52  C   UNL A   1      43.413  28.318  32.874  1.00  0.00     0.074 A 
ATOM     53  C   UNL A   1      45.567  25.247  28.829  1.00  0.00     0.029 A 
ATOM     54  N   UNL A   1      44.196  24.328  30.291  1.00  0.00    -0.354 N 
ATOM     55  N   UNL A   1      44.043  27.417  32.168  1.00  0.00    -0.248 NA
ATOM     56  C   UNL A   1      43.307  27.933  34.284  1.00  0.00     0.031 C 
ATOM     57  C   UNL A   1      45.935  25.678  30.138  1.00  0.00     0.029 A 
ATOM     58  C   UNL A   1      45.064  25.097  31.039  1.00  0.00     0.049 A 
ATOM     59  H   UNL A   1      43.469  23.784  30.675  1.00  0.00     0.167 HD
ATOM     60  C   UNL A   1      44.329  26.333  32.960  1.00  0.00     0.074 A 
ATOM     61  C   UNL A   1      43.879  26.717  34.284  1.00  0.00     0.031 C 
ATOM     62  C   UNL A   1      44.859  25.173  32.476  1.00  0.00     0.037 A 
BRANCH  49  63
ATOM     63  C   UNL A   1      43.772  22.819  26.974  1.00  0.00     0.058 A 
ATOM     64  C   UNL A   1      43.029  21.623  26.939  1.00  0.00     0.135 A 
ATOM     65  C   UNL A   1      44.807  22.914  26.021  1.00  0.00     0.135 A 
ATOM     66  F   UNL A   1      41.980  21.428  27.749  1.00  0.00    -0.206 F 
ATOM     67  C   UNL A   1      43.348  20.561  26.094  1.00  0.00     0.059 A 
ATOM     68  C   UNL A   1      45.182  21.843  25.203  1.00  0.00     0.059 A 
ATOM     69  F   UNL A   1      45.482  24.060  25.849  1.00  0.00    -0.206 F 
ATOM     70  C   UNL A   1      44.449  20.663  25.255  1.00  0.00     0.060 A 
BRANCH  70  71
ATOM     71  S   UNL A   1      44.920  19.227  24.272  1.00  0.00     0.124 S 
ATOM     72  O   UNL A   1      46.372  19.210  24.427  1.00  0.00    -0.237 OA
ATOM     73  O   UNL A   1      44.198  18.152  24.942  1.00  0.00    -0.237 OA
ATOM     74  O   UNL A   1      44.448  19.564  22.931  1.00  0.00    -0.744 OA
ENDBRANCH  70  71
ENDBRANCH  49  63
BRANCH  50  75
ATOM     75  C   UNL A   1      41.585  30.280  32.848  1.00  0.00     0.058 A 
ATOM     76  C   UNL A   1      40.469  29.492  33.200  1.00  0.00     0.135 A 
ATOM     77  C   UNL A   1      41.672  31.562  33.403  1.00  0.00     0.135 A 
ATOM     78  F   UNL A   1      40.328  28.259  32.686  1.00  0.00    -0.206 F 
ATOM     79  C   UNL A   1      39.569  29.893  34.182  1.00  0.00     0.059 A 
ATOM     80  C   UNL A   1      40.771  31.991  34.381  1.00  0.00     0.059 A 
ATOM     81  F   UNL A   1      42.709  32.359  33.106  1.00  0.00    -0.206 F 
ATOM     82  C   UNL A   1      39.767  31.120  34.809  1.00  0.00     0.060 A 
BRANCH  82  83
ATOM     83  S   UNL A   1      38.797  31.485  36.292  1.00  0.00     0.124 S 
ATOM     84  O   UNL A   1      37.876  32.506  35.807  1.00  0.00    -0.237 OA
ATOM     85  O   UNL A   1      38.196  30.186  36.594  1.00  0.00    -0.237 OA
ATOM     86  O   UNL A   1      39.802  31.940  37.244  1.00  0.00    -0.744 OA
ENDBRANCH  82  83
ENDBRANCH  50  75
BRANCH  62  87
ATOM     87  C   UNL A   1      45.206  23.991  33.339  1.00  0.00     0.058 A 
ATOM     88  C   UNL A   1      44.274  22.984  33.635  1.00  0.00     0.135 A 
ATOM     89  C   UNL A   1      46.446  23.904  34.009  1.00  0.00     0.135 A 
ATOM     90  F   UNL A   1      43.048  23.004  33.086  1.00  0.00    -0.206 F 
ATOM     91  C   UNL A   1      44.563  21.939  34.514  1.00  0.00     0.059 A 
ATOM     92  C   UNL A   1      46.740  22.900  34.927  1.00  0.00     0.059 A 
ATOM     93  F   UNL A   1      47.433  24.781  33.769  1.00  0.00    -0.206 F 
ATOM     94  C   UNL A   1      45.800  21.907  35.158  1.00  0.00     0.060 A 
BRANCH  94  95
ATOM     95  S   UNL A   1      46.170  20.574  36.313  1.00  0.00     0.124 S 
ATOM     96  O   UNL A   1      45.364  19.470  35.798  1.00  0.00    -0.237 OA
ATOM     97  O   UNL A   1      47.612  20.436  36.142  1.00  0.00    -0.237 OA
ATOM     98  O   UNL A   1      45.735  21.111  37.599  1.00  0.00    -0.744 OA
ENDBRANCH  94  95
ENDBRANCH  62  87
ENDBRANCH  36  37
ENDBRANCH  28  31
ENDBRANCH  26  27
ENDBRANCH  25  26
ENDBRANCH  24  25
ENDBRANCH   1  24
TORSDOF 19
ENDMDL
MODEL 3
REMARK VINA RESULT:     -13.3      1.781      3.819
REMARK SMILES Cc1cccc(C(=O)NCCCCCCNC(=O)c2ccc(-c3c4nc(c(-c5c(F)cc(S(=O)(=O)[O-])cc5F)c5ccc([nH]5)c(-c5c(F)cc(S(=O)(=O)[O-])cc5F)c5nc(c(-c6c(F)cc(S(=O)(=O)[O-])cc6F)c6ccc3[nH]6)C=C5)C=C4)cc2)c1OC[C@@H]1C[C@H]2CC[C@@H]1C2
REMARK SMILES IDX 12 1 11 2 10 3 9 4 7 5 8 6 6 8 1 9 2 10 3 11 85 12 4 13 5 14
REMARK SMILES IDX 86 15 87 16 88 17 89 18 93 19 90 20 92 21 94 22 91 23 13 24
REMARK SMILES IDX 14 25 15 26 16 27 17 28 18 30 19 31 20 32 84 33 21 34 83 35
REMARK SMILES IDX 22 36 23 37 24 38 77 39 25 40 82 41 76 42 78 43 26 44 81 45
REMARK SMILES IDX 75 46 74 47 27 49 61 50 40 51 60 52 41 53 44 54 59 55 79 56
REMARK SMILES IDX 42 57 43 58 58 60 80 61 45 62 28 63 29 64 38 65 30 66 31 67
REMARK SMILES IDX 37 68 39 69 32 70 33 71 34 72 35 73 36 74 62 75 63 76 72 77
REMARK SMILES IDX 64 78 65 79 71 80 73 81 66 82 67 83 68 84 69 85 70 86 46 87
REMARK SMILES IDX 47 88 56 89 48 90 49 91 55 92 57 93 50 94 51 95 52 96 53 97
REMARK SMILES IDX 54 98
REMARK H PARENT 9 7 16 29 78 48 44 59
REMARK Flexibility Score: inf
ROOT
ATOM      1  C   UNL A   1      33.655  27.242  24.988  1.00  0.00     0.002 C 
ENDROOT
BRANCH   1   2
ATOM      2  C   UNL A   1      34.010  28.090  23.758  1.00  0.00     0.021 C 
BRANCH   2   3
ATOM      3  C   UNL A   1      32.873  28.263  22.747  1.00  0.00     0.116 C 
BRANCH   3   4
ATOM      4  N   UNL A   1      33.063  27.383  21.624  1.00  0.00    -0.352 N 
ATOM      5  C   UNL A   1      32.959  26.033  21.467  1.00  0.00     0.255 C 
ATOM      6  O   UNL A   1      33.228  25.618  20.331  1.00  0.00    -0.269 OA
ATOM      7  H   UNL A   1      33.321  27.853  20.797  1.00  0.00     0.163 HD
BRANCH   5   8
ATOM      8  C   UNL A   1      32.505  25.023  22.482  1.00  0.00     0.082 A 
ATOM      9  C   UNL A   1      33.018  21.470  23.813  1.00  0.00     0.048 C 
ATOM     10  C   UNL A   1      32.479  22.863  23.606  1.00  0.00    -0.008 A 
ATOM     11  C   UNL A   1      31.092  22.997  23.818  1.00  0.00     0.007 A 
ATOM     12  C   UNL A   1      33.216  23.932  23.042  1.00  0.00     0.134 A 
ATOM     13  C   UNL A   1      30.414  24.128  23.401  1.00  0.00     0.001 A 
ATOM     14  C   UNL A   1      31.110  25.109  22.709  1.00  0.00     0.018 A 
BRANCH  12  15
ATOM     15  O   UNL A   1      34.572  23.873  22.915  1.00  0.00    -0.492 OA
BRANCH  15  16
ATOM     16  C   UNL A   1      35.431  24.321  23.995  1.00  0.00     0.233 C 
BRANCH  16  17
ATOM     17  C   UNL A   1      36.734  23.534  24.296  1.00  0.00     0.030 C 
ATOM     18  C   UNL A   1      36.715  22.098  23.689  1.00  0.00     0.011 C 
ATOM     19  C   UNL A   1      36.897  23.199  25.807  1.00  0.00    -0.004 C 
ATOM     20  C   UNL A   1      36.935  21.173  24.901  1.00  0.00    -0.010 C 
ATOM     21  C   UNL A   1      38.341  22.732  26.064  1.00  0.00     0.004 C 
ATOM     22  C   UNL A   1      36.123  21.889  25.972  1.00  0.00     0.007 C 
ATOM     23  C   UNL A   1      38.370  21.340  25.423  1.00  0.00     0.004 C 
ENDBRANCH  16  17
ENDBRANCH  15  16
ENDBRANCH  12  15
ENDBRANCH   5   8
ENDBRANCH   3   4
ENDBRANCH   2   3
ENDBRANCH   1   2
BRANCH   1  24
ATOM     24  C   UNL A   1      33.147  28.016  26.215  1.00  0.00     0.002 C 
BRANCH  24  25
ATOM     25  C   UNL A   1      33.877  29.323  26.537  1.00  0.00     0.021 C 
BRANCH  25  26
ATOM     26  C   UNL A   1      34.321  29.426  27.993  1.00  0.00     0.116 C 
BRANCH  26  27
ATOM     27  N   UNL A   1      34.995  30.681  28.270  1.00  0.00    -0.352 N 
ATOM     28  C   UNL A   1      36.253  30.860  28.832  1.00  0.00     0.251 C 
ATOM     29  H   UNL A   1      34.503  31.501  28.033  1.00  0.00     0.163 HD
ATOM     30  O   UNL A   1      36.641  31.930  29.274  1.00  0.00    -0.269 OA
BRANCH  28  31
ATOM     31  C   UNL A   1      37.165  29.708  28.739  1.00  0.00     0.039 A 
ATOM     32  C   UNL A   1      37.366  28.970  29.912  1.00  0.00     0.014 A 
ATOM     33  C   UNL A   1      38.003  29.577  27.639  1.00  0.00     0.014 A 
ATOM     34  C   UNL A   1      38.524  28.208  30.042  1.00  0.00     0.010 A 
ATOM     35  C   UNL A   1      39.184  28.879  27.798  1.00  0.00     0.010 A 
ATOM     36  C   UNL A   1      39.467  28.237  29.013  1.00  0.00    -0.014 A 
BRANCH  36  37
ATOM     37  C   UNL A   1      40.822  27.719  29.159  1.00  0.00     0.031 A 
ATOM     38  C   UNL A   1      41.170  26.369  28.665  1.00  0.00     0.074 A 
ATOM     39  C   UNL A   1      41.793  28.513  29.664  1.00  0.00     0.049 A 
ATOM     40  N   UNL A   1      42.207  25.708  29.052  1.00  0.00    -0.248 NA
ATOM     41  C   UNL A   1      40.349  25.641  27.703  1.00  0.00     0.031 C 
ATOM     42  C   UNL A   1      43.234  28.295  29.602  1.00  0.00     0.029 A 
ATOM     43  N   UNL A   1      41.645  29.603  30.525  1.00  0.00    -0.354 N 
ATOM     44  C   UNL A   1      42.339  24.614  28.233  1.00  0.00     0.074 A 
ATOM     45  C   UNL A   1      41.132  24.590  27.436  1.00  0.00     0.031 C 
ATOM     46  C   UNL A   1      43.826  29.022  30.560  1.00  0.00     0.029 A 
ATOM     47  C   UNL A   1      42.778  29.618  31.367  1.00  0.00     0.049 A 
ATOM     48  H   UNL A   1      40.894  30.240  30.541  1.00  0.00     0.167 HD
ATOM     49  C   UNL A   1      43.501  23.904  28.234  1.00  0.00     0.037 A 
ATOM     50  C   UNL A   1      42.634  29.445  32.715  1.00  0.00     0.037 A 
ATOM     51  C   UNL A   1      44.451  24.409  29.220  1.00  0.00     0.049 A 
ATOM     52  C   UNL A   1      43.249  28.165  33.256  1.00  0.00     0.074 A 
ATOM     53  C   UNL A   1      45.550  25.252  29.176  1.00  0.00     0.029 A 
ATOM     54  N   UNL A   1      44.136  24.275  30.558  1.00  0.00    -0.354 N 
ATOM     55  N   UNL A   1      43.906  27.293  32.540  1.00  0.00    -0.248 NA
ATOM     56  C   UNL A   1      43.099  27.730  34.648  1.00  0.00     0.031 C 
ATOM     57  C   UNL A   1      45.873  25.637  30.511  1.00  0.00     0.029 A 
ATOM     58  C   UNL A   1      44.976  25.020  31.362  1.00  0.00     0.049 A 
ATOM     59  H   UNL A   1      43.401  23.714  30.898  1.00  0.00     0.167 HD
ATOM     60  C   UNL A   1      44.172  26.183  33.301  1.00  0.00     0.074 A 
ATOM     61  C   UNL A   1      43.677  26.517  34.622  1.00  0.00     0.031 C 
ATOM     62  C   UNL A   1      44.724  25.043  32.792  1.00  0.00     0.037 A 
BRANCH  49  63
ATOM     63  C   UNL A   1      43.829  22.885  27.177  1.00  0.00     0.058 A 
ATOM     64  C   UNL A   1      43.041  21.728  27.020  1.00  0.00     0.135 A 
ATOM     65  C   UNL A   1      44.942  22.978  26.316  1.00  0.00     0.135 A 
ATOM     66  F   UNL A   1      41.922  21.543  27.732  1.00  0.00    -0.206 F 
ATOM     67  C   UNL A   1      43.383  20.695  26.149  1.00  0.00     0.059 A 
ATOM     68  C   UNL A   1      45.337  21.932  25.476  1.00  0.00     0.059 A 
ATOM     69  F   UNL A   1      45.677  24.099  26.259  1.00  0.00    -0.206 F 
ATOM     70  C   UNL A   1      44.554  20.787  25.408  1.00  0.00     0.060 A 
BRANCH  70  71
ATOM     71  S   UNL A   1      45.043  19.380  24.391  1.00  0.00     0.124 S 
ATOM     72  O   UNL A   1      46.499  19.493  24.387  1.00  0.00    -0.237 OA
ATOM     73  O   UNL A   1      44.497  18.258  25.145  1.00  0.00    -0.237 OA
ATOM     74  O   UNL A   1      44.401  19.649  23.107  1.00  0.00    -0.744 OA
ENDBRANCH  70  71
ENDBRANCH  49  63
BRANCH  50  75
ATOM     75  C   UNL A   1      41.413  30.120  33.241  1.00  0.00     0.058 A 
ATOM     76  C   UNL A   1      41.464  31.517  33.430  1.00  0.00     0.135 A 
ATOM     77  C   UNL A   1      40.149  29.527  33.144  1.00  0.00     0.135 A 
ATOM     78  F   UNL A   1      42.650  32.136  33.544  1.00  0.00    -0.206 F 
ATOM     79  C   UNL A   1      40.322  32.309  33.361  1.00  0.00     0.059 A 
ATOM     80  C   UNL A   1      38.988  30.301  33.086  1.00  0.00     0.059 A 
ATOM     81  F   UNL A   1      40.034  28.202  32.964  1.00  0.00    -0.206 F 
ATOM     82  C   UNL A   1      39.095  31.693  33.127  1.00  0.00     0.060 A 
BRANCH  82  83
ATOM     83  S   UNL A   1      37.680  32.743  32.718  1.00  0.00     0.124 S 
ATOM     84  O   UNL A   1      38.162  33.452  31.538  1.00  0.00    -0.237 OA
ATOM     85  O   UNL A   1      36.626  31.759  32.475  1.00  0.00    -0.237 OA
ATOM     86  O   UNL A   1      37.509  33.554  33.917  1.00  0.00    -0.744 OA
ENDBRANCH  82  83
ENDBRANCH  50  75
BRANCH  62  87
ATOM     87  C   UNL A   1      45.049  23.832  33.624  1.00  0.00     0.058 A 
ATOM     88  C   UNL A   1      46.366  23.516  33.997  1.00  0.00     0.135 A 
ATOM     89  C   UNL A   1      44.064  22.877  33.956  1.00  0.00     0.135 A 
ATOM     90  F   UNL A   1      47.381  24.337  33.684  1.00  0.00    -0.206 F 
ATOM     91  C   UNL A   1      46.681  22.342  34.684  1.00  0.00     0.059 A 
ATOM     92  C   UNL A   1      44.361  21.677  34.595  1.00  0.00     0.059 A 
ATOM     93  F   UNL A   1      42.766  23.092  33.694  1.00  0.00    -0.206 F 
ATOM     94  C   UNL A   1      45.671  21.427  34.977  1.00  0.00     0.060 A 
BRANCH  94  95
ATOM     95  S   UNL A   1      46.075  19.897  35.841  1.00  0.00     0.124 S 
ATOM     96  O   UNL A   1      45.230  18.915  35.166  1.00  0.00    -0.237 OA
ATOM     97  O   UNL A   1      47.505  19.786  35.578  1.00  0.00    -0.237 OA
ATOM     98  O   UNL A   1      45.707  20.183  37.224  1.00  0.00    -0.744 OA
ENDBRANCH  94  95
ENDBRANCH  62  87
ENDBRANCH  36  37
ENDBRANCH  28  31
ENDBRANCH  26  27
ENDBRANCH  25  26
ENDBRANCH  24  25
ENDBRANCH   1  24
TORSDOF 19
ENDMDL
