MODEL 1
REMARK VINA RESULT:     -10.6      0.000      0.000
REMARK SMILES CC(C)C[C@H](CNC(=O)Nc1cccc(Cl)c1)C(=O)NCCCCCCNC(=O)c1ccc(-c2c3nc(c(-c4c(F)cc(S(=O)(=O)[O-])cc4F)c4ccc([nH]4)c(-c4c(F)cc(S(=O)(=O)[O-])cc4F)c4nc(c(-c5c(F)cc(S(=O)(=O)[O-])cc5F)c5ccc2[nH]5)C=C4)C=C3)cc1
REMARK SMILES IDX 23 1 22 2 21 3 20 4 18 5 19 6 5 8 4 9 2 10 1 11 3 12 6 13
REMARK SMILES IDX 7 14 8 15 9 17 10 18 11 20 12 21 17 22 13 23 15 24 14 25
REMARK SMILES IDX 16 26 24 27 25 28 26 29 27 30 28 31 29 33 30 34 31 35 95 36
REMARK SMILES IDX 32 37 94 38 33 39 34 40 35 41 88 42 36 43 93 44 87 45 89 46
REMARK SMILES IDX 37 47 92 48 86 49 85 50 38 52 72 53 51 54 71 55 52 56 55 57
REMARK SMILES IDX 70 58 90 59 53 60 54 61 69 63 91 64 56 65 39 66 40 67 49 68
REMARK SMILES IDX 41 69 42 70 48 71 50 72 43 73 44 74 45 75 46 76 47 77 73 78
REMARK SMILES IDX 74 79 83 80 75 81 76 82 82 83 84 84 77 85 78 86 79 87 80 88
REMARK SMILES IDX 81 89 57 90 58 91 67 92 59 93 60 94 66 95 68 96 61 97 62 98
REMARK SMILES IDX 63 99 64 100 65 101
REMARK H PARENT 20 7 7 16 10 19 27 32 89 51 55 62
REMARK Flexibility Score: inf
ROOT
ATOM      1  C   UNL A   1      33.254  29.440  25.387  1.00  0.00     0.002 C 
ENDROOT
BRANCH   1   2
ATOM      2  C   UNL A   1      31.816  29.894  25.134  1.00  0.00     0.021 C 
BRANCH   2   3
ATOM      3  C   UNL A   1      31.086  29.034  24.110  1.00  0.00     0.116 C 
BRANCH   3   4
ATOM      4  N   UNL A   1      30.339  27.979  24.763  1.00  0.00    -0.356 N 
ATOM      5  C   UNL A   1      30.611  26.649  24.842  1.00  0.00     0.224 C 
ATOM      6  O   UNL A   1      29.762  25.907  25.337  1.00  0.00    -0.275 OA
ATOM      7  H   UNL A   1      29.514  28.267  25.214  1.00  0.00     0.163 HD
BRANCH   5   8
ATOM      8  C   UNL A   1      31.938  26.100  24.336  1.00  0.00     0.098 C 
BRANCH   8   9
ATOM      9  C   UNL A   1      31.778  25.074  23.201  1.00  0.00     0.018 C 
BRANCH   9  10
ATOM     10  C   UNL A   1      32.313  25.566  21.835  1.00  0.00    -0.017 C 
ATOM     11  C   UNL A   1      33.303  26.724  21.974  1.00  0.00     0.007 C 
ATOM     12  C   UNL A   1      32.964  24.410  21.076  1.00  0.00     0.007 C 
ENDBRANCH   9  10
ENDBRANCH   8   9
BRANCH   8  13
ATOM     13  C   UNL A   1      32.799  25.708  25.547  1.00  0.00     0.131 C 
BRANCH  13  14
ATOM     14  N   UNL A   1      32.232  24.778  26.516  1.00  0.00    -0.337 N 
ATOM     15  C   UNL A   1      32.382  23.459  26.754  1.00  0.00     0.319 C 
ATOM     16  H   UNL A   1      31.599  25.208  27.134  1.00  0.00     0.165 HD
ATOM     17  O   UNL A   1      31.598  22.929  27.542  1.00  0.00    -0.249 OA
ATOM     18  N   UNL A   1      33.266  22.688  26.085  1.00  0.00    -0.308 N 
ATOM     19  H   UNL A   1      33.070  21.723  26.101  1.00  0.00     0.171 HD
BRANCH  18  20
ATOM     20  C   UNL A   1      34.415  23.042  25.377  1.00  0.00     0.044 A 
ATOM     21  C   UNL A   1      34.520  22.847  23.995  1.00  0.00     0.026 A 
ATOM     22  C   UNL A   1      35.507  23.498  26.112  1.00  0.00     0.046 A 
ATOM     23  C   UNL A   1      35.764  22.959  23.374  1.00  0.00     0.004 A 
ATOM     24  C   UNL A   1      36.749  23.587  25.489  1.00  0.00     0.043 A 
ATOM     25  C   UNL A   1      36.887  23.295  24.131  1.00  0.00     0.020 A 
ATOM     26  Cl  UNL A   1      38.140  23.977  26.426  1.00  0.00    -0.084 Cl
ENDBRANCH  18  20
ENDBRANCH  13  14
ENDBRANCH   8  13
ENDBRANCH   5   8
ENDBRANCH   3   4
ENDBRANCH   2   3
ENDBRANCH   1   2
BRANCH   1  27
ATOM     27  C   UNL A   1      33.629  29.336  26.869  1.00  0.00     0.002 C 
BRANCH  27  28
ATOM     28  C   UNL A   1      34.205  30.621  27.470  1.00  0.00     0.021 C 
BRANCH  28  29
ATOM     29  C   UNL A   1      35.597  30.457  28.067  1.00  0.00     0.116 C 
BRANCH  29  30
ATOM     30  N   UNL A   1      35.543  30.329  29.515  1.00  0.00    -0.352 N 
ATOM     31  C   UNL A   1      36.507  29.868  30.375  1.00  0.00     0.251 C 
ATOM     32  H   UNL A   1      34.700  30.613  29.935  1.00  0.00     0.163 HD
ATOM     33  O   UNL A   1      36.221  29.596  31.535  1.00  0.00    -0.269 OA
BRANCH  31  34
ATOM     34  C   UNL A   1      37.888  29.693  29.881  1.00  0.00     0.039 A 
ATOM     35  C   UNL A   1      38.938  29.663  30.799  1.00  0.00     0.014 A 
ATOM     36  C   UNL A   1      38.137  29.548  28.512  1.00  0.00     0.014 A 
ATOM     37  C   UNL A   1      40.239  29.435  30.346  1.00  0.00     0.010 A 
ATOM     38  C   UNL A   1      39.421  29.246  28.072  1.00  0.00     0.010 A 
ATOM     39  C   UNL A   1      40.486  29.193  28.984  1.00  0.00    -0.014 A 
BRANCH  39  40
ATOM     40  C   UNL A   1      41.851  28.883  28.494  1.00  0.00     0.031 A 
ATOM     41  C   UNL A   1      42.203  27.480  28.079  1.00  0.00     0.074 A 
ATOM     42  C   UNL A   1      42.788  29.851  28.479  1.00  0.00     0.049 A 
ATOM     43  N   UNL A   1      43.354  26.999  27.688  1.00  0.00    -0.248 NA
ATOM     44  C   UNL A   1      41.123  26.480  28.134  1.00  0.00     0.031 C 
ATOM     45  C   UNL A   1      42.576  31.239  28.898  1.00  0.00     0.029 A 
ATOM     46  N   UNL A   1      44.108  29.817  28.107  1.00  0.00    -0.354 N 
ATOM     47  C   UNL A   1      43.142  25.645  27.458  1.00  0.00     0.074 A 
ATOM     48  C   UNL A   1      41.767  25.368  27.810  1.00  0.00     0.031 C 
ATOM     49  C   UNL A   1      43.716  31.928  28.732  1.00  0.00     0.029 A 
ATOM     50  C   UNL A   1      44.751  31.025  28.238  1.00  0.00     0.049 A 
ATOM     51  H   UNL A   1      44.553  29.004  27.775  1.00  0.00     0.167 HD
ATOM     52  C   UNL A   1      44.008  24.723  26.974  1.00  0.00     0.037 A 
ATOM     53  C   UNL A   1      46.032  31.366  27.997  1.00  0.00     0.037 A 
ATOM     54  C   UNL A   1      45.369  25.013  26.610  1.00  0.00     0.049 A 
ATOM     55  C   UNL A   1      46.980  30.317  27.482  1.00  0.00     0.074 A 
ATOM     56  C   UNL A   1      46.315  24.161  26.067  1.00  0.00     0.029 A 
ATOM     57  N   UNL A   1      45.983  26.250  26.754  1.00  0.00    -0.354 N 
ATOM     58  N   UNL A   1      46.748  29.054  27.217  1.00  0.00    -0.248 NA
ATOM     59  C   UNL A   1      48.364  30.740  27.228  1.00  0.00     0.031 C 
ATOM     60  C   UNL A   1      47.514  24.867  25.929  1.00  0.00     0.029 A 
ATOM     61  C   UNL A   1      47.300  26.177  26.331  1.00  0.00     0.049 A 
ATOM     62  H   UNL A   1      45.547  27.060  27.105  1.00  0.00     0.167 HD
ATOM     63  C   UNL A   1      47.947  28.538  26.736  1.00  0.00     0.074 A 
ATOM     64  C   UNL A   1      48.899  29.630  26.736  1.00  0.00     0.031 C 
ATOM     65  C   UNL A   1      48.234  27.277  26.330  1.00  0.00     0.037 A 
BRANCH  52  66
ATOM     66  C   UNL A   1      43.507  23.314  26.803  1.00  0.00     0.058 A 
ATOM     67  C   UNL A   1      43.256  22.770  25.532  1.00  0.00     0.135 A 
ATOM     68  C   UNL A   1      43.316  22.482  27.918  1.00  0.00     0.135 A 
ATOM     69  F   UNL A   1      43.406  23.524  24.432  1.00  0.00    -0.206 F 
ATOM     70  C   UNL A   1      42.809  21.462  25.375  1.00  0.00     0.059 A 
ATOM     71  C   UNL A   1      42.899  21.161  27.783  1.00  0.00     0.059 A 
ATOM     72  F   UNL A   1      43.537  22.950  29.157  1.00  0.00    -0.206 F 
ATOM     73  C   UNL A   1      42.636  20.664  26.507  1.00  0.00     0.060 A 
BRANCH  73  74
ATOM     74  S   UNL A   1      42.069  18.965  26.282  1.00  0.00     0.124 S 
ATOM     75  O   UNL A   1      40.706  19.174  25.805  1.00  0.00    -0.237 OA
ATOM     76  O   UNL A   1      43.013  18.450  25.296  1.00  0.00    -0.237 OA
ATOM     77  O   UNL A   1      42.184  18.388  27.618  1.00  0.00    -0.744 OA
ENDBRANCH  73  74
ENDBRANCH  52  66
BRANCH  53  78
ATOM     78  C   UNL A   1      46.486  32.765  28.218  1.00  0.00     0.058 A 
ATOM     79  C   UNL A   1      46.360  33.731  27.209  1.00  0.00     0.135 A 
ATOM     80  C   UNL A   1      47.043  33.169  29.441  1.00  0.00     0.135 A 
ATOM     81  F   UNL A   1      45.840  33.393  26.018  1.00  0.00    -0.206 F 
ATOM     82  C   UNL A   1      46.787  35.041  27.395  1.00  0.00     0.059 A 
ATOM     83  C   UNL A   1      47.450  34.481  29.663  1.00  0.00     0.059 A 
ATOM     84  F   UNL A   1      47.168  32.288  30.447  1.00  0.00    -0.206 F 
ATOM     85  C   UNL A   1      47.328  35.408  28.629  1.00  0.00     0.060 A 
BRANCH  85  86
ATOM     86  S   UNL A   1      47.835  37.123  28.876  1.00  0.00     0.124 S 
ATOM     87  O   UNL A   1      46.812  37.842  28.126  1.00  0.00    -0.237 OA
ATOM     88  O   UNL A   1      47.774  37.254  30.328  1.00  0.00    -0.237 OA
ATOM     89  O   UNL A   1      49.178  37.161  28.306  1.00  0.00    -0.744 OA
ENDBRANCH  85  86
ENDBRANCH  53  78
BRANCH  65  90
ATOM     90  C   UNL A   1      49.621  27.012  25.813  1.00  0.00     0.058 A 
ATOM     91  C   UNL A   1      49.934  27.111  24.448  1.00  0.00     0.135 A 
ATOM     92  C   UNL A   1      50.664  26.712  26.704  1.00  0.00     0.135 A 
ATOM     93  F   UNL A   1      48.973  27.388  23.553  1.00  0.00    -0.206 F 
ATOM     94  C   UNL A   1      51.228  26.901  23.983  1.00  0.00     0.059 A 
ATOM     95  C   UNL A   1      51.973  26.528  26.264  1.00  0.00     0.059 A 
ATOM     96  F   UNL A   1      50.423  26.615  28.022  1.00  0.00    -0.206 F 
ATOM     97  C   UNL A   1      52.242  26.615  24.900  1.00  0.00     0.060 A 
BRANCH  97  98
ATOM     98  S   UNL A   1      53.924  26.384  24.286  1.00  0.00     0.124 S 
ATOM     99  O   UNL A   1      54.280  25.099  24.877  1.00  0.00    -0.237 OA
ATOM    100  O   UNL A   1      53.728  26.385  22.839  1.00  0.00    -0.237 OA
ATOM    101  O   UNL A   1      54.640  27.540  24.816  1.00  0.00    -0.744 OA
ENDBRANCH  97  98
ENDBRANCH  65  90
ENDBRANCH  39  40
ENDBRANCH  31  34
ENDBRANCH  29  30
ENDBRANCH  28  29
ENDBRANCH  27  28
ENDBRANCH   1  27
TORSDOF 21
ENDMDL
MODEL 2
REMARK VINA RESULT:     -10.5      3.392      9.038
REMARK SMILES CC(C)C[C@H](CNC(=O)Nc1cccc(Cl)c1)C(=O)NCCCCCCNC(=O)c1ccc(-c2c3nc(c(-c4c(F)cc(S(=O)(=O)[O-])cc4F)c4ccc([nH]4)c(-c4c(F)cc(S(=O)(=O)[O-])cc4F)c4nc(c(-c5c(F)cc(S(=O)(=O)[O-])cc5F)c5ccc2[nH]5)C=C4)C=C3)cc1
REMARK SMILES IDX 23 1 22 2 21 3 20 4 18 5 19 6 5 8 4 9 2 10 1 11 3 12 6 13
REMARK SMILES IDX 7 14 8 15 9 17 10 18 11 20 12 21 17 22 13 23 15 24 14 25
REMARK SMILES IDX 16 26 24 27 25 28 26 29 27 30 28 31 29 33 30 34 31 35 95 36
REMARK SMILES IDX 32 37 94 38 33 39 34 40 35 41 88 42 36 43 93 44 87 45 89 46
REMARK SMILES IDX 37 47 92 48 86 49 85 50 38 52 72 53 51 54 71 55 52 56 55 57
REMARK SMILES IDX 70 58 90 59 53 60 54 61 69 63 91 64 56 65 39 66 40 67 49 68
REMARK SMILES IDX 41 69 42 70 48 71 50 72 43 73 44 74 45 75 46 76 47 77 73 78
REMARK SMILES IDX 74 79 83 80 75 81 76 82 82 83 84 84 77 85 78 86 79 87 80 88
REMARK SMILES IDX 81 89 57 90 58 91 67 92 59 93 60 94 66 95 68 96 61 97 62 98
REMARK SMILES IDX 63 99 64 100 65 101
REMARK H PARENT 20 7 7 16 10 19 27 32 89 51 55 62
REMARK Flexibility Score: inf
ROOT
ATOM      1  C   UNL A   1      32.993  28.648  24.090  1.00  0.00     0.002 C 
ENDROOT
BRANCH   1   2
ATOM      2  C   UNL A   1      32.590  27.904  22.815  1.00  0.00     0.021 C 
BRANCH   2   3
ATOM      3  C   UNL A   1      33.475  26.700  22.516  1.00  0.00     0.116 C 
BRANCH   3   4
ATOM      4  N   UNL A   1      34.006  26.136  23.740  1.00  0.00    -0.356 N 
ATOM      5  C   UNL A   1      33.779  24.918  24.300  1.00  0.00     0.224 C 
ATOM      6  O   UNL A   1      34.234  24.696  25.424  1.00  0.00    -0.275 OA
ATOM      7  H   UNL A   1      34.621  26.720  24.239  1.00  0.00     0.163 HD
BRANCH   5   8
ATOM      8  C   UNL A   1      32.987  23.856  23.549  1.00  0.00     0.098 C 
BRANCH   8   9
ATOM      9  C   UNL A   1      31.493  23.840  23.915  1.00  0.00     0.018 C 
BRANCH   9  10
ATOM     10  C   UNL A   1      31.221  24.004  25.430  1.00  0.00    -0.017 C 
ATOM     11  C   UNL A   1      30.258  25.153  25.733  1.00  0.00     0.007 C 
ATOM     12  C   UNL A   1      30.678  22.699  26.011  1.00  0.00     0.007 C 
ENDBRANCH   9  10
ENDBRANCH   8   9
BRANCH   8  13
ATOM     13  C   UNL A   1      33.762  22.531  23.614  1.00  0.00     0.131 C 
BRANCH  13  14
ATOM     14  N   UNL A   1      35.199  22.591  23.850  1.00  0.00    -0.337 N 
ATOM     15  C   UNL A   1      36.065  21.855  24.575  1.00  0.00     0.319 C 
ATOM     16  H   UNL A   1      35.634  23.334  23.375  1.00  0.00     0.165 HD
ATOM     17  O   UNL A   1      37.208  22.294  24.717  1.00  0.00    -0.249 OA
ATOM     18  N   UNL A   1      35.704  20.735  25.237  1.00  0.00    -0.308 N 
ATOM     19  H   UNL A   1      36.307  20.473  25.971  1.00  0.00     0.171 HD
BRANCH  18  20
ATOM     20  C   UNL A   1      34.611  19.889  25.045  1.00  0.00     0.044 A 
ATOM     21  C   UNL A   1      33.394  20.093  25.708  1.00  0.00     0.026 A 
ATOM     22  C   UNL A   1      34.804  18.760  24.252  1.00  0.00     0.046 A 
ATOM     23  C   UNL A   1      32.427  19.087  25.701  1.00  0.00     0.004 A 
ATOM     24  C   UNL A   1      33.843  17.753  24.268  1.00  0.00     0.043 A 
ATOM     25  C   UNL A   1      32.668  17.900  25.007  1.00  0.00     0.020 A 
ATOM     26  Cl  UNL A   1      34.149  16.278  23.434  1.00  0.00    -0.084 Cl
ENDBRANCH  18  20
ENDBRANCH  13  14
ENDBRANCH   8  13
ENDBRANCH   5   8
ENDBRANCH   3   4
ENDBRANCH   2   3
ENDBRANCH   1   2
BRANCH   1  27
ATOM     27  C   UNL A   1      31.965  28.558  25.222  1.00  0.00     0.002 C 
BRANCH  27  28
ATOM     28  C   UNL A   1      32.464  27.839  26.478  1.00  0.00     0.021 C 
BRANCH  28  29
ATOM     29  C   UNL A   1      33.763  28.402  27.041  1.00  0.00     0.116 C 
BRANCH  29  30
ATOM     30  N   UNL A   1      33.617  29.797  27.422  1.00  0.00    -0.352 N 
ATOM     31  C   UNL A   1      34.480  30.589  28.137  1.00  0.00     0.251 C 
ATOM     32  H   UNL A   1      32.787  30.234  27.125  1.00  0.00     0.163 HD
ATOM     33  O   UNL A   1      34.103  31.668  28.579  1.00  0.00    -0.269 OA
BRANCH  31  34
ATOM     34  C   UNL A   1      35.859  30.119  28.374  1.00  0.00     0.039 A 
ATOM     35  C   UNL A   1      36.799  30.227  27.348  1.00  0.00     0.014 A 
ATOM     36  C   UNL A   1      36.220  29.583  29.614  1.00  0.00     0.014 A 
ATOM     37  C   UNL A   1      38.120  29.843  27.585  1.00  0.00     0.010 A 
ATOM     38  C   UNL A   1      37.551  29.273  29.871  1.00  0.00     0.010 A 
ATOM     39  C   UNL A   1      38.513  29.394  28.857  1.00  0.00    -0.014 A 
BRANCH  39  40
ATOM     40  C   UNL A   1      39.926  29.045  29.146  1.00  0.00     0.031 A 
ATOM     41  C   UNL A   1      40.843  30.065  29.766  1.00  0.00     0.074 A 
ATOM     42  C   UNL A   1      40.396  27.832  28.795  1.00  0.00     0.049 A 
ATOM     43  N   UNL A   1      42.120  29.973  30.032  1.00  0.00    -0.248 NA
ATOM     44  C   UNL A   1      40.251  31.369  30.110  1.00  0.00     0.031 C 
ATOM     45  C   UNL A   1      39.613  26.776  28.149  1.00  0.00     0.029 A 
ATOM     46  N   UNL A   1      41.647  27.284  28.924  1.00  0.00    -0.354 N 
ATOM     47  C   UNL A   1      42.485  31.202  30.567  1.00  0.00     0.074 A 
ATOM     48  C   UNL A   1      41.310  32.045  30.531  1.00  0.00     0.031 C 
ATOM     49  C   UNL A   1      40.393  25.700  27.965  1.00  0.00     0.029 A 
ATOM     50  C   UNL A   1      41.741  26.001  28.437  1.00  0.00     0.049 A 
ATOM     51  H   UNL A   1      42.406  27.762  29.327  1.00  0.00     0.167 HD
ATOM     52  C   UNL A   1      43.685  31.585  31.063  1.00  0.00     0.037 A 
ATOM     53  C   UNL A   1      42.795  25.165  28.370  1.00  0.00     0.037 A 
ATOM     54  C   UNL A   1      44.844  30.734  31.110  1.00  0.00     0.049 A 
ATOM     55  C   UNL A   1      44.124  25.623  28.907  1.00  0.00     0.074 A 
ATOM     56  C   UNL A   1      46.094  31.010  31.635  1.00  0.00     0.029 A 
ATOM     57  N   UNL A   1      44.899  29.439  30.610  1.00  0.00    -0.354 N 
ATOM     58  N   UNL A   1      44.439  26.770  29.460  1.00  0.00    -0.248 NA
ATOM     59  C   UNL A   1      45.240  24.673  28.817  1.00  0.00     0.031 C 
ATOM     60  C   UNL A   1      46.919  29.904  31.409  1.00  0.00     0.029 A 
ATOM     61  C   UNL A   1      46.167  28.914  30.795  1.00  0.00     0.049 A 
ATOM     62  H   UNL A   1      44.147  28.965  30.188  1.00  0.00     0.167 HD
ATOM     63  C   UNL A   1      45.781  26.669  29.811  1.00  0.00     0.074 A 
ATOM     64  C   UNL A   1      46.214  25.343  29.419  1.00  0.00     0.031 C 
ATOM     65  C   UNL A   1      46.581  27.588  30.406  1.00  0.00     0.037 A 
BRANCH  52  66
ATOM     66  C   UNL A   1      43.805  32.986  31.604  1.00  0.00     0.058 A 
ATOM     67  C   UNL A   1      43.430  33.303  32.919  1.00  0.00     0.135 A 
ATOM     68  C   UNL A   1      44.340  34.014  30.812  1.00  0.00     0.135 A 
ATOM     69  F   UNL A   1      42.898  32.362  33.716  1.00  0.00    -0.206 F 
ATOM     70  C   UNL A   1      43.557  34.593  33.422  1.00  0.00     0.059 A 
ATOM     71  C   UNL A   1      44.505  35.306  31.303  1.00  0.00     0.059 A 
ATOM     72  F   UNL A   1      44.713  33.770  29.545  1.00  0.00    -0.206 F 
ATOM     73  C   UNL A   1      44.099  35.588  32.607  1.00  0.00     0.060 A 
BRANCH  73  74
ATOM     74  S   UNL A   1      44.268  37.254  33.281  1.00  0.00     0.124 S 
ATOM     75  O   UNL A   1      42.969  37.444  33.917  1.00  0.00    -0.237 OA
ATOM     76  O   UNL A   1      45.403  37.108  34.188  1.00  0.00    -0.237 OA
ATOM     77  O   UNL A   1      44.515  38.076  32.101  1.00  0.00    -0.744 OA
ENDBRANCH  73  74
ENDBRANCH  52  66
BRANCH  53  78
ATOM     78  C   UNL A   1      42.632  23.804  27.792  1.00  0.00     0.058 A 
ATOM     79  C   UNL A   1      42.416  22.692  28.619  1.00  0.00     0.135 A 
ATOM     80  C   UNL A   1      42.678  23.587  26.406  1.00  0.00     0.135 A 
ATOM     81  F   UNL A   1      42.371  22.845  29.951  1.00  0.00    -0.206 F 
ATOM     82  C   UNL A   1      42.270  21.411  28.097  1.00  0.00     0.059 A 
ATOM     83  C   UNL A   1      42.505  22.321  25.857  1.00  0.00     0.059 A 
ATOM     84  F   UNL A   1      42.864  24.620  25.570  1.00  0.00    -0.206 F 
ATOM     85  C   UNL A   1      42.313  21.236  26.712  1.00  0.00     0.060 A 
BRANCH  85  86
ATOM     86  S   UNL A   1      42.075  19.576  26.042  1.00  0.00     0.124 S 
ATOM     87  O   UNL A   1      42.890  19.628  24.834  1.00  0.00    -0.237 OA
ATOM     88  O   UNL A   1      42.585  18.736  27.122  1.00  0.00    -0.237 OA
ATOM     89  O   UNL A   1      40.633  19.504  25.829  1.00  0.00    -0.744 OA
ENDBRANCH  85  86
ENDBRANCH  53  78
BRANCH  65  90
ATOM     90  C   UNL A   1      47.998  27.184  30.708  1.00  0.00     0.058 A 
ATOM     91  C   UNL A   1      48.358  26.609  31.937  1.00  0.00     0.135 A 
ATOM     92  C   UNL A   1      48.997  27.320  29.730  1.00  0.00     0.135 A 
ATOM     93  F   UNL A   1      47.443  26.463  32.908  1.00  0.00    -0.206 F 
ATOM     94  C   UNL A   1      49.664  26.203  32.194  1.00  0.00     0.059 A 
ATOM     95  C   UNL A   1      50.303  26.893  29.954  1.00  0.00     0.059 A 
ATOM     96  F   UNL A   1      48.705  27.854  28.533  1.00  0.00    -0.206 F 
ATOM     97  C   UNL A   1      50.628  26.346  31.194  1.00  0.00     0.060 A 
BRANCH  97  98
ATOM     98  S   UNL A   1      52.310  25.779  31.528  1.00  0.00     0.124 S 
ATOM     99  O   UNL A   1      52.074  24.416  31.991  1.00  0.00    -0.237 OA
ATOM    100  O   UNL A   1      52.945  25.904  30.220  1.00  0.00    -0.237 OA
ATOM    101  O   UNL A   1      52.788  26.712  32.543  1.00  0.00    -0.744 OA
ENDBRANCH  97  98
ENDBRANCH  65  90
ENDBRANCH  39  40
ENDBRANCH  31  34
ENDBRANCH  29  30
ENDBRANCH  28  29
ENDBRANCH  27  28
ENDBRANCH   1  27
TORSDOF 21
ENDMDL
MODEL 3
REMARK VINA RESULT:     -10.2      1.778      8.614
REMARK SMILES CC(C)C[C@H](CNC(=O)Nc1cccc(Cl)c1)C(=O)NCCCCCCNC(=O)c1ccc(-c2c3nc(c(-c4c(F)cc(S(=O)(=O)[O-])cc4F)c4ccc([nH]4)c(-c4c(F)cc(S(=O)(=O)[O-])cc4F)c4nc(c(-c5c(F)cc(S(=O)(=O)[O-])cc5F)c5ccc2[nH]5)C=C4)C=C3)cc1
REMARK SMILES IDX 23 1 22 2 21 3 20 4 18 5 19 6 5 8 4 9 2 10 1 11 3 12 6 13
REMARK SMILES IDX 7 14 8 15 9 17 10 18 11 20 12 21 17 22 13 23 15 24 14 25
REMARK SMILES IDX 16 26 24 27 25 28 26 29 27 30 28 31 29 33 30 34 31 35 95 36
REMARK SMILES IDX 32 37 94 38 33 39 34 40 35 41 88 42 36 43 93 44 87 45 89 46
REMARK SMILES IDX 37 47 92 48 86 49 85 50 38 52 72 53 51 54 71 55 52 56 55 57
REMARK SMILES IDX 70 58 90 59 53 60 54 61 69 63 91 64 56 65 39 66 40 67 49 68
REMARK SMILES IDX 41 69 42 70 48 71 50 72 43 73 44 74 45 75 46 76 47 77 73 78
REMARK SMILES IDX 74 79 83 80 75 81 76 82 82 83 84 84 77 85 78 86 79 87 80 88
REMARK SMILES IDX 81 89 57 90 58 91 67 92 59 93 60 94 66 95 68 96 61 97 62 98
REMARK SMILES IDX 63 99 64 100 65 101
REMARK H PARENT 20 7 7 16 10 19 27 32 89 51 55 62
REMARK Flexibility Score: inf
ROOT
ATOM      1  C   UNL A   1      32.684  29.975  26.397  1.00  0.00     0.002 C 
ENDROOT
BRANCH   1   2
ATOM      2  C   UNL A   1      31.743  29.211  27.330  1.00  0.00     0.021 C 
BRANCH   2   3
ATOM      3  C   UNL A   1      31.813  27.700  27.147  1.00  0.00     0.116 C 
BRANCH   3   4
ATOM      4  N   UNL A   1      32.959  27.331  26.342  1.00  0.00    -0.356 N 
ATOM      5  C   UNL A   1      33.249  26.146  25.743  1.00  0.00     0.224 C 
ATOM      6  O   UNL A   1      34.354  26.013  25.214  1.00  0.00    -0.275 OA
ATOM      7  H   UNL A   1      33.624  28.043  26.209  1.00  0.00     0.163 HD
BRANCH   5   8
ATOM      8  C   UNL A   1      32.227  25.017  25.725  1.00  0.00     0.098 C 
BRANCH   8   9
ATOM      9  C   UNL A   1      32.649  23.802  26.569  1.00  0.00     0.018 C 
BRANCH   9  10
ATOM     10  C   UNL A   1      31.524  22.756  26.763  1.00  0.00    -0.017 C 
ATOM     11  C   UNL A   1      30.131  23.387  26.772  1.00  0.00     0.007 C 
ATOM     12  C   UNL A   1      31.607  21.685  25.675  1.00  0.00     0.007 C 
ENDBRANCH   9  10
ENDBRANCH   8   9
BRANCH   8  13
ATOM     13  C   UNL A   1      31.795  24.772  24.271  1.00  0.00     0.131 C 
BRANCH  13  14
ATOM     14  N   UNL A   1      32.704  24.033  23.404  1.00  0.00    -0.337 N 
ATOM     15  C   UNL A   1      33.195  24.236  22.164  1.00  0.00     0.319 C 
ATOM     16  H   UNL A   1      33.032  23.202  23.813  1.00  0.00     0.165 HD
ATOM     17  O   UNL A   1      33.804  23.306  21.632  1.00  0.00    -0.249 OA
ATOM     18  N   UNL A   1      32.949  25.355  21.450  1.00  0.00    -0.308 N 
ATOM     19  H   UNL A   1      33.071  25.262  20.477  1.00  0.00     0.171 HD
BRANCH  18  20
ATOM     20  C   UNL A   1      32.550  26.624  21.873  1.00  0.00     0.044 A 
ATOM     21  C   UNL A   1      33.476  27.593  22.275  1.00  0.00     0.026 A 
ATOM     22  C   UNL A   1      31.182  26.861  21.991  1.00  0.00     0.046 A 
ATOM     23  C   UNL A   1      33.035  28.737  22.941  1.00  0.00     0.004 A 
ATOM     24  C   UNL A   1      30.751  27.994  22.674  1.00  0.00     0.043 A 
ATOM     25  C   UNL A   1      31.671  28.920  23.171  1.00  0.00     0.020 A 
ATOM     26  Cl  UNL A   1      29.071  28.209  22.982  1.00  0.00    -0.084 Cl
ENDBRANCH  18  20
ENDBRANCH  13  14
ENDBRANCH   8  13
ENDBRANCH   5   8
ENDBRANCH   3   4
ENDBRANCH   2   3
ENDBRANCH   1   2
BRANCH   1  27
ATOM     27  C   UNL A   1      33.652  30.919  27.116  1.00  0.00     0.002 C 
BRANCH  27  28
ATOM     28  C   UNL A   1      34.968  30.269  27.552  1.00  0.00     0.021 C 
BRANCH  28  29
ATOM     29  C   UNL A   1      35.882  31.191  28.349  1.00  0.00     0.116 C 
BRANCH  29  30
ATOM     30  N   UNL A   1      35.722  30.991  29.780  1.00  0.00    -0.352 N 
ATOM     31  C   UNL A   1      36.584  30.397  30.668  1.00  0.00     0.251 C 
ATOM     32  H   UNL A   1      34.882  31.329  30.165  1.00  0.00     0.163 HD
ATOM     33  O   UNL A   1      36.199  30.091  31.790  1.00  0.00    -0.269 OA
BRANCH  31  34
ATOM     34  C   UNL A   1      37.973  30.122  30.248  1.00  0.00     0.039 A 
ATOM     35  C   UNL A   1      38.936  29.860  31.223  1.00  0.00     0.014 A 
ATOM     36  C   UNL A   1      38.314  30.113  28.892  1.00  0.00     0.014 A 
ATOM     37  C   UNL A   1      40.237  29.538  30.832  1.00  0.00     0.010 A 
ATOM     38  C   UNL A   1      39.589  29.717  28.504  1.00  0.00     0.010 A 
ATOM     39  C   UNL A   1      40.565  29.432  29.470  1.00  0.00    -0.014 A 
BRANCH  39  40
ATOM     40  C   UNL A   1      41.924  29.025  29.036  1.00  0.00     0.031 A 
ATOM     41  C   UNL A   1      43.041  30.033  29.012  1.00  0.00     0.074 A 
ATOM     42  C   UNL A   1      42.136  27.764  28.609  1.00  0.00     0.049 A 
ATOM     43  N   UNL A   1      44.275  29.888  28.604  1.00  0.00    -0.248 NA
ATOM     44  C   UNL A   1      42.722  31.390  29.487  1.00  0.00     0.031 C 
ATOM     45  C   UNL A   1      41.120  26.710  28.546  1.00  0.00     0.029 A 
ATOM     46  N   UNL A   1      43.272  27.157  28.137  1.00  0.00    -0.354 N 
ATOM     47  C   UNL A   1      44.876  31.130  28.765  1.00  0.00     0.074 A 
ATOM     48  C   UNL A   1      43.856  32.033  29.251  1.00  0.00     0.031 C 
ATOM     49  C   UNL A   1      41.685  25.581  28.093  1.00  0.00     0.029 A 
ATOM     50  C   UNL A   1      43.090  25.838  27.789  1.00  0.00     0.049 A 
ATOM     51  H   UNL A   1      44.137  27.619  28.056  1.00  0.00     0.167 HD
ATOM     52  C   UNL A   1      46.167  31.479  28.551  1.00  0.00     0.037 A 
ATOM     53  C   UNL A   1      43.953  24.942  27.276  1.00  0.00     0.037 A 
ATOM     54  C   UNL A   1      47.178  30.568  28.083  1.00  0.00     0.049 A 
ATOM     55  C   UNL A   1      45.376  25.361  27.024  1.00  0.00     0.074 A 
ATOM     56  C   UNL A   1      48.525  30.810  27.878  1.00  0.00     0.029 A 
ATOM     57  N   UNL A   1      46.955  29.240  27.745  1.00  0.00    -0.354 N 
ATOM     58  N   UNL A   1      45.943  26.525  27.234  1.00  0.00    -0.248 NA
ATOM     59  C   UNL A   1      46.280  24.344  26.469  1.00  0.00     0.031 C 
ATOM     60  C   UNL A   1      49.107  29.646  27.367  1.00  0.00     0.029 A 
ATOM     61  C   UNL A   1      48.135  28.658  27.311  1.00  0.00     0.049 A 
ATOM     62  H   UNL A   1      46.088  28.780  27.806  1.00  0.00     0.167 HD
ATOM     63  C   UNL A   1      47.275  26.373  26.867  1.00  0.00     0.074 A 
ATOM     64  C   UNL A   1      47.433  25.000  26.433  1.00  0.00     0.031 C 
ATOM     65  C   UNL A   1      48.278  27.286  26.890  1.00  0.00     0.037 A 
BRANCH  52  66
ATOM     66  C   UNL A   1      46.561  32.906  28.826  1.00  0.00     0.058 A 
ATOM     67  C   UNL A   1      47.024  33.312  30.088  1.00  0.00     0.135 A 
ATOM     68  C   UNL A   1      46.517  33.869  27.806  1.00  0.00     0.135 A 
ATOM     69  F   UNL A   1      47.073  32.437  31.105  1.00  0.00    -0.206 F 
ATOM     70  C   UNL A   1      47.405  34.627  30.335  1.00  0.00     0.059 A 
ATOM     71  C   UNL A   1      46.922  35.184  28.022  1.00  0.00     0.059 A 
ATOM     72  F   UNL A   1      46.080  33.539  26.580  1.00  0.00    -0.206 F 
ATOM     73  C   UNL A   1      47.352  35.556  29.294  1.00  0.00     0.060 A 
BRANCH  73  74
ATOM     74  S   UNL A   1      47.863  37.254  29.632  1.00  0.00     0.124 S 
ATOM     75  O   UNL A   1      46.776  38.011  29.020  1.00  0.00    -0.237 OA
ATOM     76  O   UNL A   1      47.911  37.280  31.090  1.00  0.00    -0.237 OA
ATOM     77  O   UNL A   1      49.155  37.361  28.962  1.00  0.00    -0.744 OA
ENDBRANCH  73  74
ENDBRANCH  52  66
BRANCH  53  78
ATOM     78  C   UNL A   1      43.503  23.553  26.987  1.00  0.00     0.058 A 
ATOM     79  C   UNL A   1      43.297  22.633  28.025  1.00  0.00     0.135 A 
ATOM     80  C   UNL A   1      43.258  23.121  25.674  1.00  0.00     0.135 A 
ATOM     81  F   UNL A   1      43.523  22.994  29.297  1.00  0.00    -0.206 F 
ATOM     82  C   UNL A   1      42.885  21.329  27.772  1.00  0.00     0.059 A 
ATOM     83  C   UNL A   1      42.817  21.832  25.397  1.00  0.00     0.059 A 
ATOM     84  F   UNL A   1      43.422  23.970  24.646  1.00  0.00    -0.206 F 
ATOM     85  C   UNL A   1      42.643  20.938  26.454  1.00  0.00     0.060 A 
BRANCH  85  86
ATOM     86  S   UNL A   1      42.063  19.257  26.141  1.00  0.00     0.124 S 
ATOM     87  O   UNL A   1      42.874  18.876  24.991  1.00  0.00    -0.237 OA
ATOM     88  O   UNL A   1      42.381  18.586  27.398  1.00  0.00    -0.237 OA
ATOM     89  O   UNL A   1      40.639  19.438  25.878  1.00  0.00    -0.744 OA
ENDBRANCH  85  86
ENDBRANCH  53  78
BRANCH  65  90
ATOM     90  C   UNL A   1      49.647  26.825  26.470  1.00  0.00     0.058 A 
ATOM     91  C   UNL A   1      50.580  26.337  27.398  1.00  0.00     0.135 A 
ATOM     92  C   UNL A   1      50.006  26.817  25.112  1.00  0.00     0.135 A 
ATOM     93  F   UNL A   1      50.290  26.329  28.708  1.00  0.00    -0.206 F 
ATOM     94  C   UNL A   1      51.830  25.877  26.997  1.00  0.00     0.059 A 
ATOM     95  C   UNL A   1      51.240  26.333  24.685  1.00  0.00     0.059 A 
ATOM     96  F   UNL A   1      49.148  27.264  24.181  1.00  0.00    -0.206 F 
ATOM     97  C   UNL A   1      52.149  25.876  25.636  1.00  0.00     0.060 A 
BRANCH  97  98
ATOM     98  S   UNL A   1      53.760  25.239  25.127  1.00  0.00     0.124 S 
ATOM     99  O   UNL A   1      53.427  23.873  24.737  1.00  0.00    -0.237 OA
ATOM    100  O   UNL A   1      54.120  26.141  24.037  1.00  0.00    -0.237 OA
ATOM    101  O   UNL A   1      54.572  25.367  26.333  1.00  0.00    -0.744 OA
ENDBRANCH  97  98
ENDBRANCH  65  90
ENDBRANCH  39  40
ENDBRANCH  31  34
ENDBRANCH  29  30
ENDBRANCH  28  29
ENDBRANCH  27  28
ENDBRANCH   1  27
TORSDOF 21
ENDMDL
