MODEL 1
REMARK VINA RESULT:     -12.2      0.000      0.000
REMARK SMILES C[C@H]1CCC[C@](Cc2cn3ccccc3n2)(C(=O)NCCCCCCNC(=O)c2ccc(-c3c4nc(c(-c5c(F)cc(S(=O)(=O)[O-])cc5F)c5ccc([nH]5)c(-c5c(F)cc(S(=O)(=O)[O-])cc5F)c5nc(c(-c6c(F)cc(S(=O)(=O)[O-])cc6F)c6ccc3[nH]6)C=C5)C=C4)cc2)C1
REMARK SMILES IDX 23 1 22 2 21 3 20 4 19 5 17 6 18 7 6 9 1 10 2 11 3 12 95 13
REMARK SMILES IDX 4 14 5 15 7 16 8 17 9 18 16 19 10 20 15 21 11 22 14 23 12 24
REMARK SMILES IDX 13 25 24 26 25 27 26 28 27 29 28 31 29 32 30 33 94 34 31 35
REMARK SMILES IDX 93 36 32 37 33 38 34 39 87 40 35 41 92 42 86 43 88 44 36 45
REMARK SMILES IDX 91 46 85 47 84 48 37 50 71 51 50 52 70 53 51 54 54 55 69 56
REMARK SMILES IDX 89 57 52 58 53 59 68 61 90 62 55 63 38 64 39 65 48 66 40 67
REMARK SMILES IDX 41 68 47 69 49 70 42 71 43 72 44 73 45 74 46 75 72 76 73 77
REMARK SMILES IDX 82 78 74 79 75 80 81 81 83 82 76 83 77 84 78 85 79 86 80 87
REMARK SMILES IDX 56 88 57 89 66 90 58 91 59 92 65 93 67 94 60 95 61 96 62 97
REMARK SMILES IDX 63 98 64 99
REMARK H PARENT 19 8 26 30 88 49 54 60
REMARK Flexibility Score: inf
ROOT
ATOM      1  C   UNL A   1      37.277  22.438  24.877  1.00  0.00     0.002 C 
ENDROOT
BRANCH   1   2
ATOM      2  C   UNL A   1      36.160  21.386  24.842  1.00  0.00     0.002 C 
BRANCH   2   3
ATOM      3  C   UNL A   1      35.214  21.376  26.043  1.00  0.00     0.021 C 
BRANCH   3   4
ATOM      4  C   UNL A   1      33.738  21.253  25.680  1.00  0.00     0.116 C 
BRANCH   4   5
ATOM      5  N   UNL A   1      32.851  21.830  26.656  1.00  0.00    -0.356 N 
ATOM      6  C   UNL A   1      32.107  22.965  26.650  1.00  0.00     0.226 C 
ATOM      7  O   UNL A   1      31.256  23.002  27.550  1.00  0.00    -0.274 OA
ATOM      8  H   UNL A   1      32.768  21.301  27.482  1.00  0.00     0.163 HD
BRANCH   6   9
ATOM      9  C   UNL A   1      32.251  24.138  25.611  1.00  0.00     0.055 C 
ATOM     10  C   UNL A   1      33.209  23.231  21.889  1.00  0.00     0.007 C 
ATOM     11  C   UNL A   1      33.487  23.401  23.387  1.00  0.00    -0.013 C 
ATOM     12  C   UNL A   1      34.466  24.553  23.611  1.00  0.00     0.003 C 
ATOM     13  C   UNL A   1      32.176  23.576  24.164  1.00  0.00     0.020 C 
ATOM     14  C   UNL A   1      34.734  24.878  25.073  1.00  0.00     0.001 C 
ATOM     15  C   UNL A   1      33.481  25.028  25.933  1.00  0.00     0.017 C 
BRANCH   9  16
ATOM     16  C   UNL A   1      30.938  24.993  25.865  1.00  0.00     0.074 C 
BRANCH  16  17
ATOM     17  C   UNL A   1      30.635  26.160  24.966  1.00  0.00     0.061 A 
ATOM     18  C   UNL A   1      31.448  27.133  24.420  1.00  0.00     0.116 A 
ATOM     19  N   UNL A   1      29.331  26.350  24.549  1.00  0.00    -0.234 NA
ATOM     20  N   UNL A   1      30.624  27.944  23.677  1.00  0.00    -0.307 N 
ATOM     21  C   UNL A   1      29.345  27.416  23.780  1.00  0.00     0.136 A 
ATOM     22  C   UNL A   1      30.930  29.085  22.939  1.00  0.00     0.093 A 
ATOM     23  C   UNL A   1      28.306  28.087  23.074  1.00  0.00     0.048 A 
ATOM     24  C   UNL A   1      29.946  29.721  22.281  1.00  0.00     0.018 A 
ATOM     25  C   UNL A   1      28.591  29.191  22.356  1.00  0.00     0.005 A 
ENDBRANCH  16  17
ENDBRANCH   9  16
ENDBRANCH   6   9
ENDBRANCH   4   5
ENDBRANCH   3   4
ENDBRANCH   2   3
ENDBRANCH   1   2
BRANCH   1  26
ATOM     26  C   UNL A   1      38.125  22.493  26.153  1.00  0.00     0.021 C 
BRANCH  26  27
ATOM     27  C   UNL A   1      38.669  23.869  26.537  1.00  0.00     0.116 C 
BRANCH  27  28
ATOM     28  N   UNL A   1      40.017  24.090  26.043  1.00  0.00    -0.352 N 
ATOM     29  C   UNL A   1      40.955  25.030  26.375  1.00  0.00     0.251 C 
ATOM     30  H   UNL A   1      40.305  23.453  25.351  1.00  0.00     0.163 HD
ATOM     31  O   UNL A   1      41.969  25.120  25.687  1.00  0.00    -0.269 OA
BRANCH  29  32
ATOM     32  C   UNL A   1      40.770  25.939  27.529  1.00  0.00     0.039 A 
ATOM     33  C   UNL A   1      41.659  27.011  27.671  1.00  0.00     0.014 A 
ATOM     34  C   UNL A   1      39.796  25.716  28.508  1.00  0.00     0.014 A 
ATOM     35  C   UNL A   1      41.546  27.874  28.762  1.00  0.00     0.010 A 
ATOM     36  C   UNL A   1      39.648  26.614  29.568  1.00  0.00     0.010 A 
ATOM     37  C   UNL A   1      40.525  27.698  29.709  1.00  0.00    -0.014 A 
BRANCH  37  38
ATOM     38  C   UNL A   1      40.375  28.656  30.836  1.00  0.00     0.031 A 
ATOM     39  C   UNL A   1      41.248  28.548  32.060  1.00  0.00     0.074 A 
ATOM     40  C   UNL A   1      39.442  29.624  30.756  1.00  0.00     0.049 A 
ATOM     41  N   UNL A   1      41.266  29.304  33.127  1.00  0.00    -0.248 NA
ATOM     42  C   UNL A   1      42.212  27.437  32.096  1.00  0.00     0.031 C 
ATOM     43  C   UNL A   1      38.503  29.802  29.645  1.00  0.00     0.029 A 
ATOM     44  N   UNL A   1      39.128  30.643  31.619  1.00  0.00    -0.354 N 
ATOM     45  C   UNL A   1      42.243  28.767  33.959  1.00  0.00     0.074 A 
ATOM     46  C   UNL A   1      42.758  27.589  33.296  1.00  0.00     0.031 C 
ATOM     47  C   UNL A   1      37.738  30.880  29.882  1.00  0.00     0.029 A 
ATOM     48  C   UNL A   1      38.113  31.456  31.169  1.00  0.00     0.049 A 
ATOM     49  H   UNL A   1      39.585  30.780  32.480  1.00  0.00     0.167 HD
ATOM     50  C   UNL A   1      42.687  29.229  35.154  1.00  0.00     0.037 A 
ATOM     51  C   UNL A   1      37.553  32.545  31.728  1.00  0.00     0.037 A 
ATOM     52  C   UNL A   1      42.184  30.413  35.803  1.00  0.00     0.049 A 
ATOM     53  C   UNL A   1      38.076  33.043  33.048  1.00  0.00     0.074 A 
ATOM     54  C   UNL A   1      42.591  30.978  37.000  1.00  0.00     0.029 A 
ATOM     55  N   UNL A   1      41.171  31.220  35.307  1.00  0.00    -0.354 N 
ATOM     56  N   UNL A   1      39.033  32.547  33.796  1.00  0.00    -0.248 NA
ATOM     57  C   UNL A   1      37.451  34.255  33.595  1.00  0.00     0.031 C 
ATOM     58  C   UNL A   1      41.805  32.110  37.241  1.00  0.00     0.029 A 
ATOM     59  C   UNL A   1      40.935  32.272  36.176  1.00  0.00     0.049 A 
ATOM     60  H   UNL A   1      40.690  31.066  34.462  1.00  0.00     0.167 HD
ATOM     61  C   UNL A   1      39.138  33.398  34.890  1.00  0.00     0.074 A 
ATOM     62  C   UNL A   1      38.165  34.452  34.693  1.00  0.00     0.031 C 
ATOM     63  C   UNL A   1      39.961  33.313  35.964  1.00  0.00     0.037 A 
BRANCH  50  64
ATOM     64  C   UNL A   1      43.793  28.468  35.831  1.00  0.00     0.058 A 
ATOM     65  C   UNL A   1      43.516  27.421  36.725  1.00  0.00     0.135 A 
ATOM     66  C   UNL A   1      45.139  28.735  35.533  1.00  0.00     0.135 A 
ATOM     67  F   UNL A   1      42.246  27.135  37.057  1.00  0.00    -0.206 F 
ATOM     68  C   UNL A   1      44.533  26.675  37.311  1.00  0.00     0.059 A 
ATOM     69  C   UNL A   1      46.173  27.985  36.090  1.00  0.00     0.059 A 
ATOM     70  F   UNL A   1      45.460  29.725  34.686  1.00  0.00    -0.206 F 
ATOM     71  C   UNL A   1      45.860  26.963  36.984  1.00  0.00     0.060 A 
BRANCH  71  72
ATOM     72  S   UNL A   1      47.165  25.961  37.728  1.00  0.00     0.124 S 
ATOM     73  O   UNL A   1      46.395  24.878  38.329  1.00  0.00    -0.237 OA
ATOM     74  O   UNL A   1      47.978  25.597  36.572  1.00  0.00    -0.237 OA
ATOM     75  O   UNL A   1      47.800  26.878  38.673  1.00  0.00    -0.744 OA
ENDBRANCH  71  72
ENDBRANCH  50  64
BRANCH  51  76
ATOM     76  C   UNL A   1      36.444  33.257  31.039  1.00  0.00     0.058 A 
ATOM     77  C   UNL A   1      36.684  34.041  29.902  1.00  0.00     0.135 A 
ATOM     78  C   UNL A   1      35.128  33.188  31.521  1.00  0.00     0.135 A 
ATOM     79  F   UNL A   1      37.928  34.140  29.406  1.00  0.00    -0.206 F 
ATOM     80  C   UNL A   1      35.668  34.762  29.285  1.00  0.00     0.059 A 
ATOM     81  C   UNL A   1      34.089  33.880  30.906  1.00  0.00     0.059 A 
ATOM     82  F   UNL A   1      34.842  32.435  32.593  1.00  0.00    -0.206 F 
ATOM     83  C   UNL A   1      34.373  34.680  29.800  1.00  0.00     0.060 A 
BRANCH  83  84
ATOM     84  S   UNL A   1      33.053  35.609  28.991  1.00  0.00     0.124 S 
ATOM     85  O   UNL A   1      32.274  36.068  30.135  1.00  0.00    -0.237 OA
ATOM     86  O   UNL A   1      33.793  36.637  28.268  1.00  0.00    -0.237 OA
ATOM     87  O   UNL A   1      32.408  34.604  28.149  1.00  0.00    -0.744 OA
ENDBRANCH  83  84
ENDBRANCH  51  76
BRANCH  63  88
ATOM     88  C   UNL A   1      39.854  34.405  36.990  1.00  0.00     0.058 A 
ATOM     89  C   UNL A   1      38.903  34.353  38.022  1.00  0.00     0.135 A 
ATOM     90  C   UNL A   1      40.710  35.516  36.943  1.00  0.00     0.135 A 
ATOM     91  F   UNL A   1      38.057  33.313  38.107  1.00  0.00    -0.206 F 
ATOM     92  C   UNL A   1      38.776  35.384  38.945  1.00  0.00     0.059 A 
ATOM     93  C   UNL A   1      40.620  36.547  37.873  1.00  0.00     0.059 A 
ATOM     94  F   UNL A   1      41.646  35.608  35.984  1.00  0.00    -0.206 F 
ATOM     95  C   UNL A   1      39.634  36.481  38.858  1.00  0.00     0.060 A 
BRANCH  95  96
ATOM     96  S   UNL A   1      39.458  37.820  40.057  1.00  0.00     0.124 S 
ATOM     97  O   UNL A   1      39.374  37.080  41.311  1.00  0.00    -0.237 OA
ATOM     98  O   UNL A   1      40.682  38.588  39.854  1.00  0.00    -0.237 OA
ATOM     99  O   UNL A   1      38.230  38.490  39.638  1.00  0.00    -0.744 OA
ENDBRANCH  95  96
ENDBRANCH  63  88
ENDBRANCH  37  38
ENDBRANCH  29  32
ENDBRANCH  27  28
ENDBRANCH  26  27
ENDBRANCH   1  26
TORSDOF 18
ENDMDL
MODEL 2
REMARK VINA RESULT:     -12.2      1.496      3.553
REMARK SMILES C[C@H]1CCC[C@](Cc2cn3ccccc3n2)(C(=O)NCCCCCCNC(=O)c2ccc(-c3c4nc(c(-c5c(F)cc(S(=O)(=O)[O-])cc5F)c5ccc([nH]5)c(-c5c(F)cc(S(=O)(=O)[O-])cc5F)c5nc(c(-c6c(F)cc(S(=O)(=O)[O-])cc6F)c6ccc3[nH]6)C=C5)C=C4)cc2)C1
REMARK SMILES IDX 23 1 22 2 21 3 20 4 19 5 17 6 18 7 6 9 1 10 2 11 3 12 95 13
REMARK SMILES IDX 4 14 5 15 7 16 8 17 9 18 16 19 10 20 15 21 11 22 14 23 12 24
REMARK SMILES IDX 13 25 24 26 25 27 26 28 27 29 28 31 29 32 30 33 94 34 31 35
REMARK SMILES IDX 93 36 32 37 33 38 34 39 87 40 35 41 92 42 86 43 88 44 36 45
REMARK SMILES IDX 91 46 85 47 84 48 37 50 71 51 50 52 70 53 51 54 54 55 69 56
REMARK SMILES IDX 89 57 52 58 53 59 68 61 90 62 55 63 38 64 39 65 48 66 40 67
REMARK SMILES IDX 41 68 47 69 49 70 42 71 43 72 44 73 45 74 46 75 72 76 73 77
REMARK SMILES IDX 82 78 74 79 75 80 81 81 83 82 76 83 77 84 78 85 79 86 80 87
REMARK SMILES IDX 56 88 57 89 66 90 58 91 59 92 65 93 67 94 60 95 61 96 62 97
REMARK SMILES IDX 63 98 64 99
REMARK H PARENT 19 8 26 30 88 49 54 60
REMARK Flexibility Score: inf
ROOT
ATOM      1  C   UNL A   1      39.132  21.250  25.763  1.00  0.00     0.002 C 
ENDROOT
BRANCH   1   2
ATOM      2  C   UNL A   1      37.858  22.104  25.728  1.00  0.00     0.002 C 
BRANCH   2   3
ATOM      3  C   UNL A   1      37.136  22.171  24.382  1.00  0.00     0.021 C 
BRANCH   3   4
ATOM      4  C   UNL A   1      36.347  23.455  24.153  1.00  0.00     0.116 C 
BRANCH   4   5
ATOM      5  N   UNL A   1      35.223  23.297  23.268  1.00  0.00    -0.356 N 
ATOM      6  C   UNL A   1      33.927  23.688  23.364  1.00  0.00     0.226 C 
ATOM      7  O   UNL A   1      33.309  23.618  22.293  1.00  0.00    -0.274 OA
ATOM      8  H   UNL A   1      35.435  22.814  22.437  1.00  0.00     0.163 HD
BRANCH   6   9
ATOM      9  C   UNL A   1      33.234  24.213  24.676  1.00  0.00     0.055 C 
ATOM     10  C   UNL A   1      29.836  26.195  24.332  1.00  0.00     0.007 C 
ATOM     11  C   UNL A   1      31.353  26.017  24.200  1.00  0.00    -0.013 C 
ATOM     12  C   UNL A   1      32.077  26.952  25.168  1.00  0.00     0.003 C 
ATOM     13  C   UNL A   1      31.743  24.545  24.392  1.00  0.00     0.020 C 
ATOM     14  C   UNL A   1      33.589  26.784  25.196  1.00  0.00     0.001 C 
ATOM     15  C   UNL A   1      34.068  25.342  25.341  1.00  0.00     0.017 C 
BRANCH   9  16
ATOM     16  C   UNL A   1      33.273  22.941  25.625  1.00  0.00     0.074 C 
BRANCH  16  17
ATOM     17  C   UNL A   1      33.242  21.567  25.014  1.00  0.00     0.061 A 
ATOM     18  C   UNL A   1      32.328  20.953  24.180  1.00  0.00     0.116 A 
ATOM     19  N   UNL A   1      34.295  20.708  25.269  1.00  0.00    -0.234 NA
ATOM     20  N   UNL A   1      32.818  19.692  23.942  1.00  0.00    -0.307 N 
ATOM     21  C   UNL A   1      34.025  19.597  24.619  1.00  0.00     0.136 A 
ATOM     22  C   UNL A   1      32.276  18.657  23.184  1.00  0.00     0.093 A 
ATOM     23  C   UNL A   1      34.737  18.369  24.510  1.00  0.00     0.048 A 
ATOM     24  C   UNL A   1      32.946  17.495  23.090  1.00  0.00     0.018 A 
ATOM     25  C   UNL A   1      34.222  17.361  23.779  1.00  0.00     0.005 A 
ENDBRANCH  16  17
ENDBRANCH   9  16
ENDBRANCH   6   9
ENDBRANCH   4   5
ENDBRANCH   3   4
ENDBRANCH   2   3
ENDBRANCH   1   2
BRANCH   1  26
ATOM     26  C   UNL A   1      40.190  21.643  26.802  1.00  0.00     0.021 C 
BRANCH  26  27
ATOM     27  C   UNL A   1      40.235  23.122  27.185  1.00  0.00     0.116 C 
BRANCH  27  28
ATOM     28  N   UNL A   1      40.919  23.931  26.192  1.00  0.00    -0.352 N 
ATOM     29  C   UNL A   1      41.202  25.270  26.161  1.00  0.00     0.251 C 
ATOM     30  H   UNL A   1      41.234  23.429  25.406  1.00  0.00     0.163 HD
ATOM     31  O   UNL A   1      41.643  25.756  25.121  1.00  0.00    -0.269 OA
BRANCH  29  32
ATOM     32  C   UNL A   1      40.981  26.139  27.339  1.00  0.00     0.039 A 
ATOM     33  C   UNL A   1      41.811  27.254  27.498  1.00  0.00     0.014 A 
ATOM     34  C   UNL A   1      40.032  25.839  28.322  1.00  0.00     0.014 A 
ATOM     35  C   UNL A   1      41.664  28.083  28.612  1.00  0.00     0.010 A 
ATOM     36  C   UNL A   1      39.847  26.700  29.405  1.00  0.00     0.010 A 
ATOM     37  C   UNL A   1      40.665  27.828  29.565  1.00  0.00    -0.014 A 
BRANCH  37  38
ATOM     38  C   UNL A   1      40.476  28.748  30.717  1.00  0.00     0.031 A 
ATOM     39  C   UNL A   1      41.330  28.621  31.952  1.00  0.00     0.074 A 
ATOM     40  C   UNL A   1      39.524  29.699  30.650  1.00  0.00     0.049 A 
ATOM     41  N   UNL A   1      41.315  29.345  33.041  1.00  0.00    -0.248 NA
ATOM     42  C   UNL A   1      42.318  27.531  31.971  1.00  0.00     0.031 C 
ATOM     43  C   UNL A   1      38.600  29.890  29.529  1.00  0.00     0.029 A 
ATOM     44  N   UNL A   1      39.174  30.684  31.537  1.00  0.00    -0.354 N 
ATOM     45  C   UNL A   1      42.289  28.804  33.874  1.00  0.00     0.074 A 
ATOM     46  C   UNL A   1      42.840  27.657  33.185  1.00  0.00     0.031 C 
ATOM     47  C   UNL A   1      37.808  30.944  29.784  1.00  0.00     0.029 A 
ATOM     48  C   UNL A   1      38.150  31.489  31.094  1.00  0.00     0.049 A 
ATOM     49  H   UNL A   1      39.614  30.804  32.410  1.00  0.00     0.167 HD
ATOM     50  C   UNL A   1      42.703  29.239  35.089  1.00  0.00     0.037 A 
ATOM     51  C   UNL A   1      37.557  32.548  31.676  1.00  0.00     0.037 A 
ATOM     52  C   UNL A   1      42.165  30.392  35.765  1.00  0.00     0.049 A 
ATOM     53  C   UNL A   1      38.047  33.017  33.019  1.00  0.00     0.074 A 
ATOM     54  C   UNL A   1      42.539  30.929  36.985  1.00  0.00     0.029 A 
ATOM     55  N   UNL A   1      41.143  31.192  35.275  1.00  0.00    -0.354 N 
ATOM     56  N   UNL A   1      39.002  32.519  33.768  1.00  0.00    -0.248 NA
ATOM     57  C   UNL A   1      37.388  34.199  33.591  1.00  0.00     0.031 C 
ATOM     58  C   UNL A   1      41.725  32.037  37.246  1.00  0.00     0.029 A 
ATOM     59  C   UNL A   1      40.870  32.213  36.171  1.00  0.00     0.049 A 
ATOM     60  H   UNL A   1      40.679  31.054  34.418  1.00  0.00     0.167 HD
ATOM     61  C   UNL A   1      39.071  33.339  34.888  1.00  0.00     0.074 A 
ATOM     62  C   UNL A   1      38.079  34.378  34.707  1.00  0.00     0.031 C 
ATOM     63  C   UNL A   1      39.878  33.239  35.973  1.00  0.00     0.037 A 
BRANCH  50  64
ATOM     64  C   UNL A   1      43.814  28.481  35.762  1.00  0.00     0.058 A 
ATOM     65  C   UNL A   1      45.160  28.822  35.554  1.00  0.00     0.135 A 
ATOM     66  C   UNL A   1      43.534  27.453  36.676  1.00  0.00     0.135 A 
ATOM     67  F   UNL A   1      45.484  29.787  34.678  1.00  0.00    -0.206 F 
ATOM     68  C   UNL A   1      46.190  28.162  36.217  1.00  0.00     0.059 A 
ATOM     69  C   UNL A   1      44.547  26.794  37.369  1.00  0.00     0.059 A 
ATOM     70  F   UNL A   1      42.264  27.085  36.912  1.00  0.00    -0.206 F 
ATOM     71  C   UNL A   1      45.873  27.151  37.126  1.00  0.00     0.060 A 
BRANCH  71  72
ATOM     72  S   UNL A   1      47.220  26.330  38.003  1.00  0.00     0.124 S 
ATOM     73  O   UNL A   1      46.489  25.540  38.988  1.00  0.00    -0.237 OA
ATOM     74  O   UNL A   1      47.872  25.574  36.939  1.00  0.00    -0.237 OA
ATOM     75  O   UNL A   1      47.999  27.442  38.545  1.00  0.00    -0.744 OA
ENDBRANCH  71  72
ENDBRANCH  50  64
BRANCH  51  76
ATOM     76  C   UNL A   1      36.445  33.258  30.989  1.00  0.00     0.058 A 
ATOM     77  C   UNL A   1      36.684  34.060  29.864  1.00  0.00     0.135 A 
ATOM     78  C   UNL A   1      35.127  33.168  31.461  1.00  0.00     0.135 A 
ATOM     79  F   UNL A   1      37.929  34.179  29.377  1.00  0.00    -0.206 F 
ATOM     80  C   UNL A   1      35.663  34.778  29.250  1.00  0.00     0.059 A 
ATOM     81  C   UNL A   1      34.084  33.857  30.849  1.00  0.00     0.059 A 
ATOM     82  F   UNL A   1      34.842  32.397  32.522  1.00  0.00    -0.206 F 
ATOM     83  C   UNL A   1      34.366  34.675  29.756  1.00  0.00     0.060 A 
BRANCH  83  84
ATOM     84  S   UNL A   1      33.041  35.601  28.951  1.00  0.00     0.124 S 
ATOM     85  O   UNL A   1      33.789  36.652  28.274  1.00  0.00    -0.237 OA
ATOM     86  O   UNL A   1      32.434  34.591  28.090  1.00  0.00    -0.237 OA
ATOM     87  O   UNL A   1      32.212  36.035  30.072  1.00  0.00    -0.744 OA
ENDBRANCH  83  84
ENDBRANCH  51  76
BRANCH  63  88
ATOM     88  C   UNL A   1      39.730  34.297  37.030  1.00  0.00     0.058 A 
ATOM     89  C   UNL A   1      40.374  35.539  36.921  1.00  0.00     0.135 A 
ATOM     90  C   UNL A   1      38.934  34.067  38.163  1.00  0.00     0.135 A 
ATOM     91  F   UNL A   1      41.150  35.806  35.858  1.00  0.00    -0.206 F 
ATOM     92  C   UNL A   1      40.271  36.501  37.919  1.00  0.00     0.059 A 
ATOM     93  C   UNL A   1      38.793  35.026  39.162  1.00  0.00     0.059 A 
ATOM     94  F   UNL A   1      38.285  32.901  38.309  1.00  0.00    -0.206 F 
ATOM     95  C   UNL A   1      39.484  36.232  39.040  1.00  0.00     0.060 A 
BRANCH  95  96
ATOM     96  S   UNL A   1      39.361  37.484  40.336  1.00  0.00     0.124 S 
ATOM     97  O   UNL A   1      38.965  36.676  41.485  1.00  0.00    -0.237 OA
ATOM     98  O   UNL A   1      40.714  38.028  40.380  1.00  0.00    -0.237 OA
ATOM     99  O   UNL A   1      38.341  38.397  39.829  1.00  0.00    -0.744 OA
ENDBRANCH  95  96
ENDBRANCH  63  88
ENDBRANCH  37  38
ENDBRANCH  29  32
ENDBRANCH  27  28
ENDBRANCH  26  27
ENDBRANCH   1  26
TORSDOF 18
ENDMDL
MODEL 3
REMARK VINA RESULT:     -12.1      6.485     12.075
REMARK SMILES C[C@H]1CCC[C@](Cc2cn3ccccc3n2)(C(=O)NCCCCCCNC(=O)c2ccc(-c3c4nc(c(-c5c(F)cc(S(=O)(=O)[O-])cc5F)c5ccc([nH]5)c(-c5c(F)cc(S(=O)(=O)[O-])cc5F)c5nc(c(-c6c(F)cc(S(=O)(=O)[O-])cc6F)c6ccc3[nH]6)C=C5)C=C4)cc2)C1
REMARK SMILES IDX 23 1 22 2 21 3 20 4 19 5 17 6 18 7 6 9 1 10 2 11 3 12 95 13
REMARK SMILES IDX 4 14 5 15 7 16 8 17 9 18 16 19 10 20 15 21 11 22 14 23 12 24
REMARK SMILES IDX 13 25 24 26 25 27 26 28 27 29 28 31 29 32 30 33 94 34 31 35
REMARK SMILES IDX 93 36 32 37 33 38 34 39 87 40 35 41 92 42 86 43 88 44 36 45
REMARK SMILES IDX 91 46 85 47 84 48 37 50 71 51 50 52 70 53 51 54 54 55 69 56
REMARK SMILES IDX 89 57 52 58 53 59 68 61 90 62 55 63 38 64 39 65 48 66 40 67
REMARK SMILES IDX 41 68 47 69 49 70 42 71 43 72 44 73 45 74 46 75 72 76 73 77
REMARK SMILES IDX 82 78 74 79 75 80 81 81 83 82 76 83 77 84 78 85 79 86 80 87
REMARK SMILES IDX 56 88 57 89 66 90 58 91 59 92 65 93 67 94 60 95 61 96 62 97
REMARK SMILES IDX 63 98 64 99
REMARK H PARENT 19 8 26 30 88 49 54 60
REMARK Flexibility Score: inf
ROOT
ATOM      1  C   UNL A   1      35.340  31.542  27.657  1.00  0.00     0.002 C 
ENDROOT
BRANCH   1   2
ATOM      2  C   UNL A   1      33.928  30.973  27.461  1.00  0.00     0.002 C 
BRANCH   2   3
ATOM      3  C   UNL A   1      33.849  29.589  26.817  1.00  0.00     0.021 C 
BRANCH   3   4
ATOM      4  C   UNL A   1      32.964  29.520  25.578  1.00  0.00     0.116 C 
BRANCH   4   5
ATOM      5  N   UNL A   1      33.679  29.199  24.370  1.00  0.00    -0.356 N 
ATOM      6  C   UNL A   1      33.643  28.117  23.552  1.00  0.00     0.226 C 
ATOM      7  O   UNL A   1      34.196  28.304  22.460  1.00  0.00    -0.274 OA
ATOM      8  H   UNL A   1      34.312  29.896  24.084  1.00  0.00     0.163 HD
BRANCH   6   9
ATOM      9  C   UNL A   1      32.958  26.742  23.897  1.00  0.00     0.055 C 
ATOM     10  C   UNL A   1      29.013  26.589  23.987  1.00  0.00     0.007 C 
ATOM     11  C   UNL A   1      30.395  26.992  24.517  1.00  0.00    -0.013 C 
ATOM     12  C   UNL A   1      30.691  26.255  25.822  1.00  0.00     0.003 C 
ATOM     13  C   UNL A   1      31.471  26.764  23.447  1.00  0.00     0.020 C 
ATOM     14  C   UNL A   1      32.084  26.502  26.383  1.00  0.00     0.001 C 
ATOM     15  C   UNL A   1      33.217  26.338  25.373  1.00  0.00     0.017 C 
BRANCH   9  16
ATOM     16  C   UNL A   1      33.732  25.722  22.959  1.00  0.00     0.074 C 
BRANCH  16  17
ATOM     17  C   UNL A   1      33.949  24.310  23.431  1.00  0.00     0.061 A 
ATOM     18  C   UNL A   1      33.098  23.225  23.506  1.00  0.00     0.116 A 
ATOM     19  N   UNL A   1      35.211  23.947  23.865  1.00  0.00    -0.234 NA
ATOM     20  N   UNL A   1      33.844  22.191  24.017  1.00  0.00    -0.307 N 
ATOM     21  C   UNL A   1      35.128  22.680  24.208  1.00  0.00     0.136 A 
ATOM     22  C   UNL A   1      33.466  20.884  24.312  1.00  0.00     0.093 A 
ATOM     23  C   UNL A   1      36.099  21.775  24.723  1.00  0.00     0.048 A 
ATOM     24  C   UNL A   1      34.382  20.034  24.808  1.00  0.00     0.018 A 
ATOM     25  C   UNL A   1      35.744  20.507  25.013  1.00  0.00     0.005 A 
ENDBRANCH  16  17
ENDBRANCH   9  16
ENDBRANCH   6   9
ENDBRANCH   4   5
ENDBRANCH   3   4
ENDBRANCH   2   3
ENDBRANCH   1   2
BRANCH   1  26
ATOM     26  C   UNL A   1      35.434  32.930  28.303  1.00  0.00     0.021 C 
BRANCH  26  27
ATOM     27  C   UNL A   1      36.378  33.048  29.501  1.00  0.00     0.116 C 
BRANCH  27  28
ATOM     28  N   UNL A   1      36.016  32.146  30.581  1.00  0.00    -0.352 N 
ATOM     29  C   UNL A   1      36.617  31.005  31.040  1.00  0.00     0.251 C 
ATOM     30  H   UNL A   1      35.199  32.401  31.066  1.00  0.00     0.163 HD
ATOM     31  O   UNL A   1      36.020  30.314  31.863  1.00  0.00    -0.269 OA
BRANCH  29  32
ATOM     32  C   UNL A   1      37.954  30.583  30.562  1.00  0.00     0.039 A 
ATOM     33  C   UNL A   1      38.116  30.341  29.194  1.00  0.00     0.014 A 
ATOM     34  C   UNL A   1      39.021  30.351  31.436  1.00  0.00     0.014 A 
ATOM     35  C   UNL A   1      39.348  29.908  28.701  1.00  0.00     0.010 A 
ATOM     36  C   UNL A   1      40.268  29.974  30.935  1.00  0.00     0.010 A 
ATOM     37  C   UNL A   1      40.443  29.742  29.563  1.00  0.00    -0.014 A 
BRANCH  37  38
ATOM     38  C   UNL A   1      41.768  29.338  29.022  1.00  0.00     0.031 A 
ATOM     39  C   UNL A   1      42.899  30.329  28.935  1.00  0.00     0.074 A 
ATOM     40  C   UNL A   1      41.947  28.071  28.602  1.00  0.00     0.049 A 
ATOM     41  N   UNL A   1      44.122  30.147  28.507  1.00  0.00    -0.248 NA
ATOM     42  C   UNL A   1      42.615  31.706  29.369  1.00  0.00     0.031 C 
ATOM     43  C   UNL A   1      40.914  27.031  28.589  1.00  0.00     0.029 A 
ATOM     44  N   UNL A   1      43.059  27.436  28.108  1.00  0.00    -0.354 N 
ATOM     45  C   UNL A   1      44.755  31.380  28.623  1.00  0.00     0.074 A 
ATOM     46  C   UNL A   1      43.766  32.316  29.112  1.00  0.00     0.031 C 
ATOM     47  C   UNL A   1      41.447  25.884  28.137  1.00  0.00     0.029 A 
ATOM     48  C   UNL A   1      42.850  26.110  27.806  1.00  0.00     0.049 A 
ATOM     49  H   UNL A   1      43.924  27.888  27.981  1.00  0.00     0.167 HD
ATOM     50  C   UNL A   1      46.049  31.696  28.371  1.00  0.00     0.037 A 
ATOM     51  C   UNL A   1      43.695  25.181  27.321  1.00  0.00     0.037 A 
ATOM     52  C   UNL A   1      47.036  30.758  27.902  1.00  0.00     0.049 A 
ATOM     53  C   UNL A   1      45.129  25.558  27.064  1.00  0.00     0.074 A 
ATOM     54  C   UNL A   1      48.380  30.977  27.645  1.00  0.00     0.029 A 
ATOM     55  N   UNL A   1      46.791  29.421  27.626  1.00  0.00    -0.354 N 
ATOM     56  N   UNL A   1      45.719  26.718  27.226  1.00  0.00    -0.248 NA
ATOM     57  C   UNL A   1      46.016  24.496  26.569  1.00  0.00     0.031 C 
ATOM     58  C   UNL A   1      48.940  29.778  27.188  1.00  0.00     0.029 A 
ATOM     59  C   UNL A   1      47.955  28.805  27.197  1.00  0.00     0.049 A 
ATOM     60  H   UNL A   1      45.919  28.976  27.722  1.00  0.00     0.167 HD
ATOM     61  C   UNL A   1      47.048  26.520  26.872  1.00  0.00     0.074 A 
ATOM     62  C   UNL A   1      47.181  25.123  26.512  1.00  0.00     0.031 C 
ATOM     63  C   UNL A   1      48.068  27.413  26.842  1.00  0.00     0.037 A 
BRANCH  50  64
ATOM     64  C   UNL A   1      46.484  33.114  28.621  1.00  0.00     0.058 A 
ATOM     65  C   UNL A   1      46.351  34.103  27.633  1.00  0.00     0.135 A 
ATOM     66  C   UNL A   1      46.972  33.507  29.878  1.00  0.00     0.135 A 
ATOM     67  F   UNL A   1      45.905  33.778  26.408  1.00  0.00    -0.206 F 
ATOM     68  C   UNL A   1      46.698  35.428  27.876  1.00  0.00     0.059 A 
ATOM     69  C   UNL A   1      47.304  34.832  30.151  1.00  0.00     0.059 A 
ATOM     70  F   UNL A   1      47.120  32.603  30.858  1.00  0.00    -0.206 F 
ATOM     71  C   UNL A   1      47.171  35.784  29.140  1.00  0.00     0.060 A 
BRANCH  71  72
ATOM     72  S   UNL A   1      47.583  37.514  29.448  1.00  0.00     0.124 S 
ATOM     73  O   UNL A   1      48.839  37.649  28.717  1.00  0.00    -0.237 OA
ATOM     74  O   UNL A   1      46.439  38.216  28.878  1.00  0.00    -0.237 OA
ATOM     75  O   UNL A   1      47.695  37.582  30.904  1.00  0.00    -0.744 OA
ENDBRANCH  71  72
ENDBRANCH  50  64
BRANCH  51  76
ATOM     76  C   UNL A   1      43.221  23.796  27.064  1.00  0.00     0.058 A 
ATOM     77  C   UNL A   1      43.084  22.872  28.110  1.00  0.00     0.135 A 
ATOM     78  C   UNL A   1      42.923  23.362  25.764  1.00  0.00     0.135 A 
ATOM     79  F   UNL A   1      43.361  23.240  29.371  1.00  0.00    -0.206 F 
ATOM     80  C   UNL A   1      42.701  21.556  27.875  1.00  0.00     0.059 A 
ATOM     81  C   UNL A   1      42.514  22.057  25.506  1.00  0.00     0.059 A 
ATOM     82  F   UNL A   1      43.018  24.213  24.731  1.00  0.00    -0.206 F 
ATOM     83  C   UNL A   1      42.425  21.156  26.566  1.00  0.00     0.060 A 
BRANCH  83  84
ATOM     84  S   UNL A   1      41.919  19.449  26.265  1.00  0.00     0.124 S 
ATOM     85  O   UNL A   1      42.676  19.127  25.062  1.00  0.00    -0.237 OA
ATOM     86  O   UNL A   1      42.345  18.777  27.488  1.00  0.00    -0.237 OA
ATOM     87  O   UNL A   1      40.473  19.558  26.092  1.00  0.00    -0.744 OA
ENDBRANCH  83  84
ENDBRANCH  51  76
BRANCH  63  88
ATOM     88  C   UNL A   1      49.415  26.892  26.428  1.00  0.00     0.058 A 
ATOM     89  C   UNL A   1      49.810  26.868  25.081  1.00  0.00     0.135 A 
ATOM     90  C   UNL A   1      50.321  26.412  27.387  1.00  0.00     0.135 A 
ATOM     91  F   UNL A   1      48.978  27.311  24.125  1.00  0.00    -0.206 F 
ATOM     92  C   UNL A   1      51.040  26.346  24.694  1.00  0.00     0.059 A 
ATOM     93  C   UNL A   1      51.568  25.911  27.025  1.00  0.00     0.059 A 
ATOM     94  F   UNL A   1      49.997  26.426  28.689  1.00  0.00    -0.206 F 
ATOM     95  C   UNL A   1      51.909  25.863  25.673  1.00  0.00     0.060 A 
BRANCH  95  96
ATOM     96  S   UNL A   1      53.501  25.180  25.163  1.00  0.00     0.124 S 
ATOM     97  O   UNL A   1      53.255  23.747  25.279  1.00  0.00    -0.237 OA
ATOM     98  O   UNL A   1      53.642  25.692  23.803  1.00  0.00    -0.237 OA
ATOM     99  O   UNL A   1      54.436  25.739  26.135  1.00  0.00    -0.744 OA
ENDBRANCH  95  96
ENDBRANCH  63  88
ENDBRANCH  37  38
ENDBRANCH  29  32
ENDBRANCH  27  28
ENDBRANCH  26  27
ENDBRANCH   1  26
TORSDOF 18
ENDMDL
