MODEL 1
REMARK VINA RESULT:     -11.3      0.000      0.000
REMARK SMILES C[C@H](NC(=O)c1ccc(C(C)(C)C)cc1)C(=O)N[C@@H](C(=O)NCCCCCCNC(=O)c1ccc(-c2c3nc(c(-c4c(F)cc(S(=O)(=O)[O-])cc4F)c4ccc([nH]4)c(-c4c(F)cc(S(=O)(=O)[O-])cc4F)c4nc(c(-c5c(F)cc(S(=O)(=O)[O-])cc5F)c5ccc2[nH]5)C=C4)C=C3)cc1)[C@H](C)O
REMARK SMILES IDX 24 1 23 2 22 3 20 4 21 5 19 7 18 8 16 9 17 10 2 12 1 13 3 14
REMARK SMILES IDX 4 15 5 17 6 18 7 19 15 20 8 21 14 22 9 23 10 24 11 25 12 26
REMARK SMILES IDX 13 27 98 28 99 29 100 30 25 32 26 33 27 34 28 35 29 36 30 37
REMARK SMILES IDX 31 39 32 40 33 41 97 42 34 43 96 44 35 45 36 46 37 47 90 48
REMARK SMILES IDX 38 49 95 50 89 51 91 52 39 53 94 54 88 55 87 56 40 58 74 59
REMARK SMILES IDX 53 60 73 61 54 62 57 63 72 64 92 65 55 66 56 67 71 69 93 70
REMARK SMILES IDX 58 71 41 72 42 73 51 74 43 75 44 76 50 77 52 78 45 79 46 80
REMARK SMILES IDX 47 81 48 82 49 83 75 84 76 85 85 86 77 87 78 88 84 89 86 90
REMARK SMILES IDX 79 91 80 92 81 93 82 94 83 95 59 96 60 97 69 98 61 99 62 100
REMARK SMILES IDX 68 101 70 102 63 103 64 104 65 105 66 106 67 107
REMARK H PARENT 22 6 18 11 3 16 100 31 29 38 91 57 57 68
REMARK Flexibility Score: inf
ROOT
ATOM      1  C   UNL A   1      38.294  23.608  26.159  1.00  0.00     0.021 C 
ENDROOT
BRANCH   1   2
ATOM      2  C   UNL A   1      36.941  23.311  25.521  1.00  0.00     0.116 C 
BRANCH   2   3
ATOM      3  N   UNL A   1      35.945  22.945  26.506  1.00  0.00    -0.354 N 
ATOM      4  C   UNL A   1      34.635  22.609  26.400  1.00  0.00     0.245 C 
ATOM      5  O   UNL A   1      34.050  22.383  27.469  1.00  0.00    -0.273 OA
ATOM      6  H   UNL A   1      36.284  22.937  27.431  1.00  0.00     0.163 HD
BRANCH   4   7
ATOM      7  C   UNL A   1      33.922  22.317  25.050  1.00  0.00     0.200 C 
BRANCH   7   8
ATOM      8  N   UNL A   1      32.509  22.683  24.951  1.00  0.00    -0.340 N 
ATOM      9  C   UNL A   1      31.846  23.518  24.100  1.00  0.00     0.243 C 
ATOM     10  O   UNL A   1      30.612  23.504  24.154  1.00  0.00    -0.273 OA
ATOM     11  H   UNL A   1      31.933  22.247  25.619  1.00  0.00     0.164 HD
BRANCH   9  12
ATOM     12  C   UNL A   1      32.571  24.460  23.105  1.00  0.00     0.168 C 
ATOM     13  C   UNL A   1      33.347  23.747  22.009  1.00  0.00     0.041 C 
BRANCH  12  14
ATOM     14  N   UNL A   1      33.403  25.424  23.826  1.00  0.00    -0.341 N 
ATOM     15  C   UNL A   1      33.122  26.709  24.222  1.00  0.00     0.251 C 
ATOM     16  H   UNL A   1      34.302  25.102  24.063  1.00  0.00     0.164 HD
ATOM     17  O   UNL A   1      33.921  27.295  24.949  1.00  0.00    -0.269 OA
BRANCH  15  18
ATOM     18  C   UNL A   1      31.931  27.411  23.710  1.00  0.00     0.039 A 
ATOM     19  C   UNL A   1      30.690  27.029  24.216  1.00  0.00     0.014 A 
ATOM     20  C   UNL A   1      32.014  28.434  22.767  1.00  0.00     0.014 A 
ATOM     21  C   UNL A   1      29.547  27.749  23.863  1.00  0.00     0.005 A 
ATOM     22  C   UNL A   1      30.866  29.161  22.430  1.00  0.00     0.005 A 
ATOM     23  C   UNL A   1      29.617  28.866  23.006  1.00  0.00    -0.043 A 
BRANCH  23  24
ATOM     24  C   UNL A   1      28.357  29.709  22.743  1.00  0.00    -0.013 C 
ATOM     25  C   UNL A   1      27.105  28.892  23.101  1.00  0.00     0.016 C 
ATOM     26  C   UNL A   1      28.394  30.991  23.607  1.00  0.00     0.016 C 
ATOM     27  C   UNL A   1      28.211  30.166  21.274  1.00  0.00     0.016 C 
ENDBRANCH  23  24
ENDBRANCH  15  18
ENDBRANCH  12  14
ENDBRANCH   9  12
ENDBRANCH   7   8
BRANCH   7  28
ATOM     28  C   UNL A   1      34.102  20.799  24.742  1.00  0.00     0.143 C 
ATOM     29  C   UNL A   1      32.821  19.985  24.893  1.00  0.00     0.041 C 
BRANCH  28  30
ATOM     30  O   UNL A   1      35.065  20.219  25.634  1.00  0.00    -0.391 OA
ATOM     31  H   UNL A   1      34.613  19.643  26.269  1.00  0.00     0.211 HD
ENDBRANCH  28  30
ENDBRANCH   7  28
ENDBRANCH   4   7
ENDBRANCH   2   3
ENDBRANCH   1   2
BRANCH   1  32
ATOM     32  C   UNL A   1      39.243  22.406  26.218  1.00  0.00     0.002 C 
BRANCH  32  33
ATOM     33  C   UNL A   1      40.171  22.353  27.438  1.00  0.00     0.002 C 
BRANCH  33  34
ATOM     34  C   UNL A   1      41.662  22.171  27.138  1.00  0.00     0.021 C 
BRANCH  34  35
ATOM     35  C   UNL A   1      42.502  23.443  27.199  1.00  0.00     0.116 C 
BRANCH  35  36
ATOM     36  N   UNL A   1      42.213  24.354  26.104  1.00  0.00    -0.352 N 
ATOM     37  C   UNL A   1      41.727  25.638  26.144  1.00  0.00     0.251 C 
ATOM     38  H   UNL A   1      42.390  23.999  25.203  1.00  0.00     0.163 HD
ATOM     39  O   UNL A   1      41.396  26.202  25.105  1.00  0.00    -0.269 OA
BRANCH  37  40
ATOM     40  C   UNL A   1      41.579  26.329  27.442  1.00  0.00     0.039 A 
ATOM     41  C   UNL A   1      42.549  27.261  27.823  1.00  0.00     0.014 A 
ATOM     42  C   UNL A   1      40.489  26.067  28.277  1.00  0.00     0.014 A 
ATOM     43  C   UNL A   1      42.386  27.986  29.006  1.00  0.00     0.010 A 
ATOM     44  C   UNL A   1      40.302  26.826  29.431  1.00  0.00     0.010 A 
ATOM     45  C   UNL A   1      41.242  27.802  29.798  1.00  0.00    -0.014 A 
BRANCH  45  46
ATOM     46  C   UNL A   1      40.986  28.648  30.991  1.00  0.00     0.031 A 
ATOM     47  C   UNL A   1      39.913  29.699  30.962  1.00  0.00     0.074 A 
ATOM     48  C   UNL A   1      41.777  28.518  32.074  1.00  0.00     0.049 A 
ATOM     49  N   UNL A   1      39.622  30.604  31.859  1.00  0.00    -0.248 NA
ATOM     50  C   UNL A   1      39.072  29.753  29.756  1.00  0.00     0.031 C 
ATOM     51  C   UNL A   1      42.876  27.559  32.207  1.00  0.00     0.029 A 
ATOM     52  N   UNL A   1      41.793  29.206  33.262  1.00  0.00    -0.354 N 
ATOM     53  C   UNL A   1      38.575  31.344  31.325  1.00  0.00     0.074 A 
ATOM     54  C   UNL A   1      38.305  30.804  30.008  1.00  0.00     0.031 C 
ATOM     55  C   UNL A   1      43.453  27.713  33.409  1.00  0.00     0.029 A 
ATOM     56  C   UNL A   1      42.793  28.808  34.117  1.00  0.00     0.049 A 
ATOM     57  H   UNL A   1      41.149  29.918  33.480  1.00  0.00     0.167 HD
ATOM     58  C   UNL A   1      37.892  32.370  31.887  1.00  0.00     0.037 A 
ATOM     59  C   UNL A   1      43.159  29.286  35.322  1.00  0.00     0.037 A 
ATOM     60  C   UNL A   1      38.147  32.886  33.206  1.00  0.00     0.049 A 
ATOM     61  C   UNL A   1      42.407  30.448  35.909  1.00  0.00     0.074 A 
ATOM     62  C   UNL A   1      37.460  33.871  33.893  1.00  0.00     0.029 A 
ATOM     63  N   UNL A   1      39.175  32.462  34.037  1.00  0.00    -0.354 N 
ATOM     64  N   UNL A   1      41.386  31.103  35.412  1.00  0.00    -0.248 NA
ATOM     65  C   UNL A   1      42.865  30.946  37.215  1.00  0.00     0.031 C 
ATOM     66  C   UNL A   1      38.094  34.069  35.125  1.00  0.00     0.029 A 
ATOM     67  C   UNL A   1      39.156  33.184  35.218  1.00  0.00     0.049 A 
ATOM     68  H   UNL A   1      39.821  31.753  33.819  1.00  0.00     0.167 HD
ATOM     69  C   UNL A   1      41.070  32.080  36.348  1.00  0.00     0.074 A 
ATOM     70  C   UNL A   1      42.000  31.925  37.447  1.00  0.00     0.031 C 
ATOM     71  C   UNL A   1      40.094  33.020  36.301  1.00  0.00     0.037 A 
BRANCH  58  72
ATOM     72  C   UNL A   1      36.796  33.001  31.075  1.00  0.00     0.058 A 
ATOM     73  C   UNL A   1      37.082  33.875  30.015  1.00  0.00     0.135 A 
ATOM     74  C   UNL A   1      35.450  32.703  31.338  1.00  0.00     0.135 A 
ATOM     75  F   UNL A   1      38.353  34.202  29.732  1.00  0.00    -0.206 F 
ATOM     76  C   UNL A   1      36.068  34.456  29.260  1.00  0.00     0.059 A 
ATOM     77  C   UNL A   1      34.420  33.256  30.581  1.00  0.00     0.059 A 
ATOM     78  F   UNL A   1      35.123  31.873  32.340  1.00  0.00    -0.206 F 
ATOM     79  C   UNL A   1      34.740  34.143  29.554  1.00  0.00     0.060 A 
BRANCH  79  80
ATOM     80  S   UNL A   1      33.433  34.905  28.567  1.00  0.00     0.124 S 
ATOM     81  O   UNL A   1      32.546  35.417  29.607  1.00  0.00    -0.237 OA
ATOM     82  O   UNL A   1      34.162  35.912  27.803  1.00  0.00    -0.237 OA
ATOM     83  O   UNL A   1      32.907  33.792  27.784  1.00  0.00    -0.744 OA
ENDBRANCH  79  80
ENDBRANCH  58  72
BRANCH  59  84
ATOM     84  C   UNL A   1      44.312  28.684  36.038  1.00  0.00     0.058 A 
ATOM     85  C   UNL A   1      45.614  29.176  35.872  1.00  0.00     0.135 A 
ATOM     86  C   UNL A   1      44.127  27.611  36.922  1.00  0.00     0.135 A 
ATOM     87  F   UNL A   1      45.842  30.196  35.032  1.00  0.00    -0.206 F 
ATOM     88  C   UNL A   1      46.693  28.617  36.552  1.00  0.00     0.059 A 
ATOM     89  C   UNL A   1      45.185  27.047  37.625  1.00  0.00     0.059 A 
ATOM     90  F   UNL A   1      42.895  27.125  37.126  1.00  0.00    -0.206 F 
ATOM     91  C   UNL A   1      46.468  27.553  37.427  1.00  0.00     0.060 A 
BRANCH  91  92
ATOM     92  S   UNL A   1      47.864  26.866  38.342  1.00  0.00     0.124 S 
ATOM     93  O   UNL A   1      47.298  25.622  38.850  1.00  0.00    -0.237 OA
ATOM     94  O   UNL A   1      48.878  26.728  37.301  1.00  0.00    -0.237 OA
ATOM     95  O   UNL A   1      48.142  27.889  39.346  1.00  0.00    -0.744 OA
ENDBRANCH  91  92
ENDBRANCH  59  84
BRANCH  71  96
ATOM     96  C   UNL A   1      39.976  33.950  37.473  1.00  0.00     0.058 A 
ATOM     97  C   UNL A   1      40.613  35.200  37.481  1.00  0.00     0.135 A 
ATOM     98  C   UNL A   1      39.171  33.613  38.574  1.00  0.00     0.135 A 
ATOM     99  F   UNL A   1      41.401  35.562  36.457  1.00  0.00    -0.206 F 
ATOM    100  C   UNL A   1      40.461  36.084  38.544  1.00  0.00     0.059 A 
ATOM    101  C   UNL A   1      38.990  34.489  39.639  1.00  0.00     0.059 A 
ATOM    102  F   UNL A   1      38.538  32.430  38.610  1.00  0.00    -0.206 F 
ATOM    103  C   UNL A   1      39.646  35.720  39.618  1.00  0.00     0.060 A 
BRANCH 103 104
ATOM    104  S   UNL A   1      39.415  36.896  40.969  1.00  0.00     0.124 S 
ATOM    105  O   UNL A   1      38.656  36.098  41.926  1.00  0.00    -0.237 OA
ATOM    106  O   UNL A   1      40.789  37.208  41.353  1.00  0.00    -0.237 OA
ATOM    107  O   UNL A   1      38.683  37.992  40.344  1.00  0.00    -0.744 OA
ENDBRANCH 103 104
ENDBRANCH  71  96
ENDBRANCH  45  46
ENDBRANCH  37  40
ENDBRANCH  35  36
ENDBRANCH  34  35
ENDBRANCH  33  34
ENDBRANCH  32  33
ENDBRANCH   1  32
TORSDOF 23
ENDMDL
MODEL 2
REMARK VINA RESULT:     -10.8      0.733      7.912
REMARK SMILES C[C@H](NC(=O)c1ccc(C(C)(C)C)cc1)C(=O)N[C@@H](C(=O)NCCCCCCNC(=O)c1ccc(-c2c3nc(c(-c4c(F)cc(S(=O)(=O)[O-])cc4F)c4ccc([nH]4)c(-c4c(F)cc(S(=O)(=O)[O-])cc4F)c4nc(c(-c5c(F)cc(S(=O)(=O)[O-])cc5F)c5ccc2[nH]5)C=C4)C=C3)cc1)[C@H](C)O
REMARK SMILES IDX 24 1 23 2 22 3 20 4 21 5 19 7 18 8 16 9 17 10 2 12 1 13 3 14
REMARK SMILES IDX 4 15 5 17 6 18 7 19 15 20 8 21 14 22 9 23 10 24 11 25 12 26
REMARK SMILES IDX 13 27 98 28 99 29 100 30 25 32 26 33 27 34 28 35 29 36 30 37
REMARK SMILES IDX 31 39 32 40 33 41 97 42 34 43 96 44 35 45 36 46 37 47 90 48
REMARK SMILES IDX 38 49 95 50 89 51 91 52 39 53 94 54 88 55 87 56 40 58 74 59
REMARK SMILES IDX 53 60 73 61 54 62 57 63 72 64 92 65 55 66 56 67 71 69 93 70
REMARK SMILES IDX 58 71 41 72 42 73 51 74 43 75 44 76 50 77 52 78 45 79 46 80
REMARK SMILES IDX 47 81 48 82 49 83 75 84 76 85 85 86 77 87 78 88 84 89 86 90
REMARK SMILES IDX 79 91 80 92 81 93 82 94 83 95 59 96 60 97 69 98 61 99 62 100
REMARK SMILES IDX 68 101 70 102 63 103 64 104 65 105 66 106 67 107
REMARK H PARENT 22 6 18 11 3 16 100 31 29 38 91 57 57 68
REMARK Flexibility Score: inf
ROOT
ATOM      1  C   UNL A   1      37.987  23.693  26.091  1.00  0.00     0.021 C 
ENDROOT
BRANCH   1   2
ATOM      2  C   UNL A   1      36.617  23.225  25.611  1.00  0.00     0.116 C 
BRANCH   2   3
ATOM      3  N   UNL A   1      35.822  22.680  26.692  1.00  0.00    -0.354 N 
ATOM      4  C   UNL A   1      34.552  22.206  26.742  1.00  0.00     0.245 C 
ATOM      5  O   UNL A   1      34.158  21.842  27.859  1.00  0.00    -0.273 OA
ATOM      6  H   UNL A   1      36.293  22.647  27.555  1.00  0.00     0.163 HD
BRANCH   4   7
ATOM      7  C   UNL A   1      33.679  21.930  25.486  1.00  0.00     0.200 C 
BRANCH   7   8
ATOM      8  N   UNL A   1      32.326  22.484  25.480  1.00  0.00    -0.340 N 
ATOM      9  C   UNL A   1      31.716  23.378  24.649  1.00  0.00     0.243 C 
ATOM     10  O   UNL A   1      30.500  23.536  24.798  1.00  0.00    -0.273 OA
ATOM     11  H   UNL A   1      31.752  22.152  26.207  1.00  0.00     0.164 HD
BRANCH   9  12
ATOM     12  C   UNL A   1      32.479  24.182  23.565  1.00  0.00     0.168 C 
ATOM     13  C   UNL A   1      33.104  23.332  22.471  1.00  0.00     0.041 C 
BRANCH  12  14
ATOM     14  N   UNL A   1      33.454  25.080  24.185  1.00  0.00    -0.341 N 
ATOM     15  C   UNL A   1      33.312  26.378  24.610  1.00  0.00     0.251 C 
ATOM     16  H   UNL A   1      34.350  24.695  24.316  1.00  0.00     0.164 HD
ATOM     17  O   UNL A   1      34.227  26.901  25.241  1.00  0.00    -0.269 OA
BRANCH  15  18
ATOM     18  C   UNL A   1      32.121  27.165  24.240  1.00  0.00     0.039 A 
ATOM     19  C   UNL A   1      31.937  28.393  24.870  1.00  0.00     0.014 A 
ATOM     20  C   UNL A   1      31.205  26.728  23.283  1.00  0.00     0.014 A 
ATOM     21  C   UNL A   1      30.900  29.234  24.462  1.00  0.00     0.005 A 
ATOM     22  C   UNL A   1      30.176  27.583  22.867  1.00  0.00     0.005 A 
ATOM     23  C   UNL A   1      30.031  28.872  23.413  1.00  0.00    -0.043 A 
BRANCH  23  24
ATOM     24  C   UNL A   1      28.982  29.878  22.906  1.00  0.00    -0.013 C 
ATOM     25  C   UNL A   1      29.344  30.326  21.481  1.00  0.00     0.016 C 
ATOM     26  C   UNL A   1      27.584  29.215  22.891  1.00  0.00     0.016 C 
ATOM     27  C   UNL A   1      28.865  31.147  23.779  1.00  0.00     0.016 C 
ENDBRANCH  23  24
ENDBRANCH  15  18
ENDBRANCH  12  14
ENDBRANCH   9  12
ENDBRANCH   7   8
BRANCH   7  28
ATOM     28  C   UNL A   1      33.622  20.385  25.283  1.00  0.00     0.143 C 
ATOM     29  C   UNL A   1      32.695  19.946  24.155  1.00  0.00     0.041 C 
BRANCH  28  30
ATOM     30  O   UNL A   1      33.150  19.741  26.477  1.00  0.00    -0.391 OA
ATOM     31  H   UNL A   1      33.212  18.780  26.372  1.00  0.00     0.211 HD
ENDBRANCH  28  30
ENDBRANCH   7  28
ENDBRANCH   4   7
ENDBRANCH   2   3
ENDBRANCH   1   2
BRANCH   1  32
ATOM     32  C   UNL A   1      39.039  22.584  26.184  1.00  0.00     0.002 C 
BRANCH  32  33
ATOM     33  C   UNL A   1      39.985  22.665  27.388  1.00  0.00     0.002 C 
BRANCH  33  34
ATOM     34  C   UNL A   1      41.407  22.146  27.160  1.00  0.00     0.021 C 
BRANCH  34  35
ATOM     35  C   UNL A   1      42.491  23.217  27.081  1.00  0.00     0.116 C 
BRANCH  35  36
ATOM     36  N   UNL A   1      42.325  24.093  25.933  1.00  0.00    -0.352 N 
ATOM     37  C   UNL A   1      41.994  25.425  25.893  1.00  0.00     0.251 C 
ATOM     38  H   UNL A   1      42.471  23.669  25.056  1.00  0.00     0.163 HD
ATOM     39  O   UNL A   1      41.746  25.965  24.819  1.00  0.00    -0.269 OA
BRANCH  37  40
ATOM     40  C   UNL A   1      41.912  26.201  27.149  1.00  0.00     0.039 A 
ATOM     41  C   UNL A   1      42.889  27.166  27.408  1.00  0.00     0.014 A 
ATOM     42  C   UNL A   1      40.876  25.985  28.062  1.00  0.00     0.014 A 
ATOM     43  C   UNL A   1      42.785  27.968  28.548  1.00  0.00     0.010 A 
ATOM     44  C   UNL A   1      40.746  26.818  29.171  1.00  0.00     0.010 A 
ATOM     45  C   UNL A   1      41.692  27.826  29.416  1.00  0.00    -0.014 A 
BRANCH  45  46
ATOM     46  C   UNL A   1      41.495  28.748  30.563  1.00  0.00     0.031 A 
ATOM     47  C   UNL A   1      42.346  28.622  31.795  1.00  0.00     0.074 A 
ATOM     48  C   UNL A   1      40.494  29.649  30.521  1.00  0.00     0.049 A 
ATOM     49  N   UNL A   1      42.247  29.257  32.933  1.00  0.00    -0.248 NA
ATOM     50  C   UNL A   1      43.438  27.637  31.747  1.00  0.00     0.031 C 
ATOM     51  C   UNL A   1      39.577  29.841  29.396  1.00  0.00     0.029 A 
ATOM     52  N   UNL A   1      40.067  30.561  31.455  1.00  0.00    -0.354 N 
ATOM     53  C   UNL A   1      43.251  28.743  33.743  1.00  0.00     0.074 A 
ATOM     54  C   UNL A   1      43.927  27.717  32.976  1.00  0.00     0.031 C 
ATOM     55  C   UNL A   1      38.702  30.813  29.700  1.00  0.00     0.029 A 
ATOM     56  C   UNL A   1      38.968  31.285  31.057  1.00  0.00     0.049 A 
ATOM     57  H   UNL A   1      40.505  30.682  32.328  1.00  0.00     0.167 HD
ATOM     58  C   UNL A   1      43.588  29.104  35.004  1.00  0.00     0.037 A 
ATOM     59  C   UNL A   1      38.239  32.206  31.716  1.00  0.00     0.037 A 
ATOM     60  C   UNL A   1      42.929  30.141  35.753  1.00  0.00     0.049 A 
ATOM     61  C   UNL A   1      38.612  32.565  33.127  1.00  0.00     0.074 A 
ATOM     62  C   UNL A   1      43.245  30.632  37.007  1.00  0.00     0.029 A 
ATOM     63  N   UNL A   1      41.815  30.846  35.318  1.00  0.00    -0.354 N 
ATOM     64  N   UNL A   1      39.598  32.105  33.860  1.00  0.00    -0.248 NA
ATOM     65  C   UNL A   1      37.767  33.557  33.808  1.00  0.00     0.031 C 
ATOM     66  C   UNL A   1      42.301  31.608  37.347  1.00  0.00     0.029 A 
ATOM     67  C   UNL A   1      41.416  31.747  36.290  1.00  0.00     0.049 A 
ATOM     68  H   UNL A   1      41.374  30.723  34.447  1.00  0.00     0.167 HD
ATOM     69  C   UNL A   1      39.500  32.759  35.082  1.00  0.00     0.074 A 
ATOM     70  C   UNL A   1      38.366  33.656  34.987  1.00  0.00     0.031 C 
ATOM     71  C   UNL A   1      40.281  32.630  36.182  1.00  0.00     0.037 A 
BRANCH  58  72
ATOM     72  C   UNL A   1      44.726  28.370  35.655  1.00  0.00     0.058 A 
ATOM     73  C   UNL A   1      46.043  28.851  35.586  1.00  0.00     0.135 A 
ATOM     74  C   UNL A   1      44.493  27.192  36.382  1.00  0.00     0.135 A 
ATOM     75  F   UNL A   1      46.319  29.966  34.892  1.00  0.00    -0.206 F 
ATOM     76  C   UNL A   1      47.095  28.174  36.192  1.00  0.00     0.059 A 
ATOM     77  C   UNL A   1      45.529  26.509  37.016  1.00  0.00     0.059 A 
ATOM     78  F   UNL A   1      43.253  26.689  36.479  1.00  0.00    -0.206 F 
ATOM     79  C   UNL A   1      46.829  27.002  36.901  1.00  0.00     0.060 A 
BRANCH  79  80
ATOM     80  S   UNL A   1      48.205  26.132  37.683  1.00  0.00     0.124 S 
ATOM     81  O   UNL A   1      49.289  26.402  36.745  1.00  0.00    -0.237 OA
ATOM     82  O   UNL A   1      48.306  26.799  38.977  1.00  0.00    -0.237 OA
ATOM     83  O   UNL A   1      47.748  24.747  37.732  1.00  0.00    -0.744 OA
ENDBRANCH  79  80
ENDBRANCH  58  72
BRANCH  59  84
ATOM     84  C   UNL A   1      37.064  32.831  31.055  1.00  0.00     0.058 A 
ATOM     85  C   UNL A   1      35.777  32.295  31.195  1.00  0.00     0.135 A 
ATOM     86  C   UNL A   1      37.209  33.993  30.284  1.00  0.00     0.135 A 
ATOM     87  F   UNL A   1      35.589  31.181  31.917  1.00  0.00    -0.206 F 
ATOM     88  C   UNL A   1      34.675  32.888  30.584  1.00  0.00     0.059 A 
ATOM     89  C   UNL A   1      36.122  34.614  29.679  1.00  0.00     0.059 A 
ATOM     90  F   UNL A   1      38.419  34.550  30.144  1.00  0.00    -0.206 F 
ATOM     91  C   UNL A   1      34.858  34.047  29.828  1.00  0.00     0.060 A 
BRANCH  91  92
ATOM     92  S   UNL A   1      33.417  34.838  29.080  1.00  0.00     0.124 S 
ATOM     93  O   UNL A   1      32.966  33.806  28.153  1.00  0.00    -0.237 OA
ATOM     94  O   UNL A   1      32.560  35.075  30.238  1.00  0.00    -0.237 OA
ATOM     95  O   UNL A   1      33.975  36.038  28.466  1.00  0.00    -0.744 OA
ENDBRANCH  91  92
ENDBRANCH  59  84
BRANCH  71  96
ATOM     96  C   UNL A   1      39.944  33.482  37.370  1.00  0.00     0.058 A 
ATOM     97  C   UNL A   1      40.590  34.707  37.596  1.00  0.00     0.135 A 
ATOM     98  C   UNL A   1      38.927  33.099  38.259  1.00  0.00     0.135 A 
ATOM     99  F   UNL A   1      41.575  35.112  36.780  1.00  0.00    -0.206 F 
ATOM    100  C   UNL A   1      40.242  35.523  38.668  1.00  0.00     0.059 A 
ATOM    101  C   UNL A   1      38.551  33.907  39.327  1.00  0.00     0.059 A 
ATOM    102  F   UNL A   1      38.278  31.938  38.083  1.00  0.00    -0.206 F 
ATOM    103  C   UNL A   1      39.219  35.115  39.527  1.00  0.00     0.060 A 
BRANCH 103 104
ATOM    104  S   UNL A   1      38.742  36.204  40.886  1.00  0.00     0.124 S 
ATOM    105  O   UNL A   1      37.589  35.498  41.437  1.00  0.00    -0.237 OA
ATOM    106  O   UNL A   1      39.940  36.210  41.721  1.00  0.00    -0.237 OA
ATOM    107  O   UNL A   1      38.445  37.468  40.219  1.00  0.00    -0.744 OA
ENDBRANCH 103 104
ENDBRANCH  71  96
ENDBRANCH  45  46
ENDBRANCH  37  40
ENDBRANCH  35  36
ENDBRANCH  34  35
ENDBRANCH  33  34
ENDBRANCH  32  33
ENDBRANCH   1  32
TORSDOF 23
ENDMDL
MODEL 3
REMARK VINA RESULT:     -10.8      1.363      8.125
REMARK SMILES C[C@H](NC(=O)c1ccc(C(C)(C)C)cc1)C(=O)N[C@@H](C(=O)NCCCCCCNC(=O)c1ccc(-c2c3nc(c(-c4c(F)cc(S(=O)(=O)[O-])cc4F)c4ccc([nH]4)c(-c4c(F)cc(S(=O)(=O)[O-])cc4F)c4nc(c(-c5c(F)cc(S(=O)(=O)[O-])cc5F)c5ccc2[nH]5)C=C4)C=C3)cc1)[C@H](C)O
REMARK SMILES IDX 24 1 23 2 22 3 20 4 21 5 19 7 18 8 16 9 17 10 2 12 1 13 3 14
REMARK SMILES IDX 4 15 5 17 6 18 7 19 15 20 8 21 14 22 9 23 10 24 11 25 12 26
REMARK SMILES IDX 13 27 98 28 99 29 100 30 25 32 26 33 27 34 28 35 29 36 30 37
REMARK SMILES IDX 31 39 32 40 33 41 97 42 34 43 96 44 35 45 36 46 37 47 90 48
REMARK SMILES IDX 38 49 95 50 89 51 91 52 39 53 94 54 88 55 87 56 40 58 74 59
REMARK SMILES IDX 53 60 73 61 54 62 57 63 72 64 92 65 55 66 56 67 71 69 93 70
REMARK SMILES IDX 58 71 41 72 42 73 51 74 43 75 44 76 50 77 52 78 45 79 46 80
REMARK SMILES IDX 47 81 48 82 49 83 75 84 76 85 85 86 77 87 78 88 84 89 86 90
REMARK SMILES IDX 79 91 80 92 81 93 82 94 83 95 59 96 60 97 69 98 61 99 62 100
REMARK SMILES IDX 68 101 70 102 63 103 64 104 65 105 66 106 67 107
REMARK H PARENT 22 6 18 11 3 16 100 31 29 38 91 57 57 68
REMARK Flexibility Score: inf
ROOT
ATOM      1  C   UNL A   1      39.513  21.243  25.981  1.00  0.00     0.021 C 
ENDROOT
BRANCH   1   2
ATOM      2  C   UNL A   1      38.386  20.429  25.355  1.00  0.00     0.116 C 
BRANCH   2   3
ATOM      3  N   UNL A   1      37.517  21.247  24.534  1.00  0.00    -0.354 N 
ATOM      4  C   UNL A   1      36.201  21.564  24.631  1.00  0.00     0.245 C 
ATOM      5  O   UNL A   1      35.752  22.274  23.720  1.00  0.00    -0.273 OA
ATOM      6  H   UNL A   1      37.968  21.652  23.758  1.00  0.00     0.163 HD
BRANCH   4   7
ATOM      7  C   UNL A   1      35.324  21.254  25.876  1.00  0.00     0.200 C 
BRANCH   7   8
ATOM      8  N   UNL A   1      34.135  20.430  25.664  1.00  0.00    -0.340 N 
ATOM      9  C   UNL A   1      32.904  20.728  25.155  1.00  0.00     0.243 C 
ATOM     10  O   UNL A   1      32.144  19.778  24.946  1.00  0.00    -0.273 OA
ATOM     11  H   UNL A   1      34.242  19.491  25.939  1.00  0.00     0.164 HD
BRANCH   9  12
ATOM     12  C   UNL A   1      32.444  22.176  24.848  1.00  0.00     0.168 C 
ATOM     13  C   UNL A   1      31.007  22.480  25.241  1.00  0.00     0.041 C 
BRANCH  12  14
ATOM     14  N   UNL A   1      32.713  22.514  23.450  1.00  0.00    -0.341 N 
ATOM     15  C   UNL A   1      32.896  23.739  22.858  1.00  0.00     0.251 C 
ATOM     16  H   UNL A   1      32.771  21.743  22.840  1.00  0.00     0.164 HD
ATOM     17  O   UNL A   1      33.258  23.785  21.685  1.00  0.00    -0.269 OA
BRANCH  15  18
ATOM     18  C   UNL A   1      32.576  24.981  23.586  1.00  0.00     0.039 A 
ATOM     19  C   UNL A   1      33.483  25.418  24.548  1.00  0.00     0.014 A 
ATOM     20  C   UNL A   1      31.423  25.722  23.328  1.00  0.00     0.014 A 
ATOM     21  C   UNL A   1      33.292  26.653  25.171  1.00  0.00     0.005 A 
ATOM     22  C   UNL A   1      31.246  26.967  23.944  1.00  0.00     0.005 A 
ATOM     23  C   UNL A   1      32.200  27.480  24.842  1.00  0.00    -0.043 A 
BRANCH  23  24
ATOM     24  C   UNL A   1      32.094  28.888  25.455  1.00  0.00    -0.013 C 
ATOM     25  C   UNL A   1      31.764  28.775  26.952  1.00  0.00     0.016 C 
ATOM     26  C   UNL A   1      33.436  29.638  25.283  1.00  0.00     0.016 C 
ATOM     27  C   UNL A   1      31.005  29.769  24.803  1.00  0.00     0.016 C 
ENDBRANCH  23  24
ENDBRANCH  15  18
ENDBRANCH  12  14
ENDBRANCH   9  12
ENDBRANCH   7   8
BRANCH   7  28
ATOM     28  C   UNL A   1      34.921  22.617  26.518  1.00  0.00     0.143 C 
ATOM     29  C   UNL A   1      36.021  23.671  26.465  1.00  0.00     0.041 C 
BRANCH  28  30
ATOM     30  O   UNL A   1      34.588  22.438  27.903  1.00  0.00    -0.391 OA
ATOM     31  H   UNL A   1      34.826  21.541  28.180  1.00  0.00     0.211 HD
ENDBRANCH  28  30
ENDBRANCH   7  28
ENDBRANCH   4   7
ENDBRANCH   2   3
ENDBRANCH   1   2
BRANCH   1  32
ATOM     32  C   UNL A   1      40.749  20.423  26.364  1.00  0.00     0.002 C 
BRANCH  32  33
ATOM     33  C   UNL A   1      41.454  20.850  27.657  1.00  0.00     0.002 C 
BRANCH  33  34
ATOM     34  C   UNL A   1      41.450  22.351  27.960  1.00  0.00     0.021 C 
BRANCH  34  35
ATOM     35  C   UNL A   1      42.531  23.164  27.254  1.00  0.00     0.116 C 
BRANCH  35  36
ATOM     36  N   UNL A   1      42.014  23.909  26.118  1.00  0.00    -0.352 N 
ATOM     37  C   UNL A   1      41.432  25.152  26.083  1.00  0.00     0.251 C 
ATOM     38  H   UNL A   1      42.093  23.456  25.247  1.00  0.00     0.163 HD
ATOM     39  O   UNL A   1      40.912  25.559  25.048  1.00  0.00    -0.269 OA
BRANCH  37  40
ATOM     40  C   UNL A   1      41.411  25.990  27.300  1.00  0.00     0.039 A 
ATOM     41  C   UNL A   1      42.433  26.923  27.493  1.00  0.00     0.014 A 
ATOM     42  C   UNL A   1      40.388  25.863  28.244  1.00  0.00     0.014 A 
ATOM     43  C   UNL A   1      42.389  27.782  28.595  1.00  0.00     0.010 A 
ATOM     44  C   UNL A   1      40.317  26.753  29.314  1.00  0.00     0.010 A 
ATOM     45  C   UNL A   1      41.310  27.729  29.491  1.00  0.00    -0.014 A 
BRANCH  45  46
ATOM     46  C   UNL A   1      41.177  28.713  30.595  1.00  0.00     0.031 A 
ATOM     47  C   UNL A   1      42.054  28.612  31.812  1.00  0.00     0.074 A 
ATOM     48  C   UNL A   1      40.210  29.649  30.533  1.00  0.00     0.049 A 
ATOM     49  N   UNL A   1      42.008  29.305  32.919  1.00  0.00    -0.248 NA
ATOM     50  C   UNL A   1      43.106  27.585  31.786  1.00  0.00     0.031 C 
ATOM     51  C   UNL A   1      39.273  29.822  29.421  1.00  0.00     0.029 A 
ATOM     52  N   UNL A   1      39.842  30.620  31.431  1.00  0.00    -0.354 N 
ATOM     53  C   UNL A   1      43.012  28.791  33.729  1.00  0.00     0.074 A 
ATOM     54  C   UNL A   1      43.630  27.704  32.998  1.00  0.00     0.031 C 
ATOM     55  C   UNL A   1      38.444  30.841  29.698  1.00  0.00     0.029 A 
ATOM     56  C   UNL A   1      38.762  31.367  31.024  1.00  0.00     0.049 A 
ATOM     57  H   UNL A   1      40.307  30.766  32.286  1.00  0.00     0.167 HD
ATOM     58  C   UNL A   1      43.395  29.199  34.963  1.00  0.00     0.037 A 
ATOM     59  C   UNL A   1      38.086  32.346  31.653  1.00  0.00     0.037 A 
ATOM     60  C   UNL A   1      42.794  30.296  35.675  1.00  0.00     0.049 A 
ATOM     61  C   UNL A   1      38.507  32.757  33.037  1.00  0.00     0.074 A 
ATOM     62  C   UNL A   1      43.161  30.834  36.896  1.00  0.00     0.029 A 
ATOM     63  N   UNL A   1      41.698  31.022  35.233  1.00  0.00    -0.354 N 
ATOM     64  N   UNL A   1      39.493  32.296  33.767  1.00  0.00    -0.248 NA
ATOM     65  C   UNL A   1      37.718  33.814  33.688  1.00  0.00     0.031 C 
ATOM     66  C   UNL A   1      42.264  31.861  37.210  1.00  0.00     0.029 A 
ATOM     67  C   UNL A   1      41.358  31.984  36.168  1.00  0.00     0.049 A 
ATOM     68  H   UNL A   1      41.230  30.875  34.379  1.00  0.00     0.167 HD
ATOM     69  C   UNL A   1      39.452  33.011  34.957  1.00  0.00     0.074 A 
ATOM     70  C   UNL A   1      38.350  33.946  34.846  1.00  0.00     0.031 C 
ATOM     71  C   UNL A   1      40.255  32.904  36.044  1.00  0.00     0.037 A 
BRANCH  58  72
ATOM     72  C   UNL A   1      44.520  28.453  35.622  1.00  0.00     0.058 A 
ATOM     73  C   UNL A   1      45.859  28.827  35.428  1.00  0.00     0.135 A 
ATOM     74  C   UNL A   1      44.256  27.376  36.482  1.00  0.00     0.135 A 
ATOM     75  F   UNL A   1      46.164  29.843  34.605  1.00  0.00    -0.206 F 
ATOM     76  C   UNL A   1      46.901  28.139  36.041  1.00  0.00     0.059 A 
ATOM     77  C   UNL A   1      45.282  26.687  37.124  1.00  0.00     0.059 A 
ATOM     78  F   UNL A   1      42.994  26.978  36.702  1.00  0.00    -0.206 F 
ATOM     79  C   UNL A   1      46.602  27.068  36.884  1.00  0.00     0.060 A 
BRANCH  79  80
ATOM     80  S   UNL A   1      47.964  26.183  37.674  1.00  0.00     0.124 S 
ATOM     81  O   UNL A   1      47.719  24.816  37.227  1.00  0.00    -0.237 OA
ATOM     82  O   UNL A   1      49.138  26.836  37.102  1.00  0.00    -0.237 OA
ATOM     83  O   UNL A   1      47.748  26.427  39.096  1.00  0.00    -0.744 OA
ENDBRANCH  79  80
ENDBRANCH  58  72
BRANCH  59  84
ATOM     84  C   UNL A   1      36.919  32.984  30.991  1.00  0.00     0.058 A 
ATOM     85  C   UNL A   1      35.605  32.658  31.353  1.00  0.00     0.135 A 
ATOM     86  C   UNL A   1      37.101  33.951  29.992  1.00  0.00     0.135 A 
ATOM     87  F   UNL A   1      35.379  31.734  32.299  1.00  0.00    -0.206 F 
ATOM     88  C   UNL A   1      34.512  33.264  30.739  1.00  0.00     0.059 A 
ATOM     89  C   UNL A   1      36.027  34.583  29.377  1.00  0.00     0.059 A 
ATOM     90  F   UNL A   1      38.341  34.308  29.633  1.00  0.00    -0.206 F 
ATOM     91  C   UNL A   1      34.733  34.226  29.752  1.00  0.00     0.060 A 
BRANCH  91  92
ATOM     92  S   UNL A   1      33.312  35.043  28.995  1.00  0.00     0.124 S 
ATOM     93  O   UNL A   1      32.841  34.016  28.073  1.00  0.00    -0.237 OA
ATOM     94  O   UNL A   1      32.458  35.307  30.149  1.00  0.00    -0.237 OA
ATOM     95  O   UNL A   1      33.898  36.227  28.375  1.00  0.00    -0.744 OA
ENDBRANCH  91  92
ENDBRANCH  59  84
BRANCH  71  96
ATOM     96  C   UNL A   1      39.981  33.825  37.197  1.00  0.00     0.058 A 
ATOM     97  C   UNL A   1      40.534  35.114  37.249  1.00  0.00     0.135 A 
ATOM     98  C   UNL A   1      39.112  33.438  38.230  1.00  0.00     0.135 A 
ATOM     99  F   UNL A   1      41.378  35.525  36.291  1.00  0.00    -0.206 F 
ATOM    100  C   UNL A   1      40.240  35.988  38.291  1.00  0.00     0.059 A 
ATOM    101  C   UNL A   1      38.790  34.302  39.271  1.00  0.00     0.059 A 
ATOM    102  F   UNL A   1      38.555  32.217  38.222  1.00  0.00    -0.206 F 
ATOM    103  C   UNL A   1      39.364  35.572  39.297  1.00  0.00     0.060 A 
BRANCH 103 104
ATOM    104  S   UNL A   1      38.949  36.732  40.618  1.00  0.00     0.124 S 
ATOM    105  O   UNL A   1      38.439  37.870  39.860  1.00  0.00    -0.237 OA
ATOM    106  O   UNL A   1      37.957  35.989  41.389  1.00  0.00    -0.237 OA
ATOM    107  O   UNL A   1      40.225  36.947  41.293  1.00  0.00    -0.744 OA
ENDBRANCH 103 104
ENDBRANCH  71  96
ENDBRANCH  45  46
ENDBRANCH  37  40
ENDBRANCH  35  36
ENDBRANCH  34  35
ENDBRANCH  33  34
ENDBRANCH  32  33
ENDBRANCH   1  32
TORSDOF 23
ENDMDL
