MODEL 1
REMARK VINA RESULT:     -10.5      0.000      0.000
REMARK SMILES Cc1ccc(S(=O)(=O)n2cc(C(=O)C(=O)N[C@@H](Cc3cnc[nH]3)C(=O)NCCCCCCNC(=O)c3ccc(-c4c5nc(c(-c6c(F)cc(S(=O)(=O)[O-])cc6F)c6ccc([nH]6)c(-c6c(F)cc(S(=O)(=O)[O-])cc6F)c6nc(c(-c7c(F)cc(S(=O)(=O)[O-])cc7F)c7ccc4[nH]7)C=C6)C=C5)cc3)c3ccccc32)cc1
REMARK SMILES IDX 28 1 27 2 26 3 24 4 25 5 17 7 16 8 14 9 15 10 12 12 13 13
REMARK SMILES IDX 11 14 9 15 10 16 107 17 102 18 106 19 103 20 105 21 104 22
REMARK SMILES IDX 6 23 7 24 8 25 5 26 1 27 2 28 3 29 109 30 4 31 108 32 18 33
REMARK SMILES IDX 19 34 20 35 23 36 21 37 22 38 29 40 30 41 31 42 32 43 33 44
REMARK SMILES IDX 34 45 35 47 36 48 37 49 101 50 38 51 100 52 39 53 40 54
REMARK SMILES IDX 41 55 94 56 42 57 99 58 93 59 95 60 43 61 98 62 92 63 91 64
REMARK SMILES IDX 44 66 78 67 57 68 77 69 58 70 61 71 76 72 96 73 59 74 60 75
REMARK SMILES IDX 75 77 97 78 62 79 45 80 46 81 55 82 47 83 48 84 54 85 56 86
REMARK SMILES IDX 49 87 50 88 51 89 52 90 53 91 79 92 80 93 89 94 81 95 82 96
REMARK SMILES IDX 88 97 90 98 83 99 84 100 85 101 86 102 87 103 63 104 64 105
REMARK SMILES IDX 73 106 65 107 66 108 72 109 74 110 67 111 68 112 69 113
REMARK SMILES IDX 70 114 71 115
REMARK H PARENT 26 6 16 11 23 39 33 46 95 65 61 76
REMARK Flexibility Score: inf
ROOT
ATOM      1  C   UNL A   1      41.098  34.936  30.454  1.00  0.00     0.021 C 
ENDROOT
BRANCH   1   2
ATOM      2  C   UNL A   1      42.542  35.105  30.013  1.00  0.00     0.116 C 
BRANCH   2   3
ATOM      3  N   UNL A   1      42.907  34.344  28.841  1.00  0.00    -0.354 N 
ATOM      4  C   UNL A   1      43.548  34.776  27.718  1.00  0.00     0.242 C 
ATOM      5  O   UNL A   1      44.195  33.932  27.086  1.00  0.00    -0.273 OA
ATOM      6  H   UNL A   1      42.661  33.391  28.855  1.00  0.00     0.163 HD
BRANCH   4   7
ATOM      7  C   UNL A   1      43.589  36.265  27.288  1.00  0.00     0.177 C 
BRANCH   7   8
ATOM      8  N   UNL A   1      44.754  36.622  26.464  1.00  0.00    -0.337 N 
ATOM      9  C   UNL A   1      45.982  37.149  26.805  1.00  0.00     0.293 C 
ATOM     10  O   UNL A   1      46.856  37.168  25.943  1.00  0.00    -0.265 OA
ATOM     11  H   UNL A   1      44.636  36.457  25.500  1.00  0.00     0.164 HD
BRANCH   9  12
ATOM     12  C   UNL A   1      46.255  37.749  28.205  1.00  0.00     0.252 C 
ATOM     13  O   UNL A   1      46.189  37.013  29.184  1.00  0.00    -0.283 OA
BRANCH  12  14
ATOM     14  C   UNL A   1      46.545  39.177  28.407  1.00  0.00     0.054 A 
ATOM     15  N   UNL A   1      46.367  41.372  28.777  1.00  0.00    -0.240 N 
ATOM     16  C   UNL A   1      45.650  40.221  28.572  1.00  0.00     0.117 A 
ATOM     17  C   UNL A   1      47.724  41.132  28.742  1.00  0.00     0.065 A 
ATOM     18  C   UNL A   1      47.860  39.764  28.476  1.00  0.00     0.012 A 
ATOM     19  C   UNL A   1      48.843  41.972  28.891  1.00  0.00     0.028 A 
ATOM     20  C   UNL A   1      49.165  39.234  28.341  1.00  0.00     0.011 A 
ATOM     21  C   UNL A   1      50.116  41.418  28.739  1.00  0.00     0.002 A 
ATOM     22  C   UNL A   1      50.279  40.067  28.465  1.00  0.00     0.001 A 
BRANCH  15  23
ATOM     23  S   UNL A   1      45.656  42.903  29.003  1.00  0.00     0.268 S 
ATOM     24  O   UNL A   1      44.635  42.999  27.979  1.00  0.00    -0.201 OA
ATOM     25  O   UNL A   1      46.758  43.846  29.087  1.00  0.00    -0.201 OA
BRANCH  23  26
ATOM     26  C   UNL A   1      44.838  42.906  30.577  1.00  0.00     0.088 A 
ATOM     27  C   UNL A   1      42.503  42.768  34.186  1.00  0.00     0.044 C 
ATOM     28  C   UNL A   1      43.332  42.831  32.937  1.00  0.00    -0.051 A 
ATOM     29  C   UNL A   1      42.846  43.506  31.812  1.00  0.00     0.005 A 
ATOM     30  C   UNL A   1      44.595  42.229  32.881  1.00  0.00     0.005 A 
ATOM     31  C   UNL A   1      43.592  43.540  30.633  1.00  0.00     0.022 A 
ATOM     32  C   UNL A   1      45.356  42.275  31.709  1.00  0.00     0.022 A 
ENDBRANCH  23  26
ENDBRANCH  15  23
ENDBRANCH  12  14
ENDBRANCH   9  12
ENDBRANCH   7   8
BRANCH   7  33
ATOM     33  C   UNL A   1      42.251  36.819  26.762  1.00  0.00     0.090 C 
BRANCH  33  34
ATOM     34  C   UNL A   1      41.968  38.259  27.008  1.00  0.00     0.037 A 
ATOM     35  C   UNL A   1      42.160  39.072  28.106  1.00  0.00     0.134 A 
ATOM     36  N   UNL A   1      41.359  39.075  26.081  1.00  0.00    -0.348 N 
ATOM     37  N   UNL A   1      41.758  40.353  27.840  1.00  0.00    -0.245 NA
ATOM     38  C   UNL A   1      41.278  40.327  26.619  1.00  0.00     0.196 A 
ATOM     39  H   UNL A   1      41.038  38.804  25.190  1.00  0.00     0.167 HD
ENDBRANCH  33  34
ENDBRANCH   7  33
ENDBRANCH   4   7
ENDBRANCH   2   3
ENDBRANCH   1   2
BRANCH   1  40
ATOM     40  C   UNL A   1      40.087  34.795  29.314  1.00  0.00     0.002 C 
BRANCH  40  41
ATOM     41  C   UNL A   1      38.616  34.595  29.715  1.00  0.00     0.002 C 
BRANCH  41  42
ATOM     42  C   UNL A   1      38.021  33.206  29.485  1.00  0.00     0.021 C 
BRANCH  42  43
ATOM     43  C   UNL A   1      36.868  33.173  28.502  1.00  0.00     0.116 C 
BRANCH  43  44
ATOM     44  N   UNL A   1      35.708  32.524  29.071  1.00  0.00    -0.352 N 
ATOM     45  C   UNL A   1      35.047  31.498  28.419  1.00  0.00     0.251 C 
ATOM     46  H   UNL A   1      35.377  32.822  29.949  1.00  0.00     0.163 HD
ATOM     47  O   UNL A   1      34.042  31.627  27.740  1.00  0.00    -0.269 OA
BRANCH  45  48
ATOM     48  C   UNL A   1      35.809  30.237  28.461  1.00  0.00     0.039 A 
ATOM     49  C   UNL A   1      35.997  29.652  29.723  1.00  0.00     0.014 A 
ATOM     50  C   UNL A   1      36.749  30.127  27.440  1.00  0.00     0.014 A 
ATOM     51  C   UNL A   1      37.249  29.167  30.051  1.00  0.00     0.010 A 
ATOM     52  C   UNL A   1      38.021  29.786  27.809  1.00  0.00     0.010 A 
ATOM     53  C   UNL A   1      38.263  29.362  29.122  1.00  0.00    -0.014 A 
BRANCH  53  54
ATOM     54  C   UNL A   1      39.658  29.140  29.413  1.00  0.00     0.031 A 
ATOM     55  C   UNL A   1      40.185  27.829  29.019  1.00  0.00     0.074 A 
ATOM     56  C   UNL A   1      40.365  30.197  29.864  1.00  0.00     0.049 A 
ATOM     57  N   UNL A   1      41.221  27.268  29.521  1.00  0.00    -0.248 NA
ATOM     58  C   UNL A   1      39.484  26.974  28.059  1.00  0.00     0.031 C 
ATOM     59  C   UNL A   1      41.806  30.382  29.940  1.00  0.00     0.029 A 
ATOM     60  N   UNL A   1      39.837  31.296  30.552  1.00  0.00    -0.354 N 
ATOM     61  C   UNL A   1      41.515  26.178  28.722  1.00  0.00     0.074 A 
ATOM     62  C   UNL A   1      40.326  25.948  27.949  1.00  0.00     0.031 C 
ATOM     63  C   UNL A   1      42.067  31.350  30.840  1.00  0.00     0.029 A 
ATOM     64  C   UNL A   1      40.805  31.700  31.483  1.00  0.00     0.049 A 
ATOM     65  H   UNL A   1      38.955  31.707  30.409  1.00  0.00     0.167 HD
ATOM     66  C   UNL A   1      42.807  25.748  28.677  1.00  0.00     0.037 A 
ATOM     67  C   UNL A   1      40.549  31.520  32.815  1.00  0.00     0.037 A 
ATOM     68  C   UNL A   1      43.590  26.512  29.652  1.00  0.00     0.049 A 
ATOM     69  C   UNL A   1      41.433  30.445  33.414  1.00  0.00     0.074 A 
ATOM     70  C   UNL A   1      44.343  27.668  29.519  1.00  0.00     0.029 A 
ATOM     71  N   UNL A   1      43.295  26.389  31.006  1.00  0.00    -0.354 N 
ATOM     72  N   UNL A   1      41.948  29.453  32.736  1.00  0.00    -0.248 NA
ATOM     73  C   UNL A   1      41.871  30.465  34.805  1.00  0.00     0.031 C 
ATOM     74  C   UNL A   1      44.403  28.296  30.792  1.00  0.00     0.029 A 
ATOM     75  C   UNL A   1      43.706  27.515  31.699  1.00  0.00     0.049 A 
ATOM     76  H   UNL A   1      42.855  25.608  31.415  1.00  0.00     0.167 HD
ATOM     77  C   UNL A   1      42.773  28.724  33.554  1.00  0.00     0.074 A 
ATOM     78  C   UNL A   1      42.696  29.404  34.835  1.00  0.00     0.031 C 
ATOM     79  C   UNL A   1      43.474  27.627  33.133  1.00  0.00     0.037 A 
BRANCH  66  80
ATOM     80  C   UNL A   1      43.418  24.923  27.557  1.00  0.00     0.058 A 
ATOM     81  C   UNL A   1      43.997  23.667  27.848  1.00  0.00     0.135 A 
ATOM     82  C   UNL A   1      43.527  25.304  26.201  1.00  0.00     0.135 A 
ATOM     83  F   UNL A   1      43.929  23.133  29.076  1.00  0.00    -0.206 F 
ATOM     84  C   UNL A   1      44.674  22.893  26.901  1.00  0.00     0.059 A 
ATOM     85  C   UNL A   1      44.232  24.567  25.243  1.00  0.00     0.059 A 
ATOM     86  F   UNL A   1      42.911  26.384  25.713  1.00  0.00    -0.206 F 
ATOM     87  C   UNL A   1      44.800  23.357  25.600  1.00  0.00     0.060 A 
BRANCH  87  88
ATOM     88  S   UNL A   1      45.654  22.337  24.387  1.00  0.00     0.124 S 
ATOM     89  O   UNL A   1      44.554  21.876  23.546  1.00  0.00    -0.237 OA
ATOM     90  O   UNL A   1      46.565  23.297  23.773  1.00  0.00    -0.237 OA
ATOM     91  O   UNL A   1      46.292  21.303  25.197  1.00  0.00    -0.744 OA
ENDBRANCH  87  88
ENDBRANCH  66  80
BRANCH  67  92
ATOM     92  C   UNL A   1      39.126  31.814  33.182  1.00  0.00     0.058 A 
ATOM     93  C   UNL A   1      38.783  33.164  33.410  1.00  0.00     0.135 A 
ATOM     94  C   UNL A   1      38.071  30.927  32.926  1.00  0.00     0.135 A 
ATOM     95  F   UNL A   1      39.743  34.065  33.676  1.00  0.00    -0.206 F 
ATOM     96  C   UNL A   1      37.485  33.639  33.241  1.00  0.00     0.059 A 
ATOM     97  C   UNL A   1      36.754  31.383  32.760  1.00  0.00     0.059 A 
ATOM     98  F   UNL A   1      38.318  29.627  32.711  1.00  0.00    -0.206 F 
ATOM     99  C   UNL A   1      36.484  32.748  32.865  1.00  0.00     0.060 A 
BRANCH  99 100
ATOM    100  S   UNL A   1      34.903  33.445  32.318  1.00  0.00     0.124 S 
ATOM    101  O   UNL A   1      34.200  32.264  31.836  1.00  0.00    -0.237 OA
ATOM    102  O   UNL A   1      34.389  34.027  33.561  1.00  0.00    -0.237 OA
ATOM    103  O   UNL A   1      35.294  34.411  31.300  1.00  0.00    -0.744 OA
ENDBRANCH  99 100
ENDBRANCH  67  92
BRANCH  79 104
ATOM    104  C   UNL A   1      44.093  26.595  34.049  1.00  0.00     0.058 A 
ATOM    105  C   UNL A   1      45.474  26.493  34.285  1.00  0.00     0.135 A 
ATOM    106  C   UNL A   1      43.276  25.766  34.859  1.00  0.00     0.135 A 
ATOM    107  F   UNL A   1      46.352  27.313  33.691  1.00  0.00    -0.206 F 
ATOM    108  C   UNL A   1      46.013  25.569  35.177  1.00  0.00     0.059 A 
ATOM    109  C   UNL A   1      43.788  24.896  35.814  1.00  0.00     0.059 A 
ATOM    110  F   UNL A   1      41.938  25.782  34.762  1.00  0.00    -0.206 F 
ATOM    111  C   UNL A   1      45.162  24.772  35.934  1.00  0.00     0.060 A 
BRANCH 111 112
ATOM    112  S   UNL A   1      45.863  23.591  37.094  1.00  0.00     0.124 S 
ATOM    113  O   UNL A   1      45.386  22.329  36.538  1.00  0.00    -0.237 OA
ATOM    114  O   UNL A   1      47.296  23.833  36.972  1.00  0.00    -0.237 OA
ATOM    115  O   UNL A   1      45.274  23.981  38.371  1.00  0.00    -0.744 OA
ENDBRANCH 111 112
ENDBRANCH  79 104
ENDBRANCH  53  54
ENDBRANCH  45  48
ENDBRANCH  43  44
ENDBRANCH  42  43
ENDBRANCH  41  42
ENDBRANCH  40  41
ENDBRANCH   1  40
TORSDOF 23
ENDMDL
MODEL 2
REMARK VINA RESULT:     -10.4      3.846     14.786
REMARK SMILES Cc1ccc(S(=O)(=O)n2cc(C(=O)C(=O)N[C@@H](Cc3cnc[nH]3)C(=O)NCCCCCCNC(=O)c3ccc(-c4c5nc(c(-c6c(F)cc(S(=O)(=O)[O-])cc6F)c6ccc([nH]6)c(-c6c(F)cc(S(=O)(=O)[O-])cc6F)c6nc(c(-c7c(F)cc(S(=O)(=O)[O-])cc7F)c7ccc4[nH]7)C=C6)C=C5)cc3)c3ccccc32)cc1
REMARK SMILES IDX 28 1 27 2 26 3 24 4 25 5 17 7 16 8 14 9 15 10 12 12 13 13
REMARK SMILES IDX 11 14 9 15 10 16 107 17 102 18 106 19 103 20 105 21 104 22
REMARK SMILES IDX 6 23 7 24 8 25 5 26 1 27 2 28 3 29 109 30 4 31 108 32 18 33
REMARK SMILES IDX 19 34 20 35 23 36 21 37 22 38 29 40 30 41 31 42 32 43 33 44
REMARK SMILES IDX 34 45 35 47 36 48 37 49 101 50 38 51 100 52 39 53 40 54
REMARK SMILES IDX 41 55 94 56 42 57 99 58 93 59 95 60 43 61 98 62 92 63 91 64
REMARK SMILES IDX 44 66 78 67 57 68 77 69 58 70 61 71 76 72 96 73 59 74 60 75
REMARK SMILES IDX 75 77 97 78 62 79 45 80 46 81 55 82 47 83 48 84 54 85 56 86
REMARK SMILES IDX 49 87 50 88 51 89 52 90 53 91 79 92 80 93 89 94 81 95 82 96
REMARK SMILES IDX 88 97 90 98 83 99 84 100 85 101 86 102 87 103 63 104 64 105
REMARK SMILES IDX 73 106 65 107 66 108 72 109 74 110 67 111 68 112 69 113
REMARK SMILES IDX 70 114 71 115
REMARK H PARENT 26 6 16 11 23 39 33 46 95 65 61 76
REMARK Flexibility Score: inf
ROOT
ATOM      1  C   UNL A   1      44.007  23.647  31.724  1.00  0.00     0.021 C 
ENDROOT
BRANCH   1   2
ATOM      2  C   UNL A   1      44.124  22.484  32.696  1.00  0.00     0.116 C 
BRANCH   2   3
ATOM      3  N   UNL A   1      43.662  22.767  34.034  1.00  0.00    -0.354 N 
ATOM      4  C   UNL A   1      44.359  22.691  35.203  1.00  0.00     0.242 C 
ATOM      5  O   UNL A   1      43.979  23.420  36.127  1.00  0.00    -0.273 OA
ATOM      6  H   UNL A   1      42.723  23.050  34.112  1.00  0.00     0.163 HD
BRANCH   4   7
ATOM      7  C   UNL A   1      45.643  21.838  35.369  1.00  0.00     0.177 C 
BRANCH   7   8
ATOM      8  N   UNL A   1      45.483  20.428  34.981  1.00  0.00    -0.337 N 
ATOM      9  C   UNL A   1      45.465  19.274  35.735  1.00  0.00     0.293 C 
ATOM     10  O   UNL A   1      45.116  18.235  35.184  1.00  0.00    -0.265 OA
ATOM     11  H   UNL A   1      45.371  20.283  34.014  1.00  0.00     0.164 HD
BRANCH   9  12
ATOM     12  C   UNL A   1      45.916  19.257  37.216  1.00  0.00     0.252 C 
ATOM     13  O   UNL A   1      45.257  18.613  38.025  1.00  0.00    -0.283 OA
BRANCH  12  14
ATOM     14  C   UNL A   1      47.079  20.021  37.694  1.00  0.00     0.054 A 
ATOM     15  N   UNL A   1      49.153  20.727  38.128  1.00  0.00    -0.240 N 
ATOM     16  C   UNL A   1      48.422  19.701  37.586  1.00  0.00     0.117 A 
ATOM     17  C   UNL A   1      48.334  21.726  38.611  1.00  0.00     0.065 A 
ATOM     18  C   UNL A   1      47.025  21.288  38.380  1.00  0.00     0.012 A 
ATOM     19  C   UNL A   1      48.605  22.953  39.245  1.00  0.00     0.028 A 
ATOM     20  C   UNL A   1      45.958  22.107  38.818  1.00  0.00     0.011 A 
ATOM     21  C   UNL A   1      47.527  23.730  39.676  1.00  0.00     0.002 A 
ATOM     22  C   UNL A   1      46.219  23.314  39.469  1.00  0.00     0.001 A 
BRANCH  15  23
ATOM     23  S   UNL A   1      50.853  20.731  38.223  1.00  0.00     0.268 S 
ATOM     24  O   UNL A   1      51.204  19.427  38.749  1.00  0.00    -0.201 OA
ATOM     25  O   UNL A   1      51.211  21.962  38.906  1.00  0.00    -0.201 OA
BRANCH  23  26
ATOM     26  C   UNL A   1      51.499  20.835  36.574  1.00  0.00     0.088 A 
ATOM     27  C   UNL A   1      52.674  21.228  32.455  1.00  0.00     0.044 C 
ATOM     28  C   UNL A   1      52.282  21.076  33.896  1.00  0.00    -0.051 A 
ATOM     29  C   UNL A   1      51.134  20.350  34.233  1.00  0.00     0.005 A 
ATOM     30  C   UNL A   1      53.054  21.646  34.915  1.00  0.00     0.005 A 
ATOM     31  C   UNL A   1      50.739  20.233  35.565  1.00  0.00     0.022 A 
ATOM     32  C   UNL A   1      52.674  21.518  36.255  1.00  0.00     0.022 A 
ENDBRANCH  23  26
ENDBRANCH  15  23
ENDBRANCH  12  14
ENDBRANCH   9  12
ENDBRANCH   7   8
BRANCH   7  33
ATOM     33  C   UNL A   1      46.927  22.498  34.831  1.00  0.00     0.090 C 
BRANCH  33  34
ATOM     34  C   UNL A   1      47.046  23.974  34.978  1.00  0.00     0.037 A 
ATOM     35  C   UNL A   1      46.959  25.011  34.072  1.00  0.00     0.134 A 
ATOM     36  N   UNL A   1      47.340  24.590  36.175  1.00  0.00    -0.348 N 
ATOM     37  N   UNL A   1      47.115  26.218  34.697  1.00  0.00    -0.245 NA
ATOM     38  C   UNL A   1      47.346  25.937  35.957  1.00  0.00     0.196 A 
ATOM     39  H   UNL A   1      47.515  24.138  37.033  1.00  0.00     0.167 HD
ENDBRANCH  33  34
ENDBRANCH   7  33
ENDBRANCH   4   7
ENDBRANCH   2   3
ENDBRANCH   1   2
BRANCH   1  40
ATOM     40  C   UNL A   1      44.312  23.302  30.265  1.00  0.00     0.002 C 
BRANCH  40  41
ATOM     41  C   UNL A   1      43.214  23.619  29.236  1.00  0.00     0.002 C 
BRANCH  41  42
ATOM     42  C   UNL A   1      43.366  22.994  27.850  1.00  0.00     0.021 C 
BRANCH  42  43
ATOM     43  C   UNL A   1      43.030  23.924  26.702  1.00  0.00     0.116 C 
BRANCH  43  44
ATOM     44  N   UNL A   1      41.899  23.437  25.942  1.00  0.00    -0.352 N 
ATOM     45  C   UNL A   1      40.641  23.307  26.500  1.00  0.00     0.251 C 
ATOM     46  H   UNL A   1      42.031  23.188  24.998  1.00  0.00     0.163 HD
ATOM     47  O   UNL A   1      40.171  22.273  26.945  1.00  0.00    -0.269 OA
BRANCH  45  48
ATOM     48  C   UNL A   1      39.985  24.613  26.692  1.00  0.00     0.039 A 
ATOM     49  C   UNL A   1      40.580  25.719  26.066  1.00  0.00     0.014 A 
ATOM     50  C   UNL A   1      39.308  24.716  27.905  1.00  0.00     0.014 A 
ATOM     51  C   UNL A   1      40.720  26.892  26.782  1.00  0.00     0.010 A 
ATOM     52  C   UNL A   1      39.575  25.821  28.665  1.00  0.00     0.010 A 
ATOM     53  C   UNL A   1      40.320  26.870  28.112  1.00  0.00    -0.014 A 
BRANCH  53  54
ATOM     54  C   UNL A   1      40.626  27.922  29.050  1.00  0.00     0.031 A 
ATOM     55  C   UNL A   1      39.714  29.072  29.029  1.00  0.00     0.074 A 
ATOM     56  C   UNL A   1      41.605  27.680  29.945  1.00  0.00     0.049 A 
ATOM     57  N   UNL A   1      39.999  30.249  29.445  1.00  0.00    -0.248 NA
ATOM     58  C   UNL A   1      38.389  28.992  28.412  1.00  0.00     0.031 C 
ATOM     59  C   UNL A   1      41.924  28.378  31.180  1.00  0.00     0.029 A 
ATOM     60  N   UNL A   1      42.672  26.790  29.765  1.00  0.00    -0.354 N 
ATOM     61  C   UNL A   1      38.815  30.962  29.477  1.00  0.00     0.074 A 
ATOM     62  C   UNL A   1      37.897  30.201  28.675  1.00  0.00     0.031 C 
ATOM     63  C   UNL A   1      43.202  28.105  31.511  1.00  0.00     0.029 A 
ATOM     64  C   UNL A   1      43.786  27.349  30.408  1.00  0.00     0.049 A 
ATOM     65  H   UNL A   1      42.644  25.935  29.280  1.00  0.00     0.167 HD
ATOM     66  C   UNL A   1      38.716  31.998  30.356  1.00  0.00     0.037 A 
ATOM     67  C   UNL A   1      44.829  27.795  29.643  1.00  0.00     0.037 A 
ATOM     68  C   UNL A   1      40.020  32.197  30.995  1.00  0.00     0.049 A 
ATOM     69  C   UNL A   1      44.935  29.306  29.667  1.00  0.00     0.074 A 
ATOM     70  C   UNL A   1      40.545  31.707  32.180  1.00  0.00     0.029 A 
ATOM     71  N   UNL A   1      41.106  32.586  30.215  1.00  0.00    -0.354 N 
ATOM     72  N   UNL A   1      43.927  30.112  29.882  1.00  0.00    -0.248 NA
ATOM     73  C   UNL A   1      46.204  30.012  29.539  1.00  0.00     0.031 C 
ATOM     74  C   UNL A   1      41.961  31.702  32.060  1.00  0.00     0.029 A 
ATOM     75  C   UNL A   1      42.295  32.207  30.814  1.00  0.00     0.049 A 
ATOM     76  H   UNL A   1      41.037  33.064  29.357  1.00  0.00     0.167 HD
ATOM     77  C   UNL A   1      44.383  31.404  29.936  1.00  0.00     0.074 A 
ATOM     78  C   UNL A   1      45.815  31.286  29.724  1.00  0.00     0.031 C 
ATOM     79  C   UNL A   1      43.570  32.481  30.164  1.00  0.00     0.037 A 
BRANCH  66  80
ATOM     80  C   UNL A   1      37.415  32.581  30.882  1.00  0.00     0.058 A 
ATOM     81  C   UNL A   1      36.687  33.497  30.089  1.00  0.00     0.135 A 
ATOM     82  C   UNL A   1      36.846  32.344  32.152  1.00  0.00     0.135 A 
ATOM     83  F   UNL A   1      37.062  33.788  28.835  1.00  0.00    -0.206 F 
ATOM     84  C   UNL A   1      35.542  34.161  30.537  1.00  0.00     0.059 A 
ATOM     85  C   UNL A   1      35.723  33.023  32.638  1.00  0.00     0.059 A 
ATOM     86  F   UNL A   1      37.310  31.400  32.976  1.00  0.00    -0.206 F 
ATOM     87  C   UNL A   1      35.072  33.930  31.820  1.00  0.00     0.060 A 
BRANCH  87  88
ATOM     88  S   UNL A   1      33.581  34.775  32.372  1.00  0.00     0.124 S 
ATOM     89  O   UNL A   1      32.898  33.729  33.127  1.00  0.00    -0.237 OA
ATOM     90  O   UNL A   1      34.131  35.873  33.161  1.00  0.00    -0.237 OA
ATOM     91  O   UNL A   1      32.929  35.169  31.126  1.00  0.00    -0.744 OA
ENDBRANCH  87  88
ENDBRANCH  66  80
BRANCH  67  92
ATOM     92  C   UNL A   1      45.127  26.897  28.481  1.00  0.00     0.058 A 
ATOM     93  C   UNL A   1      44.705  27.328  27.205  1.00  0.00     0.135 A 
ATOM     94  C   UNL A   1      46.110  25.898  28.518  1.00  0.00     0.135 A 
ATOM     95  F   UNL A   1      43.754  28.271  27.097  1.00  0.00    -0.206 F 
ATOM     96  C   UNL A   1      45.329  26.907  26.034  1.00  0.00     0.059 A 
ATOM     97  C   UNL A   1      46.747  25.452  27.350  1.00  0.00     0.059 A 
ATOM     98  F   UNL A   1      46.553  25.429  29.693  1.00  0.00    -0.206 F 
ATOM     99  C   UNL A   1      46.386  26.005  26.120  1.00  0.00     0.060 A 
BRANCH  99 100
ATOM    100  S   UNL A   1      47.393  25.750  24.635  1.00  0.00     0.124 S 
ATOM    101  O   UNL A   1      47.007  26.885  23.806  1.00  0.00    -0.237 OA
ATOM    102  O   UNL A   1      48.750  25.798  25.184  1.00  0.00    -0.237 OA
ATOM    103  O   UNL A   1      46.966  24.441  24.158  1.00  0.00    -0.744 OA
ENDBRANCH  99 100
ENDBRANCH  67  92
BRANCH  79 104
ATOM    104  C   UNL A   1      43.943  33.918  29.878  1.00  0.00     0.058 A 
ATOM    105  C   UNL A   1      44.024  34.458  28.584  1.00  0.00     0.135 A 
ATOM    106  C   UNL A   1      44.073  34.855  30.936  1.00  0.00     0.135 A 
ATOM    107  F   UNL A   1      43.782  33.715  27.495  1.00  0.00    -0.206 F 
ATOM    108  C   UNL A   1      44.315  35.800  28.351  1.00  0.00     0.059 A 
ATOM    109  C   UNL A   1      44.282  36.212  30.725  1.00  0.00     0.059 A 
ATOM    110  F   UNL A   1      43.986  34.484  32.223  1.00  0.00    -0.206 F 
ATOM    111  C   UNL A   1      44.447  36.669  29.428  1.00  0.00     0.060 A 
BRANCH 111 112
ATOM    112  S   UNL A   1      44.809  38.403  29.122  1.00  0.00     0.124 S 
ATOM    113  O   UNL A   1      43.878  39.054  30.038  1.00  0.00    -0.237 OA
ATOM    114  O   UNL A   1      46.221  38.503  29.479  1.00  0.00    -0.237 OA
ATOM    115  O   UNL A   1      44.515  38.564  27.701  1.00  0.00    -0.744 OA
ENDBRANCH 111 112
ENDBRANCH  79 104
ENDBRANCH  53  54
ENDBRANCH  45  48
ENDBRANCH  43  44
ENDBRANCH  42  43
ENDBRANCH  41  42
ENDBRANCH  40  41
ENDBRANCH   1  40
TORSDOF 23
ENDMDL
MODEL 3
REMARK VINA RESULT:     -10.1      3.212      5.921
REMARK SMILES Cc1ccc(S(=O)(=O)n2cc(C(=O)C(=O)N[C@@H](Cc3cnc[nH]3)C(=O)NCCCCCCNC(=O)c3ccc(-c4c5nc(c(-c6c(F)cc(S(=O)(=O)[O-])cc6F)c6ccc([nH]6)c(-c6c(F)cc(S(=O)(=O)[O-])cc6F)c6nc(c(-c7c(F)cc(S(=O)(=O)[O-])cc7F)c7ccc4[nH]7)C=C6)C=C5)cc3)c3ccccc32)cc1
REMARK SMILES IDX 28 1 27 2 26 3 24 4 25 5 17 7 16 8 14 9 15 10 12 12 13 13
REMARK SMILES IDX 11 14 9 15 10 16 107 17 102 18 106 19 103 20 105 21 104 22
REMARK SMILES IDX 6 23 7 24 8 25 5 26 1 27 2 28 3 29 109 30 4 31 108 32 18 33
REMARK SMILES IDX 19 34 20 35 23 36 21 37 22 38 29 40 30 41 31 42 32 43 33 44
REMARK SMILES IDX 34 45 35 47 36 48 37 49 101 50 38 51 100 52 39 53 40 54
REMARK SMILES IDX 41 55 94 56 42 57 99 58 93 59 95 60 43 61 98 62 92 63 91 64
REMARK SMILES IDX 44 66 78 67 57 68 77 69 58 70 61 71 76 72 96 73 59 74 60 75
REMARK SMILES IDX 75 77 97 78 62 79 45 80 46 81 55 82 47 83 48 84 54 85 56 86
REMARK SMILES IDX 49 87 50 88 51 89 52 90 53 91 79 92 80 93 89 94 81 95 82 96
REMARK SMILES IDX 88 97 90 98 83 99 84 100 85 101 86 102 87 103 63 104 64 105
REMARK SMILES IDX 73 106 65 107 66 108 72 109 74 110 67 111 68 112 69 113
REMARK SMILES IDX 70 114 71 115
REMARK H PARENT 26 6 16 11 23 39 33 46 95 65 61 76
REMARK Flexibility Score: inf
ROOT
ATOM      1  C   UNL A   1      41.084  34.927  29.731  1.00  0.00     0.021 C 
ENDROOT
BRANCH   1   2
ATOM      2  C   UNL A   1      42.329  35.282  28.935  1.00  0.00     0.116 C 
BRANCH   2   3
ATOM      3  N   UNL A   1      43.569  35.147  29.662  1.00  0.00    -0.354 N 
ATOM      4  C   UNL A   1      44.841  35.131  29.171  1.00  0.00     0.242 C 
ATOM      5  O   UNL A   1      45.739  35.505  29.935  1.00  0.00    -0.273 OA
ATOM      6  H   UNL A   1      43.485  35.055  30.639  1.00  0.00     0.163 HD
BRANCH   4   7
ATOM      7  C   UNL A   1      45.173  34.783  27.697  1.00  0.00     0.177 C 
BRANCH   7   8
ATOM      8  N   UNL A   1      44.499  33.576  27.196  1.00  0.00    -0.337 N 
ATOM      9  C   UNL A   1      44.950  32.283  27.036  1.00  0.00     0.293 C 
ATOM     10  O   UNL A   1      44.121  31.415  26.782  1.00  0.00    -0.265 OA
ATOM     11  H   UNL A   1      43.562  33.716  26.927  1.00  0.00     0.164 HD
BRANCH   9  12
ATOM     12  C   UNL A   1      46.454  31.924  27.117  1.00  0.00     0.252 C 
ATOM     13  O   UNL A   1      47.204  32.331  26.237  1.00  0.00    -0.283 OA
BRANCH  12  14
ATOM     14  C   UNL A   1      47.004  31.076  28.186  1.00  0.00     0.054 A 
ATOM     15  N   UNL A   1      48.186  29.573  29.339  1.00  0.00    -0.240 N 
ATOM     16  C   UNL A   1      47.929  30.051  28.080  1.00  0.00     0.117 A 
ATOM     17  C   UNL A   1      47.446  30.242  30.291  1.00  0.00     0.065 A 
ATOM     18  C   UNL A   1      46.670  31.170  29.586  1.00  0.00     0.012 A 
ATOM     19  C   UNL A   1      47.360  30.116  31.690  1.00  0.00     0.028 A 
ATOM     20  C   UNL A   1      45.769  31.981  30.314  1.00  0.00     0.011 A 
ATOM     21  C   UNL A   1      46.450  30.925  32.376  1.00  0.00     0.002 A 
ATOM     22  C   UNL A   1      45.661  31.845  31.699  1.00  0.00     0.001 A 
BRANCH  15  23
ATOM     23  S   UNL A   1      49.252  28.286  29.664  1.00  0.00     0.268 S 
ATOM     24  O   UNL A   1      49.989  28.087  28.432  1.00  0.00    -0.201 OA
ATOM     25  O   UNL A   1      48.442  27.237  30.259  1.00  0.00    -0.201 OA
BRANCH  23  26
ATOM     26  C   UNL A   1      50.407  28.824  30.898  1.00  0.00     0.088 A 
ATOM     27  C   UNL A   1      53.111  30.534  33.773  1.00  0.00     0.044 C 
ATOM     28  C   UNL A   1      52.180  29.917  32.771  1.00  0.00    -0.051 A 
ATOM     29  C   UNL A   1      52.248  30.302  31.427  1.00  0.00     0.005 A 
ATOM     30  C   UNL A   1      51.243  28.951  33.159  1.00  0.00     0.005 A 
ATOM     31  C   UNL A   1      51.363  29.763  30.494  1.00  0.00     0.022 A 
ATOM     32  C   UNL A   1      50.365  28.393  32.225  1.00  0.00     0.022 A 
ENDBRANCH  23  26
ENDBRANCH  15  23
ENDBRANCH  12  14
ENDBRANCH   9  12
ENDBRANCH   7   8
BRANCH   7  33
ATOM     33  C   UNL A   1      45.126  35.980  26.728  1.00  0.00     0.090 C 
BRANCH  33  34
ATOM     34  C   UNL A   1      46.389  36.740  26.524  1.00  0.00     0.037 A 
ATOM     35  C   UNL A   1      47.244  37.380  27.398  1.00  0.00     0.134 A 
ATOM     36  N   UNL A   1      46.928  36.983  25.280  1.00  0.00    -0.348 N 
ATOM     37  N   UNL A   1      48.305  37.927  26.729  1.00  0.00    -0.245 NA
ATOM     38  C   UNL A   1      48.089  37.676  25.459  1.00  0.00     0.196 A 
ATOM     39  H   UNL A   1      46.544  36.705  24.416  1.00  0.00     0.167 HD
ENDBRANCH  33  34
ENDBRANCH   7  33
ENDBRANCH   4   7
ENDBRANCH   2   3
ENDBRANCH   1   2
BRANCH   1  40
ATOM     40  C   UNL A   1      39.787  34.896  28.920  1.00  0.00     0.002 C 
BRANCH  40  41
ATOM     41  C   UNL A   1      38.495  34.585  29.693  1.00  0.00     0.002 C 
BRANCH  41  42
ATOM     42  C   UNL A   1      37.871  33.208  29.470  1.00  0.00     0.021 C 
BRANCH  42  43
ATOM     43  C   UNL A   1      36.745  33.187  28.456  1.00  0.00     0.116 C 
BRANCH  43  44
ATOM     44  N   UNL A   1      35.554  32.574  29.003  1.00  0.00    -0.352 N 
ATOM     45  C   UNL A   1      34.920  31.517  28.376  1.00  0.00     0.251 C 
ATOM     46  H   UNL A   1      35.184  32.920  29.847  1.00  0.00     0.163 HD
ATOM     47  O   UNL A   1      33.949  31.613  27.644  1.00  0.00    -0.269 OA
BRANCH  45  48
ATOM     48  C   UNL A   1      35.671  30.257  28.522  1.00  0.00     0.039 A 
ATOM     49  C   UNL A   1      35.908  29.809  29.831  1.00  0.00     0.014 A 
ATOM     50  C   UNL A   1      36.565  30.024  27.481  1.00  0.00     0.014 A 
ATOM     51  C   UNL A   1      37.168  29.345  30.157  1.00  0.00     0.010 A 
ATOM     52  C   UNL A   1      37.848  29.708  27.831  1.00  0.00     0.010 A 
ATOM     53  C   UNL A   1      38.143  29.424  29.171  1.00  0.00    -0.014 A 
BRANCH  53  54
ATOM     54  C   UNL A   1      39.547  29.216  29.425  1.00  0.00     0.031 A 
ATOM     55  C   UNL A   1      40.066  27.893  29.059  1.00  0.00     0.074 A 
ATOM     56  C   UNL A   1      40.264  30.289  29.817  1.00  0.00     0.049 A 
ATOM     57  N   UNL A   1      41.119  27.352  29.547  1.00  0.00    -0.248 NA
ATOM     58  C   UNL A   1      39.338  27.005  28.151  1.00  0.00     0.031 C 
ATOM     59  C   UNL A   1      41.706  30.480  29.842  1.00  0.00     0.029 A 
ATOM     60  N   UNL A   1      39.754  31.410  30.485  1.00  0.00    -0.354 N 
ATOM     61  C   UNL A   1      41.391  26.236  28.777  1.00  0.00     0.074 A 
ATOM     62  C   UNL A   1      40.179  25.977  28.050  1.00  0.00     0.031 C 
ATOM     63  C   UNL A   1      41.992  31.478  30.700  1.00  0.00     0.029 A 
ATOM     64  C   UNL A   1      40.750  31.847  31.370  1.00  0.00     0.049 A 
ATOM     65  H   UNL A   1      38.867  31.814  30.356  1.00  0.00     0.167 HD
ATOM     66  C   UNL A   1      42.683  25.808  28.705  1.00  0.00     0.037 A 
ATOM     67  C   UNL A   1      40.536  31.712  32.715  1.00  0.00     0.037 A 
ATOM     68  C   UNL A   1      43.493  26.607  29.629  1.00  0.00     0.049 A 
ATOM     69  C   UNL A   1      41.442  30.660  33.322  1.00  0.00     0.074 A 
ATOM     70  C   UNL A   1      44.238  27.759  29.434  1.00  0.00     0.029 A 
ATOM     71  N   UNL A   1      43.241  26.528  30.996  1.00  0.00    -0.354 N 
ATOM     72  N   UNL A   1      41.939  29.646  32.662  1.00  0.00    -0.248 NA
ATOM     73  C   UNL A   1      41.923  30.728  34.697  1.00  0.00     0.031 C 
ATOM     74  C   UNL A   1      44.336  28.431  30.682  1.00  0.00     0.029 A 
ATOM     75  C   UNL A   1      43.670  27.678  31.637  1.00  0.00     0.049 A 
ATOM     76  H   UNL A   1      42.817  25.761  31.444  1.00  0.00     0.167 HD
ATOM     77  C   UNL A   1      42.791  28.948  33.478  1.00  0.00     0.074 A 
ATOM     78  C   UNL A   1      42.752  29.670  34.737  1.00  0.00     0.031 C 
ATOM     79  C   UNL A   1      43.483  27.839  33.072  1.00  0.00     0.037 A 
BRANCH  66  80
ATOM     80  C   UNL A   1      43.261  24.947  27.595  1.00  0.00     0.058 A 
ATOM     81  C   UNL A   1      43.605  23.602  27.860  1.00  0.00     0.135 A 
ATOM     82  C   UNL A   1      43.558  25.367  26.280  1.00  0.00     0.135 A 
ATOM     83  F   UNL A   1      43.337  23.031  29.043  1.00  0.00    -0.206 F 
ATOM     84  C   UNL A   1      44.240  22.773  26.930  1.00  0.00     0.059 A 
ATOM     85  C   UNL A   1      44.227  24.570  25.344  1.00  0.00     0.059 A 
ATOM     86  F   UNL A   1      43.169  26.553  25.806  1.00  0.00    -0.206 F 
ATOM     87  C   UNL A   1      44.562  23.269  25.676  1.00  0.00     0.060 A 
BRANCH  87  88
ATOM     88  S   UNL A   1      45.357  22.181  24.482  1.00  0.00     0.124 S 
ATOM     89  O   UNL A   1      45.812  23.123  23.465  1.00  0.00    -0.237 OA
ATOM     90  O   UNL A   1      46.403  21.560  25.289  1.00  0.00    -0.237 OA
ATOM     91  O   UNL A   1      44.281  21.286  24.064  1.00  0.00    -0.744 OA
ENDBRANCH  87  88
ENDBRANCH  66  80
BRANCH  67  92
ATOM     92  C   UNL A   1      39.124  32.015  33.116  1.00  0.00     0.058 A 
ATOM     93  C   UNL A   1      38.749  33.374  33.187  1.00  0.00     0.135 A 
ATOM     94  C   UNL A   1      38.087  31.076  33.033  1.00  0.00     0.135 A 
ATOM     95  F   UNL A   1      39.692  34.325  33.284  1.00  0.00    -0.206 F 
ATOM     96  C   UNL A   1      37.430  33.789  33.027  1.00  0.00     0.059 A 
ATOM     97  C   UNL A   1      36.749  31.472  32.880  1.00  0.00     0.059 A 
ATOM     98  F   UNL A   1      38.365  29.765  32.974  1.00  0.00    -0.206 F 
ATOM     99  C   UNL A   1      36.441  32.832  32.823  1.00  0.00     0.060 A 
BRANCH  99 100
ATOM    100  S   UNL A   1      34.813  33.412  32.276  1.00  0.00     0.124 S 
ATOM    101  O   UNL A   1      34.295  32.245  31.573  1.00  0.00    -0.237 OA
ATOM    102  O   UNL A   1      34.165  33.724  33.552  1.00  0.00    -0.237 OA
ATOM    103  O   UNL A   1      35.128  34.566  31.445  1.00  0.00    -0.744 OA
ENDBRANCH  99 100
ENDBRANCH  67  92
BRANCH  79 104
ATOM    104  C   UNL A   1      44.134  26.840  34.003  1.00  0.00     0.058 A 
ATOM    105  C   UNL A   1      45.519  26.617  34.059  1.00  0.00     0.135 A 
ATOM    106  C   UNL A   1      43.372  26.181  35.002  1.00  0.00     0.135 A 
ATOM    107  F   UNL A   1      46.372  27.281  33.265  1.00  0.00    -0.206 F 
ATOM    108  C   UNL A   1      46.098  25.731  34.965  1.00  0.00     0.059 A 
ATOM    109  C   UNL A   1      43.938  25.358  35.968  1.00  0.00     0.059 A 
ATOM    110  F   UNL A   1      42.041  26.328  35.087  1.00  0.00    -0.206 F 
ATOM    111  C   UNL A   1      45.298  25.103  35.913  1.00  0.00     0.060 A 
BRANCH 111 112
ATOM    112  S   UNL A   1      46.052  23.971  37.089  1.00  0.00     0.124 S 
ATOM    113  O   UNL A   1      47.454  24.039  36.691  1.00  0.00    -0.237 OA
ATOM    114  O   UNL A   1      45.730  24.583  38.374  1.00  0.00    -0.237 OA
ATOM    115  O   UNL A   1      45.378  22.705  36.819  1.00  0.00    -0.744 OA
ENDBRANCH 111 112
ENDBRANCH  79 104
ENDBRANCH  53  54
ENDBRANCH  45  48
ENDBRANCH  43  44
ENDBRANCH  42  43
ENDBRANCH  41  42
ENDBRANCH  40  41
ENDBRANCH   1  40
TORSDOF 23
ENDMDL
