MODEL 1
REMARK VINA RESULT:     -11.6      0.000      0.000
REMARK SMILES C[C@@H](CNc1cccc(F)c1C(=O)NCCCCCCNC(=O)c1ccc(-c2c3nc(c(-c4c(F)cc(S(=O)(=O)[O-])cc4F)c4ccc([nH]4)c(-c4c(F)cc(S(=O)(=O)[O-])cc4F)c4nc(c(-c5c(F)cc(S(=O)(=O)[O-])cc5F)c5ccc2[nH]5)C=C4)C=C3)cc1)[NH+]1CCCCC1
REMARK SMILES IDX 17 1 16 2 15 3 14 4 12 5 13 6 11 8 5 9 6 10 7 11 9 12 8 13
REMARK SMILES IDX 10 14 4 15 3 17 2 18 1 19 90 20 91 21 95 22 92 24 94 25
REMARK SMILES IDX 93 26 18 27 19 28 20 29 21 30 22 31 23 33 24 34 25 35 89 36
REMARK SMILES IDX 26 37 88 38 27 39 28 40 29 41 82 42 30 43 87 44 81 45 83 46
REMARK SMILES IDX 31 47 86 48 80 49 79 50 32 52 66 53 45 54 65 55 46 56 49 57
REMARK SMILES IDX 64 58 84 59 47 60 48 61 63 63 85 64 50 65 33 66 34 67 43 68
REMARK SMILES IDX 35 69 36 70 42 71 44 72 37 73 38 74 39 75 40 76 41 77 67 78
REMARK SMILES IDX 68 79 77 80 69 81 70 82 76 83 78 84 71 85 72 86 73 87 74 88
REMARK SMILES IDX 75 89 51 90 52 91 61 92 53 93 54 94 60 95 62 96 55 97 56 98
REMARK SMILES IDX 57 99 58 100 59 101
REMARK H PARENT 14 7 4 16 90 23 21 32 83 51 49 62
REMARK Flexibility Score: inf
ROOT
ATOM      1  C   UNL A   1      37.387  21.835  25.072  1.00  0.00     0.002 C 
ENDROOT
BRANCH   1   2
ATOM      2  C   UNL A   1      36.545  22.477  23.957  1.00  0.00     0.021 C 
BRANCH   2   3
ATOM      3  C   UNL A   1      35.500  23.458  24.497  1.00  0.00     0.116 C 
BRANCH   3   4
ATOM      4  N   UNL A   1      34.797  24.033  23.365  1.00  0.00    -0.352 N 
ATOM      5  C   UNL A   1      33.576  24.641  23.233  1.00  0.00     0.256 C 
ATOM      6  O   UNL A   1      33.164  24.783  22.076  1.00  0.00    -0.269 OA
ATOM      7  H   UNL A   1      35.301  23.975  22.521  1.00  0.00     0.163 HD
BRANCH   5   8
ATOM      8  C   UNL A   1      32.814  25.262  24.352  1.00  0.00     0.098 A 
ATOM      9  C   UNL A   1      31.734  24.522  24.917  1.00  0.00     0.050 A 
ATOM     10  C   UNL A   1      31.013  25.100  25.977  1.00  0.00     0.027 A 
ATOM     11  C   UNL A   1      31.309  26.378  26.453  1.00  0.00     0.005 A 
ATOM     12  C   UNL A   1      33.132  26.514  24.885  1.00  0.00     0.138 A 
ATOM     13  C   UNL A   1      32.365  27.087  25.898  1.00  0.00     0.040 A 
ATOM     14  F   UNL A   1      34.213  27.196  24.482  1.00  0.00    -0.206 F 
BRANCH   9  15
ATOM     15  N   UNL A   1      31.355  23.288  24.398  1.00  0.00    -0.378 N 
ATOM     16  H   UNL A   1      30.728  23.292  23.640  1.00  0.00     0.160 HD
BRANCH  15  17
ATOM     17  C   UNL A   1      31.806  21.991  24.879  1.00  0.00     0.177 C 
BRANCH  17  18
ATOM     18  C   UNL A   1      32.618  21.171  23.815  1.00  0.00     0.200 C 
ATOM     19  C   UNL A   1      32.085  21.475  22.404  1.00  0.00     0.077 C 
BRANCH  18  20
ATOM     20  N   UNL A   1      32.859  19.712  24.053  1.00  0.00    -0.331 N 
ATOM     21  C   UNL A   1      32.356  18.889  22.943  1.00  0.00     0.262 C 
ATOM     22  C   UNL A   1      34.240  19.390  24.429  1.00  0.00     0.262 C 
ATOM     23  H   UNL A   1      32.310  19.470  24.878  1.00  0.00     0.348 HD
ATOM     24  C   UNL A   1      32.589  17.391  23.130  1.00  0.00     0.062 C 
ATOM     25  C   UNL A   1      34.521  17.894  24.589  1.00  0.00     0.062 C 
ATOM     26  C   UNL A   1      34.063  17.108  23.373  1.00  0.00     0.012 C 
ENDBRANCH  18  20
ENDBRANCH  17  18
ENDBRANCH  15  17
ENDBRANCH   9  15
ENDBRANCH   5   8
ENDBRANCH   3   4
ENDBRANCH   2   3
ENDBRANCH   1   2
BRANCH   1  27
ATOM     27  C   UNL A   1      38.288  22.817  25.831  1.00  0.00     0.002 C 
BRANCH  27  28
ATOM     28  C   UNL A   1      39.524  22.185  26.478  1.00  0.00     0.021 C 
BRANCH  28  29
ATOM     29  C   UNL A   1      40.523  23.193  27.039  1.00  0.00     0.116 C 
BRANCH  29  30
ATOM     30  N   UNL A   1      41.014  24.094  26.005  1.00  0.00    -0.352 N 
ATOM     31  C   UNL A   1      41.181  25.457  26.051  1.00  0.00     0.251 C 
ATOM     32  H   UNL A   1      41.260  23.666  25.153  1.00  0.00     0.163 HD
ATOM     33  O   UNL A   1      41.375  26.093  25.023  1.00  0.00    -0.269 OA
BRANCH  31  34
ATOM     34  C   UNL A   1      41.106  26.149  27.356  1.00  0.00     0.039 A 
ATOM     35  C   UNL A   1      42.171  26.958  27.758  1.00  0.00     0.014 A 
ATOM     36  C   UNL A   1      39.973  26.015  28.164  1.00  0.00     0.014 A 
ATOM     37  C   UNL A   1      42.062  27.702  28.935  1.00  0.00     0.010 A 
ATOM     38  C   UNL A   1      39.840  26.807  29.301  1.00  0.00     0.010 A 
ATOM     39  C   UNL A   1      40.876  27.671  29.687  1.00  0.00    -0.014 A 
BRANCH  39  40
ATOM     40  C   UNL A   1      40.674  28.577  30.847  1.00  0.00     0.031 A 
ATOM     41  C   UNL A   1      39.632  29.660  30.793  1.00  0.00     0.074 A 
ATOM     42  C   UNL A   1      41.482  28.461  31.921  1.00  0.00     0.049 A 
ATOM     43  N   UNL A   1      39.380  30.601  31.665  1.00  0.00    -0.248 NA
ATOM     44  C   UNL A   1      38.773  29.706  29.598  1.00  0.00     0.031 C 
ATOM     45  C   UNL A   1      42.547  27.465  32.073  1.00  0.00     0.029 A 
ATOM     46  N   UNL A   1      41.546  29.188  33.083  1.00  0.00    -0.354 N 
ATOM     47  C   UNL A   1      38.338  31.347  31.130  1.00  0.00     0.074 A 
ATOM     48  C   UNL A   1      38.035  30.781  29.834  1.00  0.00     0.031 C 
ATOM     49  C   UNL A   1      43.137  27.628  33.267  1.00  0.00     0.029 A 
ATOM     50  C   UNL A   1      42.535  28.771  33.945  1.00  0.00     0.049 A 
ATOM     51  H   UNL A   1      40.941  29.939  33.283  1.00  0.00     0.167 HD
ATOM     52  C   UNL A   1      37.681  32.393  31.684  1.00  0.00     0.037 A 
ATOM     53  C   UNL A   1      42.927  29.264  35.137  1.00  0.00     0.037 A 
ATOM     54  C   UNL A   1      37.978  32.932  32.985  1.00  0.00     0.049 A 
ATOM     55  C   UNL A   1      42.216  30.467  35.699  1.00  0.00     0.074 A 
ATOM     56  C   UNL A   1      37.331  33.959  33.652  1.00  0.00     0.029 A 
ATOM     57  N   UNL A   1      38.999  32.496  33.816  1.00  0.00    -0.354 N 
ATOM     58  N   UNL A   1      41.193  31.122  35.204  1.00  0.00    -0.248 NA
ATOM     59  C   UNL A   1      42.716  31.007  36.971  1.00  0.00     0.031 C 
ATOM     60  C   UNL A   1      37.995  34.180  34.860  1.00  0.00     0.029 A 
ATOM     61  C   UNL A   1      39.022  33.257  34.972  1.00  0.00     0.049 A 
ATOM     62  H   UNL A   1      39.616  31.756  33.612  1.00  0.00     0.167 HD
ATOM     63  C   UNL A   1      40.916  32.136  36.113  1.00  0.00     0.074 A 
ATOM     64  C   UNL A   1      41.866  31.999  37.196  1.00  0.00     0.031 C 
ATOM     65  C   UNL A   1      39.966  33.100  36.049  1.00  0.00     0.037 A 
BRANCH  52  66
ATOM     66  C   UNL A   1      36.553  33.020  30.914  1.00  0.00     0.058 A 
ATOM     67  C   UNL A   1      36.814  33.844  29.807  1.00  0.00     0.135 A 
ATOM     68  C   UNL A   1      35.224  32.912  31.353  1.00  0.00     0.135 A 
ATOM     69  F   UNL A   1      38.066  33.976  29.342  1.00  0.00    -0.206 F 
ATOM     70  C   UNL A   1      35.802  34.569  29.186  1.00  0.00     0.059 A 
ATOM     71  C   UNL A   1      34.192  33.609  30.731  1.00  0.00     0.059 A 
ATOM     72  F   UNL A   1      34.919  32.122  32.394  1.00  0.00    -0.206 F 
ATOM     73  C   UNL A   1      34.496  34.452  29.663  1.00  0.00     0.060 A 
BRANCH  73  74
ATOM     74  S   UNL A   1      33.199  35.421  28.863  1.00  0.00     0.124 S 
ATOM     75  O   UNL A   1      32.471  35.954  30.010  1.00  0.00    -0.237 OA
ATOM     76  O   UNL A   1      33.973  36.390  28.094  1.00  0.00    -0.237 OA
ATOM     77  O   UNL A   1      32.478  34.432  28.067  1.00  0.00    -0.744 OA
ENDBRANCH  73  74
ENDBRANCH  52  66
BRANCH  53  78
ATOM     78  C   UNL A   1      44.047  28.626  35.881  1.00  0.00     0.058 A 
ATOM     79  C   UNL A   1      43.822  27.580  36.790  1.00  0.00     0.135 A 
ATOM     80  C   UNL A   1      45.372  29.049  35.692  1.00  0.00     0.135 A 
ATOM     81  F   UNL A   1      42.575  27.140  37.018  1.00  0.00    -0.206 F 
ATOM     82  C   UNL A   1      44.866  26.988  37.494  1.00  0.00     0.059 A 
ATOM     83  C   UNL A   1      46.436  28.452  36.362  1.00  0.00     0.059 A 
ATOM     84  F   UNL A   1      45.640  30.038  34.824  1.00  0.00    -0.206 F 
ATOM     85  C   UNL A   1      46.171  27.428  37.269  1.00  0.00     0.060 A 
BRANCH  85  86
ATOM     86  S   UNL A   1      47.512  26.623  38.171  1.00  0.00     0.124 S 
ATOM     87  O   UNL A   1      48.540  26.528  37.140  1.00  0.00    -0.237 OA
ATOM     88  O   UNL A   1      47.774  27.578  39.242  1.00  0.00    -0.237 OA
ATOM     89  O   UNL A   1      46.923  25.356  38.593  1.00  0.00    -0.744 OA
ENDBRANCH  85  86
ENDBRANCH  53  78
BRANCH  65  90
ATOM     90  C   UNL A   1      39.887  34.089  37.178  1.00  0.00     0.058 A 
ATOM     91  C   UNL A   1      39.142  33.800  38.332  1.00  0.00     0.135 A 
ATOM     92  C   UNL A   1      40.447  35.372  37.062  1.00  0.00     0.135 A 
ATOM     93  F   UNL A   1      38.583  32.589  38.490  1.00  0.00    -0.206 F 
ATOM     94  C   UNL A   1      38.921  34.759  39.314  1.00  0.00     0.059 A 
ATOM     95  C   UNL A   1      40.262  36.338  38.045  1.00  0.00     0.059 A 
ATOM     96  F   UNL A   1      41.181  35.692  35.984  1.00  0.00    -0.206 F 
ATOM     97  C   UNL A   1      39.477  36.029  39.156  1.00  0.00     0.060 A 
BRANCH  97  98
ATOM     98  S   UNL A   1      39.146  37.273  40.421  1.00  0.00     0.124 S 
ATOM     99  O   UNL A   1      40.470  37.469  41.003  1.00  0.00    -0.237 OA
ATOM    100  O   UNL A   1      38.629  38.385  39.629  1.00  0.00    -0.237 OA
ATOM    101  O   UNL A   1      38.168  36.623  41.290  1.00  0.00    -0.744 OA
ENDBRANCH  97  98
ENDBRANCH  65  90
ENDBRANCH  39  40
ENDBRANCH  31  34
ENDBRANCH  29  30
ENDBRANCH  28  29
ENDBRANCH  27  28
ENDBRANCH   1  27
TORSDOF 20
ENDMDL
MODEL 2
REMARK VINA RESULT:     -11.6      1.509      3.532
REMARK SMILES C[C@@H](CNc1cccc(F)c1C(=O)NCCCCCCNC(=O)c1ccc(-c2c3nc(c(-c4c(F)cc(S(=O)(=O)[O-])cc4F)c4ccc([nH]4)c(-c4c(F)cc(S(=O)(=O)[O-])cc4F)c4nc(c(-c5c(F)cc(S(=O)(=O)[O-])cc5F)c5ccc2[nH]5)C=C4)C=C3)cc1)[NH+]1CCCCC1
REMARK SMILES IDX 17 1 16 2 15 3 14 4 12 5 13 6 11 8 5 9 6 10 7 11 9 12 8 13
REMARK SMILES IDX 10 14 4 15 3 17 2 18 1 19 90 20 91 21 95 22 92 24 94 25
REMARK SMILES IDX 93 26 18 27 19 28 20 29 21 30 22 31 23 33 24 34 25 35 89 36
REMARK SMILES IDX 26 37 88 38 27 39 28 40 29 41 82 42 30 43 87 44 81 45 83 46
REMARK SMILES IDX 31 47 86 48 80 49 79 50 32 52 66 53 45 54 65 55 46 56 49 57
REMARK SMILES IDX 64 58 84 59 47 60 48 61 63 63 85 64 50 65 33 66 34 67 43 68
REMARK SMILES IDX 35 69 36 70 42 71 44 72 37 73 38 74 39 75 40 76 41 77 67 78
REMARK SMILES IDX 68 79 77 80 69 81 70 82 76 83 78 84 71 85 72 86 73 87 74 88
REMARK SMILES IDX 75 89 51 90 52 91 61 92 53 93 54 94 60 95 62 96 55 97 56 98
REMARK SMILES IDX 57 99 58 100 59 101
REMARK H PARENT 14 7 4 16 90 23 21 32 83 51 49 62
REMARK Flexibility Score: inf
ROOT
ATOM      1  C   UNL A   1      36.934  23.259  25.786  1.00  0.00     0.002 C 
ENDROOT
BRANCH   1   2
ATOM      2  C   UNL A   1      36.893  22.291  24.593  1.00  0.00     0.021 C 
BRANCH   2   3
ATOM      3  C   UNL A   1      36.545  20.858  25.007  1.00  0.00     0.116 C 
BRANCH   3   4
ATOM      4  N   UNL A   1      35.470  20.918  25.979  1.00  0.00    -0.352 N 
ATOM      5  C   UNL A   1      34.120  21.128  25.869  1.00  0.00     0.256 C 
ATOM      6  O   UNL A   1      33.524  21.382  26.923  1.00  0.00    -0.269 OA
ATOM      7  H   UNL A   1      35.772  20.779  26.905  1.00  0.00     0.163 HD
BRANCH   5   8
ATOM      8  C   UNL A   1      33.330  20.922  24.624  1.00  0.00     0.098 A 
ATOM      9  C   UNL A   1      32.885  22.077  23.914  1.00  0.00     0.050 A 
ATOM     10  C   UNL A   1      32.143  21.889  22.735  1.00  0.00     0.027 A 
ATOM     11  C   UNL A   1      31.809  20.616  22.275  1.00  0.00     0.005 A 
ATOM     12  C   UNL A   1      33.037  19.656  24.111  1.00  0.00     0.138 A 
ATOM     13  C   UNL A   1      32.251  19.499  22.970  1.00  0.00     0.040 A 
ATOM     14  F   UNL A   1      33.537  18.541  24.661  1.00  0.00    -0.206 F 
BRANCH   9  15
ATOM     15  N   UNL A   1      33.120  23.358  24.403  1.00  0.00    -0.378 N 
ATOM     16  H   UNL A   1      34.057  23.651  24.465  1.00  0.00     0.160 HD
BRANCH  15  17
ATOM     17  C   UNL A   1      32.100  24.304  24.830  1.00  0.00     0.177 C 
BRANCH  17  18
ATOM     18  C   UNL A   1      32.516  25.807  24.650  1.00  0.00     0.200 C 
ATOM     19  C   UNL A   1      33.539  26.197  25.732  1.00  0.00     0.077 C 
BRANCH  18  20
ATOM     20  N   UNL A   1      31.448  26.836  24.449  1.00  0.00    -0.331 N 
ATOM     21  C   UNL A   1      31.976  28.052  23.812  1.00  0.00     0.262 C 
ATOM     22  C   UNL A   1      30.241  26.321  23.792  1.00  0.00     0.262 C 
ATOM     23  H   UNL A   1      31.134  27.100  25.383  1.00  0.00     0.348 HD
ATOM     24  C   UNL A   1      30.922  29.131  23.571  1.00  0.00     0.062 C 
ATOM     25  C   UNL A   1      29.176  27.381  23.501  1.00  0.00     0.062 C 
ATOM     26  C   UNL A   1      29.763  28.572  22.762  1.00  0.00     0.012 C 
ENDBRANCH  18  20
ENDBRANCH  17  18
ENDBRANCH  15  17
ENDBRANCH   9  15
ENDBRANCH   5   8
ENDBRANCH   3   4
ENDBRANCH   2   3
ENDBRANCH   1   2
BRANCH   1  27
ATOM     27  C   UNL A   1      38.338  23.758  26.150  1.00  0.00     0.002 C 
BRANCH  27  28
ATOM     28  C   UNL A   1      39.328  22.658  26.542  1.00  0.00     0.021 C 
BRANCH  28  29
ATOM     29  C   UNL A   1      40.702  23.172  26.962  1.00  0.00     0.116 C 
BRANCH  29  30
ATOM     30  N   UNL A   1      41.276  24.054  25.956  1.00  0.00    -0.352 N 
ATOM     31  C   UNL A   1      41.505  25.408  26.019  1.00  0.00     0.251 C 
ATOM     32  H   UNL A   1      41.537  23.620  25.112  1.00  0.00     0.163 HD
ATOM     33  O   UNL A   1      41.771  26.039  25.003  1.00  0.00    -0.269 OA
BRANCH  31  34
ATOM     34  C   UNL A   1      41.409  26.095  27.324  1.00  0.00     0.039 A 
ATOM     35  C   UNL A   1      42.447  26.939  27.725  1.00  0.00     0.014 A 
ATOM     36  C   UNL A   1      40.282  25.924  28.133  1.00  0.00     0.014 A 
ATOM     37  C   UNL A   1      42.315  27.677  28.903  1.00  0.00     0.010 A 
ATOM     38  C   UNL A   1      40.124  26.710  29.271  1.00  0.00     0.010 A 
ATOM     39  C   UNL A   1      41.131  27.607  29.657  1.00  0.00    -0.014 A 
BRANCH  39  40
ATOM     40  C   UNL A   1      40.901  28.505  30.818  1.00  0.00     0.031 A 
ATOM     41  C   UNL A   1      39.844  29.573  30.754  1.00  0.00     0.074 A 
ATOM     42  C   UNL A   1      41.697  28.396  31.901  1.00  0.00     0.049 A 
ATOM     43  N   UNL A   1      39.567  30.506  31.627  1.00  0.00    -0.248 NA
ATOM     44  C   UNL A   1      39.000  29.611  29.548  1.00  0.00     0.031 C 
ATOM     45  C   UNL A   1      42.774  27.416  32.063  1.00  0.00     0.029 A 
ATOM     46  N   UNL A   1      41.735  29.119  33.067  1.00  0.00    -0.354 N 
ATOM     47  C   UNL A   1      38.521  31.239  31.081  1.00  0.00     0.074 A 
ATOM     48  C   UNL A   1      38.243  30.675  29.779  1.00  0.00     0.031 C 
ATOM     49  C   UNL A   1      43.346  27.582  33.265  1.00  0.00     0.029 A 
ATOM     50  C   UNL A   1      42.718  28.713  33.940  1.00  0.00     0.049 A 
ATOM     51  H   UNL A   1      41.116  29.860  33.262  1.00  0.00     0.167 HD
ATOM     52  C   UNL A   1      37.842  32.273  31.631  1.00  0.00     0.037 A 
ATOM     53  C   UNL A   1      43.088  29.207  35.139  1.00  0.00     0.037 A 
ATOM     54  C   UNL A   1      38.113  32.811  32.938  1.00  0.00     0.049 A 
ATOM     55  C   UNL A   1      42.352  30.397  35.697  1.00  0.00     0.074 A 
ATOM     56  C   UNL A   1      37.443  33.825  33.601  1.00  0.00     0.029 A 
ATOM     57  N   UNL A   1      39.130  32.387  33.780  1.00  0.00    -0.354 N 
ATOM     58  N   UNL A   1      41.326  31.038  35.191  1.00  0.00    -0.248 NA
ATOM     59  C   UNL A   1      42.827  30.938  36.978  1.00  0.00     0.031 C 
ATOM     60  C   UNL A   1      38.088  34.050  34.818  1.00  0.00     0.029 A 
ATOM     61  C   UNL A   1      39.127  33.143  34.940  1.00  0.00     0.049 A 
ATOM     62  H   UNL A   1      39.760  31.656  33.582  1.00  0.00     0.167 HD
ATOM     63  C   UNL A   1      41.022  32.045  36.100  1.00  0.00     0.074 A 
ATOM     64  C   UNL A   1      41.960  31.917  37.196  1.00  0.00     0.031 C 
ATOM     65  C   UNL A   1      40.059  32.995  36.029  1.00  0.00     0.037 A 
BRANCH  52  66
ATOM     66  C   UNL A   1      36.714  32.887  30.849  1.00  0.00     0.058 A 
ATOM     67  C   UNL A   1      36.972  33.854  29.864  1.00  0.00     0.135 A 
ATOM     68  C   UNL A   1      35.375  32.614  31.167  1.00  0.00     0.135 A 
ATOM     69  F   UNL A   1      38.234  34.147  29.516  1.00  0.00    -0.206 F 
ATOM     70  C   UNL A   1      35.940  34.557  29.249  1.00  0.00     0.059 A 
ATOM     71  C   UNL A   1      34.327  33.288  30.548  1.00  0.00     0.059 A 
ATOM     72  F   UNL A   1      35.075  31.684  32.088  1.00  0.00    -0.206 F 
ATOM     73  C   UNL A   1      34.621  34.273  29.606  1.00  0.00     0.060 A 
BRANCH  73  74
ATOM     74  S   UNL A   1      33.296  35.215  28.819  1.00  0.00     0.124 S 
ATOM     75  O   UNL A   1      32.679  34.207  27.964  1.00  0.00    -0.237 OA
ATOM     76  O   UNL A   1      32.507  35.646  29.968  1.00  0.00    -0.237 OA
ATOM     77  O   UNL A   1      34.007  36.282  28.121  1.00  0.00    -0.744 OA
ENDBRANCH  73  74
ENDBRANCH  52  66
BRANCH  53  78
ATOM     78  C   UNL A   1      44.208  28.582  35.896  1.00  0.00     0.058 A 
ATOM     79  C   UNL A   1      45.537  28.993  35.712  1.00  0.00     0.135 A 
ATOM     80  C   UNL A   1      43.966  27.559  36.826  1.00  0.00     0.135 A 
ATOM     81  F   UNL A   1      45.828  29.961  34.829  1.00  0.00    -0.206 F 
ATOM     82  C   UNL A   1      46.586  28.406  36.411  1.00  0.00     0.059 A 
ATOM     83  C   UNL A   1      44.996  26.975  37.559  1.00  0.00     0.059 A 
ATOM     84  F   UNL A   1      42.711  27.138  37.046  1.00  0.00    -0.206 F 
ATOM     85  C   UNL A   1      46.305  27.399  37.336  1.00  0.00     0.060 A 
BRANCH  85  86
ATOM     86  S   UNL A   1      47.679  26.672  38.253  1.00  0.00     0.124 S 
ATOM     87  O   UNL A   1      46.991  25.676  39.069  1.00  0.00    -0.237 OA
ATOM     88  O   UNL A   1      48.516  26.147  37.181  1.00  0.00    -0.237 OA
ATOM     89  O   UNL A   1      48.236  27.808  38.983  1.00  0.00    -0.744 OA
ENDBRANCH  85  86
ENDBRANCH  53  78
BRANCH  65  90
ATOM     90  C   UNL A   1      39.951  33.978  37.161  1.00  0.00     0.058 A 
ATOM     91  C   UNL A   1      39.147  33.698  38.277  1.00  0.00     0.135 A 
ATOM     92  C   UNL A   1      40.544  35.248  37.080  1.00  0.00     0.135 A 
ATOM     93  F   UNL A   1      38.555  32.499  38.400  1.00  0.00    -0.206 F 
ATOM     94  C   UNL A   1      38.903  34.655  39.255  1.00  0.00     0.059 A 
ATOM     95  C   UNL A   1      40.337  36.212  38.062  1.00  0.00     0.059 A 
ATOM     96  F   UNL A   1      41.334  35.559  36.039  1.00  0.00    -0.206 F 
ATOM     97  C   UNL A   1      39.495  35.913  39.133  1.00  0.00     0.060 A 
BRANCH  97  98
ATOM     98  S   UNL A   1      39.135  37.156  40.391  1.00  0.00     0.124 S 
ATOM     99  O   UNL A   1      38.527  38.220  39.598  1.00  0.00    -0.237 OA
ATOM    100  O   UNL A   1      38.233  36.435  41.284  1.00  0.00    -0.237 OA
ATOM    101  O   UNL A   1      40.448  37.463  40.951  1.00  0.00    -0.744 OA
ENDBRANCH  97  98
ENDBRANCH  65  90
ENDBRANCH  39  40
ENDBRANCH  31  34
ENDBRANCH  29  30
ENDBRANCH  28  29
ENDBRANCH  27  28
ENDBRANCH   1  27
TORSDOF 20
ENDMDL
MODEL 3
REMARK VINA RESULT:     -11.4      2.601      9.086
REMARK SMILES C[C@@H](CNc1cccc(F)c1C(=O)NCCCCCCNC(=O)c1ccc(-c2c3nc(c(-c4c(F)cc(S(=O)(=O)[O-])cc4F)c4ccc([nH]4)c(-c4c(F)cc(S(=O)(=O)[O-])cc4F)c4nc(c(-c5c(F)cc(S(=O)(=O)[O-])cc5F)c5ccc2[nH]5)C=C4)C=C3)cc1)[NH+]1CCCCC1
REMARK SMILES IDX 17 1 16 2 15 3 14 4 12 5 13 6 11 8 5 9 6 10 7 11 9 12 8 13
REMARK SMILES IDX 10 14 4 15 3 17 2 18 1 19 90 20 91 21 95 22 92 24 94 25
REMARK SMILES IDX 93 26 18 27 19 28 20 29 21 30 22 31 23 33 24 34 25 35 89 36
REMARK SMILES IDX 26 37 88 38 27 39 28 40 29 41 82 42 30 43 87 44 81 45 83 46
REMARK SMILES IDX 31 47 86 48 80 49 79 50 32 52 66 53 45 54 65 55 46 56 49 57
REMARK SMILES IDX 64 58 84 59 47 60 48 61 63 63 85 64 50 65 33 66 34 67 43 68
REMARK SMILES IDX 35 69 36 70 42 71 44 72 37 73 38 74 39 75 40 76 41 77 67 78
REMARK SMILES IDX 68 79 77 80 69 81 70 82 76 83 78 84 71 85 72 86 73 87 74 88
REMARK SMILES IDX 75 89 51 90 52 91 61 92 53 93 54 94 60 95 62 96 55 97 56 98
REMARK SMILES IDX 57 99 58 100 59 101
REMARK H PARENT 14 7 4 16 90 23 21 32 83 51 49 62
REMARK Flexibility Score: inf
ROOT
ATOM      1  C   UNL A   1      34.539  24.571  24.682  1.00  0.00     0.002 C 
ENDROOT
BRANCH   1   2
ATOM      2  C   UNL A   1      33.996  24.749  26.109  1.00  0.00     0.021 C 
BRANCH   2   3
ATOM      3  C   UNL A   1      34.093  23.467  26.942  1.00  0.00     0.116 C 
BRANCH   3   4
ATOM      4  N   UNL A   1      32.746  23.054  27.288  1.00  0.00    -0.352 N 
ATOM      5  C   UNL A   1      31.676  22.629  26.544  1.00  0.00     0.256 C 
ATOM      6  O   UNL A   1      30.586  22.606  27.127  1.00  0.00    -0.269 OA
ATOM      7  H   UNL A   1      32.564  23.083  28.256  1.00  0.00     0.163 HD
BRANCH   5   8
ATOM      8  C   UNL A   1      31.772  22.065  25.169  1.00  0.00     0.098 A 
ATOM      9  C   UNL A   1      31.324  22.872  24.082  1.00  0.00     0.050 A 
ATOM     10  C   UNL A   1      31.416  22.347  22.780  1.00  0.00     0.027 A 
ATOM     11  C   UNL A   1      31.898  21.060  22.543  1.00  0.00     0.005 A 
ATOM     12  C   UNL A   1      32.308  20.803  24.902  1.00  0.00     0.138 A 
ATOM     13  C   UNL A   1      32.335  20.285  23.608  1.00  0.00     0.040 A 
ATOM     14  F   UNL A   1      32.862  20.055  25.866  1.00  0.00    -0.206 F 
BRANCH   9  15
ATOM     15  N   UNL A   1      30.749  24.120  24.299  1.00  0.00    -0.378 N 
ATOM     16  H   UNL A   1      30.464  24.330  25.217  1.00  0.00     0.160 HD
BRANCH  15  17
ATOM     17  C   UNL A   1      30.534  25.143  23.287  1.00  0.00     0.177 C 
BRANCH  17  18
ATOM     18  C   UNL A   1      30.551  26.607  23.854  1.00  0.00     0.200 C 
ATOM     19  C   UNL A   1      30.200  27.604  22.736  1.00  0.00     0.077 C 
BRANCH  18  20
ATOM     20  N   UNL A   1      31.711  27.046  24.693  1.00  0.00    -0.331 N 
ATOM     21  C   UNL A   1      32.637  27.903  23.937  1.00  0.00     0.262 C 
ATOM     22  C   UNL A   1      31.326  27.616  25.989  1.00  0.00     0.262 C 
ATOM     23  H   UNL A   1      32.220  26.194  24.933  1.00  0.00     0.348 HD
ATOM     24  C   UNL A   1      33.833  28.390  24.752  1.00  0.00     0.062 C 
ATOM     25  C   UNL A   1      32.497  28.150  26.819  1.00  0.00     0.062 C 
ATOM     26  C   UNL A   1      33.365  29.100  26.012  1.00  0.00     0.012 C 
ENDBRANCH  18  20
ENDBRANCH  17  18
ENDBRANCH  15  17
ENDBRANCH   9  15
ENDBRANCH   5   8
ENDBRANCH   3   4
ENDBRANCH   2   3
ENDBRANCH   1   2
BRANCH   1  27
ATOM     27  C   UNL A   1      35.073  23.166  24.377  1.00  0.00     0.002 C 
BRANCH  27  28
ATOM     28  C   UNL A   1      36.574  23.100  24.082  1.00  0.00     0.021 C 
BRANCH  28  29
ATOM     29  C   UNL A   1      37.455  23.679  25.185  1.00  0.00     0.116 C 
BRANCH  29  30
ATOM     30  N   UNL A   1      38.572  22.799  25.498  1.00  0.00    -0.352 N 
ATOM     31  C   UNL A   1      39.744  23.086  26.158  1.00  0.00     0.251 C 
ATOM     32  H   UNL A   1      38.475  21.868  25.194  1.00  0.00     0.163 HD
ATOM     33  O   UNL A   1      40.680  22.297  26.128  1.00  0.00    -0.269 OA
BRANCH  31  34
ATOM     34  C   UNL A   1      39.865  24.365  26.888  1.00  0.00     0.039 A 
ATOM     35  C   UNL A   1      39.131  24.549  28.063  1.00  0.00     0.014 A 
ATOM     36  C   UNL A   1      40.722  25.367  26.424  1.00  0.00     0.014 A 
ATOM     37  C   UNL A   1      39.323  25.708  28.817  1.00  0.00     0.010 A 
ATOM     38  C   UNL A   1      40.960  26.490  27.211  1.00  0.00     0.010 A 
ATOM     39  C   UNL A   1      40.277  26.663  28.424  1.00  0.00    -0.014 A 
BRANCH  39  40
ATOM     40  C   UNL A   1      40.617  27.818  29.293  1.00  0.00     0.031 A 
ATOM     41  C   UNL A   1      41.867  27.796  30.131  1.00  0.00     0.074 A 
ATOM     42  C   UNL A   1      39.758  28.854  29.377  1.00  0.00     0.049 A 
ATOM     43  N   UNL A   1      42.275  28.666  31.017  1.00  0.00    -0.248 NA
ATOM     44  C   UNL A   1      42.765  26.642  29.966  1.00  0.00     0.031 C 
ATOM     45  C   UNL A   1      38.501  28.971  28.632  1.00  0.00     0.029 A 
ATOM     46  N   UNL A   1      39.801  30.002  30.128  1.00  0.00    -0.354 N 
ATOM     47  C   UNL A   1      43.473  28.169  31.514  1.00  0.00     0.074 A 
ATOM     48  C   UNL A   1      43.705  26.896  30.866  1.00  0.00     0.031 C 
ATOM     49  C   UNL A   1      37.909  30.134  28.944  1.00  0.00     0.029 A 
ATOM     50  C   UNL A   1      38.711  30.823  29.950  1.00  0.00     0.049 A 
ATOM     51  H   UNL A   1      40.543  30.219  30.739  1.00  0.00     0.167 HD
ATOM     52  C   UNL A   1      44.313  28.738  32.409  1.00  0.00     0.037 A 
ATOM     53  C   UNL A   1      38.382  31.989  30.543  1.00  0.00     0.037 A 
ATOM     54  C   UNL A   1      44.084  30.016  33.030  1.00  0.00     0.049 A 
ATOM     55  C   UNL A   1      39.308  32.565  31.581  1.00  0.00     0.074 A 
ATOM     56  C   UNL A   1      44.905  30.698  33.912  1.00  0.00     0.029 A 
ATOM     57  N   UNL A   1      42.959  30.805  32.840  1.00  0.00    -0.354 N 
ATOM     58  N   UNL A   1      40.466  32.109  31.993  1.00  0.00    -0.248 NA
ATOM     59  C   UNL A   1      38.881  33.806  32.244  1.00  0.00     0.031 C 
ATOM     60  C   UNL A   1      44.252  31.870  34.297  1.00  0.00     0.029 A 
ATOM     61  C   UNL A   1      43.049  31.948  33.615  1.00  0.00     0.049 A 
ATOM     62  H   UNL A   1      42.208  30.584  32.242  1.00  0.00     0.167 HD
ATOM     63  C   UNL A   1      40.914  33.016  32.947  1.00  0.00     0.074 A 
ATOM     64  C   UNL A   1      39.912  34.056  33.039  1.00  0.00     0.031 C 
ATOM     65  C   UNL A   1      42.048  32.982  33.687  1.00  0.00     0.037 A 
BRANCH  52  66
ATOM     66  C   UNL A   1      45.581  28.012  32.766  1.00  0.00     0.058 A 
ATOM     67  C   UNL A   1      45.615  27.127  33.856  1.00  0.00     0.135 A 
ATOM     68  C   UNL A   1      46.789  28.294  32.111  1.00  0.00     0.135 A 
ATOM     69  F   UNL A   1      44.487  26.818  34.512  1.00  0.00    -0.206 F 
ATOM     70  C   UNL A   1      46.810  26.577  34.307  1.00  0.00     0.059 A 
ATOM     71  C   UNL A   1      47.993  27.736  32.530  1.00  0.00     0.059 A 
ATOM     72  F   UNL A   1      46.807  29.118  31.051  1.00  0.00    -0.206 F 
ATOM     73  C   UNL A   1      47.996  26.897  33.643  1.00  0.00     0.060 A 
BRANCH  73  74
ATOM     74  S   UNL A   1      49.542  26.196  34.260  1.00  0.00     0.124 S 
ATOM     75  O   UNL A   1      50.535  27.065  33.637  1.00  0.00    -0.237 OA
ATOM     76  O   UNL A   1      49.386  26.340  35.704  1.00  0.00    -0.237 OA
ATOM     77  O   UNL A   1      49.512  24.822  33.767  1.00  0.00    -0.744 OA
ENDBRANCH  73  74
ENDBRANCH  52  66
BRANCH  53  78
ATOM     78  C   UNL A   1      37.122  32.689  30.173  1.00  0.00     0.058 A 
ATOM     79  C   UNL A   1      35.927  32.470  30.877  1.00  0.00     0.135 A 
ATOM     80  C   UNL A   1      37.091  33.601  29.107  1.00  0.00     0.135 A 
ATOM     81  F   UNL A   1      35.896  31.602  31.900  1.00  0.00    -0.206 F 
ATOM     82  C   UNL A   1      34.746  33.117  30.529  1.00  0.00     0.059 A 
ATOM     83  C   UNL A   1      35.928  34.283  28.758  1.00  0.00     0.059 A 
ATOM     84  F   UNL A   1      38.210  33.855  28.410  1.00  0.00    -0.206 F 
ATOM     85  C   UNL A   1      34.758  34.025  29.470  1.00  0.00     0.060 A 
BRANCH  85  86
ATOM     86  S   UNL A   1      33.219  34.876  29.056  1.00  0.00     0.124 S 
ATOM     87  O   UNL A   1      32.548  34.911  30.351  1.00  0.00    -0.237 OA
ATOM     88  O   UNL A   1      33.706  36.157  28.557  1.00  0.00    -0.237 OA
ATOM     89  O   UNL A   1      32.610  34.005  28.055  1.00  0.00    -0.744 OA
ENDBRANCH  85  86
ENDBRANCH  53  78
BRANCH  65  90
ATOM     90  C   UNL A   1      42.288  34.100  34.663  1.00  0.00     0.058 A 
ATOM     91  C   UNL A   1      42.900  35.293  34.249  1.00  0.00     0.135 A 
ATOM     92  C   UNL A   1      42.024  33.938  36.033  1.00  0.00     0.135 A 
ATOM     93  F   UNL A   1      43.177  35.496  32.951  1.00  0.00    -0.206 F 
ATOM     94  C   UNL A   1      43.279  36.271  35.162  1.00  0.00     0.059 A 
ATOM     95  C   UNL A   1      42.368  34.915  36.961  1.00  0.00     0.059 A 
ATOM     96  F   UNL A   1      41.426  32.821  36.477  1.00  0.00    -0.206 F 
ATOM     97  C   UNL A   1      43.017  36.067  36.517  1.00  0.00     0.060 A 
BRANCH  97  98
ATOM     98  S   UNL A   1      43.551  37.329  37.693  1.00  0.00     0.124 S 
ATOM     99  O   UNL A   1      42.293  37.691  38.338  1.00  0.00    -0.237 OA
ATOM    100  O   UNL A   1      44.502  36.594  38.520  1.00  0.00    -0.237 OA
ATOM    101  O   UNL A   1      44.138  38.360  36.841  1.00  0.00    -0.744 OA
ENDBRANCH  97  98
ENDBRANCH  65  90
ENDBRANCH  39  40
ENDBRANCH  31  34
ENDBRANCH  29  30
ENDBRANCH  28  29
ENDBRANCH  27  28
ENDBRANCH   1  27
TORSDOF 20
ENDMDL
