MODEL 1
REMARK VINA RESULT:     -12.4      0.000      0.000
REMARK SMILES Cc1ccccc1C(=O)Nc1ccc(OCC(=O)NCCCCCCNC(=O)c2ccc(-c3c4nc(c(-c5c(F)cc(S(=O)(=O)[O-])cc5F)c5ccc([nH]5)c(-c5c(F)cc(S(=O)(=O)[O-])cc5F)c5nc(c(-c6c(F)cc(S(=O)(=O)[O-])cc6F)c6ccc3[nH]6)C=C5)C=C4)cc2)c(-c2nc3ccccc3s2)c1
REMARK SMILES IDX 22 1 21 2 20 3 19 4 17 5 18 6 16 8 15 9 14 10 11 11 12 12
REMARK SMILES IDX 105 13 13 14 95 15 10 16 8 17 9 18 7 20 1 21 2 22 3 23 4 24
REMARK SMILES IDX 6 25 5 26 96 27 97 28 104 29 98 30 103 31 99 32 102 33
REMARK SMILES IDX 100 34 101 35 23 36 24 37 25 38 26 39 27 40 28 42 29 43
REMARK SMILES IDX 30 44 94 45 31 46 93 47 32 48 33 49 34 50 87 51 35 52 92 53
REMARK SMILES IDX 86 54 88 55 36 56 91 57 85 58 84 59 37 61 71 62 50 63 70 64
REMARK SMILES IDX 51 65 54 66 69 67 89 68 52 69 53 70 68 72 90 73 55 74 38 75
REMARK SMILES IDX 39 76 48 77 40 78 41 79 47 80 49 81 42 82 43 83 44 84 45 85
REMARK SMILES IDX 46 86 72 87 73 88 82 89 74 90 75 91 81 92 83 93 76 94 77 95
REMARK SMILES IDX 78 96 79 97 80 98 56 99 57 100 66 101 58 102 59 103 65 104
REMARK SMILES IDX 67 105 60 106 61 107 62 108 63 109 64 110
REMARK H PARENT 19 7 10 19 26 41 88 60 54 71
REMARK Flexibility Score: inf
ROOT
ATOM      1  C   UNL A   1      36.202  30.799  28.002  1.00  0.00     0.002 C 
ENDROOT
BRANCH   1   2
ATOM      2  C   UNL A   1      35.541  29.425  27.836  1.00  0.00     0.021 C 
BRANCH   2   3
ATOM      3  C   UNL A   1      34.252  29.395  27.020  1.00  0.00     0.116 C 
BRANCH   3   4
ATOM      4  N   UNL A   1      34.425  28.682  25.776  1.00  0.00    -0.353 N 
ATOM      5  C   UNL A   1      33.515  28.231  24.875  1.00  0.00     0.257 C 
ATOM      6  O   UNL A   1      33.971  27.668  23.878  1.00  0.00    -0.271 OA
ATOM      7  H   UNL A   1      35.361  28.491  25.542  1.00  0.00     0.163 HD
BRANCH   5   8
ATOM      8  C   UNL A   1      31.998  28.474  25.086  1.00  0.00     0.329 C 
BRANCH   8   9
ATOM      9  O   UNL A   1      31.162  27.549  25.779  1.00  0.00    -0.483 OA
BRANCH   9  10
ATOM     10  C   UNL A   1      31.002  26.363  25.116  1.00  0.00     0.130 A 
ATOM     11  C   UNL A   1      30.900  23.919  23.778  1.00  0.00     0.042 A 
ATOM     12  C   UNL A   1      31.479  23.989  25.045  1.00  0.00     0.030 A 
ATOM     13  C   UNL A   1      30.253  25.040  23.252  1.00  0.00     0.041 A 
ATOM     14  C   UNL A   1      31.564  25.219  25.696  1.00  0.00     0.049 A 
ATOM     15  C   UNL A   1      30.244  26.279  23.930  1.00  0.00     0.055 A 
BRANCH  11  16
ATOM     16  N   UNL A   1      31.028  22.712  23.078  1.00  0.00    -0.322 N 
ATOM     17  C   UNL A   1      32.150  21.980  22.752  1.00  0.00     0.255 C 
ATOM     18  O   UNL A   1      32.054  21.104  21.890  1.00  0.00    -0.269 OA
ATOM     19  H   UNL A   1      30.179  22.323  22.768  1.00  0.00     0.170 HD
BRANCH  17  20
ATOM     20  C   UNL A   1      33.459  22.145  23.456  1.00  0.00     0.043 A 
ATOM     21  C   UNL A   1      33.160  20.203  25.133  1.00  0.00     0.045 C 
ATOM     22  C   UNL A   1      33.907  21.365  24.544  1.00  0.00    -0.038 A 
ATOM     23  C   UNL A   1      35.164  21.652  25.111  1.00  0.00     0.004 A 
ATOM     24  C   UNL A   1      36.011  22.605  24.549  1.00  0.00     0.000 A 
ATOM     25  C   UNL A   1      34.340  23.079  22.879  1.00  0.00     0.014 A 
ATOM     26  C   UNL A   1      35.611  23.299  23.414  1.00  0.00     0.001 A 
ENDBRANCH  17  20
ENDBRANCH  11  16
BRANCH  15  27
ATOM     27  C   UNL A   1      29.512  27.402  23.292  1.00  0.00     0.128 A 
ATOM     28  N   UNL A   1      30.041  28.187  22.368  1.00  0.00    -0.236 NA
ATOM     29  S   UNL A   1      27.881  27.828  23.673  1.00  0.00    -0.114 S 
ATOM     30  C   UNL A   1      29.305  29.353  22.266  1.00  0.00     0.082 A 
ATOM     31  C   UNL A   1      28.143  29.391  23.032  1.00  0.00     0.055 A 
ATOM     32  C   UNL A   1      29.652  30.491  21.514  1.00  0.00     0.030 A 
ATOM     33  C   UNL A   1      27.375  30.555  23.176  1.00  0.00     0.021 A 
ATOM     34  C   UNL A   1      28.889  31.657  21.636  1.00  0.00     0.002 A 
ATOM     35  C   UNL A   1      27.783  31.695  22.481  1.00  0.00     0.002 A 
ENDBRANCH  15  27
ENDBRANCH   9  10
ENDBRANCH   8   9
ENDBRANCH   5   8
ENDBRANCH   3   4
ENDBRANCH   2   3
ENDBRANCH   1   2
BRANCH   1  36
ATOM     36  C   UNL A   1      35.317  32.036  27.795  1.00  0.00     0.002 C 
BRANCH  36  37
ATOM     37  C   UNL A   1      34.503  32.517  28.997  1.00  0.00     0.021 C 
BRANCH  37  38
ATOM     38  C   UNL A   1      35.168  32.268  30.342  1.00  0.00     0.116 C 
BRANCH  38  39
ATOM     39  N   UNL A   1      35.907  33.408  30.851  1.00  0.00    -0.352 N 
ATOM     40  C   UNL A   1      37.164  33.391  31.433  1.00  0.00     0.251 C 
ATOM     41  H   UNL A   1      35.470  34.287  30.774  1.00  0.00     0.163 HD
ATOM     42  O   UNL A   1      37.605  34.324  32.081  1.00  0.00    -0.269 OA
BRANCH  40  43
ATOM     43  C   UNL A   1      38.020  32.228  31.109  1.00  0.00     0.039 A 
ATOM     44  C   UNL A   1      38.066  31.189  32.047  1.00  0.00     0.014 A 
ATOM     45  C   UNL A   1      38.945  32.304  30.072  1.00  0.00     0.014 A 
ATOM     46  C   UNL A   1      39.143  30.306  32.037  1.00  0.00     0.010 A 
ATOM     47  C   UNL A   1      40.058  31.486  30.122  1.00  0.00     0.010 A 
ATOM     48  C   UNL A   1      40.177  30.511  31.123  1.00  0.00    -0.014 A 
BRANCH  48  49
ATOM     49  C   UNL A   1      41.449  29.801  31.173  1.00  0.00     0.031 A 
ATOM     50  C   UNL A   1      41.652  28.573  30.370  1.00  0.00     0.074 A 
ATOM     51  C   UNL A   1      42.478  30.289  31.903  1.00  0.00     0.049 A 
ATOM     52  N   UNL A   1      42.512  27.654  30.659  1.00  0.00    -0.248 NA
ATOM     53  C   UNL A   1      40.865  28.267  29.178  1.00  0.00     0.031 C 
ATOM     54  C   UNL A   1      43.880  29.886  31.820  1.00  0.00     0.029 A 
ATOM     55  N   UNL A   1      42.430  31.130  33.011  1.00  0.00    -0.354 N 
ATOM     56  C   UNL A   1      42.590  26.802  29.582  1.00  0.00     0.074 A 
ATOM     57  C   UNL A   1      41.507  27.191  28.709  1.00  0.00     0.031 C 
ATOM     58  C   UNL A   1      44.514  30.274  32.937  1.00  0.00     0.029 A 
ATOM     59  C   UNL A   1      43.514  30.809  33.844  1.00  0.00     0.049 A 
ATOM     60  H   UNL A   1      41.754  31.826  33.180  1.00  0.00     0.167 HD
ATOM     61  C   UNL A   1      43.642  25.944  29.465  1.00  0.00     0.037 A 
ATOM     62  C   UNL A   1      43.323  30.374  35.125  1.00  0.00     0.037 A 
ATOM     63  C   UNL A   1      44.557  26.054  30.593  1.00  0.00     0.049 A 
ATOM     64  C   UNL A   1      43.828  28.971  35.381  1.00  0.00     0.074 A 
ATOM     65  C   UNL A   1      45.730  26.768  30.776  1.00  0.00     0.029 A 
ATOM     66  N   UNL A   1      44.154  25.632  31.856  1.00  0.00    -0.354 N 
ATOM     67  N   UNL A   1      44.116  28.115  34.440  1.00  0.00    -0.248 NA
ATOM     68  C   UNL A   1      44.036  28.415  36.716  1.00  0.00     0.031 C 
ATOM     69  C   UNL A   1      46.007  26.818  32.162  1.00  0.00     0.029 A 
ATOM     70  C   UNL A   1      45.011  26.123  32.824  1.00  0.00     0.049 A 
ATOM     71  H   UNL A   1      43.369  25.065  32.036  1.00  0.00     0.167 HD
ATOM     72  C   UNL A   1      44.497  26.921  35.000  1.00  0.00     0.074 A 
ATOM     73  C   UNL A   1      44.459  27.172  36.429  1.00  0.00     0.031 C 
ATOM     74  C   UNL A   1      44.805  25.830  34.235  1.00  0.00     0.037 A 
BRANCH  61  75
ATOM     75  C   UNL A   1      43.966  25.254  28.162  1.00  0.00     0.058 A 
ATOM     76  C   UNL A   1      43.663  23.892  27.962  1.00  0.00     0.135 A 
ATOM     77  C   UNL A   1      44.638  25.882  27.094  1.00  0.00     0.135 A 
ATOM     78  F   UNL A   1      42.970  23.185  28.865  1.00  0.00    -0.206 F 
ATOM     79  C   UNL A   1      44.088  23.178  26.842  1.00  0.00     0.059 A 
ATOM     80  C   UNL A   1      45.118  25.177  25.983  1.00  0.00     0.059 A 
ATOM     81  F   UNL A   1      44.850  27.207  27.101  1.00  0.00    -0.206 F 
ATOM     82  C   UNL A   1      44.847  23.819  25.872  1.00  0.00     0.060 A 
BRANCH  82  83
ATOM     83  S   UNL A   1      45.500  22.841  24.504  1.00  0.00     0.124 S 
ATOM     84  O   UNL A   1      46.106  21.707  25.195  1.00  0.00    -0.237 OA
ATOM     85  O   UNL A   1      44.293  22.548  23.740  1.00  0.00    -0.237 OA
ATOM     86  O   UNL A   1      46.448  23.749  23.864  1.00  0.00    -0.744 OA
ENDBRANCH  82  83
ENDBRANCH  61  75
BRANCH  62  87
ATOM     87  C   UNL A   1      42.150  31.007  35.786  1.00  0.00     0.058 A 
ATOM     88  C   UNL A   1      42.331  32.290  36.338  1.00  0.00     0.135 A 
ATOM     89  C   UNL A   1      40.841  30.614  35.473  1.00  0.00     0.135 A 
ATOM     90  F   UNL A   1      43.562  32.706  36.676  1.00  0.00    -0.206 F 
ATOM     91  C   UNL A   1      41.290  33.209  36.406  1.00  0.00     0.059 A 
ATOM     92  C   UNL A   1      39.779  31.519  35.541  1.00  0.00     0.059 A 
ATOM     93  F   UNL A   1      40.606  29.401  34.952  1.00  0.00    -0.206 F 
ATOM     94  C   UNL A   1      40.034  32.834  35.934  1.00  0.00     0.060 A 
BRANCH  94  95
ATOM     95  S   UNL A   1      38.805  34.137  35.677  1.00  0.00     0.124 S 
ATOM     96  O   UNL A   1      39.455  34.980  34.679  1.00  0.00    -0.237 OA
ATOM     97  O   UNL A   1      37.653  33.373  35.201  1.00  0.00    -0.237 OA
ATOM     98  O   UNL A   1      38.660  34.726  37.002  1.00  0.00    -0.744 OA
ENDBRANCH  94  95
ENDBRANCH  62  87
BRANCH  74  99
ATOM     99  C   UNL A   1      45.050  24.418  34.725  1.00  0.00     0.058 A 
ATOM    100  C   UNL A   1      44.069  23.415  34.776  1.00  0.00     0.135 A 
ATOM    101  C   UNL A   1      46.366  23.991  35.042  1.00  0.00     0.135 A 
ATOM    102  F   UNL A   1      42.807  23.652  34.393  1.00  0.00    -0.206 F 
ATOM    103  C   UNL A   1      44.352  22.105  35.177  1.00  0.00     0.059 A 
ATOM    104  C   UNL A   1      46.681  22.679  35.388  1.00  0.00     0.059 A 
ATOM    105  F   UNL A   1      47.406  24.838  35.010  1.00  0.00    -0.206 F 
ATOM    106  C   UNL A   1      45.661  21.745  35.481  1.00  0.00     0.060 A 
BRANCH 106 107
ATOM    107  S   UNL A   1      46.051  20.044  35.930  1.00  0.00     0.124 S 
ATOM    108  O   UNL A   1      47.468  19.971  35.592  1.00  0.00    -0.237 OA
ATOM    109  O   UNL A   1      45.741  20.004  37.356  1.00  0.00    -0.237 OA
ATOM    110  O   UNL A   1      45.156  19.263  35.083  1.00  0.00    -0.744 OA
ENDBRANCH 106 107
ENDBRANCH  74  99
ENDBRANCH  48  49
ENDBRANCH  40  43
ENDBRANCH  38  39
ENDBRANCH  37  38
ENDBRANCH  36  37
ENDBRANCH   1  36
TORSDOF 21
ENDMDL
MODEL 2
REMARK VINA RESULT:     -12.3      3.826     10.372
REMARK SMILES Cc1ccccc1C(=O)Nc1ccc(OCC(=O)NCCCCCCNC(=O)c2ccc(-c3c4nc(c(-c5c(F)cc(S(=O)(=O)[O-])cc5F)c5ccc([nH]5)c(-c5c(F)cc(S(=O)(=O)[O-])cc5F)c5nc(c(-c6c(F)cc(S(=O)(=O)[O-])cc6F)c6ccc3[nH]6)C=C5)C=C4)cc2)c(-c2nc3ccccc3s2)c1
REMARK SMILES IDX 22 1 21 2 20 3 19 4 17 5 18 6 16 8 15 9 14 10 11 11 12 12
REMARK SMILES IDX 105 13 13 14 95 15 10 16 8 17 9 18 7 20 1 21 2 22 3 23 4 24
REMARK SMILES IDX 6 25 5 26 96 27 97 28 104 29 98 30 103 31 99 32 102 33
REMARK SMILES IDX 100 34 101 35 23 36 24 37 25 38 26 39 27 40 28 42 29 43
REMARK SMILES IDX 30 44 94 45 31 46 93 47 32 48 33 49 34 50 87 51 35 52 92 53
REMARK SMILES IDX 86 54 88 55 36 56 91 57 85 58 84 59 37 61 71 62 50 63 70 64
REMARK SMILES IDX 51 65 54 66 69 67 89 68 52 69 53 70 68 72 90 73 55 74 38 75
REMARK SMILES IDX 39 76 48 77 40 78 41 79 47 80 49 81 42 82 43 83 44 84 45 85
REMARK SMILES IDX 46 86 72 87 73 88 82 89 74 90 75 91 81 92 83 93 76 94 77 95
REMARK SMILES IDX 78 96 79 97 80 98 56 99 57 100 66 101 58 102 59 103 65 104
REMARK SMILES IDX 67 105 60 106 61 107 62 108 63 109 64 110
REMARK H PARENT 19 7 10 19 26 41 88 60 54 71
REMARK Flexibility Score: inf
ROOT
ATOM      1  C   UNL A   1      40.033  22.578  26.968  1.00  0.00     0.002 C 
ENDROOT
BRANCH   1   2
ATOM      2  C   UNL A   1      38.839  22.875  26.051  1.00  0.00     0.021 C 
BRANCH   2   3
ATOM      3  C   UNL A   1      38.116  21.660  25.479  1.00  0.00     0.116 C 
BRANCH   3   4
ATOM      4  N   UNL A   1      36.859  21.421  26.150  1.00  0.00    -0.353 N 
ATOM      5  C   UNL A   1      35.617  21.918  25.918  1.00  0.00     0.257 C 
ATOM      6  O   UNL A   1      34.720  21.505  26.655  1.00  0.00    -0.271 OA
ATOM      7  H   UNL A   1      36.913  20.791  26.904  1.00  0.00     0.163 HD
BRANCH   5   8
ATOM      8  C   UNL A   1      35.361  22.906  24.751  1.00  0.00     0.329 C 
BRANCH   8   9
ATOM      9  O   UNL A   1      34.717  22.512  23.539  1.00  0.00    -0.483 OA
BRANCH   9  10
ATOM     10  C   UNL A   1      33.483  23.080  23.374  1.00  0.00     0.130 A 
ATOM     11  C   UNL A   1      31.032  24.395  23.186  1.00  0.00     0.042 A 
ATOM     12  C   UNL A   1      32.211  25.092  22.928  1.00  0.00     0.030 A 
ATOM     13  C   UNL A   1      31.079  23.014  23.399  1.00  0.00     0.041 A 
ATOM     14  C   UNL A   1      33.437  24.444  23.060  1.00  0.00     0.049 A 
ATOM     15  C   UNL A   1      32.304  22.312  23.449  1.00  0.00     0.055 A 
BRANCH  11  16
ATOM     16  N   UNL A   1      29.845  25.137  23.249  1.00  0.00    -0.322 N 
ATOM     17  C   UNL A   1      29.490  26.191  24.063  1.00  0.00     0.255 C 
ATOM     18  O   UNL A   1      28.300  26.503  24.141  1.00  0.00    -0.269 OA
ATOM     19  H   UNL A   1      29.151  24.861  22.608  1.00  0.00     0.170 HD
BRANCH  17  20
ATOM     20  C   UNL A   1      30.493  27.027  24.792  1.00  0.00     0.043 A 
ATOM     21  C   UNL A   1      30.504  29.015  23.141  1.00  0.00     0.045 C 
ATOM     22  C   UNL A   1      30.971  28.286  24.369  1.00  0.00    -0.038 A 
ATOM     23  C   UNL A   1      31.930  28.948  25.161  1.00  0.00     0.004 A 
ATOM     24  C   UNL A   1      32.322  28.439  26.398  1.00  0.00     0.000 A 
ATOM     25  C   UNL A   1      30.872  26.545  26.059  1.00  0.00     0.014 A 
ATOM     26  C   UNL A   1      31.770  27.251  26.861  1.00  0.00     0.001 A 
ENDBRANCH  17  20
ENDBRANCH  11  16
BRANCH  15  27
ATOM     27  C   UNL A   1      32.241  20.844  23.662  1.00  0.00     0.128 A 
ATOM     28  N   UNL A   1      32.239  20.279  24.858  1.00  0.00    -0.236 NA
ATOM     29  S   UNL A   1      32.163  19.688  22.380  1.00  0.00    -0.114 S 
ATOM     30  C   UNL A   1      32.585  18.945  24.748  1.00  0.00     0.082 A 
ATOM     31  C   UNL A   1      32.726  18.474  23.445  1.00  0.00     0.055 A 
ATOM     32  C   UNL A   1      32.849  18.065  25.813  1.00  0.00     0.030 A 
ATOM     33  C   UNL A   1      33.235  17.200  23.156  1.00  0.00     0.021 A 
ATOM     34  C   UNL A   1      33.344  16.784  25.543  1.00  0.00     0.002 A 
ATOM     35  C   UNL A   1      33.564  16.371  24.231  1.00  0.00     0.002 A 
ENDBRANCH  15  27
ENDBRANCH   9  10
ENDBRANCH   8   9
ENDBRANCH   5   8
ENDBRANCH   3   4
ENDBRANCH   2   3
ENDBRANCH   1   2
BRANCH   1  36
ATOM     36  C   UNL A   1      41.045  21.528  26.488  1.00  0.00     0.002 C 
BRANCH  36  37
ATOM     37  C   UNL A   1      42.407  22.040  26.017  1.00  0.00     0.021 C 
BRANCH  37  38
ATOM     38  C   UNL A   1      42.799  23.393  26.592  1.00  0.00     0.116 C 
BRANCH  38  39
ATOM     39  N   UNL A   1      42.683  24.487  25.647  1.00  0.00    -0.352 N 
ATOM     40  C   UNL A   1      42.010  25.683  25.837  1.00  0.00     0.251 C 
ATOM     41  H   UNL A   1      43.131  24.368  24.777  1.00  0.00     0.163 HD
ATOM     42  O   UNL A   1      41.720  26.431  24.920  1.00  0.00    -0.269 OA
BRANCH  40  43
ATOM     43  C   UNL A   1      41.781  26.089  27.241  1.00  0.00     0.039 A 
ATOM     44  C   UNL A   1      40.496  25.887  27.761  1.00  0.00     0.014 A 
ATOM     45  C   UNL A   1      42.708  26.889  27.902  1.00  0.00     0.014 A 
ATOM     46  C   UNL A   1      40.085  26.620  28.873  1.00  0.00     0.010 A 
ATOM     47  C   UNL A   1      42.268  27.683  28.945  1.00  0.00     0.010 A 
ATOM     48  C   UNL A   1      40.949  27.575  29.409  1.00  0.00    -0.014 A 
BRANCH  48  49
ATOM     49  C   UNL A   1      40.545  28.554  30.412  1.00  0.00     0.031 A 
ATOM     50  C   UNL A   1      39.689  29.702  30.032  1.00  0.00     0.074 A 
ATOM     51  C   UNL A   1      40.893  28.392  31.708  1.00  0.00     0.049 A 
ATOM     52  N   UNL A   1      39.644  30.817  30.683  1.00  0.00    -0.248 NA
ATOM     53  C   UNL A   1      38.828  29.693  28.851  1.00  0.00     0.031 C 
ATOM     54  C   UNL A   1      40.328  29.087  32.861  1.00  0.00     0.029 A 
ATOM     55  N   UNL A   1      41.974  27.686  32.231  1.00  0.00    -0.354 N 
ATOM     56  C   UNL A   1      38.583  31.542  30.194  1.00  0.00     0.074 A 
ATOM     57  C   UNL A   1      38.141  30.828  29.019  1.00  0.00     0.031 C 
ATOM     58  C   UNL A   1      41.172  28.975  33.897  1.00  0.00     0.029 A 
ATOM     59  C   UNL A   1      42.380  28.330  33.411  1.00  0.00     0.049 A 
ATOM     60  H   UNL A   1      42.381  26.879  31.841  1.00  0.00     0.167 HD
ATOM     61  C   UNL A   1      38.092  32.597  30.905  1.00  0.00     0.037 A 
ATOM     62  C   UNL A   1      43.636  28.848  33.543  1.00  0.00     0.037 A 
ATOM     63  C   UNL A   1      38.845  32.818  32.132  1.00  0.00     0.049 A 
ATOM     64  C   UNL A   1      43.669  30.347  33.739  1.00  0.00     0.074 A 
ATOM     65  C   UNL A   1      38.636  32.410  33.440  1.00  0.00     0.029 A 
ATOM     66  N   UNL A   1      40.158  33.273  32.068  1.00  0.00    -0.354 N 
ATOM     67  N   UNL A   1      42.665  31.140  33.486  1.00  0.00    -0.248 NA
ATOM     68  C   UNL A   1      44.839  31.077  34.224  1.00  0.00     0.031 C 
ATOM     69  C   UNL A   1      39.846  32.574  34.153  1.00  0.00     0.029 A 
ATOM     70  C   UNL A   1      40.789  33.094  33.286  1.00  0.00     0.049 A 
ATOM     71  H   UNL A   1      40.579  33.665  31.269  1.00  0.00     0.167 HD
ATOM     72  C   UNL A   1      43.030  32.442  33.719  1.00  0.00     0.074 A 
ATOM     73  C   UNL A   1      44.392  32.345  34.208  1.00  0.00     0.031 C 
ATOM     74  C   UNL A   1      42.177  33.485  33.482  1.00  0.00     0.037 A 
BRANCH  61  75
ATOM     75  C   UNL A   1      36.739  33.196  30.608  1.00  0.00     0.058 A 
ATOM     76  C   UNL A   1      36.504  33.911  29.415  1.00  0.00     0.135 A 
ATOM     77  C   UNL A   1      35.652  33.148  31.503  1.00  0.00     0.135 A 
ATOM     78  F   UNL A   1      37.424  33.985  28.445  1.00  0.00    -0.206 F 
ATOM     79  C   UNL A   1      35.323  34.615  29.175  1.00  0.00     0.059 A 
ATOM     80  C   UNL A   1      34.478  33.886  31.308  1.00  0.00     0.059 A 
ATOM     81  F   UNL A   1      35.701  32.379  32.601  1.00  0.00    -0.206 F 
ATOM     82  C   UNL A   1      34.328  34.627  30.143  1.00  0.00     0.060 A 
BRANCH  82  83
ATOM     83  S   UNL A   1      32.873  35.656  29.867  1.00  0.00     0.124 S 
ATOM     84  O   UNL A   1      32.384  35.166  28.581  1.00  0.00    -0.237 OA
ATOM     85  O   UNL A   1      32.049  35.332  31.025  1.00  0.00    -0.237 OA
ATOM     86  O   UNL A   1      33.418  37.011  29.841  1.00  0.00    -0.744 OA
ENDBRANCH  82  83
ENDBRANCH  61  75
BRANCH  62  87
ATOM     87  C   UNL A   1      44.674  28.043  32.842  1.00  0.00     0.058 A 
ATOM     88  C   UNL A   1      45.144  28.527  31.606  1.00  0.00     0.135 A 
ATOM     89  C   UNL A   1      45.495  27.149  33.544  1.00  0.00     0.135 A 
ATOM     90  F   UNL A   1      44.386  29.369  30.885  1.00  0.00    -0.206 F 
ATOM     91  C   UNL A   1      46.441  28.283  31.171  1.00  0.00     0.059 A 
ATOM     92  C   UNL A   1      46.800  26.884  33.121  1.00  0.00     0.059 A 
ATOM     93  F   UNL A   1      45.098  26.649  34.723  1.00  0.00    -0.206 F 
ATOM     94  C   UNL A   1      47.285  27.519  31.977  1.00  0.00     0.060 A 
BRANCH  94  95
ATOM     95  S   UNL A   1      49.053  27.527  31.594  1.00  0.00     0.124 S 
ATOM     96  O   UNL A   1      49.653  27.649  32.918  1.00  0.00    -0.237 OA
ATOM     97  O   UNL A   1      49.224  26.229  30.943  1.00  0.00    -0.237 OA
ATOM     98  O   UNL A   1      49.203  28.687  30.724  1.00  0.00    -0.744 OA
ENDBRANCH  94  95
ENDBRANCH  62  87
BRANCH  74  99
ATOM     99  C   UNL A   1      42.518  34.960  33.514  1.00  0.00     0.058 A 
ATOM    100  C   UNL A   1      42.317  35.796  34.625  1.00  0.00     0.135 A 
ATOM    101  C   UNL A   1      43.207  35.557  32.427  1.00  0.00     0.135 A 
ATOM    102  F   UNL A   1      41.781  35.331  35.761  1.00  0.00    -0.206 F 
ATOM    103  C   UNL A   1      42.705  37.140  34.634  1.00  0.00     0.059 A 
ATOM    104  C   UNL A   1      43.653  36.877  32.437  1.00  0.00     0.059 A 
ATOM    105  F   UNL A   1      43.490  34.868  31.311  1.00  0.00    -0.206 F 
ATOM    106  C   UNL A   1      43.373  37.672  33.536  1.00  0.00     0.060 A 
BRANCH 106 107
ATOM    107  S   UNL A   1      43.940  39.383  33.565  1.00  0.00     0.124 S 
ATOM    108  O   UNL A   1      42.719  40.100  33.217  1.00  0.00    -0.237 OA
ATOM    109  O   UNL A   1      44.399  39.551  34.940  1.00  0.00    -0.237 OA
ATOM    110  O   UNL A   1      44.994  39.400  32.556  1.00  0.00    -0.744 OA
ENDBRANCH 106 107
ENDBRANCH  74  99
ENDBRANCH  48  49
ENDBRANCH  40  43
ENDBRANCH  38  39
ENDBRANCH  37  38
ENDBRANCH  36  37
ENDBRANCH   1  36
TORSDOF 21
ENDMDL
MODEL 3
REMARK VINA RESULT:     -12.0      4.530     11.334
REMARK SMILES Cc1ccccc1C(=O)Nc1ccc(OCC(=O)NCCCCCCNC(=O)c2ccc(-c3c4nc(c(-c5c(F)cc(S(=O)(=O)[O-])cc5F)c5ccc([nH]5)c(-c5c(F)cc(S(=O)(=O)[O-])cc5F)c5nc(c(-c6c(F)cc(S(=O)(=O)[O-])cc6F)c6ccc3[nH]6)C=C5)C=C4)cc2)c(-c2nc3ccccc3s2)c1
REMARK SMILES IDX 22 1 21 2 20 3 19 4 17 5 18 6 16 8 15 9 14 10 11 11 12 12
REMARK SMILES IDX 105 13 13 14 95 15 10 16 8 17 9 18 7 20 1 21 2 22 3 23 4 24
REMARK SMILES IDX 6 25 5 26 96 27 97 28 104 29 98 30 103 31 99 32 102 33
REMARK SMILES IDX 100 34 101 35 23 36 24 37 25 38 26 39 27 40 28 42 29 43
REMARK SMILES IDX 30 44 94 45 31 46 93 47 32 48 33 49 34 50 87 51 35 52 92 53
REMARK SMILES IDX 86 54 88 55 36 56 91 57 85 58 84 59 37 61 71 62 50 63 70 64
REMARK SMILES IDX 51 65 54 66 69 67 89 68 52 69 53 70 68 72 90 73 55 74 38 75
REMARK SMILES IDX 39 76 48 77 40 78 41 79 47 80 49 81 42 82 43 83 44 84 45 85
REMARK SMILES IDX 46 86 72 87 73 88 82 89 74 90 75 91 81 92 83 93 76 94 77 95
REMARK SMILES IDX 78 96 79 97 80 98 56 99 57 100 66 101 58 102 59 103 65 104
REMARK SMILES IDX 67 105 60 106 61 107 62 108 63 109 64 110
REMARK H PARENT 19 7 10 19 26 41 88 60 54 71
REMARK Flexibility Score: inf
ROOT
ATOM      1  C   UNL A   1      39.967  22.218  27.267  1.00  0.00     0.002 C 
ENDROOT
BRANCH   1   2
ATOM      2  C   UNL A   1      39.661  21.279  26.093  1.00  0.00     0.021 C 
BRANCH   2   3
ATOM      3  C   UNL A   1      38.309  21.475  25.413  1.00  0.00     0.116 C 
BRANCH   3   4
ATOM      4  N   UNL A   1      37.792  22.807  25.627  1.00  0.00    -0.353 N 
ATOM      5  C   UNL A   1      36.528  23.295  25.544  1.00  0.00     0.257 C 
ATOM      6  O   UNL A   1      36.388  24.490  25.810  1.00  0.00    -0.271 OA
ATOM      7  H   UNL A   1      38.472  23.474  25.875  1.00  0.00     0.163 HD
BRANCH   5   8
ATOM      8  C   UNL A   1      35.339  22.366  25.188  1.00  0.00     0.329 C 
BRANCH   8   9
ATOM      9  O   UNL A   1      34.851  22.221  23.854  1.00  0.00    -0.483 OA
BRANCH   9  10
ATOM     10  C   UNL A   1      33.633  22.813  23.657  1.00  0.00     0.130 A 
ATOM     11  C   UNL A   1      31.212  24.175  23.410  1.00  0.00     0.042 A 
ATOM     12  C   UNL A   1      32.411  24.856  23.208  1.00  0.00     0.030 A 
ATOM     13  C   UNL A   1      31.228  22.789  23.595  1.00  0.00     0.041 A 
ATOM     14  C   UNL A   1      33.621  24.184  23.370  1.00  0.00     0.049 A 
ATOM     15  C   UNL A   1      32.439  22.065  23.674  1.00  0.00     0.055 A 
BRANCH  11  16
ATOM     16  N   UNL A   1      30.036  24.936  23.446  1.00  0.00    -0.322 N 
ATOM     17  C   UNL A   1      29.719  26.059  24.178  1.00  0.00     0.255 C 
ATOM     18  O   UNL A   1      28.535  26.393  24.266  1.00  0.00    -0.269 OA
ATOM     19  H   UNL A   1      29.320  24.617  22.850  1.00  0.00     0.170 HD
BRANCH  17  20
ATOM     20  C   UNL A   1      30.753  26.939  24.805  1.00  0.00     0.043 A 
ATOM     21  C   UNL A   1      30.948  28.628  22.860  1.00  0.00     0.045 C 
ATOM     22  C   UNL A   1      31.328  28.080  24.206  1.00  0.00    -0.038 A 
ATOM     23  C   UNL A   1      32.304  28.801  24.922  1.00  0.00     0.004 A 
ATOM     24  C   UNL A   1      32.623  28.476  26.238  1.00  0.00     0.000 A 
ATOM     25  C   UNL A   1      31.061  26.646  26.147  1.00  0.00     0.014 A 
ATOM     26  C   UNL A   1      31.979  27.416  26.862  1.00  0.00     0.001 A 
ENDBRANCH  17  20
ENDBRANCH  11  16
BRANCH  15  27
ATOM     27  C   UNL A   1      32.343  20.595  23.854  1.00  0.00     0.128 A 
ATOM     28  N   UNL A   1      32.277  20.007  25.038  1.00  0.00    -0.236 NA
ATOM     29  S   UNL A   1      32.310  19.465  22.547  1.00  0.00    -0.114 S 
ATOM     30  C   UNL A   1      32.607  18.670  24.916  1.00  0.00     0.082 A 
ATOM     31  C   UNL A   1      32.803  18.222  23.612  1.00  0.00     0.055 A 
ATOM     32  C   UNL A   1      32.807  17.764  25.975  1.00  0.00     0.030 A 
ATOM     33  C   UNL A   1      33.306  16.946  23.323  1.00  0.00     0.021 A 
ATOM     34  C   UNL A   1      33.295  16.482  25.703  1.00  0.00     0.002 A 
ATOM     35  C   UNL A   1      33.570  16.091  24.395  1.00  0.00     0.002 A 
ENDBRANCH  15  27
ENDBRANCH   9  10
ENDBRANCH   8   9
ENDBRANCH   5   8
ENDBRANCH   3   4
ENDBRANCH   2   3
ENDBRANCH   1   2
BRANCH   1  36
ATOM     36  C   UNL A   1      41.304  22.022  27.996  1.00  0.00     0.002 C 
BRANCH  36  37
ATOM     37  C   UNL A   1      42.551  21.860  27.127  1.00  0.00     0.021 C 
BRANCH  37  38
ATOM     38  C   UNL A   1      43.142  23.171  26.630  1.00  0.00     0.116 C 
BRANCH  38  39
ATOM     39  N   UNL A   1      42.331  23.838  25.630  1.00  0.00    -0.352 N 
ATOM     40  C   UNL A   1      41.629  25.023  25.782  1.00  0.00     0.251 C 
ATOM     41  H   UNL A   1      42.272  23.403  24.748  1.00  0.00     0.163 HD
ATOM     42  O   UNL A   1      40.758  25.379  25.009  1.00  0.00    -0.269 OA
BRANCH  40  43
ATOM     43  C   UNL A   1      42.089  25.921  26.864  1.00  0.00     0.039 A 
ATOM     44  C   UNL A   1      41.437  25.816  28.100  1.00  0.00     0.014 A 
ATOM     45  C   UNL A   1      42.918  27.001  26.577  1.00  0.00     0.014 A 
ATOM     46  C   UNL A   1      41.494  26.881  28.996  1.00  0.00     0.010 A 
ATOM     47  C   UNL A   1      42.895  28.092  27.424  1.00  0.00     0.010 A 
ATOM     48  C   UNL A   1      42.157  28.048  28.616  1.00  0.00    -0.014 A 
BRANCH  48  49
ATOM     49  C   UNL A   1      42.082  29.297  29.365  1.00  0.00     0.031 A 
ATOM     50  C   UNL A   1      40.833  30.095  29.365  1.00  0.00     0.074 A 
ATOM     51  C   UNL A   1      43.127  29.710  30.117  1.00  0.00     0.049 A 
ATOM     52  N   UNL A   1      40.786  31.365  29.595  1.00  0.00    -0.248 NA
ATOM     53  C   UNL A   1      39.524  29.516  29.069  1.00  0.00     0.031 C 
ATOM     54  C   UNL A   1      43.111  30.745  31.148  1.00  0.00     0.029 A 
ATOM     55  N   UNL A   1      44.476  29.398  29.968  1.00  0.00    -0.354 N 
ATOM     56  C   UNL A   1      39.464  31.711  29.751  1.00  0.00     0.074 A 
ATOM     57  C   UNL A   1      38.714  30.540  29.359  1.00  0.00     0.031 C 
ATOM     58  C   UNL A   1      44.368  31.152  31.379  1.00  0.00     0.029 A 
ATOM     59  C   UNL A   1      45.225  30.502  30.403  1.00  0.00     0.049 A 
ATOM     60  H   UNL A   1      44.839  28.552  29.620  1.00  0.00     0.167 HD
ATOM     61  C   UNL A   1      39.134  32.902  30.326  1.00  0.00     0.037 A 
ATOM     62  C   UNL A   1      46.073  31.164  29.561  1.00  0.00     0.037 A 
ATOM     63  C   UNL A   1      40.316  33.680  30.673  1.00  0.00     0.049 A 
ATOM     64  C   UNL A   1      45.699  32.609  29.318  1.00  0.00     0.074 A 
ATOM     65  C   UNL A   1      41.030  33.813  31.853  1.00  0.00     0.029 A 
ATOM     66  N   UNL A   1      41.118  34.211  29.668  1.00  0.00    -0.354 N 
ATOM     67  N   UNL A   1      44.529  33.117  29.591  1.00  0.00    -0.248 NA
ATOM     68  C   UNL A   1      46.607  33.595  28.735  1.00  0.00     0.031 C 
ATOM     69  C   UNL A   1      42.288  34.381  31.548  1.00  0.00     0.029 A 
ATOM     70  C   UNL A   1      42.337  34.608  30.185  1.00  0.00     0.049 A 
ATOM     71  H   UNL A   1      40.854  34.291  28.723  1.00  0.00     0.167 HD
ATOM     72  C   UNL A   1      44.494  34.434  29.208  1.00  0.00     0.074 A 
ATOM     73  C   UNL A   1      45.830  34.693  28.705  1.00  0.00     0.031 C 
ATOM     74  C   UNL A   1      43.363  35.194  29.334  1.00  0.00     0.037 A 
BRANCH  61  75
ATOM     75  C   UNL A   1      37.742  33.179  30.840  1.00  0.00     0.058 A 
ATOM     76  C   UNL A   1      36.739  33.689  29.990  1.00  0.00     0.135 A 
ATOM     77  C   UNL A   1      37.363  33.018  32.187  1.00  0.00     0.135 A 
ATOM     78  F   UNL A   1      36.937  33.833  28.674  1.00  0.00    -0.206 F 
ATOM     79  C   UNL A   1      35.493  34.109  30.457  1.00  0.00     0.059 A 
ATOM     80  C   UNL A   1      36.139  33.478  32.689  1.00  0.00     0.059 A 
ATOM     81  F   UNL A   1      38.177  32.407  33.061  1.00  0.00    -0.206 F 
ATOM     82  C   UNL A   1      35.213  34.034  31.815  1.00  0.00     0.060 A 
BRANCH  82  83
ATOM     83  S   UNL A   1      33.651  34.711  32.410  1.00  0.00     0.124 S 
ATOM     84  O   UNL A   1      33.143  33.630  33.250  1.00  0.00    -0.237 OA
ATOM     85  O   UNL A   1      34.090  35.909  33.114  1.00  0.00    -0.237 OA
ATOM     86  O   UNL A   1      32.895  34.942  31.182  1.00  0.00    -0.744 OA
ENDBRANCH  82  83
ENDBRANCH  61  75
BRANCH  62  87
ATOM     87  C   UNL A   1      46.737  30.264  28.579  1.00  0.00     0.058 A 
ATOM     88  C   UNL A   1      47.770  29.434  29.056  1.00  0.00     0.135 A 
ATOM     89  C   UNL A   1      46.093  29.883  27.394  1.00  0.00     0.135 A 
ATOM     90  F   UNL A   1      48.434  29.765  30.175  1.00  0.00    -0.206 F 
ATOM     91  C   UNL A   1      48.031  28.192  28.488  1.00  0.00     0.059 A 
ATOM     92  C   UNL A   1      46.344  28.642  26.802  1.00  0.00     0.059 A 
ATOM     93  F   UNL A   1      45.107  30.636  26.887  1.00  0.00    -0.206 F 
ATOM     94  C   UNL A   1      47.258  27.775  27.406  1.00  0.00     0.060 A 
BRANCH  94  95
ATOM     95  S   UNL A   1      47.345  26.033  26.926  1.00  0.00     0.124 S 
ATOM     96  O   UNL A   1      47.844  25.405  28.144  1.00  0.00    -0.237 OA
ATOM     97  O   UNL A   1      45.950  25.743  26.595  1.00  0.00    -0.237 OA
ATOM     98  O   UNL A   1      48.267  26.042  25.798  1.00  0.00    -0.744 OA
ENDBRANCH  94  95
ENDBRANCH  62  87
BRANCH  74  99
ATOM     99  C   UNL A   1      43.138  36.584  28.779  1.00  0.00     0.058 A 
ATOM    100  C   UNL A   1      43.544  37.768  29.417  1.00  0.00     0.135 A 
ATOM    101  C   UNL A   1      42.606  36.755  27.475  1.00  0.00     0.135 A 
ATOM    102  F   UNL A   1      44.167  37.744  30.603  1.00  0.00    -0.206 F 
ATOM    103  C   UNL A   1      43.373  39.031  28.840  1.00  0.00     0.059 A 
ATOM    104  C   UNL A   1      42.479  37.997  26.858  1.00  0.00     0.059 A 
ATOM    105  F   UNL A   1      42.200  35.708  26.739  1.00  0.00    -0.206 F 
ATOM    106  C   UNL A   1      42.840  39.136  27.559  1.00  0.00     0.060 A 
BRANCH 106 107
ATOM    107  S   UNL A   1      42.680  40.751  26.776  1.00  0.00     0.124 S 
ATOM    108  O   UNL A   1      43.202  41.632  27.816  1.00  0.00    -0.237 OA
ATOM    109  O   UNL A   1      43.515  40.621  25.585  1.00  0.00    -0.237 OA
ATOM    110  O   UNL A   1      41.249  40.855  26.518  1.00  0.00    -0.744 OA
ENDBRANCH 106 107
ENDBRANCH  74  99
ENDBRANCH  48  49
ENDBRANCH  40  43
ENDBRANCH  38  39
ENDBRANCH  37  38
ENDBRANCH  36  37
ENDBRANCH   1  36
TORSDOF 21
ENDMDL
