MODEL 1
REMARK VINA RESULT:      -8.2      0.000      0.000
REMARK SMILES CCCCCCCNC(=O)Oc1cccc(-c2ccc([C@@H](C)C(=O)NCCCCCCNC(=O)c3ccc(-c4c5nc(c(-c6c(F)cc(S(=O)(=O)[O-])cc6F)c6ccc([nH]6)c(-c6c(F)cc(S(=O)(=O)[O-])cc6F)c6nc(c(-c7c(F)cc(S(=O)(=O)[O-])cc7F)c7ccc4[nH]7)C=C6)C=C5)cc3)cc2F)c1
REMARK SMILES IDX 23 1 24 2 25 3 21 5 22 6 20 7 17 8 18 9 102 10 19 11 101 12
REMARK SMILES IDX 103 13 16 14 12 15 13 16 104 17 14 18 15 19 11 20 9 21 8 22
REMARK SMILES IDX 10 24 7 25 6 26 5 27 4 28 3 29 2 30 1 31 26 32 27 33 28 34
REMARK SMILES IDX 29 35 30 36 31 37 32 38 33 39 34 41 35 42 36 43 100 44 37 45
REMARK SMILES IDX 99 46 38 47 39 48 40 49 93 50 41 51 98 52 92 53 94 54 42 55
REMARK SMILES IDX 97 56 91 57 90 58 43 60 77 61 56 62 76 63 57 64 60 65 75 66
REMARK SMILES IDX 95 67 58 68 59 69 74 71 96 72 61 73 44 74 45 75 54 76 46 77
REMARK SMILES IDX 47 78 53 79 55 80 48 81 49 82 50 83 51 84 52 85 78 86 79 87
REMARK SMILES IDX 88 88 80 89 81 90 87 91 89 92 82 93 83 94 84 95 85 96 86 97
REMARK SMILES IDX 62 98 63 99 72 100 64 101 65 102 71 103 73 104 66 105 67 106
REMARK SMILES IDX 68 107 69 108 70 109
REMARK H PARENT 25 4 8 23 32 40 94 59 60 70
REMARK Flexibility Score: inf
ROOT
ATOM      1  C   UNL A   1      45.457  20.606  25.254  1.00  0.00     0.227 C 
ATOM      2  O   UNL A   1      46.693  20.659  25.292  1.00  0.00    -0.274 OA
ATOM      3  N   UNL A   1      44.899  19.377  25.427  1.00  0.00    -0.356 N 
ATOM      4  H   UNL A   1      45.545  18.666  25.637  1.00  0.00     0.163 HD
ENDROOT
BRANCH   1   5
ATOM      5  C   UNL A   1      44.642  21.892  25.046  1.00  0.00     0.105 C 
ATOM      6  C   UNL A   1      44.559  22.343  23.587  1.00  0.00     0.023 C 
BRANCH   5   7
ATOM      7  C   UNL A   1      44.949  22.982  26.059  1.00  0.00    -0.033 A 
ATOM      8  C   UNL A   1      45.606  24.911  28.072  1.00  0.00     0.018 A 
ATOM      9  C   UNL A   1      46.112  25.003  26.766  1.00  0.00     0.012 A 
ATOM     10  C   UNL A   1      44.732  23.845  28.329  1.00  0.00     0.131 A 
ATOM     11  C   UNL A   1      45.760  24.084  25.773  1.00  0.00     0.005 A 
ATOM     12  C   UNL A   1      44.424  22.888  27.356  1.00  0.00     0.044 A 
ATOM     13  F   UNL A   1      44.150  23.712  29.532  1.00  0.00    -0.206 F 
BRANCH   8  14
ATOM     14  C   UNL A   1      46.008  25.895  29.100  1.00  0.00    -0.012 A 
ATOM     15  C   UNL A   1      46.134  28.174  29.931  1.00  0.00     0.133 A 
ATOM     16  C   UNL A   1      46.715  27.750  31.121  1.00  0.00     0.047 A 
ATOM     17  C   UNL A   1      45.787  27.271  28.926  1.00  0.00     0.056 A 
ATOM     18  C   UNL A   1      46.944  26.395  31.314  1.00  0.00     0.004 A 
ATOM     19  C   UNL A   1      46.603  25.482  30.311  1.00  0.00     0.009 A 
BRANCH  15  20
ATOM     20  O   UNL A   1      46.037  29.559  29.736  1.00  0.00    -0.410 OA
BRANCH  20  21
ATOM     21  C   UNL A   1      45.992  30.045  28.441  1.00  0.00     0.412 C 
ATOM     22  N   UNL A   1      44.834  30.722  28.176  1.00  0.00    -0.321 N 
ATOM     23  H   UNL A   1      44.722  31.068  27.262  1.00  0.00     0.167 HD
ATOM     24  O   UNL A   1      46.856  29.912  27.583  1.00  0.00    -0.224 OA
BRANCH  22  25
ATOM     25  C   UNL A   1      43.757  30.977  29.110  1.00  0.00     0.119 C 
BRANCH  25  26
ATOM     26  C   UNL A   1      43.552  32.474  29.339  1.00  0.00     0.021 C 
BRANCH  26  27
ATOM     27  C   UNL A   1      44.088  32.992  30.678  1.00  0.00     0.002 C 
BRANCH  27  28
ATOM     28  C   UNL A   1      43.544  32.271  31.917  1.00  0.00     0.000 C 
BRANCH  28  29
ATOM     29  C   UNL A   1      42.810  33.167  32.920  1.00  0.00    -0.000 C 
BRANCH  29  30
ATOM     30  C   UNL A   1      42.454  34.564  32.401  1.00  0.00    -0.003 C 
ATOM     31  C   UNL A   1      41.094  34.623  31.723  1.00  0.00     0.004 C 
ENDBRANCH  29  30
ENDBRANCH  28  29
ENDBRANCH  27  28
ENDBRANCH  26  27
ENDBRANCH  25  26
ENDBRANCH  22  25
ENDBRANCH  20  21
ENDBRANCH  15  20
ENDBRANCH   8  14
ENDBRANCH   5   7
ENDBRANCH   1   5
BRANCH   3  32
ATOM     32  C   UNL A   1      43.524  18.929  25.356  1.00  0.00     0.116 C 
BRANCH  32  33
ATOM     33  C   UNL A   1      42.951  18.646  26.747  1.00  0.00     0.021 C 
BRANCH  33  34
ATOM     34  C   UNL A   1      41.596  19.313  27.000  1.00  0.00     0.002 C 
BRANCH  34  35
ATOM     35  C   UNL A   1      41.474  20.746  26.468  1.00  0.00     0.002 C 
BRANCH  35  36
ATOM     36  C   UNL A   1      40.848  21.753  27.439  1.00  0.00     0.021 C 
BRANCH  36  37
ATOM     37  C   UNL A   1      40.383  23.052  26.788  1.00  0.00     0.116 C 
BRANCH  37  38
ATOM     38  N   UNL A   1      41.414  23.616  25.934  1.00  0.00    -0.352 N 
ATOM     39  C   UNL A   1      41.912  24.893  25.890  1.00  0.00     0.251 C 
ATOM     40  H   UNL A   1      41.816  22.988  25.291  1.00  0.00     0.163 HD
ATOM     41  O   UNL A   1      42.577  25.251  24.921  1.00  0.00    -0.269 OA
BRANCH  39  42
ATOM     42  C   UNL A   1      41.653  25.833  27.002  1.00  0.00     0.039 A 
ATOM     43  C   UNL A   1      42.447  26.977  27.119  1.00  0.00     0.014 A 
ATOM     44  C   UNL A   1      40.676  25.557  27.964  1.00  0.00     0.014 A 
ATOM     45  C   UNL A   1      42.246  27.853  28.188  1.00  0.00     0.010 A 
ATOM     46  C   UNL A   1      40.424  26.471  28.983  1.00  0.00     0.010 A 
ATOM     47  C   UNL A   1      41.227  27.613  29.123  1.00  0.00    -0.014 A 
BRANCH  47  48
ATOM     48  C   UNL A   1      41.028  28.512  30.288  1.00  0.00     0.031 A 
ATOM     49  C   UNL A   1      41.899  28.362  31.508  1.00  0.00     0.074 A 
ATOM     50  C   UNL A   1      40.046  29.435  30.264  1.00  0.00     0.049 A 
ATOM     51  N   UNL A   1      41.860  29.018  32.638  1.00  0.00    -0.248 NA
ATOM     52  C   UNL A   1      42.934  27.315  31.461  1.00  0.00     0.031 C 
ATOM     53  C   UNL A   1      39.112  29.647  29.157  1.00  0.00     0.029 A 
ATOM     54  N   UNL A   1      39.670  30.366  31.198  1.00  0.00    -0.354 N 
ATOM     55  C   UNL A   1      42.851  28.457  33.438  1.00  0.00     0.074 A 
ATOM     56  C   UNL A   1      43.431  27.366  32.687  1.00  0.00     0.031 C 
ATOM     57  C   UNL A   1      38.288  30.661  29.466  1.00  0.00     0.029 A 
ATOM     58  C   UNL A   1      38.612  31.149  30.802  1.00  0.00     0.049 A 
ATOM     59  H   UNL A   1      40.116  30.464  32.071  1.00  0.00     0.167 HD
ATOM     60  C   UNL A   1      43.261  28.836  34.672  1.00  0.00     0.037 A 
ATOM     61  C   UNL A   1      37.977  32.149  31.445  1.00  0.00     0.037 A 
ATOM     62  C   UNL A   1      42.697  29.942  35.399  1.00  0.00     0.049 A 
ATOM     63  C   UNL A   1      38.453  32.556  32.814  1.00  0.00     0.074 A 
ATOM     64  C   UNL A   1      43.069  30.440  36.636  1.00  0.00     0.029 A 
ATOM     65  N   UNL A   1      41.642  30.728  34.954  1.00  0.00    -0.354 N 
ATOM     66  N   UNL A   1      39.427  32.050  33.534  1.00  0.00    -0.248 NA
ATOM     67  C   UNL A   1      37.755  33.679  33.454  1.00  0.00     0.031 C 
ATOM     68  C   UNL A   1      42.212  31.496  36.958  1.00  0.00     0.029 A 
ATOM     69  C   UNL A   1      41.342  31.695  35.897  1.00  0.00     0.049 A 
ATOM     70  H   UNL A   1      41.177  30.612  34.094  1.00  0.00     0.167 HD
ATOM     71  C   UNL A   1      39.483  32.816  34.692  1.00  0.00     0.074 A 
ATOM     72  C   UNL A   1      38.449  33.824  34.575  1.00  0.00     0.031 C 
ATOM     73  C   UNL A   1      40.318  32.701  35.756  1.00  0.00     0.037 A 
BRANCH  60  74
ATOM     74  C   UNL A   1      44.375  28.048  35.310  1.00  0.00     0.058 A 
ATOM     75  C   UNL A   1      45.725  28.358  35.076  1.00  0.00     0.135 A 
ATOM     76  C   UNL A   1      44.091  26.987  36.184  1.00  0.00     0.135 A 
ATOM     77  F   UNL A   1      46.056  29.352  34.237  1.00  0.00    -0.206 F 
ATOM     78  C   UNL A   1      46.752  27.623  35.659  1.00  0.00     0.059 A 
ATOM     79  C   UNL A   1      45.103  26.258  36.802  1.00  0.00     0.059 A 
ATOM     80  F   UNL A   1      42.819  26.645  36.444  1.00  0.00    -0.206 F 
ATOM     81  C   UNL A   1      46.432  26.573  36.520  1.00  0.00     0.060 A 
BRANCH  81  82
ATOM     82  S   UNL A   1      47.777  25.630  37.268  1.00  0.00     0.124 S 
ATOM     83  O   UNL A   1      48.470  25.124  36.087  1.00  0.00    -0.237 OA
ATOM     84  O   UNL A   1      48.487  26.651  38.032  1.00  0.00    -0.237 OA
ATOM     85  O   UNL A   1      47.084  24.624  38.067  1.00  0.00    -0.744 OA
ENDBRANCH  81  82
ENDBRANCH  60  74
BRANCH  61  86
ATOM     86  C   UNL A   1      36.846  32.856  30.788  1.00  0.00     0.058 A 
ATOM     87  C   UNL A   1      37.070  33.965  29.959  1.00  0.00     0.135 A 
ATOM     88  C   UNL A   1      35.519  32.431  30.964  1.00  0.00     0.135 A 
ATOM     89  F   UNL A   1      38.320  34.412  29.761  1.00  0.00    -0.206 F 
ATOM     90  C   UNL A   1      36.022  34.642  29.345  1.00  0.00     0.059 A 
ATOM     91  C   UNL A   1      34.455  33.076  30.340  1.00  0.00     0.059 A 
ATOM     92  F   UNL A   1      35.251  31.364  31.732  1.00  0.00    -0.206 F 
ATOM     93  C   UNL A   1      34.716  34.188  29.541  1.00  0.00     0.060 A 
BRANCH  93  94
ATOM     94  S   UNL A   1      33.366  35.048  28.705  1.00  0.00     0.124 S 
ATOM     95  O   UNL A   1      34.095  35.941  27.813  1.00  0.00    -0.237 OA
ATOM     96  O   UNL A   1      32.652  33.947  28.064  1.00  0.00    -0.237 OA
ATOM     97  O   UNL A   1      32.651  35.694  29.802  1.00  0.00    -0.744 OA
ENDBRANCH  93  94
ENDBRANCH  61  86
BRANCH  73  98
ATOM     98  C   UNL A   1      40.186  33.720  36.854  1.00  0.00     0.058 A 
ATOM     99  C   UNL A   1      40.871  34.944  36.819  1.00  0.00     0.135 A 
ATOM    100  C   UNL A   1      39.320  33.484  37.935  1.00  0.00     0.135 A 
ATOM    101  F   UNL A   1      41.714  35.218  35.811  1.00  0.00    -0.206 F 
ATOM    102  C   UNL A   1      40.726  35.887  37.832  1.00  0.00     0.059 A 
ATOM    103  C   UNL A   1      39.136  34.424  38.943  1.00  0.00     0.059 A 
ATOM    104  F   UNL A   1      38.630  32.335  38.010  1.00  0.00    -0.206 F 
ATOM    105  C   UNL A   1      39.855  35.617  38.891  1.00  0.00     0.060 A 
BRANCH 105 106
ATOM    106  S   UNL A   1      39.656  36.859  40.186  1.00  0.00     0.124 S 
ATOM    107  O   UNL A   1      39.595  38.090  39.405  1.00  0.00    -0.237 OA
ATOM    108  O   UNL A   1      38.408  36.449  40.822  1.00  0.00    -0.237 OA
ATOM    109  O   UNL A   1      40.853  36.693  41.004  1.00  0.00    -0.744 OA
ENDBRANCH 105 106
ENDBRANCH  73  98
ENDBRANCH  47  48
ENDBRANCH  39  42
ENDBRANCH  37  38
ENDBRANCH  36  37
ENDBRANCH  35  36
ENDBRANCH  34  35
ENDBRANCH  33  34
ENDBRANCH  32  33
ENDBRANCH   3  32
TORSDOF 26
ENDMDL
MODEL 2
REMARK VINA RESULT:      -7.6      0.890      7.801
REMARK SMILES CCCCCCCNC(=O)Oc1cccc(-c2ccc([C@@H](C)C(=O)NCCCCCCNC(=O)c3ccc(-c4c5nc(c(-c6c(F)cc(S(=O)(=O)[O-])cc6F)c6ccc([nH]6)c(-c6c(F)cc(S(=O)(=O)[O-])cc6F)c6nc(c(-c7c(F)cc(S(=O)(=O)[O-])cc7F)c7ccc4[nH]7)C=C6)C=C5)cc3)cc2F)c1
REMARK SMILES IDX 23 1 24 2 25 3 21 5 22 6 20 7 17 8 18 9 102 10 19 11 101 12
REMARK SMILES IDX 103 13 16 14 12 15 13 16 104 17 14 18 15 19 11 20 9 21 8 22
REMARK SMILES IDX 10 24 7 25 6 26 5 27 4 28 3 29 2 30 1 31 26 32 27 33 28 34
REMARK SMILES IDX 29 35 30 36 31 37 32 38 33 39 34 41 35 42 36 43 100 44 37 45
REMARK SMILES IDX 99 46 38 47 39 48 40 49 93 50 41 51 98 52 92 53 94 54 42 55
REMARK SMILES IDX 97 56 91 57 90 58 43 60 77 61 56 62 76 63 57 64 60 65 75 66
REMARK SMILES IDX 95 67 58 68 59 69 74 71 96 72 61 73 44 74 45 75 54 76 46 77
REMARK SMILES IDX 47 78 53 79 55 80 48 81 49 82 50 83 51 84 52 85 78 86 79 87
REMARK SMILES IDX 88 88 80 89 81 90 87 91 89 92 82 93 83 94 84 95 85 96 86 97
REMARK SMILES IDX 62 98 63 99 72 100 64 101 65 102 71 103 73 104 66 105 67 106
REMARK SMILES IDX 68 107 69 108 70 109
REMARK H PARENT 25 4 8 23 32 40 94 59 60 70
REMARK Flexibility Score: inf
ROOT
ATOM      1  C   UNL A   1      45.453  20.824  25.126  1.00  0.00     0.227 C 
ATOM      2  O   UNL A   1      46.687  20.916  25.159  1.00  0.00    -0.274 OA
ATOM      3  N   UNL A   1      44.936  19.575  25.270  1.00  0.00    -0.356 N 
ATOM      4  H   UNL A   1      45.605  18.879  25.459  1.00  0.00     0.163 HD
ENDROOT
BRANCH   1   5
ATOM      5  C   UNL A   1      44.597  22.089  24.954  1.00  0.00     0.105 C 
ATOM      6  C   UNL A   1      44.483  22.568  23.506  1.00  0.00     0.023 C 
BRANCH   5   7
ATOM      7  C   UNL A   1      44.882  23.167  25.987  1.00  0.00    -0.033 A 
ATOM      8  C   UNL A   1      45.480  25.068  28.044  1.00  0.00     0.018 A 
ATOM      9  C   UNL A   1      46.109  25.113  26.790  1.00  0.00     0.012 A 
ATOM     10  C   UNL A   1      44.516  24.065  28.223  1.00  0.00     0.131 A 
ATOM     11  C   UNL A   1      45.788  24.208  25.773  1.00  0.00     0.005 A 
ATOM     12  C   UNL A   1      44.235  23.121  27.230  1.00  0.00     0.044 A 
ATOM     13  F   UNL A   1      43.818  23.984  29.368  1.00  0.00    -0.206 F 
BRANCH   8  14
ATOM     14  C   UNL A   1      45.851  26.033  29.100  1.00  0.00    -0.012 A 
ATOM     15  C   UNL A   1      45.987  28.302  29.959  1.00  0.00     0.133 A 
ATOM     16  C   UNL A   1      46.496  27.854  31.173  1.00  0.00     0.047 A 
ATOM     17  C   UNL A   1      45.672  27.415  28.928  1.00  0.00     0.056 A 
ATOM     18  C   UNL A   1      46.682  26.492  31.365  1.00  0.00     0.004 A 
ATOM     19  C   UNL A   1      46.372  25.596  30.337  1.00  0.00     0.009 A 
BRANCH  15  20
ATOM     20  O   UNL A   1      45.933  29.689  29.773  1.00  0.00    -0.410 OA
BRANCH  20  21
ATOM     21  C   UNL A   1      47.116  30.379  29.572  1.00  0.00     0.412 C 
ATOM     22  N   UNL A   1      47.148  31.571  30.242  1.00  0.00    -0.321 N 
ATOM     23  H   UNL A   1      47.949  32.128  30.119  1.00  0.00     0.167 HD
ATOM     24  O   UNL A   1      48.061  30.018  28.881  1.00  0.00    -0.224 OA
BRANCH  22  25
ATOM     25  C   UNL A   1      46.116  32.091  31.115  1.00  0.00     0.119 C 
BRANCH  25  26
ATOM     26  C   UNL A   1      46.428  33.516  31.572  1.00  0.00     0.021 C 
BRANCH  26  27
ATOM     27  C   UNL A   1      45.508  34.045  32.678  1.00  0.00     0.002 C 
BRANCH  27  28
ATOM     28  C   UNL A   1      44.959  32.979  33.631  1.00  0.00     0.000 C 
BRANCH  28  29
ATOM     29  C   UNL A   1      43.802  33.439  34.524  1.00  0.00    -0.000 C 
BRANCH  29  30
ATOM     30  C   UNL A   1      42.505  33.776  33.781  1.00  0.00    -0.003 C 
ATOM     31  C   UNL A   1      42.388  33.083  32.433  1.00  0.00     0.004 C 
ENDBRANCH  29  30
ENDBRANCH  28  29
ENDBRANCH  27  28
ENDBRANCH  26  27
ENDBRANCH  25  26
ENDBRANCH  22  25
ENDBRANCH  20  21
ENDBRANCH  15  20
ENDBRANCH   8  14
ENDBRANCH   5   7
ENDBRANCH   1   5
BRANCH   3  32
ATOM     32  C   UNL A   1      43.575  19.085  25.194  1.00  0.00     0.116 C 
BRANCH  32  33
ATOM     33  C   UNL A   1      42.989  18.831  26.585  1.00  0.00     0.021 C 
BRANCH  33  34
ATOM     34  C   UNL A   1      41.593  19.429  26.781  1.00  0.00     0.002 C 
BRANCH  34  35
ATOM     35  C   UNL A   1      41.438  20.876  26.299  1.00  0.00     0.002 C 
BRANCH  35  36
ATOM     36  C   UNL A   1      41.055  21.889  27.384  1.00  0.00     0.021 C 
BRANCH  36  37
ATOM     37  C   UNL A   1      40.453  23.185  26.853  1.00  0.00     0.116 C 
BRANCH  37  38
ATOM     38  N   UNL A   1      41.363  23.859  25.941  1.00  0.00    -0.352 N 
ATOM     39  C   UNL A   1      41.754  25.173  25.906  1.00  0.00     0.251 C 
ATOM     40  H   UNL A   1      41.759  23.286  25.245  1.00  0.00     0.163 HD
ATOM     41  O   UNL A   1      42.307  25.614  24.902  1.00  0.00    -0.269 OA
BRANCH  39  42
ATOM     42  C   UNL A   1      41.514  26.053  27.070  1.00  0.00     0.039 A 
ATOM     43  C   UNL A   1      42.230  27.249  27.173  1.00  0.00     0.014 A 
ATOM     44  C   UNL A   1      40.636  25.673  28.090  1.00  0.00     0.014 A 
ATOM     45  C   UNL A   1      42.050  28.071  28.287  1.00  0.00     0.010 A 
ATOM     46  C   UNL A   1      40.398  26.531  29.160  1.00  0.00     0.010 A 
ATOM     47  C   UNL A   1      41.125  27.724  29.285  1.00  0.00    -0.014 A 
BRANCH  47  48
ATOM     48  C   UNL A   1      40.951  28.566  30.495  1.00  0.00     0.031 A 
ATOM     49  C   UNL A   1      39.876  29.623  30.525  1.00  0.00     0.074 A 
ATOM     50  C   UNL A   1      41.777  28.409  31.548  1.00  0.00     0.049 A 
ATOM     51  N   UNL A   1      39.589  30.484  31.465  1.00  0.00    -0.248 NA
ATOM     52  C   UNL A   1      39.031  29.745  29.324  1.00  0.00     0.031 C 
ATOM     53  C   UNL A   1      42.880  27.450  31.621  1.00  0.00     0.029 A 
ATOM     54  N   UNL A   1      41.817  29.053  32.758  1.00  0.00    -0.354 N 
ATOM     55  C   UNL A   1      38.543  31.255  30.968  1.00  0.00     0.074 A 
ATOM     56  C   UNL A   1      38.290  30.802  29.618  1.00  0.00     0.031 C 
ATOM     57  C   UNL A   1      43.472  27.550  32.822  1.00  0.00     0.029 A 
ATOM     58  C   UNL A   1      42.814  28.601  33.591  1.00  0.00     0.049 A 
ATOM     59  H   UNL A   1      41.192  29.772  33.008  1.00  0.00     0.167 HD
ATOM     60  C   UNL A   1      37.839  32.231  31.588  1.00  0.00     0.037 A 
ATOM     61  C   UNL A   1      43.156  28.991  34.835  1.00  0.00     0.037 A 
ATOM     62  C   UNL A   1      38.080  32.656  32.942  1.00  0.00     0.049 A 
ATOM     63  C   UNL A   1      42.355  30.074  35.507  1.00  0.00     0.074 A 
ATOM     64  C   UNL A   1      37.394  33.604  33.683  1.00  0.00     0.029 A 
ATOM     65  N   UNL A   1      39.082  32.157  33.762  1.00  0.00    -0.354 N 
ATOM     66  N   UNL A   1      41.334  30.756  35.042  1.00  0.00    -0.248 NA
ATOM     67  C   UNL A   1      42.741  30.433  36.878  1.00  0.00     0.031 C 
ATOM     68  C   UNL A   1      38.009  33.708  34.934  1.00  0.00     0.029 A 
ATOM     69  C   UNL A   1      39.042  32.786  34.995  1.00  0.00     0.049 A 
ATOM     70  H   UNL A   1      39.726  31.459  33.505  1.00  0.00     0.167 HD
ATOM     71  C   UNL A   1      40.934  31.595  36.075  1.00  0.00     0.074 A 
ATOM     72  C   UNL A   1      41.818  31.331  37.192  1.00  0.00     0.031 C 
ATOM     73  C   UNL A   1      39.922  32.499  36.101  1.00  0.00     0.037 A 
BRANCH  60  74
ATOM     74  C   UNL A   1      36.739  32.902  30.808  1.00  0.00     0.058 A 
ATOM     75  C   UNL A   1      37.009  33.921  29.879  1.00  0.00     0.135 A 
ATOM     76  C   UNL A   1      35.402  32.506  30.972  1.00  0.00     0.135 A 
ATOM     77  F   UNL A   1      38.267  34.351  29.692  1.00  0.00    -0.206 F 
ATOM     78  C   UNL A   1      35.991  34.546  29.167  1.00  0.00     0.059 A 
ATOM     79  C   UNL A   1      34.370  33.097  30.246  1.00  0.00     0.059 A 
ATOM     80  F   UNL A   1      35.084  31.539  31.846  1.00  0.00    -0.206 F 
ATOM     81  C   UNL A   1      34.673  34.128  29.358  1.00  0.00     0.060 A 
BRANCH  81  82
ATOM     82  S   UNL A   1      33.364  34.949  28.425  1.00  0.00     0.124 S 
ATOM     83  O   UNL A   1      34.128  35.910  27.635  1.00  0.00    -0.237 OA
ATOM     84  O   UNL A   1      32.772  33.843  27.679  1.00  0.00    -0.237 OA
ATOM     85  O   UNL A   1      32.516  35.525  29.464  1.00  0.00    -0.744 OA
ENDBRANCH  81  82
ENDBRANCH  60  74
BRANCH  61  86
ATOM     86  C   UNL A   1      44.287  28.329  35.537  1.00  0.00     0.058 A 
ATOM     87  C   UNL A   1      44.072  27.224  36.373  1.00  0.00     0.135 A 
ATOM     88  C   UNL A   1      45.607  28.780  35.378  1.00  0.00     0.135 A 
ATOM     89  F   UNL A   1      42.828  26.757  36.560  1.00  0.00    -0.206 F 
ATOM     90  C   UNL A   1      45.120  26.600  37.043  1.00  0.00     0.059 A 
ATOM     91  C   UNL A   1      46.675  28.157  36.018  1.00  0.00     0.059 A 
ATOM     92  F   UNL A   1      45.871  29.822  34.574  1.00  0.00    -0.206 F 
ATOM     93  C   UNL A   1      46.420  27.074  36.857  1.00  0.00     0.060 A 
BRANCH  93  94
ATOM     94  S   UNL A   1      47.776  26.232  37.699  1.00  0.00     0.124 S 
ATOM     95  O   UNL A   1      48.193  27.240  38.667  1.00  0.00    -0.237 OA
ATOM     96  O   UNL A   1      47.112  25.054  38.250  1.00  0.00    -0.237 OA
ATOM     97  O   UNL A   1      48.723  25.961  36.621  1.00  0.00    -0.744 OA
ENDBRANCH  93  94
ENDBRANCH  61  86
BRANCH  73  98
ATOM     98  C   UNL A   1      39.680  33.232  37.392  1.00  0.00     0.058 A 
ATOM     99  C   UNL A   1      40.402  34.382  37.741  1.00  0.00     0.135 A 
ATOM    100  C   UNL A   1      38.672  32.799  38.270  1.00  0.00     0.135 A 
ATOM    101  F   UNL A   1      41.379  34.837  36.939  1.00  0.00    -0.206 F 
ATOM    102  C   UNL A   1      40.157  35.062  38.930  1.00  0.00     0.059 A 
ATOM    103  C   UNL A   1      38.388  33.479  39.449  1.00  0.00     0.059 A 
ATOM    104  F   UNL A   1      37.943  31.711  37.978  1.00  0.00    -0.206 F 
ATOM    105  C   UNL A   1      39.146  34.602  39.778  1.00  0.00     0.060 A 
BRANCH 105 106
ATOM    106  S   UNL A   1      38.819  35.507  41.305  1.00  0.00     0.124 S 
ATOM    107  O   UNL A   1      37.459  35.077  41.615  1.00  0.00    -0.237 OA
ATOM    108  O   UNL A   1      39.861  35.006  42.196  1.00  0.00    -0.237 OA
ATOM    109  O   UNL A   1      38.960  36.905  40.909  1.00  0.00    -0.744 OA
ENDBRANCH 105 106
ENDBRANCH  73  98
ENDBRANCH  47  48
ENDBRANCH  39  42
ENDBRANCH  37  38
ENDBRANCH  36  37
ENDBRANCH  35  36
ENDBRANCH  34  35
ENDBRANCH  33  34
ENDBRANCH  32  33
ENDBRANCH   3  32
TORSDOF 26
ENDMDL
MODEL 3
REMARK VINA RESULT:      -7.2      5.934     11.114
REMARK SMILES CCCCCCCNC(=O)Oc1cccc(-c2ccc([C@@H](C)C(=O)NCCCCCCNC(=O)c3ccc(-c4c5nc(c(-c6c(F)cc(S(=O)(=O)[O-])cc6F)c6ccc([nH]6)c(-c6c(F)cc(S(=O)(=O)[O-])cc6F)c6nc(c(-c7c(F)cc(S(=O)(=O)[O-])cc7F)c7ccc4[nH]7)C=C6)C=C5)cc3)cc2F)c1
REMARK SMILES IDX 23 1 24 2 25 3 21 5 22 6 20 7 17 8 18 9 102 10 19 11 101 12
REMARK SMILES IDX 103 13 16 14 12 15 13 16 104 17 14 18 15 19 11 20 9 21 8 22
REMARK SMILES IDX 10 24 7 25 6 26 5 27 4 28 3 29 2 30 1 31 26 32 27 33 28 34
REMARK SMILES IDX 29 35 30 36 31 37 32 38 33 39 34 41 35 42 36 43 100 44 37 45
REMARK SMILES IDX 99 46 38 47 39 48 40 49 93 50 41 51 98 52 92 53 94 54 42 55
REMARK SMILES IDX 97 56 91 57 90 58 43 60 77 61 56 62 76 63 57 64 60 65 75 66
REMARK SMILES IDX 95 67 58 68 59 69 74 71 96 72 61 73 44 74 45 75 54 76 46 77
REMARK SMILES IDX 47 78 53 79 55 80 48 81 49 82 50 83 51 84 52 85 78 86 79 87
REMARK SMILES IDX 88 88 80 89 81 90 87 91 89 92 82 93 83 94 84 95 85 96 86 97
REMARK SMILES IDX 62 98 63 99 72 100 64 101 65 102 71 103 73 104 66 105 67 106
REMARK SMILES IDX 68 107 69 108 70 109
REMARK H PARENT 25 4 8 23 32 40 94 59 60 70
REMARK Flexibility Score: inf
ROOT
ATOM      1  C   UNL A   1      36.740  33.373  29.864  1.00  0.00     0.227 C 
ATOM      2  O   UNL A   1      37.672  33.907  29.249  1.00  0.00    -0.274 OA
ATOM      3  N   UNL A   1      37.068  32.731  31.018  1.00  0.00    -0.356 N 
ATOM      4  H   UNL A   1      38.011  32.824  31.279  1.00  0.00     0.163 HD
ENDROOT
BRANCH   1   5
ATOM      5  C   UNL A   1      35.306  33.479  29.323  1.00  0.00     0.105 C 
ATOM      6  C   UNL A   1      34.292  33.987  30.349  1.00  0.00     0.023 C 
BRANCH   5   7
ATOM      7  C   UNL A   1      34.870  32.277  28.501  1.00  0.00    -0.033 A 
ATOM      8  C   UNL A   1      34.061  29.912  27.103  1.00  0.00     0.018 A 
ATOM      9  C   UNL A   1      33.218  31.027  27.219  1.00  0.00     0.012 A 
ATOM     10  C   UNL A   1      35.336  30.031  27.677  1.00  0.00     0.131 A 
ATOM     11  C   UNL A   1      33.628  32.196  27.868  1.00  0.00     0.005 A 
ATOM     12  C   UNL A   1      35.729  31.175  28.379  1.00  0.00     0.044 A 
ATOM     13  F   UNL A   1      36.234  29.038  27.562  1.00  0.00    -0.206 F 
BRANCH   8  14
ATOM     14  C   UNL A   1      33.592  28.688  26.420  1.00  0.00    -0.012 A 
ATOM     15  C   UNL A   1      32.077  26.796  26.242  1.00  0.00     0.133 A 
ATOM     16  C   UNL A   1      32.659  26.392  25.046  1.00  0.00     0.047 A 
ATOM     17  C   UNL A   1      32.532  27.922  26.931  1.00  0.00     0.056 A 
ATOM     18  C   UNL A   1      33.710  27.133  24.523  1.00  0.00     0.004 A 
ATOM     19  C   UNL A   1      34.174  28.261  25.207  1.00  0.00     0.009 A 
BRANCH  15  20
ATOM     20  O   UNL A   1      31.105  25.948  26.788  1.00  0.00    -0.410 OA
BRANCH  20  21
ATOM     21  C   UNL A   1      30.164  25.387  25.942  1.00  0.00     0.412 C 
ATOM     22  N   UNL A   1      30.198  24.019  25.954  1.00  0.00    -0.321 N 
ATOM     23  H   UNL A   1      29.575  23.554  25.351  1.00  0.00     0.167 HD
ATOM     24  O   UNL A   1      29.368  25.992  25.235  1.00  0.00    -0.224 OA
BRANCH  22  25
ATOM     25  C   UNL A   1      31.063  23.190  26.768  1.00  0.00     0.119 C 
BRANCH  25  26
ATOM     26  C   UNL A   1      32.398  22.916  26.075  1.00  0.00     0.021 C 
BRANCH  26  27
ATOM     27  C   UNL A   1      32.614  21.454  25.667  1.00  0.00     0.002 C 
BRANCH  27  28
ATOM     28  C   UNL A   1      34.061  21.081  25.332  1.00  0.00     0.000 C 
BRANCH  28  29
ATOM     29  C   UNL A   1      34.704  21.909  24.215  1.00  0.00    -0.000 C 
BRANCH  29  30
ATOM     30  C   UNL A   1      36.205  22.168  24.381  1.00  0.00    -0.003 C 
ATOM     31  C   UNL A   1      36.527  23.602  24.770  1.00  0.00     0.004 C 
ENDBRANCH  29  30
ENDBRANCH  28  29
ENDBRANCH  27  28
ENDBRANCH  26  27
ENDBRANCH  25  26
ENDBRANCH  22  25
ENDBRANCH  20  21
ENDBRANCH  15  20
ENDBRANCH   8  14
ENDBRANCH   5   7
ENDBRANCH   1   5
BRANCH   3  32
ATOM     32  C   UNL A   1      36.275  31.936  31.932  1.00  0.00     0.116 C 
BRANCH  32  33
ATOM     33  C   UNL A   1      36.499  30.437  31.715  1.00  0.00     0.021 C 
BRANCH  33  34
ATOM     34  C   UNL A   1      37.280  29.764  32.848  1.00  0.00     0.002 C 
BRANCH  34  35
ATOM     35  C   UNL A   1      37.922  28.421  32.478  1.00  0.00     0.002 C 
BRANCH  35  36
ATOM     36  C   UNL A   1      38.279  28.254  30.998  1.00  0.00     0.021 C 
BRANCH  36  37
ATOM     37  C   UNL A   1      39.697  27.753  30.743  1.00  0.00     0.116 C 
BRANCH  37  38
ATOM     38  N   UNL A   1      40.089  27.951  29.358  1.00  0.00    -0.352 N 
ATOM     39  C   UNL A   1      40.536  29.084  28.728  1.00  0.00     0.251 C 
ATOM     40  H   UNL A   1      40.025  27.152  28.786  1.00  0.00     0.163 HD
ATOM     41  O   UNL A   1      40.552  29.128  27.500  1.00  0.00    -0.269 OA
BRANCH  39  42
ATOM     42  C   UNL A   1      41.000  30.244  29.519  1.00  0.00     0.039 A 
ATOM     43  C   UNL A   1      40.077  31.227  29.883  1.00  0.00     0.014 A 
ATOM     44  C   UNL A   1      42.352  30.396  29.846  1.00  0.00     0.014 A 
ATOM     45  C   UNL A   1      40.505  32.351  30.592  1.00  0.00     0.010 A 
ATOM     46  C   UNL A   1      42.763  31.477  30.621  1.00  0.00     0.010 A 
ATOM     47  C   UNL A   1      41.850  32.481  30.975  1.00  0.00    -0.014 A 
BRANCH  47  48
ATOM     48  C   UNL A   1      42.329  33.689  31.693  1.00  0.00     0.031 A 
ATOM     49  C   UNL A   1      42.193  33.773  33.192  1.00  0.00     0.074 A 
ATOM     50  C   UNL A   1      42.851  34.720  31.000  1.00  0.00     0.049 A 
ATOM     51  N   UNL A   1      42.511  34.752  33.998  1.00  0.00    -0.248 NA
ATOM     52  C   UNL A   1      41.592  32.612  33.871  1.00  0.00     0.031 C 
ATOM     53  C   UNL A   1      42.996  34.772  29.545  1.00  0.00     0.029 A 
ATOM     54  N   UNL A   1      43.355  35.922  31.427  1.00  0.00    -0.354 N 
ATOM     55  C   UNL A   1      42.139  34.333  35.271  1.00  0.00     0.074 A 
ATOM     56  C   UNL A   1      41.513  33.038  35.122  1.00  0.00     0.031 C 
ATOM     57  C   UNL A   1      43.576  35.934  29.203  1.00  0.00     0.029 A 
ATOM     58  C   UNL A   1      43.813  36.722  30.408  1.00  0.00     0.049 A 
ATOM     59  H   UNL A   1      43.387  36.187  32.375  1.00  0.00     0.167 HD
ATOM     60  C   UNL A   1      42.329  34.955  36.459  1.00  0.00     0.037 A 
ATOM     61  C   UNL A   1      44.362  37.952  30.442  1.00  0.00     0.037 A 
ATOM     62  C   UNL A   1      42.979  36.232  36.599  1.00  0.00     0.049 A 
ATOM     63  C   UNL A   1      44.568  38.623  31.774  1.00  0.00     0.074 A 
ATOM     64  C   UNL A   1      43.264  36.930  37.760  1.00  0.00     0.029 A 
ATOM     65  N   UNL A   1      43.451  37.001  35.544  1.00  0.00    -0.354 N 
ATOM     66  N   UNL A   1      44.259  38.189  32.974  1.00  0.00    -0.248 NA
ATOM     67  C   UNL A   1      45.210  39.945  31.761  1.00  0.00     0.031 C 
ATOM     68  C   UNL A   1      43.868  38.140  37.404  1.00  0.00     0.029 A 
ATOM     69  C   UNL A   1      44.012  38.171  36.026  1.00  0.00     0.049 A 
ATOM     70  H   UNL A   1      43.395  36.750  34.594  1.00  0.00     0.167 HD
ATOM     71  C   UNL A   1      44.703  39.165  33.859  1.00  0.00     0.074 A 
ATOM     72  C   UNL A   1      45.307  40.209  33.057  1.00  0.00     0.031 C 
ATOM     73  C   UNL A   1      44.623  39.193  35.213  1.00  0.00     0.037 A 
BRANCH  60  74
ATOM     74  C   UNL A   1      41.829  34.262  37.698  1.00  0.00     0.058 A 
ATOM     75  C   UNL A   1      42.639  33.373  38.424  1.00  0.00     0.135 A 
ATOM     76  C   UNL A   1      40.534  34.506  38.181  1.00  0.00     0.135 A 
ATOM     77  F   UNL A   1      43.881  33.089  38.000  1.00  0.00    -0.206 F 
ATOM     78  C   UNL A   1      42.172  32.726  39.563  1.00  0.00     0.059 A 
ATOM     79  C   UNL A   1      40.056  33.894  39.337  1.00  0.00     0.059 A 
ATOM     80  F   UNL A   1      39.714  35.346  37.529  1.00  0.00    -0.206 F 
ATOM     81  C   UNL A   1      40.878  32.991  40.012  1.00  0.00     0.060 A 
BRANCH  81  82
ATOM     82  S   UNL A   1      40.287  32.144  41.492  1.00  0.00     0.124 S 
ATOM     83  O   UNL A   1      41.337  31.151  41.698  1.00  0.00    -0.237 OA
ATOM     84  O   UNL A   1      40.236  33.225  42.471  1.00  0.00    -0.237 OA
ATOM     85  O   UNL A   1      38.991  31.611  41.085  1.00  0.00    -0.744 OA
ENDBRANCH  81  82
ENDBRANCH  60  74
BRANCH  61  86
ATOM     86  C   UNL A   1      44.788  38.613  29.180  1.00  0.00     0.058 A 
ATOM     87  C   UNL A   1      46.091  38.457  28.686  1.00  0.00     0.135 A 
ATOM     88  C   UNL A   1      43.898  39.404  28.436  1.00  0.00     0.135 A 
ATOM     89  F   UNL A   1      46.980  37.713  29.363  1.00  0.00    -0.206 F 
ATOM     90  C   UNL A   1      46.506  39.076  27.511  1.00  0.00     0.059 A 
ATOM     91  C   UNL A   1      44.282  40.013  27.244  1.00  0.00     0.059 A 
ATOM     92  F   UNL A   1      42.634  39.571  28.853  1.00  0.00    -0.206 F 
ATOM     93  C   UNL A   1      45.592  39.852  26.796  1.00  0.00     0.060 A 
BRANCH  93  94
ATOM     94  S   UNL A   1      46.128  40.617  25.251  1.00  0.00     0.124 S 
ATOM     95  O   UNL A   1      46.646  39.467  24.518  1.00  0.00    -0.237 OA
ATOM     96  O   UNL A   1      44.885  41.190  24.744  1.00  0.00    -0.237 OA
ATOM     97  O   UNL A   1      47.126  41.590  25.687  1.00  0.00    -0.744 OA
ENDBRANCH  93  94
ENDBRANCH  61  86
BRANCH  73  98
ATOM     98  C   UNL A   1      45.250  40.364  35.920  1.00  0.00     0.058 A 
ATOM     99  C   UNL A   1      44.565  41.574  36.107  1.00  0.00     0.135 A 
ATOM    100  C   UNL A   1      46.542  40.252  36.460  1.00  0.00     0.135 A 
ATOM    101  F   UNL A   1      43.329  41.735  35.607  1.00  0.00    -0.206 F 
ATOM    102  C   UNL A   1      45.149  42.644  36.778  1.00  0.00     0.059 A 
ATOM    103  C   UNL A   1      47.134  41.297  37.161  1.00  0.00     0.059 A 
ATOM    104  F   UNL A   1      47.237  39.112  36.321  1.00  0.00    -0.206 F 
ATOM    105  C   UNL A   1      46.435  42.495  37.302  1.00  0.00     0.060 A 
BRANCH 105 106
ATOM    106  S   UNL A   1      47.172  43.880  38.195  1.00  0.00     0.124 S 
ATOM    107  O   UNL A   1      46.334  44.991  37.755  1.00  0.00    -0.237 OA
ATOM    108  O   UNL A   1      47.011  43.477  39.588  1.00  0.00    -0.237 OA
ATOM    109  O   UNL A   1      48.549  43.903  37.711  1.00  0.00    -0.744 OA
ENDBRANCH 105 106
ENDBRANCH  73  98
ENDBRANCH  47  48
ENDBRANCH  39  42
ENDBRANCH  37  38
ENDBRANCH  36  37
ENDBRANCH  35  36
ENDBRANCH  34  35
ENDBRANCH  33  34
ENDBRANCH  32  33
ENDBRANCH   3  32
TORSDOF 26
ENDMDL
