MODEL 1
REMARK VINA RESULT:     -12.4      0.000      0.000
REMARK SMILES COc1ccc(OC)c(Nc2c(-c3ccc(C(=O)NCCCCCCNC(=O)c4ccc(-c5c6nc(c(-c7c(F)cc(S(=O)(=O)[O-])cc7F)c7ccc([nH]7)c(-c7c(F)cc(S(=O)(=O)[O-])cc7F)c7nc(c(-c8c(F)cc(S(=O)(=O)[O-])cc8F)c8ccc5[nH]8)C=C7)C=C6)cc4)cc3)nc3cnccn23)c1
REMARK SMILES IDX 22 1 21 2 20 3 19 4 17 5 18 6 16 8 13 9 14 10 96 11 15 12
REMARK SMILES IDX 95 13 12 14 11 15 103 16 97 17 98 18 102 19 99 20 101 21
REMARK SMILES IDX 100 22 10 23 9 25 3 26 4 27 104 28 5 29 6 30 2 31 1 32 7 33
REMARK SMILES IDX 8 34 23 35 24 36 25 37 26 38 27 39 28 41 29 42 30 43 94 44
REMARK SMILES IDX 31 45 93 46 32 47 33 48 34 49 87 50 35 51 92 52 86 53 88 54
REMARK SMILES IDX 36 55 91 56 85 57 84 58 37 60 71 61 50 62 70 63 51 64 54 65
REMARK SMILES IDX 69 66 89 67 52 68 53 69 68 71 90 72 55 73 38 74 39 75 48 76
REMARK SMILES IDX 40 77 41 78 47 79 49 80 42 81 43 82 44 83 45 84 46 85 72 86
REMARK SMILES IDX 73 87 82 88 74 89 75 90 81 91 83 92 76 93 77 94 78 95 79 96
REMARK SMILES IDX 80 97 56 98 57 99 66 100 58 101 59 102 65 103 67 104 60 105
REMARK SMILES IDX 61 106 62 107 63 108 64 109
REMARK H PARENT 19 7 10 24 26 40 88 59 54 70
REMARK Flexibility Score: inf
ROOT
ATOM      1  C   UNL A   1      32.593  29.675  26.659  1.00  0.00     0.002 C 
ENDROOT
BRANCH   1   2
ATOM      2  C   UNL A   1      31.392  28.792  26.301  1.00  0.00     0.021 C 
BRANCH   2   3
ATOM      3  C   UNL A   1      31.751  27.635  25.364  1.00  0.00     0.116 C 
BRANCH   3   4
ATOM      4  N   UNL A   1      31.212  27.883  24.040  1.00  0.00    -0.352 N 
ATOM      5  C   UNL A   1      31.081  27.072  22.943  1.00  0.00     0.251 C 
ATOM      6  O   UNL A   1      30.572  27.547  21.926  1.00  0.00    -0.269 OA
ATOM      7  H   UNL A   1      30.880  28.799  23.905  1.00  0.00     0.163 HD
BRANCH   5   8
ATOM      8  C   UNL A   1      31.470  25.636  22.952  1.00  0.00     0.039 A 
ATOM      9  C   UNL A   1      32.107  22.908  23.145  1.00  0.00     0.004 A 
ATOM     10  C   UNL A   1      30.948  23.398  23.751  1.00  0.00     0.011 A 
ATOM     11  C   UNL A   1      32.923  23.771  22.410  1.00  0.00     0.011 A 
ATOM     12  C   UNL A   1      30.636  24.756  23.659  1.00  0.00     0.014 A 
ATOM     13  C   UNL A   1      32.583  25.120  22.283  1.00  0.00     0.014 A 
BRANCH   9  14
ATOM     14  C   UNL A   1      32.456  21.509  23.221  1.00  0.00     0.114 A 
ATOM     15  C   UNL A   1      33.226  20.943  24.228  1.00  0.00     0.143 A 
ATOM     16  N   UNL A   1      33.110  19.585  24.008  1.00  0.00    -0.283 N 
ATOM     17  N   UNL A   1      32.002  20.567  22.325  1.00  0.00    -0.225 NA
ATOM     18  C   UNL A   1      32.446  19.433  22.814  1.00  0.00     0.157 A 
ATOM     19  C   UNL A   1      33.514  18.464  24.715  1.00  0.00     0.115 A 
ATOM     20  C   UNL A   1      32.299  18.110  22.274  1.00  0.00     0.158 A 
ATOM     21  C   UNL A   1      33.306  17.255  24.163  1.00  0.00     0.129 A 
ATOM     22  N   UNL A   1      32.724  17.054  22.921  1.00  0.00    -0.259 NA
BRANCH  15  23
ATOM     23  N   UNL A   1      33.783  21.485  25.336  1.00  0.00    -0.336 N 
ATOM     24  H   UNL A   1      33.290  21.330  26.173  1.00  0.00     0.168 HD
BRANCH  23  25
ATOM     25  C   UNL A   1      34.979  22.249  25.471  1.00  0.00     0.086 A 
ATOM     26  C   UNL A   1      37.442  22.040  25.550  1.00  0.00     0.121 A 
ATOM     27  C   UNL A   1      37.552  23.419  25.665  1.00  0.00     0.050 A 
ATOM     28  C   UNL A   1      36.172  21.478  25.408  1.00  0.00     0.076 A 
ATOM     29  C   UNL A   1      36.403  24.214  25.709  1.00  0.00     0.052 A 
ATOM     30  C   UNL A   1      35.119  23.640  25.646  1.00  0.00     0.142 A 
BRANCH  26  31
ATOM     31  O   UNL A   1      38.624  21.356  25.624  1.00  0.00    -0.497 OA
ATOM     32  C   UNL A   1      39.627  21.874  26.491  1.00  0.00     0.278 C 
ENDBRANCH  26  31
BRANCH  30  33
ATOM     33  O   UNL A   1      34.129  24.471  26.108  1.00  0.00    -0.495 OA
ATOM     34  C   UNL A   1      34.139  25.798  25.610  1.00  0.00     0.278 C 
ENDBRANCH  30  33
ENDBRANCH  23  25
ENDBRANCH  15  23
ENDBRANCH   9  14
ENDBRANCH   5   8
ENDBRANCH   3   4
ENDBRANCH   2   3
ENDBRANCH   1   2
BRANCH   1  35
ATOM     35  C   UNL A   1      33.632  29.003  27.565  1.00  0.00     0.002 C 
BRANCH  35  36
ATOM     36  C   UNL A   1      35.091  29.299  27.205  1.00  0.00     0.021 C 
BRANCH  36  37
ATOM     37  C   UNL A   1      35.668  30.538  27.883  1.00  0.00     0.116 C 
BRANCH  37  38
ATOM     38  N   UNL A   1      35.534  30.466  29.331  1.00  0.00    -0.352 N 
ATOM     39  C   UNL A   1      36.408  29.958  30.254  1.00  0.00     0.251 C 
ATOM     40  H   UNL A   1      34.699  30.835  29.697  1.00  0.00     0.163 HD
ATOM     41  O   UNL A   1      36.028  29.753  31.409  1.00  0.00    -0.269 OA
BRANCH  39  42
ATOM     42  C   UNL A   1      37.799  29.648  29.866  1.00  0.00     0.039 A 
ATOM     43  C   UNL A   1      38.725  29.317  30.859  1.00  0.00     0.014 A 
ATOM     44  C   UNL A   1      38.194  29.705  28.525  1.00  0.00     0.014 A 
ATOM     45  C   UNL A   1      40.037  28.999  30.501  1.00  0.00     0.010 A 
ATOM     46  C   UNL A   1      39.484  29.324  28.165  1.00  0.00     0.010 A 
ATOM     47  C   UNL A   1      40.421  28.976  29.150  1.00  0.00    -0.014 A 
BRANCH  47  48
ATOM     48  C   UNL A   1      41.801  28.603  28.750  1.00  0.00     0.031 A 
ATOM     49  C   UNL A   1      42.887  29.645  28.725  1.00  0.00     0.074 A 
ATOM     50  C   UNL A   1      42.063  27.339  28.362  1.00  0.00     0.049 A 
ATOM     51  N   UNL A   1      44.134  29.529  28.348  1.00  0.00    -0.248 NA
ATOM     52  C   UNL A   1      42.514  31.002  29.156  1.00  0.00     0.031 C 
ATOM     53  C   UNL A   1      41.084  26.251  28.304  1.00  0.00     0.029 A 
ATOM     54  N   UNL A   1      43.230  26.756  27.937  1.00  0.00    -0.354 N 
ATOM     55  C   UNL A   1      44.693  30.794  28.492  1.00  0.00     0.074 A 
ATOM     56  C   UNL A   1      43.634  31.675  28.934  1.00  0.00     0.031 C 
ATOM     57  C   UNL A   1      41.696  25.130  27.889  1.00  0.00     0.029 A 
ATOM     58  C   UNL A   1      43.100  25.425  27.621  1.00  0.00     0.049 A 
ATOM     59  H   UNL A   1      44.081  27.246  27.866  1.00  0.00     0.167 HD
ATOM     60  C   UNL A   1      45.977  31.180  28.300  1.00  0.00     0.037 A 
ATOM     61  C   UNL A   1      44.009  24.543  27.160  1.00  0.00     0.037 A 
ATOM     62  C   UNL A   1      47.030  30.294  27.878  1.00  0.00     0.049 A 
ATOM     63  C   UNL A   1      45.427  24.999  26.947  1.00  0.00     0.074 A 
ATOM     64  C   UNL A   1      48.372  30.578  27.687  1.00  0.00     0.029 A 
ATOM     65  N   UNL A   1      46.862  28.948  27.586  1.00  0.00    -0.354 N 
ATOM     66  N   UNL A   1      45.947  26.189  27.134  1.00  0.00    -0.248 NA
ATOM     67  C   UNL A   1      46.383  23.991  26.467  1.00  0.00     0.031 C 
ATOM     68  C   UNL A   1      49.008  29.412  27.248  1.00  0.00     0.029 A 
ATOM     69  C   UNL A   1      48.072  28.391  27.207  1.00  0.00     0.049 A 
ATOM     70  H   UNL A   1      46.009  28.461  27.641  1.00  0.00     0.167 HD
ATOM     71  C   UNL A   1      47.298  26.065  26.824  1.00  0.00     0.074 A 
ATOM     72  C   UNL A   1      47.514  24.683  26.448  1.00  0.00     0.031 C 
ATOM     73  C   UNL A   1      48.270  27.009  26.847  1.00  0.00     0.037 A 
BRANCH  60  74
ATOM     74  C   UNL A   1      46.315  32.623  28.558  1.00  0.00     0.058 A 
ATOM     75  C   UNL A   1      46.736  33.062  29.824  1.00  0.00     0.135 A 
ATOM     76  C   UNL A   1      46.248  33.574  27.527  1.00  0.00     0.135 A 
ATOM     77  F   UNL A   1      46.802  32.199  30.851  1.00  0.00    -0.206 F 
ATOM     78  C   UNL A   1      47.050  34.395  30.067  1.00  0.00     0.059 A 
ATOM     79  C   UNL A   1      46.584  34.909  27.740  1.00  0.00     0.059 A 
ATOM     80  F   UNL A   1      45.852  33.211  26.297  1.00  0.00    -0.206 F 
ATOM     81  C   UNL A   1      46.969  35.312  29.018  1.00  0.00     0.060 A 
BRANCH  81  82
ATOM     82  S   UNL A   1      47.381  37.038  29.348  1.00  0.00     0.124 S 
ATOM     83  O   UNL A   1      46.510  37.332  30.483  1.00  0.00    -0.237 OA
ATOM     84  O   UNL A   1      48.808  36.967  29.650  1.00  0.00    -0.237 OA
ATOM     85  O   UNL A   1      47.039  37.714  28.102  1.00  0.00    -0.744 OA
ENDBRANCH  81  82
ENDBRANCH  60  74
BRANCH  61  86
ATOM     86  C   UNL A   1      43.614  23.135  26.892  1.00  0.00     0.058 A 
ATOM     87  C   UNL A   1      43.279  22.267  27.942  1.00  0.00     0.135 A 
ATOM     88  C   UNL A   1      43.568  22.627  25.584  1.00  0.00     0.135 A 
ATOM     89  F   UNL A   1      43.312  22.707  29.210  1.00  0.00    -0.206 F 
ATOM     90  C   UNL A   1      42.937  20.940  27.711  1.00  0.00     0.059 A 
ATOM     91  C   UNL A   1      43.203  21.309  25.325  1.00  0.00     0.059 A 
ATOM     92  F   UNL A   1      43.860  23.420  24.542  1.00  0.00    -0.206 F 
ATOM     93  C   UNL A   1      42.904  20.468  26.397  1.00  0.00     0.060 A 
BRANCH  93  94
ATOM     94  S   UNL A   1      42.432  18.750  26.104  1.00  0.00     0.124 S 
ATOM     95  O   UNL A   1      42.641  18.160  27.420  1.00  0.00    -0.237 OA
ATOM     96  O   UNL A   1      41.043  18.881  25.674  1.00  0.00    -0.237 OA
ATOM     97  O   UNL A   1      43.363  18.322  25.064  1.00  0.00    -0.744 OA
ENDBRANCH  93  94
ENDBRANCH  61  86
BRANCH  73  98
ATOM     98  C   UNL A   1      49.664  26.572  26.495  1.00  0.00     0.058 A 
ATOM     99  C   UNL A   1      50.116  26.547  25.166  1.00  0.00     0.135 A 
ATOM    100  C   UNL A   1      50.573  26.214  27.504  1.00  0.00     0.135 A 
ATOM    101  F   UNL A   1      49.285  26.873  24.164  1.00  0.00    -0.206 F 
ATOM    102  C   UNL A   1      51.413  26.157  24.849  1.00  0.00     0.059 A 
ATOM    103  C   UNL A   1      51.882  25.847  27.211  1.00  0.00     0.059 A 
ATOM    104  F   UNL A   1      50.193  26.231  28.792  1.00  0.00    -0.206 F 
ATOM    105  C   UNL A   1      52.289  25.809  25.879  1.00  0.00     0.060 A 
BRANCH 105 106
ATOM    106  S   UNL A   1      53.978  25.334  25.455  1.00  0.00     0.124 S 
ATOM    107  O   UNL A   1      54.420  26.484  24.674  1.00  0.00    -0.237 OA
ATOM    108  O   UNL A   1      54.600  25.180  26.767  1.00  0.00    -0.237 OA
ATOM    109  O   UNL A   1      53.803  24.094  24.703  1.00  0.00    -0.744 OA
ENDBRANCH 105 106
ENDBRANCH  73  98
ENDBRANCH  47  48
ENDBRANCH  39  42
ENDBRANCH  37  38
ENDBRANCH  36  37
ENDBRANCH  35  36
ENDBRANCH   1  35
TORSDOF 21
ENDMDL
MODEL 2
REMARK VINA RESULT:     -12.1      0.853      7.771
REMARK SMILES COc1ccc(OC)c(Nc2c(-c3ccc(C(=O)NCCCCCCNC(=O)c4ccc(-c5c6nc(c(-c7c(F)cc(S(=O)(=O)[O-])cc7F)c7ccc([nH]7)c(-c7c(F)cc(S(=O)(=O)[O-])cc7F)c7nc(c(-c8c(F)cc(S(=O)(=O)[O-])cc8F)c8ccc5[nH]8)C=C7)C=C6)cc4)cc3)nc3cnccn23)c1
REMARK SMILES IDX 22 1 21 2 20 3 19 4 17 5 18 6 16 8 13 9 14 10 96 11 15 12
REMARK SMILES IDX 95 13 12 14 11 15 103 16 97 17 98 18 102 19 99 20 101 21
REMARK SMILES IDX 100 22 10 23 9 25 3 26 4 27 104 28 5 29 6 30 2 31 1 32 7 33
REMARK SMILES IDX 8 34 23 35 24 36 25 37 26 38 27 39 28 41 29 42 30 43 94 44
REMARK SMILES IDX 31 45 93 46 32 47 33 48 34 49 87 50 35 51 92 52 86 53 88 54
REMARK SMILES IDX 36 55 91 56 85 57 84 58 37 60 71 61 50 62 70 63 51 64 54 65
REMARK SMILES IDX 69 66 89 67 52 68 53 69 68 71 90 72 55 73 38 74 39 75 48 76
REMARK SMILES IDX 40 77 41 78 47 79 49 80 42 81 43 82 44 83 45 84 46 85 72 86
REMARK SMILES IDX 73 87 82 88 74 89 75 90 81 91 83 92 76 93 77 94 78 95 79 96
REMARK SMILES IDX 80 97 56 98 57 99 66 100 58 101 59 102 65 103 67 104 60 105
REMARK SMILES IDX 61 106 62 107 63 108 64 109
REMARK H PARENT 19 7 10 24 26 40 88 59 54 70
REMARK Flexibility Score: inf
ROOT
ATOM      1  C   UNL A   1      33.207  29.607  24.951  1.00  0.00     0.002 C 
ENDROOT
BRANCH   1   2
ATOM      2  C   UNL A   1      32.213  28.832  24.077  1.00  0.00     0.021 C 
BRANCH   2   3
ATOM      3  C   UNL A   1      32.095  27.354  24.462  1.00  0.00     0.116 C 
BRANCH   3   4
ATOM      4  N   UNL A   1      30.731  27.051  24.856  1.00  0.00    -0.352 N 
ATOM      5  C   UNL A   1      30.045  25.868  24.925  1.00  0.00     0.251 C 
ATOM      6  O   UNL A   1      28.873  25.898  25.306  1.00  0.00    -0.269 OA
ATOM      7  H   UNL A   1      30.205  27.839  25.122  1.00  0.00     0.163 HD
BRANCH   5   8
ATOM      8  C   UNL A   1      30.672  24.554  24.619  1.00  0.00     0.039 A 
ATOM      9  C   UNL A   1      31.895  22.055  24.237  1.00  0.00     0.004 A 
ATOM     10  C   UNL A   1      31.285  22.354  25.457  1.00  0.00     0.011 A 
ATOM     11  C   UNL A   1      31.857  22.986  23.197  1.00  0.00     0.011 A 
ATOM     12  C   UNL A   1      30.682  23.600  25.647  1.00  0.00     0.014 A 
ATOM     13  C   UNL A   1      31.214  24.213  23.376  1.00  0.00     0.014 A 
BRANCH   9  14
ATOM     14  C   UNL A   1      32.524  20.776  24.009  1.00  0.00     0.114 A 
ATOM     15  C   UNL A   1      33.608  20.293  24.728  1.00  0.00     0.143 A 
ATOM     16  N   UNL A   1      33.717  18.979  24.319  1.00  0.00    -0.283 N 
ATOM     17  N   UNL A   1      32.067  19.862  23.086  1.00  0.00    -0.225 NA
ATOM     18  C   UNL A   1      32.833  18.814  23.280  1.00  0.00     0.157 A 
ATOM     19  C   UNL A   1      34.494  17.909  24.734  1.00  0.00     0.115 A 
ATOM     20  C   UNL A   1      32.829  17.563  22.574  1.00  0.00     0.158 A 
ATOM     21  C   UNL A   1      34.407  16.755  24.047  1.00  0.00     0.129 A 
ATOM     22  N   UNL A   1      33.598  16.568  22.937  1.00  0.00    -0.259 NA
BRANCH  15  23
ATOM     23  N   UNL A   1      34.294  20.820  25.770  1.00  0.00    -0.336 N 
ATOM     24  H   UNL A   1      34.041  20.475  26.656  1.00  0.00     0.168 HD
BRANCH  23  25
ATOM     25  C   UNL A   1      35.327  21.802  25.774  1.00  0.00     0.086 A 
ATOM     26  C   UNL A   1      37.785  22.063  25.699  1.00  0.00     0.121 A 
ATOM     27  C   UNL A   1      37.635  23.444  25.718  1.00  0.00     0.050 A 
ATOM     28  C   UNL A   1      36.640  21.264  25.679  1.00  0.00     0.076 A 
ATOM     29  C   UNL A   1      36.360  24.010  25.789  1.00  0.00     0.052 A 
ATOM     30  C   UNL A   1      35.208  23.204  25.851  1.00  0.00     0.142 A 
BRANCH  26  31
ATOM     31  O   UNL A   1      39.078  21.620  25.736  1.00  0.00    -0.497 OA
ATOM     32  C   UNL A   1      39.977  22.294  26.610  1.00  0.00     0.278 C 
ENDBRANCH  26  31
BRANCH  30  33
ATOM     33  O   UNL A   1      34.104  23.867  26.325  1.00  0.00    -0.495 OA
ATOM     34  C   UNL A   1      34.012  25.245  26.002  1.00  0.00     0.278 C 
ENDBRANCH  30  33
ENDBRANCH  23  25
ENDBRANCH  15  23
ENDBRANCH   9  14
ENDBRANCH   5   8
ENDBRANCH   3   4
ENDBRANCH   2   3
ENDBRANCH   1   2
BRANCH   1  35
ATOM     35  C   UNL A   1      33.212  29.197  26.429  1.00  0.00     0.002 C 
BRANCH  35  36
ATOM     36  C   UNL A   1      34.562  28.704  26.957  1.00  0.00     0.021 C 
BRANCH  36  37
ATOM     37  C   UNL A   1      35.493  29.813  27.439  1.00  0.00     0.116 C 
BRANCH  37  38
ATOM     38  N   UNL A   1      35.406  29.994  28.881  1.00  0.00    -0.352 N 
ATOM     39  C   UNL A   1      36.334  29.703  29.844  1.00  0.00     0.251 C 
ATOM     40  H   UNL A   1      34.563  30.380  29.209  1.00  0.00     0.163 HD
ATOM     41  O   UNL A   1      36.000  29.689  31.032  1.00  0.00    -0.269 OA
BRANCH  39  42
ATOM     42  C   UNL A   1      37.727  29.398  29.464  1.00  0.00     0.039 A 
ATOM     43  C   UNL A   1      38.129  29.587  28.139  1.00  0.00     0.014 A 
ATOM     44  C   UNL A   1      38.632  28.905  30.410  1.00  0.00     0.014 A 
ATOM     45  C   UNL A   1      39.451  29.324  27.773  1.00  0.00     0.010 A 
ATOM     46  C   UNL A   1      39.965  28.707  30.058  1.00  0.00     0.010 A 
ATOM     47  C   UNL A   1      40.385  28.906  28.734  1.00  0.00    -0.014 A 
BRANCH  47  48
ATOM     48  C   UNL A   1      41.803  28.659  28.371  1.00  0.00     0.031 A 
ATOM     49  C   UNL A   1      42.251  27.279  27.974  1.00  0.00     0.074 A 
ATOM     50  C   UNL A   1      42.695  29.667  28.445  1.00  0.00     0.049 A 
ATOM     51  N   UNL A   1      43.453  26.852  27.682  1.00  0.00    -0.248 NA
ATOM     52  C   UNL A   1      41.216  26.233  27.924  1.00  0.00     0.031 C 
ATOM     53  C   UNL A   1      42.389  31.039  28.858  1.00  0.00     0.029 A 
ATOM     54  N   UNL A   1      44.042  29.693  28.185  1.00  0.00    -0.354 N 
ATOM     55  C   UNL A   1      43.320  25.493  27.419  1.00  0.00     0.074 A 
ATOM     56  C   UNL A   1      41.931  25.154  27.643  1.00  0.00     0.031 C 
ATOM     57  C   UNL A   1      43.511  31.776  28.801  1.00  0.00     0.029 A 
ATOM     58  C   UNL A   1      44.619  30.925  28.382  1.00  0.00     0.049 A 
ATOM     59  H   UNL A   1      44.547  28.903  27.884  1.00  0.00     0.167 HD
ATOM     60  C   UNL A   1      44.262  24.614  27.002  1.00  0.00     0.037 A 
ATOM     61  C   UNL A   1      45.900  31.321  28.246  1.00  0.00     0.037 A 
ATOM     62  C   UNL A   1      45.638  24.962  26.762  1.00  0.00     0.049 A 
ATOM     63  C   UNL A   1      46.930  30.324  27.790  1.00  0.00     0.074 A 
ATOM     64  C   UNL A   1      46.665  24.154  26.304  1.00  0.00     0.029 A 
ATOM     65  N   UNL A   1      46.180  26.224  26.954  1.00  0.00    -0.354 N 
ATOM     66  N   UNL A   1      46.775  29.054  27.500  1.00  0.00    -0.248 NA
ATOM     67  C   UNL A   1      48.307  30.814  27.634  1.00  0.00     0.031 C 
ATOM     68  C   UNL A   1      47.834  24.919  26.252  1.00  0.00     0.029 A 
ATOM     69  C   UNL A   1      47.528  26.215  26.635  1.00  0.00     0.049 A 
ATOM     70  H   UNL A   1      45.680  27.011  27.270  1.00  0.00     0.167 HD
ATOM     71  C   UNL A   1      48.029  28.601  27.099  1.00  0.00     0.074 A 
ATOM     72  C   UNL A   1      48.925  29.736  27.173  1.00  0.00     0.031 C 
ATOM     73  C   UNL A   1      48.403  27.359  26.705  1.00  0.00     0.037 A 
BRANCH  60  74
ATOM     74  C   UNL A   1      43.831  23.192  26.766  1.00  0.00     0.058 A 
ATOM     75  C   UNL A   1      43.514  22.336  27.834  1.00  0.00     0.135 A 
ATOM     76  C   UNL A   1      43.702  22.685  25.463  1.00  0.00     0.135 A 
ATOM     77  F   UNL A   1      43.634  22.763  29.101  1.00  0.00    -0.206 F 
ATOM     78  C   UNL A   1      43.114  21.021  27.620  1.00  0.00     0.059 A 
ATOM     79  C   UNL A   1      43.277  21.381  25.224  1.00  0.00     0.059 A 
ATOM     80  F   UNL A   1      43.992  23.458  24.405  1.00  0.00    -0.206 F 
ATOM     81  C   UNL A   1      43.000  20.552  26.311  1.00  0.00     0.060 A 
BRANCH  81  82
ATOM     82  S   UNL A   1      42.479  18.843  26.049  1.00  0.00     0.124 S 
ATOM     83  O   UNL A   1      43.390  18.422  24.989  1.00  0.00    -0.237 OA
ATOM     84  O   UNL A   1      42.713  18.241  27.359  1.00  0.00    -0.237 OA
ATOM     85  O   UNL A   1      41.080  18.970  25.661  1.00  0.00    -0.744 OA
ENDBRANCH  81  82
ENDBRANCH  60  74
BRANCH  61  86
ATOM     86  C   UNL A   1      46.278  32.732  28.523  1.00  0.00     0.058 A 
ATOM     87  C   UNL A   1      46.680  33.133  29.806  1.00  0.00     0.135 A 
ATOM     88  C   UNL A   1      46.243  33.709  27.515  1.00  0.00     0.135 A 
ATOM     89  F   UNL A   1      46.726  32.237  30.803  1.00  0.00    -0.206 F 
ATOM     90  C   UNL A   1      47.007  34.455  30.088  1.00  0.00     0.059 A 
ATOM     91  C   UNL A   1      46.591  35.032  27.767  1.00  0.00     0.059 A 
ATOM     92  F   UNL A   1      45.884  33.374  26.265  1.00  0.00    -0.206 F 
ATOM     93  C   UNL A   1      46.958  35.399  29.061  1.00  0.00     0.060 A 
BRANCH  93  94
ATOM     94  S   UNL A   1      47.412  37.107  29.430  1.00  0.00     0.124 S 
ATOM     95  O   UNL A   1      47.409  37.103  30.888  1.00  0.00    -0.237 OA
ATOM     96  O   UNL A   1      48.720  37.223  28.792  1.00  0.00    -0.237 OA
ATOM     97  O   UNL A   1      46.346  37.879  28.798  1.00  0.00    -0.744 OA
ENDBRANCH  93  94
ENDBRANCH  61  86
BRANCH  73  98
ATOM     98  C   UNL A   1      49.834  27.171  26.286  1.00  0.00     0.058 A 
ATOM     99  C   UNL A   1      50.235  27.311  24.948  1.00  0.00     0.135 A 
ATOM    100  C   UNL A   1      50.822  26.888  27.242  1.00  0.00     0.135 A 
ATOM    101  F   UNL A   1      49.328  27.574  23.995  1.00  0.00    -0.206 F 
ATOM    102  C   UNL A   1      51.564  27.152  24.570  1.00  0.00     0.059 A 
ATOM    103  C   UNL A   1      52.161  26.752  26.890  1.00  0.00     0.059 A 
ATOM    104  F   UNL A   1      50.492  26.754  28.537  1.00  0.00    -0.206 F 
ATOM    105  C   UNL A   1      52.521  26.873  25.548  1.00  0.00     0.060 A 
BRANCH 105 106
ATOM    106  S   UNL A   1      54.246  26.698  25.048  1.00  0.00     0.124 S 
ATOM    107  O   UNL A   1      54.855  26.178  26.268  1.00  0.00    -0.237 OA
ATOM    108  O   UNL A   1      54.157  25.760  23.934  1.00  0.00    -0.237 OA
ATOM    109  O   UNL A   1      54.632  28.059  24.683  1.00  0.00    -0.744 OA
ENDBRANCH 105 106
ENDBRANCH  73  98
ENDBRANCH  47  48
ENDBRANCH  39  42
ENDBRANCH  37  38
ENDBRANCH  36  37
ENDBRANCH  35  36
ENDBRANCH   1  35
TORSDOF 21
ENDMDL
MODEL 3
REMARK VINA RESULT:     -11.9      6.167     11.860
REMARK SMILES COc1ccc(OC)c(Nc2c(-c3ccc(C(=O)NCCCCCCNC(=O)c4ccc(-c5c6nc(c(-c7c(F)cc(S(=O)(=O)[O-])cc7F)c7ccc([nH]7)c(-c7c(F)cc(S(=O)(=O)[O-])cc7F)c7nc(c(-c8c(F)cc(S(=O)(=O)[O-])cc8F)c8ccc5[nH]8)C=C7)C=C6)cc4)cc3)nc3cnccn23)c1
REMARK SMILES IDX 22 1 21 2 20 3 19 4 17 5 18 6 16 8 13 9 14 10 96 11 15 12
REMARK SMILES IDX 95 13 12 14 11 15 103 16 97 17 98 18 102 19 99 20 101 21
REMARK SMILES IDX 100 22 10 23 9 25 3 26 4 27 104 28 5 29 6 30 2 31 1 32 7 33
REMARK SMILES IDX 8 34 23 35 24 36 25 37 26 38 27 39 28 41 29 42 30 43 94 44
REMARK SMILES IDX 31 45 93 46 32 47 33 48 34 49 87 50 35 51 92 52 86 53 88 54
REMARK SMILES IDX 36 55 91 56 85 57 84 58 37 60 71 61 50 62 70 63 51 64 54 65
REMARK SMILES IDX 69 66 89 67 52 68 53 69 68 71 90 72 55 73 38 74 39 75 48 76
REMARK SMILES IDX 40 77 41 78 47 79 49 80 42 81 43 82 44 83 45 84 46 85 72 86
REMARK SMILES IDX 73 87 82 88 74 89 75 90 81 91 83 92 76 93 77 94 78 95 79 96
REMARK SMILES IDX 80 97 56 98 57 99 66 100 58 101 59 102 65 103 67 104 60 105
REMARK SMILES IDX 61 106 62 107 63 108 64 109
REMARK H PARENT 19 7 10 24 26 40 88 59 54 70
REMARK Flexibility Score: inf
ROOT
ATOM      1  C   UNL A   1      37.367  22.896  25.063  1.00  0.00     0.002 C 
ENDROOT
BRANCH   1   2
ATOM      2  C   UNL A   1      36.281  21.867  24.727  1.00  0.00     0.021 C 
BRANCH   2   3
ATOM      3  C   UNL A   1      34.915  22.500  24.445  1.00  0.00     0.116 C 
BRANCH   3   4
ATOM      4  N   UNL A   1      33.857  21.563  24.774  1.00  0.00    -0.352 N 
ATOM      5  C   UNL A   1      32.499  21.720  24.868  1.00  0.00     0.251 C 
ATOM      6  O   UNL A   1      31.820  20.735  25.167  1.00  0.00    -0.269 OA
ATOM      7  H   UNL A   1      34.171  20.651  24.965  1.00  0.00     0.163 HD
BRANCH   5   8
ATOM      8  C   UNL A   1      31.813  23.005  24.568  1.00  0.00     0.039 A 
ATOM      9  C   UNL A   1      30.437  25.423  24.182  1.00  0.00     0.004 A 
ATOM     10  C   UNL A   1      30.794  25.020  25.471  1.00  0.00     0.011 A 
ATOM     11  C   UNL A   1      30.804  24.640  23.086  1.00  0.00     0.011 A 
ATOM     12  C   UNL A   1      31.473  23.815  25.662  1.00  0.00     0.014 A 
ATOM     13  C   UNL A   1      31.522  23.457  23.277  1.00  0.00     0.014 A 
BRANCH   9  14
ATOM     14  C   UNL A   1      29.736  26.664  23.953  1.00  0.00     0.114 A 
ATOM     15  C   UNL A   1      30.348  27.906  23.855  1.00  0.00     0.143 A 
ATOM     16  N   UNL A   1      29.334  28.739  23.424  1.00  0.00    -0.283 N 
ATOM     17  N   UNL A   1      28.378  26.737  23.742  1.00  0.00    -0.225 NA
ATOM     18  C   UNL A   1      28.174  28.004  23.464  1.00  0.00     0.157 A 
ATOM     19  C   UNL A   1      29.295  30.060  23.006  1.00  0.00     0.115 A 
ATOM     20  C   UNL A   1      26.931  28.668  23.186  1.00  0.00     0.158 A 
ATOM     21  C   UNL A   1      28.096  30.602  22.723  1.00  0.00     0.129 A 
ATOM     22  N   UNL A   1      26.890  29.929  22.837  1.00  0.00    -0.259 NA
BRANCH  15  23
ATOM     23  N   UNL A   1      31.652  28.265  23.905  1.00  0.00    -0.336 N 
ATOM     24  H   UNL A   1      32.049  28.524  23.043  1.00  0.00     0.168 HD
BRANCH  23  25
ATOM     25  C   UNL A   1      32.536  28.323  25.021  1.00  0.00     0.086 A 
ATOM     26  C   UNL A   1      33.259  29.787  26.877  1.00  0.00     0.121 A 
ATOM     27  C   UNL A   1      34.113  28.789  27.328  1.00  0.00     0.050 A 
ATOM     28  C   UNL A   1      32.452  29.530  25.768  1.00  0.00     0.076 A 
ATOM     29  C   UNL A   1      34.208  27.580  26.634  1.00  0.00     0.052 A 
ATOM     30  C   UNL A   1      33.454  27.350  25.468  1.00  0.00     0.142 A 
BRANCH  26  31
ATOM     31  O   UNL A   1      33.327  30.964  27.571  1.00  0.00    -0.497 OA
ATOM     32  C   UNL A   1      34.572  31.654  27.571  1.00  0.00     0.278 C 
ENDBRANCH  26  31
BRANCH  30  33
ATOM     33  O   UNL A   1      33.947  26.330  24.693  1.00  0.00    -0.495 OA
ATOM     34  C   UNL A   1      33.866  26.512  23.290  1.00  0.00     0.278 C 
ENDBRANCH  30  33
ENDBRANCH  23  25
ENDBRANCH  15  23
ENDBRANCH   9  14
ENDBRANCH   5   8
ENDBRANCH   3   4
ENDBRANCH   2   3
ENDBRANCH   1   2
BRANCH   1  35
ATOM     35  C   UNL A   1      38.495  22.365  25.956  1.00  0.00     0.002 C 
BRANCH  35  36
ATOM     36  C   UNL A   1      38.938  23.316  27.072  1.00  0.00     0.021 C 
BRANCH  36  37
ATOM     37  C   UNL A   1      40.441  23.324  27.334  1.00  0.00     0.116 C 
BRANCH  37  38
ATOM     38  N   UNL A   1      41.169  23.967  26.249  1.00  0.00    -0.352 N 
ATOM     39  C   UNL A   1      41.444  25.295  26.065  1.00  0.00     0.251 C 
ATOM     40  H   UNL A   1      41.510  23.363  25.552  1.00  0.00     0.163 HD
ATOM     41  O   UNL A   1      41.854  25.689  24.970  1.00  0.00    -0.269 OA
BRANCH  39  42
ATOM     42  C   UNL A   1      41.245  26.254  27.169  1.00  0.00     0.039 A 
ATOM     43  C   UNL A   1      40.154  26.090  28.026  1.00  0.00     0.014 A 
ATOM     44  C   UNL A   1      42.123  27.330  27.345  1.00  0.00     0.014 A 
ATOM     45  C   UNL A   1      39.969  26.978  29.088  1.00  0.00     0.010 A 
ATOM     46  C   UNL A   1      41.975  28.174  28.443  1.00  0.00     0.010 A 
ATOM     47  C   UNL A   1      40.891  28.012  29.319  1.00  0.00    -0.014 A 
BRANCH  47  48
ATOM     48  C   UNL A   1      40.731  28.941  30.466  1.00  0.00     0.031 A 
ATOM     49  C   UNL A   1      41.612  28.802  31.678  1.00  0.00     0.074 A 
ATOM     50  C   UNL A   1      39.761  29.876  30.436  1.00  0.00     0.049 A 
ATOM     51  N   UNL A   1      41.586  29.474  32.800  1.00  0.00    -0.248 NA
ATOM     52  C   UNL A   1      42.641  27.751  31.633  1.00  0.00     0.031 C 
ATOM     53  C   UNL A   1      38.817  30.081  29.334  1.00  0.00     0.029 A 
ATOM     54  N   UNL A   1      39.402  30.825  31.359  1.00  0.00    -0.354 N 
ATOM     55  C   UNL A   1      42.588  28.927  33.594  1.00  0.00     0.074 A 
ATOM     56  C   UNL A   1      43.164  27.829  32.849  1.00  0.00     0.031 C 
ATOM     57  C   UNL A   1      38.003  31.105  29.637  1.00  0.00     0.029 A 
ATOM     58  C   UNL A   1      38.342  31.607  30.964  1.00  0.00     0.049 A 
ATOM     59  H   UNL A   1      39.861  30.936  32.222  1.00  0.00     0.167 HD
ATOM     60  C   UNL A   1      43.008  29.321  34.820  1.00  0.00     0.037 A 
ATOM     61  C   UNL A   1      37.712  32.612  31.604  1.00  0.00     0.037 A 
ATOM     62  C   UNL A   1      42.443  30.426  35.548  1.00  0.00     0.049 A 
ATOM     63  C   UNL A   1      38.192  33.026  32.969  1.00  0.00     0.074 A 
ATOM     64  C   UNL A   1      42.819  30.929  36.782  1.00  0.00     0.029 A 
ATOM     65  N   UNL A   1      41.384  31.207  35.107  1.00  0.00    -0.354 N 
ATOM     66  N   UNL A   1      39.173  32.527  33.683  1.00  0.00    -0.248 NA
ATOM     67  C   UNL A   1      37.486  34.143  33.611  1.00  0.00     0.031 C 
ATOM     68  C   UNL A   1      41.966  31.991  37.101  1.00  0.00     0.029 A 
ATOM     69  C   UNL A   1      41.086  32.179  36.047  1.00  0.00     0.049 A 
ATOM     70  H   UNL A   1      40.914  31.087  34.250  1.00  0.00     0.167 HD
ATOM     71  C   UNL A   1      39.220  33.289  34.846  1.00  0.00     0.074 A 
ATOM     72  C   UNL A   1      38.178  34.288  34.733  1.00  0.00     0.031 C 
ATOM     73  C   UNL A   1      40.051  33.173  35.911  1.00  0.00     0.037 A 
BRANCH  60  74
ATOM     74  C   UNL A   1      44.143  28.557  35.444  1.00  0.00     0.058 A 
ATOM     75  C   UNL A   1      43.910  27.460  36.292  1.00  0.00     0.135 A 
ATOM     76  C   UNL A   1      45.477  28.899  35.173  1.00  0.00     0.135 A 
ATOM     77  F   UNL A   1      42.654  27.098  36.598  1.00  0.00    -0.206 F 
ATOM     78  C   UNL A   1      44.957  26.751  36.871  1.00  0.00     0.059 A 
ATOM     79  C   UNL A   1      46.541  28.186  35.720  1.00  0.00     0.059 A 
ATOM     80  F   UNL A   1      45.759  29.938  34.371  1.00  0.00    -0.206 F 
ATOM     81  C   UNL A   1      46.270  27.122  36.580  1.00  0.00     0.060 A 
BRANCH  81  82
ATOM     82  S   UNL A   1      47.618  26.191  37.338  1.00  0.00     0.124 S 
ATOM     83  O   UNL A   1      46.942  24.950  37.705  1.00  0.00    -0.237 OA
ATOM     84  O   UNL A   1      48.579  26.087  36.243  1.00  0.00    -0.237 OA
ATOM     85  O   UNL A   1      48.030  27.036  38.452  1.00  0.00    -0.744 OA
ENDBRANCH  81  82
ENDBRANCH  60  74
BRANCH  61  86
ATOM     86  C   UNL A   1      36.574  33.314  30.953  1.00  0.00     0.058 A 
ATOM     87  C   UNL A   1      36.792  34.233  29.915  1.00  0.00     0.135 A 
ATOM     88  C   UNL A   1      35.249  33.087  31.357  1.00  0.00     0.135 A 
ATOM     89  F   UNL A   1      38.042  34.487  29.497  1.00  0.00    -0.206 F 
ATOM     90  C   UNL A   1      35.742  34.920  29.317  1.00  0.00     0.059 A 
ATOM     91  C   UNL A   1      34.180  33.743  30.756  1.00  0.00     0.059 A 
ATOM     92  F   UNL A   1      34.984  32.204  32.332  1.00  0.00    -0.206 F 
ATOM     93  C   UNL A   1      34.437  34.670  29.746  1.00  0.00     0.060 A 
BRANCH  93  94
ATOM     94  S   UNL A   1      33.077  35.547  28.945  1.00  0.00     0.124 S 
ATOM     95  O   UNL A   1      32.414  34.465  28.226  1.00  0.00    -0.237 OA
ATOM     96  O   UNL A   1      32.351  36.097  30.086  1.00  0.00    -0.237 OA
ATOM     97  O   UNL A   1      33.760  36.533  28.114  1.00  0.00    -0.744 OA
ENDBRANCH  93  94
ENDBRANCH  61  86
BRANCH  73  98
ATOM     98  C   UNL A   1      39.894  34.174  37.021  1.00  0.00     0.058 A 
ATOM     99  C   UNL A   1      39.061  33.927  38.124  1.00  0.00     0.135 A 
ATOM    100  C   UNL A   1      40.618  35.377  37.001  1.00  0.00     0.135 A 
ATOM    101  F   UNL A   1      38.342  32.796  38.188  1.00  0.00    -0.206 F 
ATOM    102  C   UNL A   1      38.933  34.851  39.156  1.00  0.00     0.059 A 
ATOM    103  C   UNL A   1      40.525  36.302  38.035  1.00  0.00     0.059 A 
ATOM    104  F   UNL A   1      41.436  35.656  35.973  1.00  0.00    -0.206 F 
ATOM    105  C   UNL A   1      39.670  36.036  39.103  1.00  0.00     0.060 A 
BRANCH 105 106
ATOM    106  S   UNL A   1      39.517  37.213  40.463  1.00  0.00     0.124 S 
ATOM    107  O   UNL A   1      38.260  37.878  40.136  1.00  0.00    -0.237 OA
ATOM    108  O   UNL A   1      39.487  36.339  41.632  1.00  0.00    -0.237 OA
ATOM    109  O   UNL A   1      40.716  38.036  40.335  1.00  0.00    -0.744 OA
ENDBRANCH 105 106
ENDBRANCH  73  98
ENDBRANCH  47  48
ENDBRANCH  39  42
ENDBRANCH  37  38
ENDBRANCH  36  37
ENDBRANCH  35  36
ENDBRANCH   1  35
TORSDOF 21
ENDMDL
