MODEL 1
REMARK VINA RESULT:     -13.7      0.000      0.000
REMARK SMILES Cc1c(NC(=O)c2ccc(Br)cc2N)cccc1C(=O)NCCCCCCNC(=O)c1ccc(-c2c3nc(c(-c4c(F)cc(S(=O)(=O)[O-])cc4F)c4ccc([nH]4)c(-c4c(F)cc(S(=O)(=O)[O-])cc4F)c4nc(c(-c5c(F)cc(S(=O)(=O)[O-])cc5F)c5ccc2[nH]5)C=C4)C=C3)cc1
REMARK SMILES IDX 24 1 23 2 22 3 21 4 19 5 20 6 18 8 1 9 2 10 3 11 15 12 17 13
REMARK SMILES IDX 16 14 4 15 5 16 6 18 7 19 8 20 13 21 9 22 12 23 10 24 11 25
REMARK SMILES IDX 14 26 25 29 26 30 27 31 28 32 29 33 30 35 31 36 32 37 96 38
REMARK SMILES IDX 33 39 95 40 34 41 35 42 36 43 89 44 37 45 94 46 88 47 90 48
REMARK SMILES IDX 38 49 93 50 87 51 86 52 39 54 73 55 52 56 72 57 53 58 56 59
REMARK SMILES IDX 71 60 91 61 54 62 55 63 70 65 92 66 57 67 40 68 41 69 50 70
REMARK SMILES IDX 42 71 43 72 49 73 51 74 44 75 45 76 46 77 47 78 48 79 74 80
REMARK SMILES IDX 75 81 84 82 76 83 77 84 83 85 85 86 78 87 79 88 80 89 81 90
REMARK SMILES IDX 82 91 58 92 59 93 68 94 60 95 61 96 67 97 69 98 62 99 63 100
REMARK SMILES IDX 64 101 65 102 66 103
REMARK H PARENT 21 7 4 17 14 27 14 28 28 34 90 53 56 64
REMARK Flexibility Score: inf
ROOT
ATOM      1  C   UNL A   1      35.340  21.345  24.712  1.00  0.00     0.002 C 
ENDROOT
BRANCH   1   2
ATOM      2  C   UNL A   1      34.796  21.453  26.142  1.00  0.00     0.021 C 
BRANCH   2   3
ATOM      3  C   UNL A   1      33.337  21.008  26.333  1.00  0.00     0.116 C 
BRANCH   3   4
ATOM      4  N   UNL A   1      32.584  22.038  27.029  1.00  0.00    -0.352 N 
ATOM      5  C   UNL A   1      31.998  23.217  26.660  1.00  0.00     0.251 C 
ATOM      6  O   UNL A   1      31.411  23.839  27.552  1.00  0.00    -0.269 OA
ATOM      7  H   UNL A   1      32.471  21.841  27.986  1.00  0.00     0.163 HD
BRANCH   5   8
ATOM      8  C   UNL A   1      31.940  23.784  25.274  1.00  0.00     0.044 A 
ATOM      9  C   UNL A   1      34.128  25.107  25.333  1.00  0.00     0.047 C 
ATOM     10  C   UNL A   1      32.877  24.634  24.646  1.00  0.00    -0.015 A 
ATOM     11  C   UNL A   1      32.571  25.175  23.366  1.00  0.00     0.045 A 
ATOM     12  C   UNL A   1      31.332  24.940  22.764  1.00  0.00     0.026 A 
ATOM     13  C   UNL A   1      30.703  23.560  24.631  1.00  0.00     0.014 A 
ATOM     14  C   UNL A   1      30.395  24.138  23.399  1.00  0.00     0.003 A 
BRANCH  11  15
ATOM     15  N   UNL A   1      33.551  25.942  22.705  1.00  0.00    -0.322 N 
ATOM     16  C   UNL A   1      33.655  27.302  22.513  1.00  0.00     0.257 C 
ATOM     17  H   UNL A   1      34.286  25.417  22.313  1.00  0.00     0.170 HD
ATOM     18  O   UNL A   1      34.336  27.721  21.576  1.00  0.00    -0.269 OA
BRANCH  16  19
ATOM     19  C   UNL A   1      33.046  28.285  23.454  1.00  0.00     0.063 A 
ATOM     20  C   UNL A   1      33.794  28.565  24.613  1.00  0.00     0.017 A 
ATOM     21  C   UNL A   1      31.759  28.845  23.297  1.00  0.00     0.045 A 
ATOM     22  C   UNL A   1      33.294  29.418  25.597  1.00  0.00     0.016 A 
ATOM     23  C   UNL A   1      31.281  29.713  24.292  1.00  0.00     0.042 A 
ATOM     24  C   UNL A   1      32.042  29.998  25.425  1.00  0.00     0.020 A 
ATOM     25  Br  UNL A   1      31.345  31.144  26.757  1.00  0.00    -0.051 Br
BRANCH  21  26
ATOM     26  N   UNL A   1      30.863  28.465  22.305  1.00  0.00    -0.398 N 
ATOM     27  H   UNL A   1      31.181  27.956  21.523  1.00  0.00     0.156 HD
ATOM     28  H   UNL A   1      29.911  28.705  22.382  1.00  0.00     0.156 HD
ENDBRANCH  21  26
ENDBRANCH  16  19
ENDBRANCH  11  15
ENDBRANCH   5   8
ENDBRANCH   3   4
ENDBRANCH   2   3
ENDBRANCH   1   2
BRANCH   1  29
ATOM     29  C   UNL A   1      36.316  22.445  24.270  1.00  0.00     0.002 C 
BRANCH  29  30
ATOM     30  C   UNL A   1      37.731  22.361  24.849  1.00  0.00     0.021 C 
BRANCH  30  31
ATOM     31  C   UNL A   1      37.993  23.325  25.998  1.00  0.00     0.116 C 
BRANCH  31  32
ATOM     32  N   UNL A   1      39.182  22.996  26.768  1.00  0.00    -0.352 N 
ATOM     33  C   UNL A   1      40.251  23.869  26.896  1.00  0.00     0.251 C 
ATOM     34  H   UNL A   1      39.228  22.121  27.215  1.00  0.00     0.163 HD
ATOM     35  O   UNL A   1      41.423  23.552  26.746  1.00  0.00    -0.269 OA
BRANCH  33  36
ATOM     36  C   UNL A   1      39.886  25.238  27.312  1.00  0.00     0.039 A 
ATOM     37  C   UNL A   1      40.400  26.319  26.590  1.00  0.00     0.014 A 
ATOM     38  C   UNL A   1      39.243  25.425  28.535  1.00  0.00     0.014 A 
ATOM     39  C   UNL A   1      40.382  27.592  27.161  1.00  0.00     0.010 A 
ATOM     40  C   UNL A   1      39.289  26.674  29.126  1.00  0.00     0.010 A 
ATOM     41  C   UNL A   1      39.890  27.752  28.458  1.00  0.00    -0.014 A 
BRANCH  41  42
ATOM     42  C   UNL A   1      40.036  28.983  29.235  1.00  0.00     0.031 A 
ATOM     43  C   UNL A   1      38.979  30.024  29.213  1.00  0.00     0.074 A 
ATOM     44  C   UNL A   1      41.104  29.138  30.048  1.00  0.00     0.049 A 
ATOM     45  N   UNL A   1      39.140  31.239  29.621  1.00  0.00    -0.248 NA
ATOM     46  C   UNL A   1      37.644  29.770  28.684  1.00  0.00     0.031 C 
ATOM     47  C   UNL A   1      41.265  30.116  31.119  1.00  0.00     0.029 A 
ATOM     48  N   UNL A   1      42.370  28.566  29.907  1.00  0.00    -0.354 N 
ATOM     49  C   UNL A   1      37.910  31.857  29.624  1.00  0.00     0.074 A 
ATOM     50  C   UNL A   1      37.012  30.902  29.011  1.00  0.00     0.031 C 
ATOM     51  C   UNL A   1      42.573  30.282  31.362  1.00  0.00     0.029 A 
ATOM     52  C   UNL A   1      43.301  29.528  30.357  1.00  0.00     0.049 A 
ATOM     53  H   UNL A   1      42.575  27.667  29.560  1.00  0.00     0.167 HD
ATOM     54  C   UNL A   1      37.757  33.071  30.229  1.00  0.00     0.037 A 
ATOM     55  C   UNL A   1      44.224  30.053  29.498  1.00  0.00     0.037 A 
ATOM     56  C   UNL A   1      39.029  33.609  30.699  1.00  0.00     0.049 A 
ATOM     57  C   UNL A   1      44.080  31.542  29.247  1.00  0.00     0.074 A 
ATOM     58  C   UNL A   1      39.694  33.599  31.914  1.00  0.00     0.029 A 
ATOM     59  N   UNL A   1      39.949  34.042  29.762  1.00  0.00    -0.354 N 
ATOM     60  N   UNL A   1      43.150  32.295  29.768  1.00  0.00    -0.248 NA
ATOM     61  C   UNL A   1      44.938  32.283  28.319  1.00  0.00     0.031 C 
ATOM     62  C   UNL A   1      41.048  33.972  31.681  1.00  0.00     0.029 A 
ATOM     63  C   UNL A   1      41.198  34.213  30.329  1.00  0.00     0.049 A 
ATOM     64  H   UNL A   1      39.742  34.206  28.814  1.00  0.00     0.167 HD
ATOM     65  C   UNL A   1      43.225  33.546  29.218  1.00  0.00     0.074 A 
ATOM     66  C   UNL A   1      44.376  33.504  28.339  1.00  0.00     0.031 C 
ATOM     67  C   UNL A   1      42.319  34.530  29.468  1.00  0.00     0.037 A 
BRANCH  54  68
ATOM     68  C   UNL A   1      36.411  33.664  30.577  1.00  0.00     0.058 A 
ATOM     69  C   UNL A   1      35.537  34.107  29.562  1.00  0.00     0.135 A 
ATOM     70  C   UNL A   1      35.950  33.874  31.891  1.00  0.00     0.135 A 
ATOM     71  F   UNL A   1      35.807  33.900  28.265  1.00  0.00    -0.206 F 
ATOM     72  C   UNL A   1      34.358  34.804  29.827  1.00  0.00     0.059 A 
ATOM     73  C   UNL A   1      34.806  34.623  32.183  1.00  0.00     0.059 A 
ATOM     74  F   UNL A   1      36.582  33.328  32.940  1.00  0.00    -0.206 F 
ATOM     75  C   UNL A   1      34.019  35.096  31.142  1.00  0.00     0.060 A 
BRANCH  75  76
ATOM     76  S   UNL A   1      32.566  36.115  31.458  1.00  0.00     0.124 S 
ATOM     77  O   UNL A   1      32.068  36.372  30.111  1.00  0.00    -0.237 OA
ATOM     78  O   UNL A   1      31.748  35.229  32.280  1.00  0.00    -0.237 OA
ATOM     79  O   UNL A   1      33.114  37.282  32.145  1.00  0.00    -0.744 OA
ENDBRANCH  75  76
ENDBRANCH  54  68
BRANCH  55  80
ATOM     80  C   UNL A   1      44.716  29.052  28.510  1.00  0.00     0.058 A 
ATOM     81  C   UNL A   1      44.158  29.081  27.215  1.00  0.00     0.135 A 
ATOM     82  C   UNL A   1      45.951  28.413  28.671  1.00  0.00     0.135 A 
ATOM     83  F   UNL A   1      42.963  29.661  27.012  1.00  0.00    -0.206 F 
ATOM     84  C   UNL A   1      44.876  28.660  26.102  1.00  0.00     0.059 A 
ATOM     85  C   UNL A   1      46.680  27.967  27.568  1.00  0.00     0.059 A 
ATOM     86  F   UNL A   1      46.527  28.345  29.880  1.00  0.00    -0.206 F 
ATOM     87  C   UNL A   1      46.168  28.174  26.285  1.00  0.00     0.060 A 
BRANCH  87  88
ATOM     88  S   UNL A   1      47.214  27.962  24.823  1.00  0.00     0.124 S 
ATOM     89  O   UNL A   1      48.548  28.181  25.369  1.00  0.00    -0.237 OA
ATOM     90  O   UNL A   1      46.911  26.588  24.421  1.00  0.00    -0.237 OA
ATOM     91  O   UNL A   1      46.725  28.993  23.914  1.00  0.00    -0.744 OA
ENDBRANCH  87  88
ENDBRANCH  55  80
BRANCH  67  92
ATOM     92  C   UNL A   1      42.454  35.897  28.886  1.00  0.00     0.058 A 
ATOM     93  C   UNL A   1      41.891  36.212  27.639  1.00  0.00     0.135 A 
ATOM     94  C   UNL A   1      43.248  36.882  29.499  1.00  0.00     0.135 A 
ATOM     95  F   UNL A   1      41.138  35.311  26.986  1.00  0.00    -0.206 F 
ATOM     96  C   UNL A   1      42.096  37.448  27.033  1.00  0.00     0.059 A 
ATOM     97  C   UNL A   1      43.492  38.113  28.900  1.00  0.00     0.059 A 
ATOM     98  F   UNL A   1      43.793  36.669  30.708  1.00  0.00    -0.206 F 
ATOM     99  C   UNL A   1      42.901  38.393  27.670  1.00  0.00     0.060 A 
BRANCH  99 100
ATOM    100  S   UNL A   1      43.207  39.982  26.874  1.00  0.00     0.124 S 
ATOM    101  O   UNL A   1      42.007  40.177  26.065  1.00  0.00    -0.237 OA
ATOM    102  O   UNL A   1      43.338  40.865  28.029  1.00  0.00    -0.237 OA
ATOM    103  O   UNL A   1      44.432  39.743  26.117  1.00  0.00    -0.744 OA
ENDBRANCH  99 100
ENDBRANCH  67  92
ENDBRANCH  41  42
ENDBRANCH  33  36
ENDBRANCH  31  32
ENDBRANCH  30  31
ENDBRANCH  29  30
ENDBRANCH   1  29
TORSDOF 19
ENDMDL
MODEL 2
REMARK VINA RESULT:     -13.2      4.945     11.264
REMARK SMILES Cc1c(NC(=O)c2ccc(Br)cc2N)cccc1C(=O)NCCCCCCNC(=O)c1ccc(-c2c3nc(c(-c4c(F)cc(S(=O)(=O)[O-])cc4F)c4ccc([nH]4)c(-c4c(F)cc(S(=O)(=O)[O-])cc4F)c4nc(c(-c5c(F)cc(S(=O)(=O)[O-])cc5F)c5ccc2[nH]5)C=C4)C=C3)cc1
REMARK SMILES IDX 24 1 23 2 22 3 21 4 19 5 20 6 18 8 1 9 2 10 3 11 15 12 17 13
REMARK SMILES IDX 16 14 4 15 5 16 6 18 7 19 8 20 13 21 9 22 12 23 10 24 11 25
REMARK SMILES IDX 14 26 25 29 26 30 27 31 28 32 29 33 30 35 31 36 32 37 96 38
REMARK SMILES IDX 33 39 95 40 34 41 35 42 36 43 89 44 37 45 94 46 88 47 90 48
REMARK SMILES IDX 38 49 93 50 87 51 86 52 39 54 73 55 52 56 72 57 53 58 56 59
REMARK SMILES IDX 71 60 91 61 54 62 55 63 70 65 92 66 57 67 40 68 41 69 50 70
REMARK SMILES IDX 42 71 43 72 49 73 51 74 44 75 45 76 46 77 47 78 48 79 74 80
REMARK SMILES IDX 75 81 84 82 76 83 77 84 83 85 85 86 78 87 79 88 80 89 81 90
REMARK SMILES IDX 82 91 58 92 59 93 68 94 60 95 61 96 67 97 69 98 62 99 63 100
REMARK SMILES IDX 64 101 65 102 66 103
REMARK H PARENT 21 7 4 17 14 27 14 28 28 34 90 53 56 64
REMARK Flexibility Score: inf
ROOT
ATOM      1  C   UNL A   1      33.561  28.024  25.502  1.00  0.00     0.002 C 
ENDROOT
BRANCH   1   2
ATOM      2  C   UNL A   1      32.934  29.184  24.719  1.00  0.00     0.021 C 
BRANCH   2   3
ATOM      3  C   UNL A   1      31.438  29.427  24.973  1.00  0.00     0.116 C 
BRANCH   3   4
ATOM      4  N   UNL A   1      30.707  29.423  23.718  1.00  0.00    -0.352 N 
ATOM      5  C   UNL A   1      30.432  28.479  22.767  1.00  0.00     0.251 C 
ATOM      6  O   UNL A   1      29.743  28.850  21.811  1.00  0.00    -0.269 OA
ATOM      7  H   UNL A   1      30.320  30.302  23.503  1.00  0.00     0.163 HD
BRANCH   5   8
ATOM      8  C   UNL A   1      30.825  27.034  22.812  1.00  0.00     0.044 A 
ATOM      9  C   UNL A   1      29.720  26.426  25.037  1.00  0.00     0.047 C 
ATOM     10  C   UNL A   1      30.524  26.084  23.813  1.00  0.00    -0.015 A 
ATOM     11  C   UNL A   1      31.108  24.789  23.735  1.00  0.00     0.045 A 
ATOM     12  C   UNL A   1      32.030  24.474  22.733  1.00  0.00     0.026 A 
ATOM     13  C   UNL A   1      31.753  26.677  21.807  1.00  0.00     0.014 A 
ATOM     14  C   UNL A   1      32.357  25.421  21.772  1.00  0.00     0.003 A 
BRANCH  11  15
ATOM     15  N   UNL A   1      30.726  23.818  24.682  1.00  0.00    -0.322 N 
ATOM     16  C   UNL A   1      31.438  22.788  25.257  1.00  0.00     0.257 C 
ATOM     17  H   UNL A   1      29.791  23.886  24.983  1.00  0.00     0.170 HD
ATOM     18  O   UNL A   1      30.824  21.826  25.721  1.00  0.00    -0.269 OA
BRANCH  16  19
ATOM     19  C   UNL A   1      32.919  22.842  25.419  1.00  0.00     0.063 A 
ATOM     20  C   UNL A   1      33.425  24.002  26.034  1.00  0.00     0.017 A 
ATOM     21  C   UNL A   1      33.810  21.871  24.910  1.00  0.00     0.045 A 
ATOM     22  C   UNL A   1      34.799  24.192  26.179  1.00  0.00     0.016 A 
ATOM     23  C   UNL A   1      35.189  22.075  25.079  1.00  0.00     0.042 A 
ATOM     24  C   UNL A   1      35.675  23.220  25.709  1.00  0.00     0.020 A 
ATOM     25  Br  UNL A   1      37.541  23.472  25.886  1.00  0.00    -0.051 Br
BRANCH  21  26
ATOM     26  N   UNL A   1      33.422  20.808  24.103  1.00  0.00    -0.398 N 
ATOM     27  H   UNL A   1      32.983  20.981  23.238  1.00  0.00     0.156 HD
ATOM     28  H   UNL A   1      33.585  19.883  24.396  1.00  0.00     0.156 HD
ENDBRANCH  21  26
ENDBRANCH  16  19
ENDBRANCH  11  15
ENDBRANCH   5   8
ENDBRANCH   3   4
ENDBRANCH   2   3
ENDBRANCH   1   2
BRANCH   1  29
ATOM     29  C   UNL A   1      34.189  28.378  26.858  1.00  0.00     0.002 C 
BRANCH  29  30
ATOM     30  C   UNL A   1      34.050  29.837  27.302  1.00  0.00     0.021 C 
BRANCH  30  31
ATOM     31  C   UNL A   1      35.289  30.686  27.049  1.00  0.00     0.116 C 
BRANCH  31  32
ATOM     32  N   UNL A   1      35.714  31.447  28.213  1.00  0.00    -0.352 N 
ATOM     33  C   UNL A   1      36.156  30.841  29.378  1.00  0.00     0.251 C 
ATOM     34  H   UNL A   1      35.687  32.430  28.171  1.00  0.00     0.163 HD
ATOM     35  O   UNL A   1      35.782  31.148  30.502  1.00  0.00    -0.269 OA
BRANCH  33  36
ATOM     36  C   UNL A   1      37.200  29.814  29.184  1.00  0.00     0.039 A 
ATOM     37  C   UNL A   1      37.345  28.814  30.149  1.00  0.00     0.014 A 
ATOM     38  C   UNL A   1      38.153  29.999  28.183  1.00  0.00     0.014 A 
ATOM     39  C   UNL A   1      38.525  28.070  30.188  1.00  0.00     0.010 A 
ATOM     40  C   UNL A   1      39.348  29.307  28.268  1.00  0.00     0.010 A 
ATOM     41  C   UNL A   1      39.552  28.369  29.291  1.00  0.00    -0.014 A 
BRANCH  41  42
ATOM     42  C   UNL A   1      40.904  27.819  29.392  1.00  0.00     0.031 A 
ATOM     43  C   UNL A   1      41.217  26.472  28.857  1.00  0.00     0.074 A 
ATOM     44  C   UNL A   1      41.898  28.579  29.901  1.00  0.00     0.049 A 
ATOM     45  N   UNL A   1      42.278  25.796  29.149  1.00  0.00    -0.248 NA
ATOM     46  C   UNL A   1      40.315  25.758  27.959  1.00  0.00     0.031 C 
ATOM     47  C   UNL A   1      43.335  28.344  29.791  1.00  0.00     0.029 A 
ATOM     48  N   UNL A   1      41.786  29.617  30.829  1.00  0.00    -0.354 N 
ATOM     49  C   UNL A   1      42.320  24.688  28.333  1.00  0.00     0.074 A 
ATOM     50  C   UNL A   1      41.061  24.701  27.622  1.00  0.00     0.031 C 
ATOM     51  C   UNL A   1      43.958  28.997  30.783  1.00  0.00     0.029 A 
ATOM     52  C   UNL A   1      42.933  29.551  31.650  1.00  0.00     0.049 A 
ATOM     53  H   UNL A   1      41.050  30.267  30.897  1.00  0.00     0.167 HD
ATOM     54  C   UNL A   1      43.452  23.927  28.272  1.00  0.00     0.037 A 
ATOM     55  C   UNL A   1      42.814  29.297  32.987  1.00  0.00     0.037 A 
ATOM     56  C   UNL A   1      44.457  24.369  29.233  1.00  0.00     0.049 A 
ATOM     57  C   UNL A   1      43.447  27.997  33.442  1.00  0.00     0.074 A 
ATOM     58  C   UNL A   1      45.562  25.201  29.165  1.00  0.00     0.029 A 
ATOM     59  N   UNL A   1      44.224  24.152  30.579  1.00  0.00    -0.354 N 
ATOM     60  N   UNL A   1      44.045  27.147  32.653  1.00  0.00    -0.248 NA
ATOM     61  C   UNL A   1      43.383  27.517  34.826  1.00  0.00     0.031 C 
ATOM     62  C   UNL A   1      45.950  25.533  30.493  1.00  0.00     0.029 A 
ATOM     63  C   UNL A   1      45.084  24.897  31.362  1.00  0.00     0.049 A 
ATOM     64  H   UNL A   1      43.533  23.547  30.933  1.00  0.00     0.167 HD
ATOM     65  C   UNL A   1      44.365  26.022  33.364  1.00  0.00     0.074 A 
ATOM     66  C   UNL A   1      43.960  26.308  34.726  1.00  0.00     0.031 C 
ATOM     67  C   UNL A   1      44.894  24.903  32.799  1.00  0.00     0.037 A 
BRANCH  54  68
ATOM     68  C   UNL A   1      43.716  22.913  27.183  1.00  0.00     0.058 A 
ATOM     69  C   UNL A   1      42.972  21.716  27.121  1.00  0.00     0.135 A 
ATOM     70  C   UNL A   1      44.724  23.038  26.208  1.00  0.00     0.135 A 
ATOM     71  F   UNL A   1      41.930  21.496  27.934  1.00  0.00    -0.206 F 
ATOM     72  C   UNL A   1      43.278  20.679  26.240  1.00  0.00     0.059 A 
ATOM     73  C   UNL A   1      45.090  21.990  25.356  1.00  0.00     0.059 A 
ATOM     74  F   UNL A   1      45.370  24.199  26.026  1.00  0.00    -0.206 F 
ATOM     75  C   UNL A   1      44.366  20.806  25.387  1.00  0.00     0.060 A 
BRANCH  75  76
ATOM     76  S   UNL A   1      44.829  19.403  24.354  1.00  0.00     0.124 S 
ATOM     77  O   UNL A   1      44.017  18.326  24.911  1.00  0.00    -0.237 OA
ATOM     78  O   UNL A   1      44.444  19.866  23.025  1.00  0.00    -0.237 OA
ATOM     79  O   UNL A   1      46.266  19.274  24.582  1.00  0.00    -0.744 OA
ENDBRANCH  75  76
ENDBRANCH  54  68
BRANCH  55  80
ATOM     80  C   UNL A   1      41.598  29.922  33.579  1.00  0.00     0.058 A 
ATOM     81  C   UNL A   1      41.664  31.289  33.919  1.00  0.00     0.135 A 
ATOM     82  C   UNL A   1      40.329  29.355  33.412  1.00  0.00     0.135 A 
ATOM     83  F   UNL A   1      42.857  31.876  34.115  1.00  0.00    -0.206 F 
ATOM     84  C   UNL A   1      40.534  32.099  33.909  1.00  0.00     0.059 A 
ATOM     85  C   UNL A   1      39.180  30.147  33.416  1.00  0.00     0.059 A 
ATOM     86  F   UNL A   1      40.202  28.058  33.098  1.00  0.00    -0.206 F 
ATOM     87  C   UNL A   1      39.307  31.528  33.582  1.00  0.00     0.060 A 
BRANCH  87  88
ATOM     88  S   UNL A   1      37.920  32.636  33.230  1.00  0.00     0.124 S 
ATOM     89  O   UNL A   1      38.192  33.759  34.119  1.00  0.00    -0.237 OA
ATOM     90  O   UNL A   1      38.090  32.903  31.800  1.00  0.00    -0.237 OA
ATOM     91  O   UNL A   1      36.754  31.827  33.571  1.00  0.00    -0.744 OA
ENDBRANCH  87  88
ENDBRANCH  55  80
BRANCH  67  92
ATOM     92  C   UNL A   1      45.273  23.710  33.610  1.00  0.00     0.058 A 
ATOM     93  C   UNL A   1      44.340  22.700  33.892  1.00  0.00     0.135 A 
ATOM     94  C   UNL A   1      46.534  23.608  34.223  1.00  0.00     0.135 A 
ATOM     95  F   UNL A   1      43.108  22.744  33.357  1.00  0.00    -0.206 F 
ATOM     96  C   UNL A   1      44.645  21.633  34.733  1.00  0.00     0.059 A 
ATOM     97  C   UNL A   1      46.852  22.569  35.091  1.00  0.00     0.059 A 
ATOM     98  F   UNL A   1      47.492  24.516  33.977  1.00  0.00    -0.206 F 
ATOM     99  C   UNL A   1      45.904  21.577  35.331  1.00  0.00     0.060 A 
BRANCH  99 100
ATOM    100  S   UNL A   1      46.294  20.222  36.455  1.00  0.00     0.124 S 
ATOM    101  O   UNL A   1      47.740  20.083  36.309  1.00  0.00    -0.237 OA
ATOM    102  O   UNL A   1      45.840  20.764  37.732  1.00  0.00    -0.237 OA
ATOM    103  O   UNL A   1      45.508  19.113  35.923  1.00  0.00    -0.744 OA
ENDBRANCH  99 100
ENDBRANCH  67  92
ENDBRANCH  41  42
ENDBRANCH  33  36
ENDBRANCH  31  32
ENDBRANCH  30  31
ENDBRANCH  29  30
ENDBRANCH   1  29
TORSDOF 19
ENDMDL
MODEL 3
REMARK VINA RESULT:     -12.7      1.606      3.300
REMARK SMILES Cc1c(NC(=O)c2ccc(Br)cc2N)cccc1C(=O)NCCCCCCNC(=O)c1ccc(-c2c3nc(c(-c4c(F)cc(S(=O)(=O)[O-])cc4F)c4ccc([nH]4)c(-c4c(F)cc(S(=O)(=O)[O-])cc4F)c4nc(c(-c5c(F)cc(S(=O)(=O)[O-])cc5F)c5ccc2[nH]5)C=C4)C=C3)cc1
REMARK SMILES IDX 24 1 23 2 22 3 21 4 19 5 20 6 18 8 1 9 2 10 3 11 15 12 17 13
REMARK SMILES IDX 16 14 4 15 5 16 6 18 7 19 8 20 13 21 9 22 12 23 10 24 11 25
REMARK SMILES IDX 14 26 25 29 26 30 27 31 28 32 29 33 30 35 31 36 32 37 96 38
REMARK SMILES IDX 33 39 95 40 34 41 35 42 36 43 89 44 37 45 94 46 88 47 90 48
REMARK SMILES IDX 38 49 93 50 87 51 86 52 39 54 73 55 52 56 72 57 53 58 56 59
REMARK SMILES IDX 71 60 91 61 54 62 55 63 70 65 92 66 57 67 40 68 41 69 50 70
REMARK SMILES IDX 42 71 43 72 49 73 51 74 44 75 45 76 46 77 47 78 48 79 74 80
REMARK SMILES IDX 75 81 84 82 76 83 77 84 83 85 85 86 78 87 79 88 80 89 81 90
REMARK SMILES IDX 82 91 58 92 59 93 68 94 60 95 61 96 67 97 69 98 62 99 63 100
REMARK SMILES IDX 64 101 65 102 66 103
REMARK H PARENT 21 7 4 17 14 27 14 28 28 34 90 53 56 64
REMARK Flexibility Score: inf
ROOT
ATOM      1  C   UNL A   1      34.705  25.340  25.097  1.00  0.00     0.002 C 
ENDROOT
BRANCH   1   2
ATOM      2  C   UNL A   1      33.828  25.727  23.900  1.00  0.00     0.021 C 
BRANCH   2   3
ATOM      3  C   UNL A   1      34.217  27.030  23.184  1.00  0.00     0.116 C 
BRANCH   3   4
ATOM      4  N   UNL A   1      33.777  28.179  23.957  1.00  0.00    -0.352 N 
ATOM      5  C   UNL A   1      32.623  28.516  24.610  1.00  0.00     0.251 C 
ATOM      6  O   UNL A   1      32.621  29.606  25.191  1.00  0.00    -0.269 OA
ATOM      7  H   UNL A   1      34.469  28.875  24.028  1.00  0.00     0.163 HD
BRANCH   5   8
ATOM      8  C   UNL A   1      31.398  27.663  24.742  1.00  0.00     0.044 A 
ATOM      9  C   UNL A   1      32.054  26.412  26.874  1.00  0.00     0.047 C 
ATOM     10  C   UNL A   1      31.108  26.710  25.744  1.00  0.00    -0.015 A 
ATOM     11  C   UNL A   1      29.943  25.903  25.615  1.00  0.00     0.045 A 
ATOM     12  C   UNL A   1      29.132  25.987  24.481  1.00  0.00     0.026 A 
ATOM     13  C   UNL A   1      30.549  27.728  23.614  1.00  0.00     0.014 A 
ATOM     14  C   UNL A   1      29.438  26.895  23.477  1.00  0.00     0.003 A 
BRANCH  11  15
ATOM     15  N   UNL A   1      29.611  25.025  26.666  1.00  0.00    -0.322 N 
ATOM     16  C   UNL A   1      29.916  23.696  26.862  1.00  0.00     0.257 C 
ATOM     17  H   UNL A   1      29.068  25.429  27.380  1.00  0.00     0.170 HD
ATOM     18  O   UNL A   1      29.198  23.024  27.603  1.00  0.00    -0.269 OA
BRANCH  16  19
ATOM     19  C   UNL A   1      31.137  23.068  26.281  1.00  0.00     0.063 A 
ATOM     20  C   UNL A   1      31.137  22.911  24.883  1.00  0.00     0.017 A 
ATOM     21  C   UNL A   1      32.205  22.548  27.046  1.00  0.00     0.045 A 
ATOM     22  C   UNL A   1      32.197  22.276  24.236  1.00  0.00     0.016 A 
ATOM     23  C   UNL A   1      33.269  21.926  26.374  1.00  0.00     0.042 A 
ATOM     24  C   UNL A   1      33.265  21.796  24.986  1.00  0.00     0.020 A 
ATOM     25  Br  UNL A   1      34.701  20.921  24.123  1.00  0.00    -0.051 Br
BRANCH  21  26
ATOM     26  N   UNL A   1      32.195  22.461  28.433  1.00  0.00    -0.398 N 
ATOM     27  H   UNL A   1      32.717  23.103  28.970  1.00  0.00     0.156 HD
ATOM     28  H   UNL A   1      31.669  21.760  28.880  1.00  0.00     0.156 HD
ENDBRANCH  21  26
ENDBRANCH  16  19
ENDBRANCH  11  15
ENDBRANCH   5   8
ENDBRANCH   3   4
ENDBRANCH   2   3
ENDBRANCH   1   2
BRANCH   1  29
ATOM     29  C   UNL A   1      35.732  24.223  24.857  1.00  0.00     0.002 C 
BRANCH  29  30
ATOM     30  C   UNL A   1      36.701  23.943  26.009  1.00  0.00     0.021 C 
BRANCH  30  31
ATOM     31  C   UNL A   1      38.128  23.646  25.565  1.00  0.00     0.116 C 
BRANCH  31  32
ATOM     32  N   UNL A   1      38.971  23.136  26.634  1.00  0.00    -0.352 N 
ATOM     33  C   UNL A   1      40.051  23.847  27.134  1.00  0.00     0.251 C 
ATOM     34  H   UNL A   1      38.767  22.253  27.016  1.00  0.00     0.163 HD
ATOM     35  O   UNL A   1      41.162  23.372  27.323  1.00  0.00    -0.269 OA
BRANCH  33  36
ATOM     36  C   UNL A   1      39.752  25.244  27.508  1.00  0.00     0.039 A 
ATOM     37  C   UNL A   1      40.389  26.276  26.814  1.00  0.00     0.014 A 
ATOM     38  C   UNL A   1      39.038  25.492  28.680  1.00  0.00     0.014 A 
ATOM     39  C   UNL A   1      40.418  27.556  27.370  1.00  0.00     0.010 A 
ATOM     40  C   UNL A   1      39.127  26.744  29.260  1.00  0.00     0.010 A 
ATOM     41  C   UNL A   1      39.847  27.768  28.626  1.00  0.00    -0.014 A 
BRANCH  41  42
ATOM     42  C   UNL A   1      40.021  28.999  29.399  1.00  0.00     0.031 A 
ATOM     43  C   UNL A   1      38.966  30.041  29.414  1.00  0.00     0.074 A 
ATOM     44  C   UNL A   1      41.116  29.150  30.175  1.00  0.00     0.049 A 
ATOM     45  N   UNL A   1      39.142  31.256  29.817  1.00  0.00    -0.248 NA
ATOM     46  C   UNL A   1      37.613  29.790  28.931  1.00  0.00     0.031 C 
ATOM     47  C   UNL A   1      41.315  30.127  31.242  1.00  0.00     0.029 A 
ATOM     48  N   UNL A   1      42.376  28.577  29.991  1.00  0.00    -0.354 N 
ATOM     49  C   UNL A   1      37.914  31.875  29.863  1.00  0.00     0.074 A 
ATOM     50  C   UNL A   1      36.994  30.923  29.280  1.00  0.00     0.031 C 
ATOM     51  C   UNL A   1      42.631  30.290  31.440  1.00  0.00     0.029 A 
ATOM     52  C   UNL A   1      43.323  29.536  30.410  1.00  0.00     0.049 A 
ATOM     53  H   UNL A   1      42.567  27.678  29.636  1.00  0.00     0.167 HD
ATOM     54  C   UNL A   1      37.784  33.089  30.474  1.00  0.00     0.037 A 
ATOM     55  C   UNL A   1      44.218  30.061  29.521  1.00  0.00     0.037 A 
ATOM     56  C   UNL A   1      39.072  33.624  30.902  1.00  0.00     0.049 A 
ATOM     57  C   UNL A   1      44.067  31.550  29.277  1.00  0.00     0.074 A 
ATOM     58  C   UNL A   1      39.778  33.611  32.093  1.00  0.00     0.029 A 
ATOM     59  N   UNL A   1      39.961  34.057  29.935  1.00  0.00    -0.354 N 
ATOM     60  N   UNL A   1      43.157  32.304  29.830  1.00  0.00    -0.248 NA
ATOM     61  C   UNL A   1      44.895  32.291  28.320  1.00  0.00     0.031 C 
ATOM     62  C   UNL A   1      41.124  33.983  31.815  1.00  0.00     0.029 A 
ATOM     63  C   UNL A   1      41.228  34.225  30.459  1.00  0.00     0.049 A 
ATOM     64  H   UNL A   1      39.722  34.222  28.995  1.00  0.00     0.167 HD
ATOM     65  C   UNL A   1      43.215  33.556  29.279  1.00  0.00     0.074 A 
ATOM     66  C   UNL A   1      44.336  33.513  28.361  1.00  0.00     0.031 C 
ATOM     67  C   UNL A   1      42.320  34.541  29.560  1.00  0.00     0.037 A 
BRANCH  54  68
ATOM     68  C   UNL A   1      36.452  33.684  30.868  1.00  0.00     0.058 A 
ATOM     69  C   UNL A   1      35.554  34.151  29.885  1.00  0.00     0.135 A 
ATOM     70  C   UNL A   1      36.027  33.873  32.197  1.00  0.00     0.135 A 
ATOM     71  F   UNL A   1      35.789  33.967  28.578  1.00  0.00    -0.206 F 
ATOM     72  C   UNL A   1      34.388  34.851  30.194  1.00  0.00     0.059 A 
ATOM     73  C   UNL A   1      34.896  34.624  32.534  1.00  0.00     0.059 A 
ATOM     74  F   UNL A   1      36.682  33.303  33.220  1.00  0.00    -0.206 F 
ATOM     75  C   UNL A   1      34.086  35.120  31.522  1.00  0.00     0.060 A 
BRANCH  75  76
ATOM     76  S   UNL A   1      32.648  36.143  31.895  1.00  0.00     0.124 S 
ATOM     77  O   UNL A   1      33.178  37.075  32.885  1.00  0.00    -0.237 OA
ATOM     78  O   UNL A   1      32.335  36.712  30.589  1.00  0.00    -0.237 OA
ATOM     79  O   UNL A   1      31.675  35.183  32.412  1.00  0.00    -0.744 OA
ENDBRANCH  75  76
ENDBRANCH  54  68
BRANCH  55  80
ATOM     80  C   UNL A   1      44.674  29.061  28.515  1.00  0.00     0.058 A 
ATOM     81  C   UNL A   1      44.088  29.105  27.234  1.00  0.00     0.135 A 
ATOM     82  C   UNL A   1      45.903  28.403  28.645  1.00  0.00     0.135 A 
ATOM     83  F   UNL A   1      42.897  29.702  27.061  1.00  0.00    -0.206 F 
ATOM     84  C   UNL A   1      44.775  28.683  26.102  1.00  0.00     0.059 A 
ATOM     85  C   UNL A   1      46.602  27.956  27.523  1.00  0.00     0.059 A 
ATOM     86  F   UNL A   1      46.505  28.320  29.840  1.00  0.00    -0.206 F 
ATOM     87  C   UNL A   1      46.064  28.178  26.253  1.00  0.00     0.060 A 
BRANCH  87  88
ATOM     88  S   UNL A   1      47.074  27.963  24.767  1.00  0.00     0.124 S 
ATOM     89  O   UNL A   1      46.528  28.980  23.877  1.00  0.00    -0.237 OA
ATOM     90  O   UNL A   1      48.425  28.219  25.270  1.00  0.00    -0.237 OA
ATOM     91  O   UNL A   1      46.811  26.579  24.385  1.00  0.00    -0.744 OA
ENDBRANCH  87  88
ENDBRANCH  55  80
BRANCH  67  92
ATOM     92  C   UNL A   1      42.437  35.908  28.976  1.00  0.00     0.058 A 
ATOM     93  C   UNL A   1      41.831  36.227  27.751  1.00  0.00     0.135 A 
ATOM     94  C   UNL A   1      43.256  36.890  29.561  1.00  0.00     0.135 A 
ATOM     95  F   UNL A   1      41.052  35.329  27.125  1.00  0.00    -0.206 F 
ATOM     96  C   UNL A   1      42.016  37.464  27.140  1.00  0.00     0.059 A 
ATOM     97  C   UNL A   1      43.482  38.122  28.955  1.00  0.00     0.059 A 
ATOM     98  F   UNL A   1      43.845  36.674  30.749  1.00  0.00    -0.206 F 
ATOM     99  C   UNL A   1      42.847  38.405  27.748  1.00  0.00     0.060 A 
BRANCH  99 100
ATOM    100  S   UNL A   1      43.128  39.994  26.943  1.00  0.00     0.124 S 
ATOM    101  O   UNL A   1      44.396  39.788  26.249  1.00  0.00    -0.237 OA
ATOM    102  O   UNL A   1      41.951  40.098  26.086  1.00  0.00    -0.237 OA
ATOM    103  O   UNL A   1      43.180  40.928  28.064  1.00  0.00    -0.744 OA
ENDBRANCH  99 100
ENDBRANCH  67  92
ENDBRANCH  41  42
ENDBRANCH  33  36
ENDBRANCH  31  32
ENDBRANCH  30  31
ENDBRANCH  29  30
ENDBRANCH   1  29
TORSDOF 19
ENDMDL
