MODEL 1
REMARK VINA RESULT:      -8.5      0.000      0.000
REMARK SMILES CCN(CC)c1ccc([C@@H]2c3[nH]c4ccccc4c3C[C@@H](C(=O)NCCCCCCNC(=O)c3ccc(-c4c5nc(c(-c6c(F)cc(S(=O)(=O)[O-])cc6F)c6ccc([nH]6)c(-c6c(F)cc(S(=O)(=O)[O-])cc6F)c6nc(c(-c7c(F)cc(S(=O)(=O)[O-])cc7F)c7ccc4[nH]7)C=C6)C=C5)cc3)N2C(C)=O)cc1
REMARK SMILES IDX 27 1 26 2 25 3 24 4 22 5 23 6 21 8 10 9 11 10 100 11 12 12
REMARK SMILES IDX 19 13 13 14 18 16 20 17 14 18 17 19 15 20 16 21 9 22 6 23
REMARK SMILES IDX 7 24 105 25 8 26 104 27 3 28 2 29 1 30 4 31 5 32 101 33
REMARK SMILES IDX 102 34 103 35 28 36 29 37 30 38 31 39 32 40 33 42 34 43
REMARK SMILES IDX 35 44 99 45 36 46 98 47 37 48 38 49 39 50 92 51 40 52 97 53
REMARK SMILES IDX 91 54 93 55 41 56 96 57 90 58 89 59 42 61 76 62 55 63 75 64
REMARK SMILES IDX 56 65 59 66 74 67 94 68 57 69 58 70 73 72 95 73 60 74 43 75
REMARK SMILES IDX 44 76 53 77 45 78 46 79 52 80 54 81 47 82 48 83 49 84 50 85
REMARK SMILES IDX 51 86 77 87 78 88 87 89 79 90 80 91 86 92 88 93 81 94 82 95
REMARK SMILES IDX 83 96 84 97 85 98 61 99 62 100 71 101 63 102 64 103 70 104
REMARK SMILES IDX 72 105 65 106 66 107 67 108 68 109 69 110
REMARK H PARENT 24 7 12 15 31 41 93 60 59 71
REMARK Flexibility Score: inf
ROOT
ATOM      1  C   UNL A   1      41.747  28.777  25.873  1.00  0.00     0.002 C 
ENDROOT
BRANCH   1   2
ATOM      2  C   UNL A   1      42.373  29.619  27.004  1.00  0.00     0.021 C 
BRANCH   2   3
ATOM      3  C   UNL A   1      43.871  30.019  26.963  1.00  0.00     0.116 C 
BRANCH   3   4
ATOM      4  N   UNL A   1      44.201  31.255  26.171  1.00  0.00    -0.354 N 
ATOM      5  C   UNL A   1      45.047  32.347  26.187  1.00  0.00     0.243 C 
ATOM      6  O   UNL A   1      45.038  33.000  25.128  1.00  0.00    -0.273 OA
ATOM      7  H   UNL A   1      43.622  31.300  25.376  1.00  0.00     0.163 HD
BRANCH   5   8
ATOM      8  C   UNL A   1      45.825  32.981  27.431  1.00  0.00     0.179 C 
ATOM      9  C   UNL A   1      44.235  34.832  27.370  1.00  0.00     0.163 C 
ATOM     10  C   UNL A   1      43.633  34.152  28.595  1.00  0.00     0.047 A 
ATOM     11  N   UNL A   1      45.638  34.487  27.570  1.00  0.00    -0.318 N 
ATOM     12  N   UNL A   1      42.554  34.537  29.334  1.00  0.00    -0.356 N 
ATOM     13  C   UNL A   1      44.189  33.040  29.242  1.00  0.00    -0.014 A 
ATOM     14  C   UNL A   1      42.638  33.957  30.578  1.00  0.00     0.046 A 
ATOM     15  H   UNL A   1      41.833  35.133  29.026  1.00  0.00     0.166 HD
ATOM     16  C   UNL A   1      43.604  32.954  30.516  1.00  0.00     0.003 A 
ATOM     17  C   UNL A   1      45.385  32.302  28.726  1.00  0.00     0.073 C 
ATOM     18  C   UNL A   1      41.964  34.270  31.754  1.00  0.00     0.026 A 
ATOM     19  C   UNL A   1      43.890  32.183  31.650  1.00  0.00     0.010 A 
ATOM     20  C   UNL A   1      42.322  33.548  32.895  1.00  0.00     0.002 A 
ATOM     21  C   UNL A   1      43.257  32.513  32.844  1.00  0.00     0.001 A 
BRANCH   9  22
ATOM     22  C   UNL A   1      43.912  36.263  27.004  1.00  0.00    -0.019 A 
ATOM     23  C   UNL A   1      43.329  39.051  26.861  1.00  0.00     0.037 A 
ATOM     24  C   UNL A   1      44.623  38.553  26.755  1.00  0.00     0.026 A 
ATOM     25  C   UNL A   1      42.308  38.091  26.854  1.00  0.00     0.026 A 
ATOM     26  C   UNL A   1      44.906  37.199  26.776  1.00  0.00     0.008 A 
ATOM     27  C   UNL A   1      42.586  36.716  26.940  1.00  0.00     0.008 A 
BRANCH  23  28
ATOM     28  N   UNL A   1      43.086  40.412  26.989  1.00  0.00    -0.372 N 
BRANCH  28  29
ATOM     29  C   UNL A   1      43.359  41.055  28.282  1.00  0.00     0.113 C 
ATOM     30  C   UNL A   1      42.868  40.237  29.467  1.00  0.00     0.027 C 
ENDBRANCH  28  29
BRANCH  28  31
ATOM     31  C   UNL A   1      42.970  41.281  25.804  1.00  0.00     0.113 C 
ATOM     32  C   UNL A   1      41.609  41.241  25.109  1.00  0.00     0.027 C 
ENDBRANCH  28  31
ENDBRANCH  23  28
ENDBRANCH   9  22
BRANCH  11  33
ATOM     33  C   UNL A   1      46.268  35.291  28.552  1.00  0.00     0.220 C 
ATOM     34  C   UNL A   1      47.723  35.653  28.468  1.00  0.00     0.114 C 
ATOM     35  O   UNL A   1      45.682  35.720  29.554  1.00  0.00    -0.275 OA
ENDBRANCH  11  33
ENDBRANCH   5   8
ENDBRANCH   3   4
ENDBRANCH   2   3
ENDBRANCH   1   2
BRANCH   1  36
ATOM     36  C   UNL A   1      40.958  27.509  26.241  1.00  0.00     0.002 C 
BRANCH  36  37
ATOM     37  C   UNL A   1      41.365  26.163  25.613  1.00  0.00     0.021 C 
BRANCH  37  38
ATOM     38  C   UNL A   1      42.815  25.984  25.140  1.00  0.00     0.116 C 
BRANCH  38  39
ATOM     39  N   UNL A   1      43.516  24.896  25.808  1.00  0.00    -0.352 N 
ATOM     40  C   UNL A   1      43.964  24.735  27.098  1.00  0.00     0.251 C 
ATOM     41  H   UNL A   1      43.706  24.128  25.223  1.00  0.00     0.163 HD
ATOM     42  O   UNL A   1      44.681  23.765  27.346  1.00  0.00    -0.269 OA
BRANCH  40  43
ATOM     43  C   UNL A   1      43.627  25.674  28.201  1.00  0.00     0.039 A 
ATOM     44  C   UNL A   1      42.414  25.491  28.879  1.00  0.00     0.014 A 
ATOM     45  C   UNL A   1      44.410  26.791  28.505  1.00  0.00     0.014 A 
ATOM     46  C   UNL A   1      42.015  26.386  29.882  1.00  0.00     0.010 A 
ATOM     47  C   UNL A   1      44.038  27.654  29.546  1.00  0.00     0.010 A 
ATOM     48  C   UNL A   1      42.834  27.466  30.245  1.00  0.00    -0.014 A 
BRANCH  48  49
ATOM     49  C   UNL A   1      42.436  28.389  31.350  1.00  0.00     0.031 A 
ATOM     50  C   UNL A   1      41.232  29.287  31.215  1.00  0.00     0.074 A 
ATOM     51  C   UNL A   1      43.179  28.442  32.475  1.00  0.00     0.049 A 
ATOM     52  N   UNL A   1      40.748  30.157  32.067  1.00  0.00    -0.248 NA
ATOM     53  C   UNL A   1      40.482  29.211  29.952  1.00  0.00     0.031 C 
ATOM     54  C   UNL A   1      44.393  27.658  32.719  1.00  0.00     0.029 A 
ATOM     55  N   UNL A   1      43.032  29.184  33.621  1.00  0.00    -0.354 N 
ATOM     56  C   UNL A   1      39.648  30.737  31.442  1.00  0.00     0.074 A 
ATOM     57  C   UNL A   1      39.566  30.156  30.120  1.00  0.00     0.031 C 
ATOM     58  C   UNL A   1      44.864  27.943  33.943  1.00  0.00     0.029 A 
ATOM     59  C   UNL A   1      44.011  28.955  34.561  1.00  0.00     0.049 A 
ATOM     60  H   UNL A   1      42.295  29.823  33.757  1.00  0.00     0.167 HD
ATOM     61  C   UNL A   1      38.773  31.652  31.932  1.00  0.00     0.037 A 
ATOM     62  C   UNL A   1      44.208  29.498  35.779  1.00  0.00     0.037 A 
ATOM     63  C   UNL A   1      38.848  32.218  33.256  1.00  0.00     0.049 A 
ATOM     64  C   UNL A   1      43.230  30.519  36.297  1.00  0.00     0.074 A 
ATOM     65  C   UNL A   1      37.978  33.108  33.862  1.00  0.00     0.029 A 
ATOM     66  N   UNL A   1      39.853  31.957  34.177  1.00  0.00    -0.354 N 
ATOM     67  N   UNL A   1      42.157  31.001  35.716  1.00  0.00    -0.248 NA
ATOM     68  C   UNL A   1      43.484  31.064  37.637  1.00  0.00     0.031 C 
ATOM     69  C   UNL A   1      38.484  33.426  35.127  1.00  0.00     0.029 A 
ATOM     70  C   UNL A   1      39.640  32.690  35.334  1.00  0.00     0.049 A 
ATOM     71  H   UNL A   1      40.607  31.341  34.030  1.00  0.00     0.167 HD
ATOM     72  C   UNL A   1      41.596  31.889  36.629  1.00  0.00     0.074 A 
ATOM     73  C   UNL A   1      42.437  31.860  37.808  1.00  0.00     0.031 C 
ATOM     74  C   UNL A   1      40.486  32.658  36.502  1.00  0.00     0.037 A 
BRANCH  61  75
ATOM     75  C   UNL A   1      37.652  32.103  31.030  1.00  0.00     0.058 A 
ATOM     76  C   UNL A   1      37.844  33.090  30.048  1.00  0.00     0.135 A 
ATOM     77  C   UNL A   1      36.381  31.510  31.116  1.00  0.00     0.135 A 
ATOM     78  F   UNL A   1      39.033  33.699  29.925  1.00  0.00    -0.206 F 
ATOM     79  C   UNL A   1      36.810  33.494  29.210  1.00  0.00     0.059 A 
ATOM     80  C   UNL A   1      35.340  31.878  30.267  1.00  0.00     0.059 A 
ATOM     81  F   UNL A   1      36.139  30.558  32.031  1.00  0.00    -0.206 F 
ATOM     82  C   UNL A   1      35.560  32.884  29.327  1.00  0.00     0.060 A 
BRANCH  82  83
ATOM     83  S   UNL A   1      34.229  33.417  28.231  1.00  0.00     0.124 S 
ATOM     84  O   UNL A   1      33.289  34.009  29.185  1.00  0.00    -0.237 OA
ATOM     85  O   UNL A   1      34.912  34.368  27.353  1.00  0.00    -0.237 OA
ATOM     86  O   UNL A   1      33.788  32.188  27.599  1.00  0.00    -0.744 OA
ENDBRANCH  82  83
ENDBRANCH  61  75
BRANCH  62  87
ATOM     87  C   UNL A   1      45.372  29.073  36.604  1.00  0.00     0.058 A 
ATOM     88  C   UNL A   1      46.604  29.740  36.520  1.00  0.00     0.135 A 
ATOM     89  C   UNL A   1      45.276  27.997  37.501  1.00  0.00     0.135 A 
ATOM     90  F   UNL A   1      46.751  30.769  35.671  1.00  0.00    -0.206 F 
ATOM     91  C   UNL A   1      47.701  29.348  37.279  1.00  0.00     0.059 A 
ATOM     92  C   UNL A   1      46.351  27.603  38.292  1.00  0.00     0.059 A 
ATOM     93  F   UNL A   1      44.117  27.332  37.632  1.00  0.00    -0.206 F 
ATOM     94  C   UNL A   1      47.563  28.279  38.167  1.00  0.00     0.060 A 
BRANCH  94  95
ATOM     95  S   UNL A   1      48.979  27.809  39.185  1.00  0.00     0.124 S 
ATOM     96  O   UNL A   1      48.323  27.233  40.352  1.00  0.00    -0.237 OA
ATOM     97  O   UNL A   1      49.680  26.868  38.315  1.00  0.00    -0.237 OA
ATOM     98  O   UNL A   1      49.669  29.076  39.408  1.00  0.00    -0.744 OA
ENDBRANCH  94  95
ENDBRANCH  62  87
BRANCH  74  99
ATOM     99  C   UNL A   1      40.102  33.518  37.676  1.00  0.00     0.058 A 
ATOM    100  C   UNL A   1      40.734  34.745  37.933  1.00  0.00     0.135 A 
ATOM    101  C   UNL A   1      39.064  33.125  38.538  1.00  0.00     0.135 A 
ATOM    102  F   UNL A   1      41.738  35.166  37.146  1.00  0.00    -0.206 F 
ATOM    103  C   UNL A   1      40.375  35.537  39.020  1.00  0.00     0.059 A 
ATOM    104  C   UNL A   1      38.666  33.917  39.613  1.00  0.00     0.059 A 
ATOM    105  F   UNL A   1      38.416  31.967  38.334  1.00  0.00    -0.206 F 
ATOM    106  C   UNL A   1      39.338  35.114  39.854  1.00  0.00     0.060 A 
BRANCH 106 107
ATOM    107  S   UNL A   1      38.869  36.158  41.250  1.00  0.00     0.124 S 
ATOM    108  O   UNL A   1      40.075  36.111  42.071  1.00  0.00    -0.237 OA
ATOM    109  O   UNL A   1      38.593  37.437  40.602  1.00  0.00    -0.237 OA
ATOM    110  O   UNL A   1      37.703  35.480  41.806  1.00  0.00    -0.744 OA
ENDBRANCH 106 107
ENDBRANCH  74  99
ENDBRANCH  48  49
ENDBRANCH  40  43
ENDBRANCH  38  39
ENDBRANCH  37  38
ENDBRANCH  36  37
ENDBRANCH   1  36
TORSDOF 21
ENDMDL
MODEL 2
REMARK VINA RESULT:      -8.3      6.363     13.636
REMARK SMILES CCN(CC)c1ccc([C@@H]2c3[nH]c4ccccc4c3C[C@@H](C(=O)NCCCCCCNC(=O)c3ccc(-c4c5nc(c(-c6c(F)cc(S(=O)(=O)[O-])cc6F)c6ccc([nH]6)c(-c6c(F)cc(S(=O)(=O)[O-])cc6F)c6nc(c(-c7c(F)cc(S(=O)(=O)[O-])cc7F)c7ccc4[nH]7)C=C6)C=C5)cc3)N2C(C)=O)cc1
REMARK SMILES IDX 27 1 26 2 25 3 24 4 22 5 23 6 21 8 10 9 11 10 100 11 12 12
REMARK SMILES IDX 19 13 13 14 18 16 20 17 14 18 17 19 15 20 16 21 9 22 6 23
REMARK SMILES IDX 7 24 105 25 8 26 104 27 3 28 2 29 1 30 4 31 5 32 101 33
REMARK SMILES IDX 102 34 103 35 28 36 29 37 30 38 31 39 32 40 33 42 34 43
REMARK SMILES IDX 35 44 99 45 36 46 98 47 37 48 38 49 39 50 92 51 40 52 97 53
REMARK SMILES IDX 91 54 93 55 41 56 96 57 90 58 89 59 42 61 76 62 55 63 75 64
REMARK SMILES IDX 56 65 59 66 74 67 94 68 57 69 58 70 73 72 95 73 60 74 43 75
REMARK SMILES IDX 44 76 53 77 45 78 46 79 52 80 54 81 47 82 48 83 49 84 50 85
REMARK SMILES IDX 51 86 77 87 78 88 87 89 79 90 80 91 86 92 88 93 81 94 82 95
REMARK SMILES IDX 83 96 84 97 85 98 61 99 62 100 71 101 63 102 64 103 70 104
REMARK SMILES IDX 72 105 65 106 66 107 67 108 68 109 69 110
REMARK H PARENT 24 7 12 15 31 41 93 60 59 71
REMARK Flexibility Score: inf
ROOT
ATOM      1  C   UNL A   1      42.797  32.517  29.522  1.00  0.00     0.002 C 
ENDROOT
BRANCH   1   2
ATOM      2  C   UNL A   1      44.020  31.996  30.306  1.00  0.00     0.021 C 
BRANCH   2   3
ATOM      3  C   UNL A   1      43.862  30.894  31.386  1.00  0.00     0.116 C 
BRANCH   3   4
ATOM      4  N   UNL A   1      42.761  31.106  32.389  1.00  0.00    -0.354 N 
ATOM      5  C   UNL A   1      41.734  30.428  33.017  1.00  0.00     0.243 C 
ATOM      6  O   UNL A   1      41.221  31.061  33.957  1.00  0.00    -0.273 OA
ATOM      7  H   UNL A   1      42.778  32.039  32.702  1.00  0.00     0.163 HD
BRANCH   5   8
ATOM      8  C   UNL A   1      41.001  29.086  32.552  1.00  0.00     0.179 C 
ATOM      9  C   UNL A   1      39.483  30.473  31.237  1.00  0.00     0.163 C 
ATOM     10  C   UNL A   1      40.301  29.972  30.052  1.00  0.00     0.047 A 
ATOM     11  N   UNL A   1      39.563  29.296  32.096  1.00  0.00    -0.318 N 
ATOM     12  N   UNL A   1      40.149  30.272  28.730  1.00  0.00    -0.356 N 
ATOM     13  C   UNL A   1      41.306  28.999  30.131  1.00  0.00    -0.014 A 
ATOM     14  C   UNL A   1      40.740  29.281  27.980  1.00  0.00     0.046 A 
ATOM     15  H   UNL A   1      39.691  31.066  28.372  1.00  0.00     0.166 HD
ATOM     16  C   UNL A   1      41.539  28.521  28.831  1.00  0.00     0.003 A 
ATOM     17  C   UNL A   1      41.790  28.421  31.425  1.00  0.00     0.073 C 
ATOM     18  C   UNL A   1      40.594  28.981  26.629  1.00  0.00     0.026 A 
ATOM     19  C   UNL A   1      42.275  27.442  28.327  1.00  0.00     0.010 A 
ATOM     20  C   UNL A   1      41.269  27.851  26.160  1.00  0.00     0.002 A 
ATOM     21  C   UNL A   1      42.107  27.102  26.987  1.00  0.00     0.001 A 
BRANCH   9  22
ATOM     22  C   UNL A   1      38.129  31.123  31.064  1.00  0.00    -0.019 A 
ATOM     23  C   UNL A   1      35.845  32.818  30.869  1.00  0.00     0.037 A 
ATOM     24  C   UNL A   1      36.647  32.518  29.774  1.00  0.00     0.026 A 
ATOM     25  C   UNL A   1      36.114  32.089  32.035  1.00  0.00     0.026 A 
ATOM     26  C   UNL A   1      37.728  31.659  29.852  1.00  0.00     0.008 A 
ATOM     27  C   UNL A   1      37.247  31.264  32.144  1.00  0.00     0.008 A 
BRANCH  23  28
ATOM     28  N   UNL A   1      34.862  33.796  30.799  1.00  0.00    -0.372 N 
BRANCH  28  29
ATOM     29  C   UNL A   1      34.704  34.715  31.934  1.00  0.00     0.113 C 
ATOM     30  C   UNL A   1      33.847  34.138  33.051  1.00  0.00     0.027 C 
ENDBRANCH  28  29
BRANCH  28  31
ATOM     31  C   UNL A   1      34.275  34.197  29.507  1.00  0.00     0.113 C 
ATOM     32  C   UNL A   1      33.179  35.258  29.601  1.00  0.00     0.027 C 
ENDBRANCH  28  31
ENDBRANCH  23  28
ENDBRANCH   9  22
BRANCH  11  33
ATOM     33  C   UNL A   1      38.684  28.261  31.694  1.00  0.00     0.220 C 
ATOM     34  C   UNL A   1      38.334  27.118  32.604  1.00  0.00     0.114 C 
ATOM     35  O   UNL A   1      38.174  28.205  30.568  1.00  0.00    -0.275 OA
ENDBRANCH  11  33
ENDBRANCH   5   8
ENDBRANCH   3   4
ENDBRANCH   2   3
ENDBRANCH   1   2
BRANCH   1  36
ATOM     36  C   UNL A   1      41.751  33.370  30.260  1.00  0.00     0.002 C 
BRANCH  36  37
ATOM     37  C   UNL A   1      41.480  34.807  29.779  1.00  0.00     0.021 C 
BRANCH  37  38
ATOM     38  C   UNL A   1      40.710  35.008  28.466  1.00  0.00     0.116 C 
BRANCH  38  39
ATOM     39  N   UNL A   1      41.193  36.129  27.672  1.00  0.00    -0.352 N 
ATOM     40  C   UNL A   1      42.395  36.379  27.054  1.00  0.00     0.251 C 
ATOM     41  H   UNL A   1      40.530  36.846  27.555  1.00  0.00     0.163 HD
ATOM     42  O   UNL A   1      42.581  37.500  26.581  1.00  0.00    -0.269 OA
BRANCH  40  43
ATOM     43  C   UNL A   1      43.475  35.364  26.933  1.00  0.00     0.039 A 
ATOM     44  C   UNL A   1      44.444  35.303  27.945  1.00  0.00     0.014 A 
ATOM     45  C   UNL A   1      43.627  34.555  25.804  1.00  0.00     0.014 A 
ATOM     46  C   UNL A   1      45.521  34.412  27.850  1.00  0.00     0.010 A 
ATOM     47  C   UNL A   1      44.673  33.623  25.735  1.00  0.00     0.010 A 
ATOM     48  C   UNL A   1      45.636  33.543  26.754  1.00  0.00    -0.014 A 
BRANCH  48  49
ATOM     49  C   UNL A   1      46.753  32.555  26.678  1.00  0.00     0.031 A 
ATOM     50  C   UNL A   1      48.160  32.996  26.361  1.00  0.00     0.074 A 
ATOM     51  C   UNL A   1      46.497  31.243  26.866  1.00  0.00     0.049 A 
ATOM     52  N   UNL A   1      49.247  32.275  26.242  1.00  0.00    -0.248 NA
ATOM     53  C   UNL A   1      48.370  34.433  26.129  1.00  0.00     0.031 C 
ATOM     54  C   UNL A   1      45.175  30.674  27.138  1.00  0.00     0.029 A 
ATOM     55  N   UNL A   1      47.328  30.149  26.856  1.00  0.00    -0.354 N 
ATOM     56  C   UNL A   1      50.266  33.165  25.915  1.00  0.00     0.074 A 
ATOM     57  C   UNL A   1      49.656  34.472  25.803  1.00  0.00     0.031 C 
ATOM     58  C   UNL A   1      45.288  29.346  27.293  1.00  0.00     0.029 A 
ATOM     59  C   UNL A   1      46.682  28.958  27.096  1.00  0.00     0.049 A 
ATOM     60  H   UNL A   1      48.297  30.212  26.692  1.00  0.00     0.167 HD
ATOM     61  C   UNL A   1      51.590  32.921  25.745  1.00  0.00     0.037 A 
ATOM     62  C   UNL A   1      47.151  27.695  27.146  1.00  0.00     0.037 A 
ATOM     63  C   UNL A   1      52.198  31.619  25.873  1.00  0.00     0.049 A 
ATOM     64  C   UNL A   1      48.623  27.448  26.944  1.00  0.00     0.074 A 
ATOM     65  C   UNL A   1      53.537  31.282  25.774  1.00  0.00     0.029 A 
ATOM     66  N   UNL A   1      51.508  30.441  26.118  1.00  0.00    -0.354 N 
ATOM     67  N   UNL A   1      49.579  28.314  26.704  1.00  0.00    -0.248 NA
ATOM     68  C   UNL A   1      49.081  26.054  27.026  1.00  0.00     0.031 C 
ATOM     69  C   UNL A   1      53.651  29.893  25.906  1.00  0.00     0.029 A 
ATOM     70  C   UNL A   1      52.390  29.371  26.146  1.00  0.00     0.049 A 
ATOM     71  H   UNL A   1      50.536  30.373  26.252  1.00  0.00     0.167 HD
ATOM     72  C   UNL A   1      50.754  27.573  26.630  1.00  0.00     0.074 A 
ATOM     73  C   UNL A   1      50.391  26.191  26.871  1.00  0.00     0.031 C 
ATOM     74  C   UNL A   1      52.018  27.997  26.382  1.00  0.00     0.037 A 
BRANCH  61  75
ATOM     75  C   UNL A   1      52.480  34.089  25.400  1.00  0.00     0.058 A 
ATOM     76  C   UNL A   1      53.073  34.885  26.394  1.00  0.00     0.135 A 
ATOM     77  C   UNL A   1      52.781  34.389  24.061  1.00  0.00     0.135 A 
ATOM     78  F   UNL A   1      52.815  34.653  27.691  1.00  0.00    -0.206 F 
ATOM     79  C   UNL A   1      53.903  35.954  26.072  1.00  0.00     0.059 A 
ATOM     80  C   UNL A   1      53.634  35.435  23.717  1.00  0.00     0.059 A 
ATOM     81  F   UNL A   1      52.248  33.660  23.068  1.00  0.00    -0.206 F 
ATOM     82  C   UNL A   1      54.178  36.223  24.731  1.00  0.00     0.060 A 
BRANCH  82  83
ATOM     83  S   UNL A   1      55.259  37.611  24.328  1.00  0.00     0.124 S 
ATOM     84  O   UNL A   1      55.847  37.162  23.064  1.00  0.00    -0.237 OA
ATOM     85  O   UNL A   1      54.310  38.721  24.217  1.00  0.00    -0.237 OA
ATOM     86  O   UNL A   1      56.171  37.678  25.454  1.00  0.00    -0.744 OA
ENDBRANCH  82  83
ENDBRANCH  61  75
BRANCH  62  87
ATOM     87  C   UNL A   1      46.220  26.565  27.417  1.00  0.00     0.058 A 
ATOM     88  C   UNL A   1      45.910  26.179  28.729  1.00  0.00     0.135 A 
ATOM     89  C   UNL A   1      45.615  25.853  26.368  1.00  0.00     0.135 A 
ATOM     90  F   UNL A   1      46.469  26.820  29.766  1.00  0.00    -0.206 F 
ATOM     91  C   UNL A   1      45.048  25.120  28.995  1.00  0.00     0.059 A 
ATOM     92  C   UNL A   1      44.727  24.808  26.608  1.00  0.00     0.059 A 
ATOM     93  F   UNL A   1      45.866  26.190  25.094  1.00  0.00    -0.206 F 
ATOM     94  C   UNL A   1      44.458  24.442  27.926  1.00  0.00     0.060 A 
BRANCH  94  95
ATOM     95  S   UNL A   1      43.301  23.101  28.281  1.00  0.00     0.124 S 
ATOM     96  O   UNL A   1      43.513  22.220  27.139  1.00  0.00    -0.237 OA
ATOM     97  O   UNL A   1      43.790  22.610  29.567  1.00  0.00    -0.237 OA
ATOM     98  O   UNL A   1      42.008  23.776  28.329  1.00  0.00    -0.744 OA
ENDBRANCH  94  95
ENDBRANCH  62  87
BRANCH  74  99
ATOM     99  C   UNL A   1      53.109  26.960  26.383  1.00  0.00     0.058 A 
ATOM    100  C   UNL A   1      53.840  26.657  27.544  1.00  0.00     0.135 A 
ATOM    101  C   UNL A   1      53.406  26.236  25.217  1.00  0.00     0.135 A 
ATOM    102  F   UNL A   1      53.603  27.323  28.686  1.00  0.00    -0.206 F 
ATOM    103  C   UNL A   1      54.847  25.697  27.540  1.00  0.00     0.059 A 
ATOM    104  C   UNL A   1      54.388  25.248  25.198  1.00  0.00     0.059 A 
ATOM    105  F   UNL A   1      52.732  26.476  24.081  1.00  0.00    -0.206 F 
ATOM    106  C   UNL A   1      55.114  24.997  26.362  1.00  0.00     0.060 A 
BRANCH 106 107
ATOM    107  S   UNL A   1      56.410  23.741  26.375  1.00  0.00     0.124 S 
ATOM    108  O   UNL A   1      57.243  24.189  27.486  1.00  0.00    -0.237 OA
ATOM    109  O   UNL A   1      55.653  22.514  26.604  1.00  0.00    -0.237 OA
ATOM    110  O   UNL A   1      57.013  23.859  25.051  1.00  0.00    -0.744 OA
ENDBRANCH 106 107
ENDBRANCH  74  99
ENDBRANCH  48  49
ENDBRANCH  40  43
ENDBRANCH  38  39
ENDBRANCH  37  38
ENDBRANCH  36  37
ENDBRANCH   1  36
TORSDOF 21
ENDMDL
MODEL 3
REMARK VINA RESULT:      -8.2      3.572      8.120
REMARK SMILES CCN(CC)c1ccc([C@@H]2c3[nH]c4ccccc4c3C[C@@H](C(=O)NCCCCCCNC(=O)c3ccc(-c4c5nc(c(-c6c(F)cc(S(=O)(=O)[O-])cc6F)c6ccc([nH]6)c(-c6c(F)cc(S(=O)(=O)[O-])cc6F)c6nc(c(-c7c(F)cc(S(=O)(=O)[O-])cc7F)c7ccc4[nH]7)C=C6)C=C5)cc3)N2C(C)=O)cc1
REMARK SMILES IDX 27 1 26 2 25 3 24 4 22 5 23 6 21 8 10 9 11 10 100 11 12 12
REMARK SMILES IDX 19 13 13 14 18 16 20 17 14 18 17 19 15 20 16 21 9 22 6 23
REMARK SMILES IDX 7 24 105 25 8 26 104 27 3 28 2 29 1 30 4 31 5 32 101 33
REMARK SMILES IDX 102 34 103 35 28 36 29 37 30 38 31 39 32 40 33 42 34 43
REMARK SMILES IDX 35 44 99 45 36 46 98 47 37 48 38 49 39 50 92 51 40 52 97 53
REMARK SMILES IDX 91 54 93 55 41 56 96 57 90 58 89 59 42 61 76 62 55 63 75 64
REMARK SMILES IDX 56 65 59 66 74 67 94 68 57 69 58 70 73 72 95 73 60 74 43 75
REMARK SMILES IDX 44 76 53 77 45 78 46 79 52 80 54 81 47 82 48 83 49 84 50 85
REMARK SMILES IDX 51 86 77 87 78 88 87 89 79 90 80 91 86 92 88 93 81 94 82 95
REMARK SMILES IDX 83 96 84 97 85 98 61 99 62 100 71 101 63 102 64 103 70 104
REMARK SMILES IDX 72 105 65 106 66 107 67 108 68 109 69 110
REMARK H PARENT 24 7 12 15 31 41 93 60 59 71
REMARK Flexibility Score: inf
ROOT
ATOM      1  C   UNL A   1      49.829  27.088  27.663  1.00  0.00     0.002 C 
ENDROOT
BRANCH   1   2
ATOM      2  C   UNL A   1      48.487  26.359  27.881  1.00  0.00     0.021 C 
BRANCH   2   3
ATOM      3  C   UNL A   1      48.241  24.948  27.285  1.00  0.00     0.116 C 
BRANCH   3   4
ATOM      4  N   UNL A   1      46.977  24.781  26.487  1.00  0.00    -0.354 N 
ATOM      5  C   UNL A   1      45.660  24.389  26.630  1.00  0.00     0.243 C 
ATOM      6  O   UNL A   1      44.954  24.641  25.638  1.00  0.00    -0.273 OA
ATOM      7  H   UNL A   1      47.143  25.036  25.551  1.00  0.00     0.163 HD
BRANCH   5   8
ATOM      8  C   UNL A   1      45.015  23.475  27.773  1.00  0.00     0.179 C 
ATOM      9  C   UNL A   1      42.957  24.763  27.521  1.00  0.00     0.163 C 
ATOM     10  C   UNL A   1      42.453  23.523  26.791  1.00  0.00     0.047 A 
ATOM     11  N   UNL A   1      43.840  24.127  28.492  1.00  0.00    -0.318 N 
ATOM     12  N   UNL A   1      41.233  23.314  26.219  1.00  0.00    -0.356 N 
ATOM     13  C   UNL A   1      43.158  22.317  26.690  1.00  0.00    -0.014 A 
ATOM     14  C   UNL A   1      41.023  21.959  26.107  1.00  0.00     0.046 A 
ATOM     15  H   UNL A   1      40.607  24.018  25.934  1.00  0.00     0.166 HD
ATOM     16  C   UNL A   1      42.242  21.319  26.317  1.00  0.00     0.003 A 
ATOM     17  C   UNL A   1      44.561  22.141  27.184  1.00  0.00     0.073 C 
ATOM     18  C   UNL A   1      39.843  21.258  25.876  1.00  0.00     0.026 A 
ATOM     19  C   UNL A   1      42.325  19.923  26.249  1.00  0.00     0.010 A 
ATOM     20  C   UNL A   1      39.928  19.863  25.895  1.00  0.00     0.002 A 
ATOM     21  C   UNL A   1      41.147  19.205  26.062  1.00  0.00     0.001 A 
BRANCH   9  22
ATOM     22  C   UNL A   1      42.020  25.837  28.026  1.00  0.00    -0.019 A 
ATOM     23  C   UNL A   1      40.354  27.638  29.479  1.00  0.00     0.037 A 
ATOM     24  C   UNL A   1      41.687  27.917  29.199  1.00  0.00     0.026 A 
ATOM     25  C   UNL A   1      39.825  26.506  28.845  1.00  0.00     0.026 A 
ATOM     26  C   UNL A   1      42.487  27.068  28.454  1.00  0.00     0.008 A 
ATOM     27  C   UNL A   1      40.642  25.606  28.140  1.00  0.00     0.008 A 
BRANCH  23  28
ATOM     28  N   UNL A   1      39.618  28.429  30.352  1.00  0.00    -0.372 N 
BRANCH  28  29
ATOM     29  C   UNL A   1      38.157  28.277  30.375  1.00  0.00     0.113 C 
ATOM     30  C   UNL A   1      37.469  29.284  31.284  1.00  0.00     0.027 C 
ENDBRANCH  28  29
BRANCH  28  31
ATOM     31  C   UNL A   1      40.256  29.088  31.506  1.00  0.00     0.113 C 
ATOM     32  C   UNL A   1      40.438  28.197  32.735  1.00  0.00     0.027 C 
ENDBRANCH  28  31
ENDBRANCH  23  28
ENDBRANCH   9  22
BRANCH  11  33
ATOM     33  C   UNL A   1      43.139  23.549  29.579  1.00  0.00     0.220 C 
ATOM     34  C   UNL A   1      43.682  23.575  30.979  1.00  0.00     0.114 C 
ATOM     35  O   UNL A   1      42.058  22.960  29.451  1.00  0.00    -0.275 OA
ENDBRANCH  11  33
ENDBRANCH   5   8
ENDBRANCH   3   4
ENDBRANCH   2   3
ENDBRANCH   1   2
BRANCH   1  36
ATOM     36  C   UNL A   1      50.790  26.566  26.581  1.00  0.00     0.002 C 
BRANCH  36  37
ATOM     37  C   UNL A   1      50.468  26.834  25.099  1.00  0.00     0.021 C 
BRANCH  37  38
ATOM     38  C   UNL A   1      49.278  26.101  24.463  1.00  0.00     0.116 C 
BRANCH  38  39
ATOM     39  N   UNL A   1      48.573  26.890  23.463  1.00  0.00    -0.352 N 
ATOM     40  C   UNL A   1      47.532  27.783  23.550  1.00  0.00     0.251 C 
ATOM     41  H   UNL A   1      48.908  26.759  22.546  1.00  0.00     0.163 HD
ATOM     42  O   UNL A   1      47.023  28.185  22.503  1.00  0.00    -0.269 OA
BRANCH  40  43
ATOM     43  C   UNL A   1      46.993  28.281  24.844  1.00  0.00     0.039 A 
ATOM     44  C   UNL A   1      45.680  27.933  25.192  1.00  0.00     0.014 A 
ATOM     45  C   UNL A   1      47.695  29.169  25.661  1.00  0.00     0.014 A 
ATOM     46  C   UNL A   1      45.098  28.429  26.367  1.00  0.00     0.010 A 
ATOM     47  C   UNL A   1      47.134  29.620  26.865  1.00  0.00     0.010 A 
ATOM     48  C   UNL A   1      45.826  29.260  27.231  1.00  0.00    -0.014 A 
BRANCH  48  49
ATOM     49  C   UNL A   1      45.227  29.745  28.510  1.00  0.00     0.031 A 
ATOM     50  C   UNL A   1      44.676  31.144  28.628  1.00  0.00     0.074 A 
ATOM     51  C   UNL A   1      45.202  28.930  29.586  1.00  0.00     0.049 A 
ATOM     52  N   UNL A   1      44.131  31.735  29.663  1.00  0.00    -0.248 NA
ATOM     53  C   UNL A   1      44.763  31.997  27.433  1.00  0.00     0.031 C 
ATOM     54  C   UNL A   1      45.739  27.567  29.622  1.00  0.00     0.029 A 
ATOM     55  N   UNL A   1      44.713  29.123  30.855  1.00  0.00    -0.354 N 
ATOM     56  C   UNL A   1      43.821  33.027  29.249  1.00  0.00     0.074 A 
ATOM     57  C   UNL A   1      44.285  33.149  27.884  1.00  0.00     0.031 C 
ATOM     58  C   UNL A   1      45.528  27.042  30.839  1.00  0.00     0.029 A 
ATOM     59  C   UNL A   1      44.875  28.037  31.684  1.00  0.00     0.049 A 
ATOM     60  H   UNL A   1      44.286  29.962  31.144  1.00  0.00     0.167 HD
ATOM     61  C   UNL A   1      43.188  34.013  29.934  1.00  0.00     0.037 A 
ATOM     62  C   UNL A   1      44.544  27.859  32.979  1.00  0.00     0.037 A 
ATOM     63  C   UNL A   1      42.713  33.883  31.289  1.00  0.00     0.049 A 
ATOM     64  C   UNL A   1      43.852  28.972  33.721  1.00  0.00     0.074 A 
ATOM     65  C   UNL A   1      42.012  34.806  32.047  1.00  0.00     0.029 A 
ATOM     66  N   UNL A   1      42.896  32.766  32.092  1.00  0.00    -0.354 N 
ATOM     67  N   UNL A   1      43.506  30.161  33.288  1.00  0.00    -0.248 NA
ATOM     68  C   UNL A   1      43.499  28.717  35.124  1.00  0.00     0.031 C 
ATOM     69  C   UNL A   1      41.818  34.268  33.325  1.00  0.00     0.029 A 
ATOM     70  C   UNL A   1      42.346  32.987  33.346  1.00  0.00     0.049 A 
ATOM     71  H   UNL A   1      43.349  31.938  31.812  1.00  0.00     0.167 HD
ATOM     72  C   UNL A   1      42.874  30.787  34.359  1.00  0.00     0.074 A 
ATOM     73  C   UNL A   1      42.868  29.836  35.452  1.00  0.00     0.031 C 
ATOM     74  C   UNL A   1      42.349  32.035  34.430  1.00  0.00     0.037 A 
BRANCH  61  75
ATOM     75  C   UNL A   1      42.970  35.328  29.228  1.00  0.00     0.058 A 
ATOM     76  C   UNL A   1      41.737  35.656  28.640  1.00  0.00     0.135 A 
ATOM     77  C   UNL A   1      43.991  36.292  29.179  1.00  0.00     0.135 A 
ATOM     78  F   UNL A   1      40.728  34.771  28.647  1.00  0.00    -0.206 F 
ATOM     79  C   UNL A   1      41.537  36.875  28.001  1.00  0.00     0.059 A 
ATOM     80  C   UNL A   1      43.802  37.531  28.572  1.00  0.00     0.059 A 
ATOM     81  F   UNL A   1      45.189  36.038  29.728  1.00  0.00    -0.206 F 
ATOM     82  C   UNL A   1      42.575  37.807  27.970  1.00  0.00     0.060 A 
BRANCH  82  83
ATOM     83  S   UNL A   1      42.299  39.386  27.140  1.00  0.00     0.124 S 
ATOM     84  O   UNL A   1      43.601  39.612  26.510  1.00  0.00    -0.237 OA
ATOM     85  O   UNL A   1      41.205  39.066  26.221  1.00  0.00    -0.237 OA
ATOM     86  O   UNL A   1      41.961  40.292  28.222  1.00  0.00    -0.744 OA
ENDBRANCH  82  83
ENDBRANCH  61  75
BRANCH  62  87
ATOM     87  C   UNL A   1      44.846  26.567  33.654  1.00  0.00     0.058 A 
ATOM     88  C   UNL A   1      46.157  26.232  34.027  1.00  0.00     0.135 A 
ATOM     89  C   UNL A   1      43.830  25.644  33.949  1.00  0.00     0.135 A 
ATOM     90  F   UNL A   1      47.166  27.075  33.759  1.00  0.00    -0.206 F 
ATOM     91  C   UNL A   1      46.453  25.025  34.651  1.00  0.00     0.059 A 
ATOM     92  C   UNL A   1      44.097  24.442  34.598  1.00  0.00     0.059 A 
ATOM     93  F   UNL A   1      42.556  25.920  33.627  1.00  0.00    -0.206 F 
ATOM     94  C   UNL A   1      45.414  24.137  34.936  1.00  0.00     0.060 A 
BRANCH  94  95
ATOM     95  S   UNL A   1      45.802  22.594  35.791  1.00  0.00     0.124 S 
ATOM     96  O   UNL A   1      47.215  22.429  35.474  1.00  0.00    -0.237 OA
ATOM     97  O   UNL A   1      45.491  22.928  37.178  1.00  0.00    -0.237 OA
ATOM     98  O   UNL A   1      44.898  21.630  35.170  1.00  0.00    -0.744 OA
ENDBRANCH  94  95
ENDBRANCH  62  87
BRANCH  74  99
ATOM     99  C   UNL A   1      41.701  32.440  35.727  1.00  0.00     0.058 A 
ATOM    100  C   UNL A   1      40.337  32.216  35.973  1.00  0.00     0.135 A 
ATOM    101  C   UNL A   1      42.460  33.031  36.751  1.00  0.00     0.135 A 
ATOM    102  F   UNL A   1      39.561  31.661  35.027  1.00  0.00    -0.206 F 
ATOM    103  C   UNL A   1      39.742  32.591  37.174  1.00  0.00     0.059 A 
ATOM    104  C   UNL A   1      41.893  33.385  37.972  1.00  0.00     0.059 A 
ATOM    105  F   UNL A   1      43.772  33.259  36.575  1.00  0.00    -0.206 F 
ATOM    106  C   UNL A   1      40.529  33.175  38.168  1.00  0.00     0.060 A 
BRANCH 106 107
ATOM    107  S   UNL A   1      39.749  33.641  39.728  1.00  0.00     0.124 S 
ATOM    108  O   UNL A   1      38.847  34.704  39.300  1.00  0.00    -0.237 OA
ATOM    109  O   UNL A   1      39.110  32.395  40.141  1.00  0.00    -0.237 OA
ATOM    110  O   UNL A   1      40.872  34.065  40.558  1.00  0.00    -0.744 OA
ENDBRANCH 106 107
ENDBRANCH  74  99
ENDBRANCH  48  49
ENDBRANCH  40  43
ENDBRANCH  38  39
ENDBRANCH  37  38
ENDBRANCH  36  37
ENDBRANCH   1  36
TORSDOF 21
ENDMDL
