MODEL 1
REMARK VINA RESULT:     -10.2      0.000      0.000
REMARK SMILES C[C@@H](Sc1ccccc1[N+](=O)[O-])[C@@H](C)C(=O)NCCCCCCNC(=O)c1ccc(-c2c3nc(c(-c4c(F)cc(S(=O)(=O)[O-])cc4F)c4ccc([nH]4)c(-c4c(F)cc(S(=O)(=O)[O-])cc4F)c4nc(c(-c5c(F)cc(S(=O)(=O)[O-])cc5F)c5ccc2[nH]5)C=C4)C=C3)cc1
REMARK SMILES IDX 20 1 19 2 18 3 17 4 15 5 16 6 13 8 14 9 2 10 1 11 3 12 4 13
REMARK SMILES IDX 5 14 9 15 6 16 8 17 7 18 10 19 11 20 12 21 21 22 22 23 23 24
REMARK SMILES IDX 24 25 25 26 26 28 27 29 28 30 92 31 29 32 91 33 30 34 31 35
REMARK SMILES IDX 32 36 85 37 33 38 90 39 84 40 86 41 34 42 89 43 83 44 82 45
REMARK SMILES IDX 35 47 69 48 48 49 68 50 49 51 52 52 67 53 87 54 50 55 51 56
REMARK SMILES IDX 66 58 88 59 53 60 36 61 37 62 46 63 38 64 39 65 45 66 47 67
REMARK SMILES IDX 40 68 41 69 42 70 43 71 44 72 70 73 71 74 80 75 72 76 73 77
REMARK SMILES IDX 79 78 81 79 74 80 75 81 76 82 77 83 78 84 54 85 55 86 64 87
REMARK SMILES IDX 56 88 57 89 63 90 65 91 58 92 59 93 60 94 61 95 62 96
REMARK H PARENT 17 7 24 27 86 46 52 57
REMARK Flexibility Score: inf
ROOT
ATOM      1  C   UNL A   1      37.379  21.735  24.868  1.00  0.00     0.002 C 
ENDROOT
BRANCH   1   2
ATOM      2  C   UNL A   1      36.879  22.636  23.731  1.00  0.00     0.021 C 
BRANCH   2   3
ATOM      3  C   UNL A   1      35.391  22.968  23.818  1.00  0.00     0.116 C 
BRANCH   3   4
ATOM      4  N   UNL A   1      35.177  24.161  24.612  1.00  0.00    -0.356 N 
ATOM      5  C   UNL A   1      34.327  25.204  24.458  1.00  0.00     0.223 C 
ATOM      6  O   UNL A   1      34.408  26.124  25.279  1.00  0.00    -0.275 OA
ATOM      7  H   UNL A   1      35.754  24.224  25.407  1.00  0.00     0.163 HD
BRANCH   5   8
ATOM      8  C   UNL A   1      33.247  25.235  23.379  1.00  0.00     0.088 C 
ATOM      9  C   UNL A   1      33.601  26.324  22.357  1.00  0.00     0.019 C 
BRANCH   8  10
ATOM     10  C   UNL A   1      31.771  25.292  23.863  1.00  0.00     0.061 C 
ATOM     11  C   UNL A   1      31.045  26.447  23.165  1.00  0.00     0.020 C 
BRANCH  10  12
ATOM     12  S   UNL A   1      30.918  23.699  23.502  1.00  0.00    -0.115 SA
BRANCH  12  13
ATOM     13  C   UNL A   1      31.810  22.322  24.239  1.00  0.00     0.085 A 
ATOM     14  C   UNL A   1      32.156  21.363  23.257  1.00  0.00     0.022 A 
ATOM     15  C   UNL A   1      32.180  21.994  25.552  1.00  0.00     0.282 A 
ATOM     16  C   UNL A   1      32.775  20.146  23.572  1.00  0.00     0.002 A 
ATOM     17  C   UNL A   1      32.769  20.754  25.887  1.00  0.00     0.087 A 
ATOM     18  C   UNL A   1      33.058  19.829  24.891  1.00  0.00     0.007 A 
BRANCH  15  19
ATOM     19  N   UNL A   1      32.075  22.914  26.656  1.00  0.00     0.063 N 
ATOM     20  O   UNL A   1      33.050  23.643  26.879  1.00  0.00    -0.258 OA
ATOM     21  O   UNL A   1      30.990  22.957  27.251  1.00  0.00    -0.258 OA
ENDBRANCH  15  19
ENDBRANCH  12  13
ENDBRANCH  10  12
ENDBRANCH   8  10
ENDBRANCH   5   8
ENDBRANCH   3   4
ENDBRANCH   2   3
ENDBRANCH   1   2
BRANCH   1  22
ATOM     22  C   UNL A   1      37.185  20.232  24.634  1.00  0.00     0.002 C 
BRANCH  22  23
ATOM     23  C   UNL A   1      38.273  19.342  25.239  1.00  0.00     0.021 C 
BRANCH  23  24
ATOM     24  C   UNL A   1      39.475  20.105  25.781  1.00  0.00     0.116 C 
BRANCH  24  25
ATOM     25  N   UNL A   1      40.571  19.214  26.127  1.00  0.00    -0.352 N 
ATOM     26  C   UNL A   1      41.879  19.522  26.415  1.00  0.00     0.251 C 
ATOM     27  H   UNL A   1      40.345  18.256  26.160  1.00  0.00     0.163 HD
ATOM     28  O   UNL A   1      42.721  18.635  26.482  1.00  0.00    -0.269 OA
BRANCH  26  29
ATOM     29  C   UNL A   1      42.260  20.935  26.625  1.00  0.00     0.039 A 
ATOM     30  C   UNL A   1      42.538  21.377  27.919  1.00  0.00     0.014 A 
ATOM     31  C   UNL A   1      42.348  21.816  25.544  1.00  0.00     0.014 A 
ATOM     32  C   UNL A   1      42.958  22.694  28.123  1.00  0.00     0.010 A 
ATOM     33  C   UNL A   1      42.842  23.101  25.738  1.00  0.00     0.010 A 
ATOM     34  C   UNL A   1      43.143  23.558  27.030  1.00  0.00    -0.014 A 
BRANCH  34  35
ATOM     35  C   UNL A   1      43.639  24.946  27.215  1.00  0.00     0.031 A 
ATOM     36  C   UNL A   1      45.092  25.261  26.984  1.00  0.00     0.074 A 
ATOM     37  C   UNL A   1      42.798  25.904  27.653  1.00  0.00     0.049 A 
ATOM     38  N   UNL A   1      45.735  26.384  27.172  1.00  0.00    -0.248 NA
ATOM     39  C   UNL A   1      45.943  24.159  26.504  1.00  0.00     0.031 C 
ATOM     40  C   UNL A   1      41.377  25.713  27.952  1.00  0.00     0.029 A 
ATOM     41  N   UNL A   1      43.019  27.230  27.935  1.00  0.00    -0.354 N 
ATOM     42  C   UNL A   1      47.061  26.121  26.850  1.00  0.00     0.074 A 
ATOM     43  C   UNL A   1      47.143  24.719  26.510  1.00  0.00     0.031 C 
ATOM     44  C   UNL A   1      40.851  26.879  28.358  1.00  0.00     0.029 A 
ATOM     45  C   UNL A   1      41.902  27.892  28.389  1.00  0.00     0.049 A 
ATOM     46  H   UNL A   1      43.895  27.666  27.823  1.00  0.00     0.167 HD
ATOM     47  C   UNL A   1      48.111  26.976  26.820  1.00  0.00     0.037 A 
ATOM     48  C   UNL A   1      41.746  29.166  28.799  1.00  0.00     0.037 A 
ATOM     49  C   UNL A   1      48.015  28.377  27.140  1.00  0.00     0.049 A 
ATOM     50  C   UNL A   1      42.930  30.096  28.767  1.00  0.00     0.074 A 
ATOM     51  C   UNL A   1      49.007  29.341  27.086  1.00  0.00     0.029 A 
ATOM     52  N   UNL A   1      46.862  29.014  27.576  1.00  0.00    -0.354 N 
ATOM     53  N   UNL A   1      44.164  29.845  28.401  1.00  0.00    -0.248 NA
ATOM     54  C   UNL A   1      42.699  31.482  29.196  1.00  0.00     0.031 C 
ATOM     55  C   UNL A   1      48.467  30.548  27.541  1.00  0.00     0.029 A 
ATOM     56  C   UNL A   1      47.124  30.353  27.817  1.00  0.00     0.049 A 
ATOM     57  H   UNL A   1      45.987  28.580  27.695  1.00  0.00     0.167 HD
ATOM     58  C   UNL A   1      44.850  31.050  28.523  1.00  0.00     0.074 A 
ATOM     59  C   UNL A   1      43.889  32.029  28.988  1.00  0.00     0.031 C 
ATOM     60  C   UNL A   1      46.154  31.321  28.269  1.00  0.00     0.037 A 
BRANCH  47  61
ATOM     61  C   UNL A   1      49.455  26.422  26.428  1.00  0.00     0.058 A 
ATOM     62  C   UNL A   1      49.916  26.466  25.102  1.00  0.00     0.135 A 
ATOM     63  C   UNL A   1      50.310  25.875  27.398  1.00  0.00     0.135 A 
ATOM     64  F   UNL A   1      49.134  26.965  24.130  1.00  0.00    -0.206 F 
ATOM     65  C   UNL A   1      51.161  25.960  24.747  1.00  0.00     0.059 A 
ATOM     66  C   UNL A   1      51.574  25.392  27.070  1.00  0.00     0.059 A 
ATOM     67  F   UNL A   1      49.922  25.807  28.682  1.00  0.00    -0.206 F 
ATOM     68  C   UNL A   1      51.984  25.425  25.739  1.00  0.00     0.060 A 
BRANCH  68  69
ATOM     69  S   UNL A   1      53.599  24.777  25.260  1.00  0.00     0.124 S 
ATOM     70  O   UNL A   1      54.390  25.050  26.457  1.00  0.00    -0.237 OA
ATOM     71  O   UNL A   1      53.307  23.371  25.001  1.00  0.00    -0.237 OA
ATOM     72  O   UNL A   1      53.949  25.569  24.085  1.00  0.00    -0.744 OA
ENDBRANCH  68  69
ENDBRANCH  47  61
BRANCH  48  73
ATOM     73  C   UNL A   1      40.412  29.642  29.257  1.00  0.00     0.058 A 
ATOM     74  C   UNL A   1      40.153  29.874  30.616  1.00  0.00     0.135 A 
ATOM     75  C   UNL A   1      39.372  29.883  28.345  1.00  0.00     0.135 A 
ATOM     76  F   UNL A   1      41.112  29.652  31.528  1.00  0.00    -0.206 F 
ATOM     77  C   UNL A   1      38.908  30.308  31.059  1.00  0.00     0.059 A 
ATOM     78  C   UNL A   1      38.126  30.345  28.761  1.00  0.00     0.059 A 
ATOM     79  F   UNL A   1      39.570  29.693  27.032  1.00  0.00    -0.206 F 
ATOM     80  C   UNL A   1      37.900  30.545  30.122  1.00  0.00     0.060 A 
BRANCH  80  81
ATOM     81  S   UNL A   1      36.302  31.151  30.704  1.00  0.00     0.124 S 
ATOM     82  O   UNL A   1      35.902  30.090  31.621  1.00  0.00    -0.237 OA
ATOM     83  O   UNL A   1      36.665  32.424  31.318  1.00  0.00    -0.237 OA
ATOM     84  O   UNL A   1      35.517  31.256  29.478  1.00  0.00    -0.744 OA
ENDBRANCH  80  81
ENDBRANCH  48  73
BRANCH  60  85
ATOM     85  C   UNL A   1      46.617  32.742  28.440  1.00  0.00     0.058 A 
ATOM     86  C   UNL A   1      47.177  33.203  29.641  1.00  0.00     0.135 A 
ATOM     87  C   UNL A   1      46.556  33.639  27.360  1.00  0.00     0.135 A 
ATOM     88  F   UNL A   1      47.253  32.389  30.707  1.00  0.00    -0.206 F 
ATOM     89  C   UNL A   1      47.640  34.508  29.774  1.00  0.00     0.059 A 
ATOM     90  C   UNL A   1      47.042  34.939  27.460  1.00  0.00     0.059 A 
ATOM     91  F   UNL A   1      46.040  33.248  26.184  1.00  0.00    -0.206 F 
ATOM     92  C   UNL A   1      47.573  35.367  28.675  1.00  0.00     0.060 A 
BRANCH  92  93
ATOM     93  S   UNL A   1      48.217  37.045  28.848  1.00  0.00     0.124 S 
ATOM     94  O   UNL A   1      49.599  36.791  29.242  1.00  0.00    -0.237 OA
ATOM     95  O   UNL A   1      48.031  37.588  27.506  1.00  0.00    -0.237 OA
ATOM     96  O   UNL A   1      47.367  37.632  29.880  1.00  0.00    -0.744 OA
ENDBRANCH  92  93
ENDBRANCH  60  85
ENDBRANCH  34  35
ENDBRANCH  26  29
ENDBRANCH  24  25
ENDBRANCH  23  24
ENDBRANCH  22  23
ENDBRANCH   1  22
TORSDOF 20
ENDMDL
MODEL 2
REMARK VINA RESULT:      -9.9      2.493      8.654
REMARK SMILES C[C@@H](Sc1ccccc1[N+](=O)[O-])[C@@H](C)C(=O)NCCCCCCNC(=O)c1ccc(-c2c3nc(c(-c4c(F)cc(S(=O)(=O)[O-])cc4F)c4ccc([nH]4)c(-c4c(F)cc(S(=O)(=O)[O-])cc4F)c4nc(c(-c5c(F)cc(S(=O)(=O)[O-])cc5F)c5ccc2[nH]5)C=C4)C=C3)cc1
REMARK SMILES IDX 20 1 19 2 18 3 17 4 15 5 16 6 13 8 14 9 2 10 1 11 3 12 4 13
REMARK SMILES IDX 5 14 9 15 6 16 8 17 7 18 10 19 11 20 12 21 21 22 22 23 23 24
REMARK SMILES IDX 24 25 25 26 26 28 27 29 28 30 92 31 29 32 91 33 30 34 31 35
REMARK SMILES IDX 32 36 85 37 33 38 90 39 84 40 86 41 34 42 89 43 83 44 82 45
REMARK SMILES IDX 35 47 69 48 48 49 68 50 49 51 52 52 67 53 87 54 50 55 51 56
REMARK SMILES IDX 66 58 88 59 53 60 36 61 37 62 46 63 38 64 39 65 45 66 47 67
REMARK SMILES IDX 40 68 41 69 42 70 43 71 44 72 70 73 71 74 80 75 72 76 73 77
REMARK SMILES IDX 79 78 81 79 74 80 75 81 76 82 77 83 78 84 54 85 55 86 64 87
REMARK SMILES IDX 56 88 57 89 63 90 65 91 58 92 59 93 60 94 61 95 62 96
REMARK H PARENT 17 7 24 27 86 46 52 57
REMARK Flexibility Score: inf
ROOT
ATOM      1  C   UNL A   1      33.878  29.034  27.105  1.00  0.00     0.002 C 
ENDROOT
BRANCH   1   2
ATOM      2  C   UNL A   1      33.314  29.574  25.784  1.00  0.00     0.021 C 
BRANCH   2   3
ATOM      3  C   UNL A   1      31.796  29.743  25.786  1.00  0.00     0.116 C 
BRANCH   3   4
ATOM      4  N   UNL A   1      31.262  29.610  24.445  1.00  0.00    -0.356 N 
ATOM      5  C   UNL A   1      31.722  28.952  23.355  1.00  0.00     0.223 C 
ATOM      6  O   UNL A   1      31.070  29.065  22.311  1.00  0.00    -0.275 OA
ATOM      7  H   UNL A   1      30.412  30.085  24.302  1.00  0.00     0.163 HD
BRANCH   5   8
ATOM      8  C   UNL A   1      32.942  28.035  23.399  1.00  0.00     0.088 C 
ATOM      9  C   UNL A   1      33.975  28.537  22.381  1.00  0.00     0.019 C 
BRANCH   8  10
ATOM     10  C   UNL A   1      32.676  26.506  23.313  1.00  0.00     0.061 C 
ATOM     11  C   UNL A   1      33.212  25.965  21.984  1.00  0.00     0.020 C 
BRANCH  10  12
ATOM     12  S   UNL A   1      33.485  25.637  24.722  1.00  0.00    -0.115 SA
BRANCH  12  13
ATOM     13  C   UNL A   1      32.930  23.928  24.816  1.00  0.00     0.085 A 
ATOM     14  C   UNL A   1      33.765  23.085  24.046  1.00  0.00     0.022 A 
ATOM     15  C   UNL A   1      31.847  23.290  25.439  1.00  0.00     0.282 A 
ATOM     16  C   UNL A   1      33.506  21.719  23.867  1.00  0.00     0.002 A 
ATOM     17  C   UNL A   1      31.553  21.923  25.236  1.00  0.00     0.087 A 
ATOM     18  C   UNL A   1      32.384  21.142  24.442  1.00  0.00     0.007 A 
BRANCH  15  19
ATOM     19  N   UNL A   1      30.994  23.941  26.401  1.00  0.00     0.063 N 
ATOM     20  O   UNL A   1      31.034  23.523  27.566  1.00  0.00    -0.258 OA
ATOM     21  O   UNL A   1      30.341  24.915  26.005  1.00  0.00    -0.258 OA
ENDBRANCH  15  19
ENDBRANCH  12  13
ENDBRANCH  10  12
ENDBRANCH   8  10
ENDBRANCH   5   8
ENDBRANCH   3   4
ENDBRANCH   2   3
ENDBRANCH   1   2
BRANCH   1  22
ATOM     22  C   UNL A   1      35.103  29.785  27.638  1.00  0.00     0.002 C 
BRANCH  22  23
ATOM     23  C   UNL A   1      34.855  31.256  27.983  1.00  0.00     0.021 C 
BRANCH  23  24
ATOM     24  C   UNL A   1      35.878  31.855  28.940  1.00  0.00     0.116 C 
BRANCH  24  25
ATOM     25  N   UNL A   1      35.688  31.382  30.302  1.00  0.00    -0.352 N 
ATOM     26  C   UNL A   1      36.510  30.586  31.063  1.00  0.00     0.251 C 
ATOM     27  H   UNL A   1      34.856  31.672  30.740  1.00  0.00     0.163 HD
ATOM     28  O   UNL A   1      36.104  30.110  32.116  1.00  0.00    -0.269 OA
BRANCH  26  29
ATOM     29  C   UNL A   1      37.880  30.296  30.589  1.00  0.00     0.039 A 
ATOM     30  C   UNL A   1      38.866  29.970  31.522  1.00  0.00     0.014 A 
ATOM     31  C   UNL A   1      38.185  30.342  29.226  1.00  0.00     0.014 A 
ATOM     32  C   UNL A   1      40.149  29.636  31.081  1.00  0.00     0.010 A 
ATOM     33  C   UNL A   1      39.438  29.933  28.784  1.00  0.00     0.010 A 
ATOM     34  C   UNL A   1      40.437  29.584  29.707  1.00  0.00    -0.014 A 
BRANCH  34  35
ATOM     35  C   UNL A   1      41.778  29.181  29.210  1.00  0.00     0.031 A 
ATOM     36  C   UNL A   1      42.878  30.202  29.106  1.00  0.00     0.074 A 
ATOM     37  C   UNL A   1      41.984  27.916  28.793  1.00  0.00     0.049 A 
ATOM     38  N   UNL A   1      44.085  30.071  28.620  1.00  0.00    -0.248 NA
ATOM     39  C   UNL A   1      42.571  31.560  29.585  1.00  0.00     0.031 C 
ATOM     40  C   UNL A   1      40.984  26.846  28.806  1.00  0.00     0.029 A 
ATOM     41  N   UNL A   1      43.101  27.317  28.265  1.00  0.00    -0.354 N 
ATOM     42  C   UNL A   1      44.673  31.326  28.720  1.00  0.00     0.074 A 
ATOM     43  C   UNL A   1      43.673  32.219  29.260  1.00  0.00     0.031 C 
ATOM     44  C   UNL A   1      41.538  25.720  28.327  1.00  0.00     0.029 A 
ATOM     45  C   UNL A   1      42.916  25.996  27.933  1.00  0.00     0.049 A 
ATOM     46  H   UNL A   1      43.956  27.790  28.136  1.00  0.00     0.167 HD
ATOM     47  C   UNL A   1      45.940  31.694  28.412  1.00  0.00     0.037 A 
ATOM     48  C   UNL A   1      43.756  25.110  27.361  1.00  0.00     0.037 A 
ATOM     49  C   UNL A   1      46.936  30.792  27.896  1.00  0.00     0.049 A 
ATOM     50  C   UNL A   1      45.155  25.546  27.016  1.00  0.00     0.074 A 
ATOM     51  C   UNL A   1      48.263  31.053  27.603  1.00  0.00     0.029 A 
ATOM     52  N   UNL A   1      46.714  29.456  27.592  1.00  0.00    -0.354 N 
ATOM     53  N   UNL A   1      45.714  26.722  27.175  1.00  0.00    -0.248 NA
ATOM     54  C   UNL A   1      46.040  24.534  26.422  1.00  0.00     0.031 C 
ATOM     55  C   UNL A   1      48.830  29.890  27.072  1.00  0.00     0.029 A 
ATOM     56  C   UNL A   1      47.875  28.886  27.092  1.00  0.00     0.049 A 
ATOM     57  H   UNL A   1      45.861  28.983  27.713  1.00  0.00     0.167 HD
ATOM     58  C   UNL A   1      47.026  26.583  26.733  1.00  0.00     0.074 A 
ATOM     59  C   UNL A   1      47.178  25.207  26.308  1.00  0.00     0.031 C 
ATOM     60  C   UNL A   1      48.015  27.510  26.685  1.00  0.00     0.037 A 
BRANCH  47  61
ATOM     61  C   UNL A   1      46.321  33.135  28.623  1.00  0.00     0.058 A 
ATOM     62  C   UNL A   1      46.180  34.095  27.607  1.00  0.00     0.135 A 
ATOM     63  C   UNL A   1      46.797  33.572  29.870  1.00  0.00     0.135 A 
ATOM     64  F   UNL A   1      45.743  33.732  26.390  1.00  0.00    -0.206 F 
ATOM     65  C   UNL A   1      46.526  35.427  27.809  1.00  0.00     0.059 A 
ATOM     66  C   UNL A   1      47.119  34.906  30.105  1.00  0.00     0.059 A 
ATOM     67  F   UNL A   1      46.953  32.699  30.878  1.00  0.00    -0.206 F 
ATOM     68  C   UNL A   1      46.995  35.822  29.063  1.00  0.00     0.060 A 
BRANCH  68  69
ATOM     69  S   UNL A   1      47.434  37.556  29.308  1.00  0.00     0.124 S 
ATOM     70  O   UNL A   1      46.979  38.153  28.056  1.00  0.00    -0.237 OA
ATOM     71  O   UNL A   1      46.664  37.908  30.496  1.00  0.00    -0.237 OA
ATOM     72  O   UNL A   1      48.882  37.517  29.492  1.00  0.00    -0.744 OA
ENDBRANCH  68  69
ENDBRANCH  47  61
BRANCH  48  73
ATOM     73  C   UNL A   1      43.301  23.718  27.096  1.00  0.00     0.058 A 
ATOM     74  C   UNL A   1      42.985  23.294  25.797  1.00  0.00     0.135 A 
ATOM     75  C   UNL A   1      43.183  22.780  28.134  1.00  0.00     0.135 A 
ATOM     76  F   UNL A   1      43.076  24.154  24.771  1.00  0.00    -0.206 F 
ATOM     77  C   UNL A   1      42.549  22.000  25.536  1.00  0.00     0.059 A 
ATOM     78  C   UNL A   1      42.776  21.470  27.895  1.00  0.00     0.059 A 
ATOM     79  F   UNL A   1      43.489  23.128  29.393  1.00  0.00    -0.206 F 
ATOM     80  C   UNL A   1      42.451  21.092  26.593  1.00  0.00     0.060 A 
BRANCH  80  81
ATOM     81  S   UNL A   1      41.926  19.402  26.237  1.00  0.00     0.124 S 
ATOM     82  O   UNL A   1      42.356  18.701  27.441  1.00  0.00    -0.237 OA
ATOM     83  O   UNL A   1      40.485  19.559  26.068  1.00  0.00    -0.237 OA
ATOM     84  O   UNL A   1      42.660  19.073  25.018  1.00  0.00    -0.744 OA
ENDBRANCH  80  81
ENDBRANCH  48  73
BRANCH  60  85
ATOM     85  C   UNL A   1      49.368  27.061  26.203  1.00  0.00     0.058 A 
ATOM     86  C   UNL A   1      50.312  26.485  27.067  1.00  0.00     0.135 A 
ATOM     87  C   UNL A   1      49.699  27.154  24.841  1.00  0.00     0.135 A 
ATOM     88  F   UNL A   1      50.049  26.377  28.380  1.00  0.00    -0.206 F 
ATOM     89  C   UNL A   1      51.544  26.036  26.602  1.00  0.00     0.059 A 
ATOM     90  C   UNL A   1      50.912  26.683  24.349  1.00  0.00     0.059 A 
ATOM     91  F   UNL A   1      48.829  27.688  23.969  1.00  0.00    -0.206 F 
ATOM     92  C   UNL A   1      51.833  26.135  25.240  1.00  0.00     0.060 A 
BRANCH  92  93
ATOM     93  S   UNL A   1      53.417  25.509  24.643  1.00  0.00     0.124 S 
ATOM     94  O   UNL A   1      54.355  26.431  25.277  1.00  0.00    -0.237 OA
ATOM     95  O   UNL A   1      53.426  24.144  25.157  1.00  0.00    -0.237 OA
ATOM     96  O   UNL A   1      53.306  25.627  23.192  1.00  0.00    -0.744 OA
ENDBRANCH  92  93
ENDBRANCH  60  85
ENDBRANCH  34  35
ENDBRANCH  26  29
ENDBRANCH  24  25
ENDBRANCH  23  24
ENDBRANCH  22  23
ENDBRANCH   1  22
TORSDOF 20
ENDMDL
MODEL 3
REMARK VINA RESULT:      -9.9      1.261      2.386
REMARK SMILES C[C@@H](Sc1ccccc1[N+](=O)[O-])[C@@H](C)C(=O)NCCCCCCNC(=O)c1ccc(-c2c3nc(c(-c4c(F)cc(S(=O)(=O)[O-])cc4F)c4ccc([nH]4)c(-c4c(F)cc(S(=O)(=O)[O-])cc4F)c4nc(c(-c5c(F)cc(S(=O)(=O)[O-])cc5F)c5ccc2[nH]5)C=C4)C=C3)cc1
REMARK SMILES IDX 20 1 19 2 18 3 17 4 15 5 16 6 13 8 14 9 2 10 1 11 3 12 4 13
REMARK SMILES IDX 5 14 9 15 6 16 8 17 7 18 10 19 11 20 12 21 21 22 22 23 23 24
REMARK SMILES IDX 24 25 25 26 26 28 27 29 28 30 92 31 29 32 91 33 30 34 31 35
REMARK SMILES IDX 32 36 85 37 33 38 90 39 84 40 86 41 34 42 89 43 83 44 82 45
REMARK SMILES IDX 35 47 69 48 48 49 68 50 49 51 52 52 67 53 87 54 50 55 51 56
REMARK SMILES IDX 66 58 88 59 53 60 36 61 37 62 46 63 38 64 39 65 45 66 47 67
REMARK SMILES IDX 40 68 41 69 42 70 43 71 44 72 70 73 71 74 80 75 72 76 73 77
REMARK SMILES IDX 79 78 81 79 74 80 75 81 76 82 77 83 78 84 54 85 55 86 64 87
REMARK SMILES IDX 56 88 57 89 63 90 65 91 58 92 59 93 60 94 61 95 62 96
REMARK H PARENT 17 7 24 27 86 46 52 57
REMARK Flexibility Score: inf
ROOT
ATOM      1  C   UNL A   1      37.783  21.993  25.238  1.00  0.00     0.002 C 
ENDROOT
BRANCH   1   2
ATOM      2  C   UNL A   1      36.939  23.106  24.603  1.00  0.00     0.021 C 
BRANCH   2   3
ATOM      3  C   UNL A   1      35.504  23.163  25.123  1.00  0.00     0.116 C 
BRANCH   3   4
ATOM      4  N   UNL A   1      34.569  23.353  24.033  1.00  0.00    -0.356 N 
ATOM      5  C   UNL A   1      33.235  23.139  23.944  1.00  0.00     0.223 C 
ATOM      6  O   UNL A   1      32.703  23.343  22.848  1.00  0.00    -0.275 OA
ATOM      7  H   UNL A   1      34.978  23.700  23.208  1.00  0.00     0.163 HD
BRANCH   5   8
ATOM      8  C   UNL A   1      32.381  22.743  25.147  1.00  0.00     0.088 C 
ATOM      9  C   UNL A   1      31.865  21.313  24.938  1.00  0.00     0.019 C 
BRANCH   8  10
ATOM     10  C   UNL A   1      31.278  23.746  25.587  1.00  0.00     0.061 C 
ATOM     11  C   UNL A   1      30.417  23.114  26.685  1.00  0.00     0.020 C 
BRANCH  10  12
ATOM     12  S   UNL A   1      32.040  25.307  26.200  1.00  0.00    -0.115 SA
BRANCH  12  13
ATOM     13  C   UNL A   1      31.412  26.721  25.283  1.00  0.00     0.085 A 
ATOM     14  C   UNL A   1      30.730  26.301  24.116  1.00  0.00     0.022 A 
ATOM     15  C   UNL A   1      31.496  28.110  25.459  1.00  0.00     0.282 A 
ATOM     16  C   UNL A   1      30.221  27.202  23.170  1.00  0.00     0.002 A 
ATOM     17  C   UNL A   1      31.021  29.027  24.495  1.00  0.00     0.087 A 
ATOM     18  C   UNL A   1      30.390  28.567  23.347  1.00  0.00     0.007 A 
BRANCH  15  19
ATOM     19  N   UNL A   1      31.991  28.725  26.665  1.00  0.00     0.063 N 
ATOM     20  O   UNL A   1      31.422  28.431  27.724  1.00  0.00    -0.258 OA
ATOM     21  O   UNL A   1      32.994  29.443  26.559  1.00  0.00    -0.258 OA
ENDBRANCH  15  19
ENDBRANCH  12  13
ENDBRANCH  10  12
ENDBRANCH   8  10
ENDBRANCH   5   8
ENDBRANCH   3   4
ENDBRANCH   2   3
ENDBRANCH   1   2
BRANCH   1  22
ATOM     22  C   UNL A   1      37.513  20.586  24.693  1.00  0.00     0.002 C 
BRANCH  22  23
ATOM     23  C   UNL A   1      38.507  19.518  25.152  1.00  0.00     0.021 C 
BRANCH  23  24
ATOM     24  C   UNL A   1      39.568  20.025  26.121  1.00  0.00     0.116 C 
BRANCH  24  25
ATOM     25  N   UNL A   1      40.743  19.169  26.135  1.00  0.00    -0.352 N 
ATOM     26  C   UNL A   1      42.071  19.522  26.153  1.00  0.00     0.251 C 
ATOM     27  H   UNL A   1      40.563  18.201  26.132  1.00  0.00     0.163 HD
ATOM     28  O   UNL A   1      42.936  18.679  25.952  1.00  0.00    -0.269 OA
BRANCH  26  29
ATOM     29  C   UNL A   1      42.441  20.932  26.398  1.00  0.00     0.039 A 
ATOM     30  C   UNL A   1      42.620  21.368  27.713  1.00  0.00     0.014 A 
ATOM     31  C   UNL A   1      42.617  21.818  25.332  1.00  0.00     0.014 A 
ATOM     32  C   UNL A   1      43.029  22.682  27.955  1.00  0.00     0.010 A 
ATOM     33  C   UNL A   1      43.099  23.100  25.569  1.00  0.00     0.010 A 
ATOM     34  C   UNL A   1      43.302  23.549  26.884  1.00  0.00    -0.014 A 
BRANCH  34  35
ATOM     35  C   UNL A   1      43.788  24.934  27.113  1.00  0.00     0.031 A 
ATOM     36  C   UNL A   1      45.242  25.262  26.909  1.00  0.00     0.074 A 
ATOM     37  C   UNL A   1      42.937  25.876  27.566  1.00  0.00     0.049 A 
ATOM     38  N   UNL A   1      45.877  26.383  27.137  1.00  0.00    -0.248 NA
ATOM     39  C   UNL A   1      46.104  24.178  26.410  1.00  0.00     0.031 C 
ATOM     40  C   UNL A   1      41.513  25.669  27.843  1.00  0.00     0.029 A 
ATOM     41  N   UNL A   1      43.147  27.194  27.888  1.00  0.00    -0.354 N 
ATOM     42  C   UNL A   1      47.208  26.135  26.824  1.00  0.00     0.074 A 
ATOM     43  C   UNL A   1      47.301  24.743  26.446  1.00  0.00     0.031 C 
ATOM     44  C   UNL A   1      40.976  26.822  28.273  1.00  0.00     0.029 A 
ATOM     45  C   UNL A   1      42.022  27.838  28.346  1.00  0.00     0.049 A 
ATOM     46  H   UNL A   1      44.022  27.637  27.799  1.00  0.00     0.167 HD
ATOM     47  C   UNL A   1      48.254  26.996  26.830  1.00  0.00     0.037 A 
ATOM     48  C   UNL A   1      41.853  29.100  28.789  1.00  0.00     0.037 A 
ATOM     49  C   UNL A   1      48.147  28.387  27.188  1.00  0.00     0.049 A 
ATOM     50  C   UNL A   1      43.033  30.036  28.798  1.00  0.00     0.074 A 
ATOM     51  C   UNL A   1      49.134  29.357  27.174  1.00  0.00     0.029 A 
ATOM     52  N   UNL A   1      46.985  29.006  27.627  1.00  0.00    -0.354 N 
ATOM     53  N   UNL A   1      44.273  29.800  28.441  1.00  0.00    -0.248 NA
ATOM     54  C   UNL A   1      42.789  31.408  29.262  1.00  0.00     0.031 C 
ATOM     55  C   UNL A   1      48.583  30.548  27.655  1.00  0.00     0.029 A 
ATOM     56  C   UNL A   1      47.237  30.339  27.909  1.00  0.00     0.049 A 
ATOM     57  H   UNL A   1      46.111  28.565  27.723  1.00  0.00     0.167 HD
ATOM     58  C   UNL A   1      44.951  31.005  28.604  1.00  0.00     0.074 A 
ATOM     59  C   UNL A   1      43.980  31.967  29.084  1.00  0.00     0.031 C 
ATOM     60  C   UNL A   1      46.257  31.289  28.375  1.00  0.00     0.037 A 
BRANCH  47  61
ATOM     61  C   UNL A   1      49.605  26.460  26.441  1.00  0.00     0.058 A 
ATOM     62  C   UNL A   1      50.104  26.587  25.134  1.00  0.00     0.135 A 
ATOM     63  C   UNL A   1      50.431  25.845  27.396  1.00  0.00     0.135 A 
ATOM     64  F   UNL A   1      49.353  27.154  24.176  1.00  0.00    -0.206 F 
ATOM     65  C   UNL A   1      51.356  26.096  24.780  1.00  0.00     0.059 A 
ATOM     66  C   UNL A   1      51.701  25.375  27.072  1.00  0.00     0.059 A 
ATOM     67  F   UNL A   1      50.007  25.695  28.661  1.00  0.00    -0.206 F 
ATOM     68  C   UNL A   1      52.148  25.492  25.758  1.00  0.00     0.060 A 
BRANCH  68  69
ATOM     69  S   UNL A   1      53.773  24.866  25.282  1.00  0.00     0.124 S 
ATOM     70  O   UNL A   1      54.560  25.160  26.476  1.00  0.00    -0.237 OA
ATOM     71  O   UNL A   1      53.502  23.454  25.033  1.00  0.00    -0.237 OA
ATOM     72  O   UNL A   1      54.110  25.655  24.101  1.00  0.00    -0.744 OA
ENDBRANCH  68  69
ENDBRANCH  47  61
BRANCH  48  73
ATOM     73  C   UNL A   1      40.511  29.556  29.243  1.00  0.00     0.058 A 
ATOM     74  C   UNL A   1      40.245  29.783  30.602  1.00  0.00     0.135 A 
ATOM     75  C   UNL A   1      39.471  29.783  28.328  1.00  0.00     0.135 A 
ATOM     76  F   UNL A   1      41.205  29.574  31.516  1.00  0.00    -0.206 F 
ATOM     77  C   UNL A   1      38.993  30.199  31.041  1.00  0.00     0.059 A 
ATOM     78  C   UNL A   1      38.218  30.227  28.740  1.00  0.00     0.059 A 
ATOM     79  F   UNL A   1      39.676  29.598  27.016  1.00  0.00    -0.206 F 
ATOM     80  C   UNL A   1      37.985  30.422  30.101  1.00  0.00     0.060 A 
BRANCH  80  81
ATOM     81  S   UNL A   1      36.376  31.005  30.679  1.00  0.00     0.124 S 
ATOM     82  O   UNL A   1      35.963  29.911  31.549  1.00  0.00    -0.237 OA
ATOM     83  O   UNL A   1      36.727  32.255  31.345  1.00  0.00    -0.237 OA
ATOM     84  O   UNL A   1      35.611  31.154  29.444  1.00  0.00    -0.744 OA
ENDBRANCH  80  81
ENDBRANCH  48  73
BRANCH  60  85
ATOM     85  C   UNL A   1      46.710  32.708  28.590  1.00  0.00     0.058 A 
ATOM     86  C   UNL A   1      47.352  33.112  29.771  1.00  0.00     0.135 A 
ATOM     87  C   UNL A   1      46.555  33.662  27.570  1.00  0.00     0.135 A 
ATOM     88  F   UNL A   1      47.520  32.242  30.781  1.00  0.00    -0.206 F 
ATOM     89  C   UNL A   1      47.804  34.416  29.942  1.00  0.00     0.059 A 
ATOM     90  C   UNL A   1      47.028  34.963  27.707  1.00  0.00     0.059 A 
ATOM     91  F   UNL A   1      45.958  33.326  26.415  1.00  0.00    -0.206 F 
ATOM     92  C   UNL A   1      47.642  35.333  28.902  1.00  0.00     0.060 A 
BRANCH  92  93
ATOM     93  S   UNL A   1      48.272  37.011  29.121  1.00  0.00     0.124 S 
ATOM     94  O   UNL A   1      49.671  36.759  29.454  1.00  0.00    -0.237 OA
ATOM     95  O   UNL A   1      48.031  37.607  27.811  1.00  0.00    -0.237 OA
ATOM     96  O   UNL A   1      47.455  37.544  30.207  1.00  0.00    -0.744 OA
ENDBRANCH  92  93
ENDBRANCH  60  85
ENDBRANCH  34  35
ENDBRANCH  26  29
ENDBRANCH  24  25
ENDBRANCH  23  24
ENDBRANCH  22  23
ENDBRANCH   1  22
TORSDOF 20
ENDMDL
