MODEL 1
REMARK VINA RESULT:     -11.1      0.000      0.000
REMARK SMILES CCOc1ccc(OCC(=O)N2CCC[C@H](C(=O)NCCCCCCNC(=O)c3ccc(-c4c5nc(c(-c6c(F)cc(S(=O)(=O)[O-])cc6F)c6ccc([nH]6)c(-c6c(F)cc(S(=O)(=O)[O-])cc6F)c6nc(c(-c7c(F)cc(S(=O)(=O)[O-])cc7F)c7ccc4[nH]7)C=C6)C=C5)cc3)C2)cc1
REMARK SMILES IDX 21 1 20 2 19 3 17 4 18 5 16 7 12 8 13 9 95 10 14 11 15 12
REMARK SMILES IDX 10 13 11 14 9 15 8 16 7 17 4 18 5 19 97 20 6 21 96 22 3 23
REMARK SMILES IDX 2 24 1 25 22 26 23 27 24 28 25 29 26 30 27 31 28 33 29 34
REMARK SMILES IDX 30 35 94 36 31 37 93 38 32 39 33 40 34 41 87 42 35 43 92 44
REMARK SMILES IDX 86 45 88 46 36 47 91 48 85 49 84 50 37 52 71 53 50 54 70 55
REMARK SMILES IDX 51 56 54 57 69 58 89 59 52 60 53 61 68 63 90 64 55 65 38 66
REMARK SMILES IDX 39 67 48 68 40 69 41 70 47 71 49 72 42 73 43 74 44 75 45 76
REMARK SMILES IDX 46 77 72 78 73 79 82 80 74 81 75 82 81 83 83 84 76 85 77 86
REMARK SMILES IDX 78 87 79 88 80 89 56 90 57 91 66 92 58 93 59 94 65 95 67 96
REMARK SMILES IDX 60 97 61 98 62 99 63 100 64 101
REMARK H PARENT 19 6 26 32 88 51 54 62
REMARK Flexibility Score: inf
ROOT
ATOM      1  C   UNL A   1      33.279  29.919  27.392  1.00  0.00     0.021 C 
ENDROOT
BRANCH   1   2
ATOM      2  C   UNL A   1      34.185  28.919  26.682  1.00  0.00     0.116 C 
BRANCH   2   3
ATOM      3  N   UNL A   1      34.079  28.959  25.242  1.00  0.00    -0.356 N 
ATOM      4  C   UNL A   1      33.005  29.032  24.416  1.00  0.00     0.224 C 
ATOM      5  O   UNL A   1      33.258  29.225  23.218  1.00  0.00    -0.275 OA
ATOM      6  H   UNL A   1      34.944  28.928  24.774  1.00  0.00     0.163 HD
BRANCH   4   7
ATOM      7  C   UNL A   1      31.538  28.864  24.845  1.00  0.00     0.098 C 
ATOM      8  N   UNL A   1      30.567  26.789  23.892  1.00  0.00    -0.339 N 
ATOM      9  C   UNL A   1      29.483  27.509  23.213  1.00  0.00     0.119 C 
ATOM     10  C   UNL A   1      31.072  27.431  25.094  1.00  0.00     0.133 C 
ATOM     11  C   UNL A   1      29.783  28.988  22.946  1.00  0.00     0.022 C 
ATOM     12  C   UNL A   1      30.516  29.705  24.077  1.00  0.00     0.017 C 
BRANCH   8  13
ATOM     13  C   UNL A   1      31.051  25.602  23.349  1.00  0.00     0.260 C 
ATOM     14  O   UNL A   1      30.291  24.651  23.134  1.00  0.00    -0.271 OA
BRANCH  13  15
ATOM     15  C   UNL A   1      32.574  25.396  23.129  1.00  0.00     0.329 C 
BRANCH  15  16
ATOM     16  O   UNL A   1      33.420  24.708  24.023  1.00  0.00    -0.484 OA
BRANCH  16  17
ATOM     17  C   UNL A   1      33.109  23.430  24.383  1.00  0.00     0.120 A 
ATOM     18  C   UNL A   1      32.409  20.759  24.805  1.00  0.00     0.119 A 
ATOM     19  C   UNL A   1      32.665  21.203  23.514  1.00  0.00     0.050 A 
ATOM     20  C   UNL A   1      32.548  21.627  25.887  1.00  0.00     0.050 A 
ATOM     21  C   UNL A   1      33.015  22.537  23.308  1.00  0.00     0.050 A 
ATOM     22  C   UNL A   1      32.889  22.968  25.677  1.00  0.00     0.050 A 
BRANCH  18  23
ATOM     23  O   UNL A   1      32.136  19.435  25.003  1.00  0.00    -0.494 OA
BRANCH  23  24
ATOM     24  C   UNL A   1      33.008  18.581  24.251  1.00  0.00     0.226 C 
ATOM     25  C   UNL A   1      33.294  17.296  25.013  1.00  0.00     0.049 C 
ENDBRANCH  23  24
ENDBRANCH  18  23
ENDBRANCH  16  17
ENDBRANCH  15  16
ENDBRANCH  13  15
ENDBRANCH   8  13
ENDBRANCH   4   7
ENDBRANCH   2   3
ENDBRANCH   1   2
BRANCH   1  26
ATOM     26  C   UNL A   1      33.811  31.354  27.390  1.00  0.00     0.002 C 
BRANCH  26  27
ATOM     27  C   UNL A   1      35.287  31.517  27.783  1.00  0.00     0.002 C 
BRANCH  27  28
ATOM     28  C   UNL A   1      35.696  32.900  28.300  1.00  0.00     0.021 C 
BRANCH  28  29
ATOM     29  C   UNL A   1      36.619  32.894  29.515  1.00  0.00     0.116 C 
BRANCH  29  30
ATOM     30  N   UNL A   1      36.149  31.994  30.557  1.00  0.00    -0.352 N 
ATOM     31  C   UNL A   1      36.633  30.775  30.956  1.00  0.00     0.251 C 
ATOM     32  H   UNL A   1      35.360  32.311  31.055  1.00  0.00     0.163 HD
ATOM     33  O   UNL A   1      35.969  30.077  31.715  1.00  0.00    -0.269 OA
BRANCH  31  34
ATOM     34  C   UNL A   1      37.945  30.297  30.469  1.00  0.00     0.039 A 
ATOM     35  C   UNL A   1      38.131  30.118  29.095  1.00  0.00     0.014 A 
ATOM     36  C   UNL A   1      38.975  29.992  31.362  1.00  0.00     0.014 A 
ATOM     37  C   UNL A   1      39.367  29.680  28.615  1.00  0.00     0.010 A 
ATOM     38  C   UNL A   1      40.227  29.622  30.877  1.00  0.00     0.010 A 
ATOM     39  C   UNL A   1      40.434  29.456  29.500  1.00  0.00    -0.014 A 
BRANCH  39  40
ATOM     40  C   UNL A   1      41.771  29.046  29.004  1.00  0.00     0.031 A 
ATOM     41  C   UNL A   1      42.877  30.058  28.876  1.00  0.00     0.074 A 
ATOM     42  C   UNL A   1      41.968  27.776  28.602  1.00  0.00     0.049 A 
ATOM     43  N   UNL A   1      44.087  29.908  28.402  1.00  0.00    -0.248 NA
ATOM     44  C   UNL A   1      42.569  31.429  29.313  1.00  0.00     0.031 C 
ATOM     45  C   UNL A   1      40.957  26.717  28.623  1.00  0.00     0.029 A 
ATOM     46  N   UNL A   1      43.080  27.163  28.082  1.00  0.00    -0.354 N 
ATOM     47  C   UNL A   1      44.680  31.162  28.472  1.00  0.00     0.074 A 
ATOM     48  C   UNL A   1      43.678  32.074  28.978  1.00  0.00     0.031 C 
ATOM     49  C   UNL A   1      41.497  25.583  28.151  1.00  0.00     0.029 A 
ATOM     50  C   UNL A   1      42.880  25.840  27.760  1.00  0.00     0.049 A 
ATOM     51  H   UNL A   1      43.940  27.625  27.951  1.00  0.00     0.167 HD
ATOM     52  C   UNL A   1      45.952  31.517  28.165  1.00  0.00     0.037 A 
ATOM     53  C   UNL A   1      43.712  24.939  27.203  1.00  0.00     0.037 A 
ATOM     54  C   UNL A   1      46.946  30.599  27.671  1.00  0.00     0.049 A 
ATOM     55  C   UNL A   1      45.121  25.349  26.875  1.00  0.00     0.074 A 
ATOM     56  C   UNL A   1      48.275  30.843  27.378  1.00  0.00     0.029 A 
ATOM     57  N   UNL A   1      46.714  29.259  27.388  1.00  0.00    -0.354 N 
ATOM     58  N   UNL A   1      45.689  26.523  27.011  1.00  0.00    -0.248 NA
ATOM     59  C   UNL A   1      46.006  24.311  26.330  1.00  0.00     0.031 C 
ATOM     60  C   UNL A   1      48.837  29.662  26.878  1.00  0.00     0.029 A 
ATOM     61  C   UNL A   1      47.871  28.669  26.906  1.00  0.00     0.049 A 
ATOM     62  H   UNL A   1      45.854  28.796  27.513  1.00  0.00     0.167 HD
ATOM     63  C   UNL A   1      47.003  26.363  26.586  1.00  0.00     0.074 A 
ATOM     64  C   UNL A   1      47.148  24.973  26.202  1.00  0.00     0.031 C 
ATOM     65  C   UNL A   1      47.998  27.283  26.522  1.00  0.00     0.037 A 
BRANCH  52  66
ATOM     66  C   UNL A   1      46.328  32.963  28.353  1.00  0.00     0.058 A 
ATOM     67  C   UNL A   1      46.870  33.434  29.561  1.00  0.00     0.135 A 
ATOM     68  C   UNL A   1      46.139  33.893  27.317  1.00  0.00     0.135 A 
ATOM     69  F   UNL A   1      47.062  32.592  30.589  1.00  0.00    -0.206 F 
ATOM     70  C   UNL A   1      47.159  34.781  29.755  1.00  0.00     0.059 A 
ATOM     71  C   UNL A   1      46.452  35.241  27.478  1.00  0.00     0.059 A 
ATOM     72  F   UNL A   1      45.631  33.501  26.139  1.00  0.00    -0.206 F 
ATOM     73  C   UNL A   1      46.938  35.678  28.709  1.00  0.00     0.060 A 
BRANCH  73  74
ATOM     74  S   UNL A   1      47.282  37.428  28.987  1.00  0.00     0.124 S 
ATOM     75  O   UNL A   1      46.378  38.057  28.028  1.00  0.00    -0.237 OA
ATOM     76  O   UNL A   1      46.928  37.598  30.393  1.00  0.00    -0.237 OA
ATOM     77  O   UNL A   1      48.704  37.549  28.682  1.00  0.00    -0.744 OA
ENDBRANCH  73  74
ENDBRANCH  52  66
BRANCH  53  78
ATOM     78  C   UNL A   1      43.226  23.557  26.952  1.00  0.00     0.058 A 
ATOM     79  C   UNL A   1      42.979  23.104  25.649  1.00  0.00     0.135 A 
ATOM     80  C   UNL A   1      43.060  22.644  28.006  1.00  0.00     0.135 A 
ATOM     81  F   UNL A   1      43.118  23.941  24.609  1.00  0.00    -0.206 F 
ATOM     82  C   UNL A   1      42.585  21.793  25.396  1.00  0.00     0.059 A 
ATOM     83  C   UNL A   1      42.690  21.323  27.777  1.00  0.00     0.059 A 
ATOM     84  F   UNL A   1      43.300  23.027  29.269  1.00  0.00    -0.206 F 
ATOM     85  C   UNL A   1      42.452  20.908  26.468  1.00  0.00     0.060 A 
BRANCH  85  86
ATOM     86  S   UNL A   1      42.026  19.187  26.120  1.00  0.00     0.124 S 
ATOM     87  O   UNL A   1      40.607  19.295  25.797  1.00  0.00    -0.237 OA
ATOM     88  O   UNL A   1      42.913  18.871  25.004  1.00  0.00    -0.237 OA
ATOM     89  O   UNL A   1      42.338  18.505  27.372  1.00  0.00    -0.744 OA
ENDBRANCH  85  86
ENDBRANCH  53  78
BRANCH  65  90
ATOM     90  C   UNL A   1      49.343  26.813  26.039  1.00  0.00     0.058 A 
ATOM     91  C   UNL A   1      49.753  26.995  24.708  1.00  0.00     0.135 A 
ATOM     92  C   UNL A   1      50.253  26.222  26.930  1.00  0.00     0.135 A 
ATOM     93  F   UNL A   1      48.921  27.548  23.813  1.00  0.00    -0.206 F 
ATOM     94  C   UNL A   1      51.012  26.588  24.274  1.00  0.00     0.059 A 
ATOM     95  C   UNL A   1      51.525  25.833  26.525  1.00  0.00     0.059 A 
ATOM     96  F   UNL A   1      49.913  26.034  28.215  1.00  0.00    -0.206 F 
ATOM     97  C   UNL A   1      51.892  26.010  25.192  1.00  0.00     0.060 A 
BRANCH  97  98
ATOM     98  S   UNL A   1      53.534  25.520  24.625  1.00  0.00     0.124 S 
ATOM     99  O   UNL A   1      53.510  24.080  24.861  1.00  0.00    -0.237 OA
ATOM    100  O   UNL A   1      53.517  25.934  23.224  1.00  0.00    -0.237 OA
ATOM    101  O   UNL A   1      54.433  26.282  25.486  1.00  0.00    -0.744 OA
ENDBRANCH  97  98
ENDBRANCH  65  90
ENDBRANCH  39  40
ENDBRANCH  31  34
ENDBRANCH  29  30
ENDBRANCH  28  29
ENDBRANCH  27  28
ENDBRANCH  26  27
ENDBRANCH   1  26
TORSDOF 22
ENDMDL
MODEL 2
REMARK VINA RESULT:     -11.0      6.160     11.534
REMARK SMILES CCOc1ccc(OCC(=O)N2CCC[C@H](C(=O)NCCCCCCNC(=O)c3ccc(-c4c5nc(c(-c6c(F)cc(S(=O)(=O)[O-])cc6F)c6ccc([nH]6)c(-c6c(F)cc(S(=O)(=O)[O-])cc6F)c6nc(c(-c7c(F)cc(S(=O)(=O)[O-])cc7F)c7ccc4[nH]7)C=C6)C=C5)cc3)C2)cc1
REMARK SMILES IDX 21 1 20 2 19 3 17 4 18 5 16 7 12 8 13 9 95 10 14 11 15 12
REMARK SMILES IDX 10 13 11 14 9 15 8 16 7 17 4 18 5 19 97 20 6 21 96 22 3 23
REMARK SMILES IDX 2 24 1 25 22 26 23 27 24 28 25 29 26 30 27 31 28 33 29 34
REMARK SMILES IDX 30 35 94 36 31 37 93 38 32 39 33 40 34 41 87 42 35 43 92 44
REMARK SMILES IDX 86 45 88 46 36 47 91 48 85 49 84 50 37 52 71 53 50 54 70 55
REMARK SMILES IDX 51 56 54 57 69 58 89 59 52 60 53 61 68 63 90 64 55 65 38 66
REMARK SMILES IDX 39 67 48 68 40 69 41 70 47 71 49 72 42 73 43 74 44 75 45 76
REMARK SMILES IDX 46 77 72 78 73 79 82 80 74 81 75 82 81 83 83 84 76 85 77 86
REMARK SMILES IDX 78 87 79 88 80 89 56 90 57 91 66 92 58 93 59 94 65 95 67 96
REMARK SMILES IDX 60 97 61 98 62 99 63 100 64 101
REMARK H PARENT 19 6 26 32 88 51 54 62
REMARK Flexibility Score: inf
ROOT
ATOM      1  C   UNL A   1      35.872  22.993  24.912  1.00  0.00     0.021 C 
ENDROOT
BRANCH   1   2
ATOM      2  C   UNL A   1      35.147  24.310  24.653  1.00  0.00     0.116 C 
BRANCH   2   3
ATOM      3  N   UNL A   1      34.483  24.364  23.371  1.00  0.00    -0.356 N 
ATOM      4  C   UNL A   1      33.661  25.290  22.817  1.00  0.00     0.224 C 
ATOM      5  O   UNL A   1      33.392  25.124  21.618  1.00  0.00    -0.275 OA
ATOM      6  H   UNL A   1      34.660  23.588  22.793  1.00  0.00     0.163 HD
BRANCH   4   7
ATOM      7  C   UNL A   1      33.030  26.480  23.559  1.00  0.00     0.098 C 
ATOM      8  N   UNL A   1      31.400  25.700  25.261  1.00  0.00    -0.339 N 
ATOM      9  C   UNL A   1      30.296  26.470  24.675  1.00  0.00     0.119 C 
ATOM     10  C   UNL A   1      32.723  26.260  25.040  1.00  0.00     0.133 C 
ATOM     11  C   UNL A   1      30.490  26.821  23.196  1.00  0.00     0.022 C 
ATOM     12  C   UNL A   1      31.914  27.217  22.815  1.00  0.00     0.017 C 
BRANCH   8  13
ATOM     13  C   UNL A   1      31.131  24.511  25.933  1.00  0.00     0.260 C 
ATOM     14  O   UNL A   1      31.103  24.479  27.169  1.00  0.00    -0.271 OA
BRANCH  13  15
ATOM     15  C   UNL A   1      30.997  23.175  25.155  1.00  0.00     0.329 C 
BRANCH  15  16
ATOM     16  O   UNL A   1      31.991  22.647  24.306  1.00  0.00    -0.484 OA
BRANCH  16  17
ATOM     17  C   UNL A   1      32.351  21.337  24.437  1.00  0.00     0.120 A 
ATOM     18  C   UNL A   1      32.941  18.608  24.417  1.00  0.00     0.119 A 
ATOM     19  C   UNL A   1      32.522  19.225  23.245  1.00  0.00     0.050 A 
ATOM     20  C   UNL A   1      33.114  19.354  25.581  1.00  0.00     0.050 A 
ATOM     21  C   UNL A   1      32.229  20.589  23.259  1.00  0.00     0.050 A 
ATOM     22  C   UNL A   1      32.809  20.720  25.596  1.00  0.00     0.050 A 
BRANCH  18  23
ATOM     23  O   UNL A   1      33.292  17.288  24.374  1.00  0.00    -0.494 OA
BRANCH  23  24
ATOM     24  C   UNL A   1      33.075  16.625  25.626  1.00  0.00     0.226 C 
ATOM     25  C   UNL A   1      32.639  15.185  25.407  1.00  0.00     0.049 C 
ENDBRANCH  23  24
ENDBRANCH  18  23
ENDBRANCH  16  17
ENDBRANCH  15  16
ENDBRANCH  13  15
ENDBRANCH   8  13
ENDBRANCH   4   7
ENDBRANCH   2   3
ENDBRANCH   1   2
BRANCH   1  26
ATOM     26  C   UNL A   1      37.249  23.158  25.561  1.00  0.00     0.002 C 
BRANCH  26  27
ATOM     27  C   UNL A   1      38.168  21.930  25.491  1.00  0.00     0.002 C 
BRANCH  27  28
ATOM     28  C   UNL A   1      39.387  21.949  26.420  1.00  0.00     0.021 C 
BRANCH  28  29
ATOM     29  C   UNL A   1      39.889  23.338  26.807  1.00  0.00     0.116 C 
BRANCH  29  30
ATOM     30  N   UNL A   1      41.063  23.730  26.043  1.00  0.00    -0.352 N 
ATOM     31  C   UNL A   1      41.791  24.891  26.076  1.00  0.00     0.251 C 
ATOM     32  H   UNL A   1      41.387  23.054  25.403  1.00  0.00     0.163 HD
ATOM     33  O   UNL A   1      42.626  25.109  25.202  1.00  0.00    -0.269 OA
BRANCH  31  34
ATOM     34  C   UNL A   1      41.570  25.880  27.152  1.00  0.00     0.039 A 
ATOM     35  C   UNL A   1      40.556  25.648  28.085  1.00  0.00     0.014 A 
ATOM     36  C   UNL A   1      42.333  27.049  27.221  1.00  0.00     0.014 A 
ATOM     37  C   UNL A   1      40.340  26.564  29.117  1.00  0.00     0.010 A 
ATOM     38  C   UNL A   1      42.162  27.926  28.289  1.00  0.00     0.010 A 
ATOM     39  C   UNL A   1      41.161  27.696  29.243  1.00  0.00    -0.014 A 
BRANCH  39  40
ATOM     40  C   UNL A   1      40.984  28.652  30.366  1.00  0.00     0.031 A 
ATOM     41  C   UNL A   1      41.829  28.531  31.605  1.00  0.00     0.074 A 
ATOM     42  C   UNL A   1      40.014  29.584  30.297  1.00  0.00     0.049 A 
ATOM     43  N   UNL A   1      41.777  29.225  32.713  1.00  0.00    -0.248 NA
ATOM     44  C   UNL A   1      42.847  27.469  31.609  1.00  0.00     0.031 C 
ATOM     45  C   UNL A   1      39.094  29.762  29.172  1.00  0.00     0.029 A 
ATOM     46  N   UNL A   1      39.630  30.546  31.197  1.00  0.00    -0.354 N 
ATOM     47  C   UNL A   1      42.744  28.679  33.547  1.00  0.00     0.074 A 
ATOM     48  C   UNL A   1      43.325  27.558  32.842  1.00  0.00     0.031 C 
ATOM     49  C   UNL A   1      38.261  30.779  29.443  1.00  0.00     0.029 A 
ATOM     50  C   UNL A   1      38.562  31.302  30.773  1.00  0.00     0.049 A 
ATOM     51  H   UNL A   1      40.076  30.682  32.065  1.00  0.00     0.167 HD
ATOM     52  C   UNL A   1      43.129  29.087  34.782  1.00  0.00     0.037 A 
ATOM     53  C   UNL A   1      37.895  32.296  31.388  1.00  0.00     0.037 A 
ATOM     54  C   UNL A   1      42.550  30.211  35.472  1.00  0.00     0.049 A 
ATOM     55  C   UNL A   1      38.340  32.741  32.753  1.00  0.00     0.074 A 
ATOM     56  C   UNL A   1      42.901  30.742  36.701  1.00  0.00     0.029 A 
ATOM     57  N   UNL A   1      41.491  30.974  34.997  1.00  0.00    -0.354 N 
ATOM     58  N   UNL A   1      39.301  32.258  33.503  1.00  0.00    -0.248 NA
ATOM     59  C   UNL A   1      37.619  33.873  33.352  1.00  0.00     0.031 C 
ATOM     60  C   UNL A   1      42.027  31.797  36.987  1.00  0.00     0.029 A 
ATOM     61  C   UNL A   1      41.164  31.957  35.915  1.00  0.00     0.049 A 
ATOM     62  H   UNL A   1      41.040  30.836  34.132  1.00  0.00     0.167 HD
ATOM     63  C   UNL A   1      39.315  33.037  34.655  1.00  0.00     0.074 A 
ATOM     64  C   UNL A   1      38.273  34.032  34.495  1.00  0.00     0.031 C 
ATOM     65  C   UNL A   1      40.118  32.938  35.743  1.00  0.00     0.037 A 
BRANCH  52  66
ATOM     66  C   UNL A   1      44.224  28.305  35.457  1.00  0.00     0.058 A 
ATOM     67  C   UNL A   1      45.582  28.585  35.225  1.00  0.00     0.135 A 
ATOM     68  C   UNL A   1      43.916  27.257  36.340  1.00  0.00     0.135 A 
ATOM     69  F   UNL A   1      45.935  29.568  34.381  1.00  0.00    -0.206 F 
ATOM     70  C   UNL A   1      46.592  27.822  35.800  1.00  0.00     0.059 A 
ATOM     71  C   UNL A   1      44.913  26.501  36.953  1.00  0.00     0.059 A 
ATOM     72  F   UNL A   1      42.638  26.948  36.605  1.00  0.00    -0.206 F 
ATOM     73  C   UNL A   1      46.247  26.775  36.656  1.00  0.00     0.060 A 
BRANCH  73  74
ATOM     74  S   UNL A   1      47.567  25.769  37.366  1.00  0.00     0.124 S 
ATOM     75  O   UNL A   1      47.570  26.231  38.751  1.00  0.00    -0.237 OA
ATOM     76  O   UNL A   1      47.076  24.412  37.154  1.00  0.00    -0.237 OA
ATOM     77  O   UNL A   1      48.738  26.139  36.579  1.00  0.00    -0.744 OA
ENDBRANCH  73  74
ENDBRANCH  52  66
BRANCH  53  78
ATOM     78  C   UNL A   1      36.753  32.946  30.693  1.00  0.00     0.058 A 
ATOM     79  C   UNL A   1      35.429  32.658  31.053  1.00  0.00     0.135 A 
ATOM     80  C   UNL A   1      36.965  33.914  29.698  1.00  0.00     0.135 A 
ATOM     81  F   UNL A   1      35.175  31.736  31.994  1.00  0.00    -0.206 F 
ATOM     82  C   UNL A   1      34.354  33.308  30.453  1.00  0.00     0.059 A 
ATOM     83  C   UNL A   1      35.909  34.593  29.101  1.00  0.00     0.059 A 
ATOM     84  F   UNL A   1      38.216  34.235  29.330  1.00  0.00    -0.206 F 
ATOM     85  C   UNL A   1      34.605  34.280  29.484  1.00  0.00     0.060 A 
BRANCH  85  86
ATOM     86  S   UNL A   1      33.207  35.177  28.775  1.00  0.00     0.124 S 
ATOM     87  O   UNL A   1      32.591  34.151  27.940  1.00  0.00    -0.237 OA
ATOM     88  O   UNL A   1      32.457  35.566  29.966  1.00  0.00    -0.237 OA
ATOM     89  O   UNL A   1      33.843  36.278  28.057  1.00  0.00    -0.744 OA
ENDBRANCH  85  86
ENDBRANCH  53  78
BRANCH  65  90
ATOM     90  C   UNL A   1      39.919  33.946  36.843  1.00  0.00     0.058 A 
ATOM     91  C   UNL A   1      39.178  33.642  37.996  1.00  0.00     0.135 A 
ATOM     92  C   UNL A   1      40.523  35.211  36.766  1.00  0.00     0.135 A 
ATOM     93  F   UNL A   1      38.575  32.450  38.118  1.00  0.00    -0.206 F 
ATOM     94  C   UNL A   1      39.025  34.567  39.025  1.00  0.00     0.059 A 
ATOM     95  C   UNL A   1      40.407  36.141  37.794  1.00  0.00     0.059 A 
ATOM     96  F   UNL A   1      41.251  35.548  35.689  1.00  0.00    -0.206 F 
ATOM     97  C   UNL A   1      39.646  35.813  38.915  1.00  0.00     0.060 A 
BRANCH  97  98
ATOM     98  S   UNL A   1      39.470  36.990  40.273  1.00  0.00     0.124 S 
ATOM     99  O   UNL A   1      40.777  36.896  40.915  1.00  0.00    -0.237 OA
ATOM    100  O   UNL A   1      39.197  38.241  39.569  1.00  0.00    -0.237 OA
ATOM    101  O   UNL A   1      38.352  36.455  41.044  1.00  0.00    -0.744 OA
ENDBRANCH  97  98
ENDBRANCH  65  90
ENDBRANCH  39  40
ENDBRANCH  31  34
ENDBRANCH  29  30
ENDBRANCH  28  29
ENDBRANCH  27  28
ENDBRANCH  26  27
ENDBRANCH   1  26
TORSDOF 22
ENDMDL
MODEL 3
REMARK VINA RESULT:     -10.8      6.176     11.501
REMARK SMILES CCOc1ccc(OCC(=O)N2CCC[C@H](C(=O)NCCCCCCNC(=O)c3ccc(-c4c5nc(c(-c6c(F)cc(S(=O)(=O)[O-])cc6F)c6ccc([nH]6)c(-c6c(F)cc(S(=O)(=O)[O-])cc6F)c6nc(c(-c7c(F)cc(S(=O)(=O)[O-])cc7F)c7ccc4[nH]7)C=C6)C=C5)cc3)C2)cc1
REMARK SMILES IDX 21 1 20 2 19 3 17 4 18 5 16 7 12 8 13 9 95 10 14 11 15 12
REMARK SMILES IDX 10 13 11 14 9 15 8 16 7 17 4 18 5 19 97 20 6 21 96 22 3 23
REMARK SMILES IDX 2 24 1 25 22 26 23 27 24 28 25 29 26 30 27 31 28 33 29 34
REMARK SMILES IDX 30 35 94 36 31 37 93 38 32 39 33 40 34 41 87 42 35 43 92 44
REMARK SMILES IDX 86 45 88 46 36 47 91 48 85 49 84 50 37 52 71 53 50 54 70 55
REMARK SMILES IDX 51 56 54 57 69 58 89 59 52 60 53 61 68 63 90 64 55 65 38 66
REMARK SMILES IDX 39 67 48 68 40 69 41 70 47 71 49 72 42 73 43 74 44 75 45 76
REMARK SMILES IDX 46 77 72 78 73 79 82 80 74 81 75 82 81 83 83 84 76 85 77 86
REMARK SMILES IDX 78 87 79 88 80 89 56 90 57 91 66 92 58 93 59 94 65 95 67 96
REMARK SMILES IDX 60 97 61 98 62 99 63 100 64 101
REMARK H PARENT 19 6 26 32 88 51 54 62
REMARK Flexibility Score: inf
ROOT
ATOM      1  C   UNL A   1      35.534  23.649  25.964  1.00  0.00     0.021 C 
ENDROOT
BRANCH   1   2
ATOM      2  C   UNL A   1      34.653  24.856  25.660  1.00  0.00     0.116 C 
BRANCH   2   3
ATOM      3  N   UNL A   1      33.290  24.709  26.113  1.00  0.00    -0.356 N 
ATOM      4  C   UNL A   1      32.313  25.620  26.354  1.00  0.00     0.224 C 
ATOM      5  O   UNL A   1      31.185  25.155  26.571  1.00  0.00    -0.275 OA
ATOM      6  H   UNL A   1      33.019  23.777  26.276  1.00  0.00     0.163 HD
BRANCH   4   7
ATOM      7  C   UNL A   1      32.510  27.144  26.410  1.00  0.00     0.098 C 
ATOM      8  N   UNL A   1      31.515  28.240  24.418  1.00  0.00    -0.339 N 
ATOM      9  C   UNL A   1      32.785  28.862  24.024  1.00  0.00     0.119 C 
ATOM     10  C   UNL A   1      31.371  27.989  25.842  1.00  0.00     0.133 C 
ATOM     11  C   UNL A   1      34.029  28.155  24.573  1.00  0.00     0.022 C 
ATOM     12  C   UNL A   1      33.896  27.653  26.009  1.00  0.00     0.017 C 
BRANCH   8  13
ATOM     13  C   UNL A   1      30.579  27.908  23.443  1.00  0.00     0.260 C 
ATOM     14  O   UNL A   1      29.376  28.129  23.624  1.00  0.00    -0.271 OA
BRANCH  13  15
ATOM     15  C   UNL A   1      31.005  27.130  22.169  1.00  0.00     0.329 C 
BRANCH  15  16
ATOM     16  O   UNL A   1      32.229  26.443  22.030  1.00  0.00    -0.484 OA
BRANCH  16  17
ATOM     17  C   UNL A   1      32.312  25.143  22.435  1.00  0.00     0.120 A 
ATOM     18  C   UNL A   1      32.207  22.535  23.429  1.00  0.00     0.119 A 
ATOM     19  C   UNL A   1      31.078  23.342  23.505  1.00  0.00     0.050 A 
ATOM     20  C   UNL A   1      33.367  23.005  22.816  1.00  0.00     0.050 A 
ATOM     21  C   UNL A   1      31.135  24.643  23.007  1.00  0.00     0.050 A 
ATOM     22  C   UNL A   1      33.425  24.315  22.326  1.00  0.00     0.050 A 
BRANCH  18  23
ATOM     23  O   UNL A   1      32.118  21.240  23.856  1.00  0.00    -0.494 OA
BRANCH  23  24
ATOM     24  C   UNL A   1      33.380  20.724  24.298  1.00  0.00     0.226 C 
ATOM     25  C   UNL A   1      33.415  20.606  25.814  1.00  0.00     0.049 C 
ENDBRANCH  23  24
ENDBRANCH  18  23
ENDBRANCH  16  17
ENDBRANCH  15  16
ENDBRANCH  13  15
ENDBRANCH   8  13
ENDBRANCH   4   7
ENDBRANCH   2   3
ENDBRANCH   1   2
BRANCH   1  26
ATOM     26  C   UNL A   1      36.946  23.744  25.381  1.00  0.00     0.002 C 
BRANCH  26  27
ATOM     27  C   UNL A   1      37.675  22.408  25.181  1.00  0.00     0.002 C 
BRANCH  27  28
ATOM     28  C   UNL A   1      38.830  22.122  26.147  1.00  0.00     0.021 C 
BRANCH  28  29
ATOM     29  C   UNL A   1      39.529  23.357  26.710  1.00  0.00     0.116 C 
BRANCH  29  30
ATOM     30  N   UNL A   1      40.788  23.630  26.036  1.00  0.00    -0.352 N 
ATOM     31  C   UNL A   1      41.630  24.707  26.140  1.00  0.00     0.251 C 
ATOM     32  H   UNL A   1      41.083  22.932  25.407  1.00  0.00     0.163 HD
ATOM     33  O   UNL A   1      42.542  24.846  25.330  1.00  0.00    -0.269 OA
BRANCH  31  34
ATOM     34  C   UNL A   1      41.440  25.703  27.217  1.00  0.00     0.039 A 
ATOM     35  C   UNL A   1      40.438  25.485  28.168  1.00  0.00     0.014 A 
ATOM     36  C   UNL A   1      42.217  26.862  27.270  1.00  0.00     0.014 A 
ATOM     37  C   UNL A   1      40.251  26.407  29.200  1.00  0.00     0.010 A 
ATOM     38  C   UNL A   1      42.076  27.744  28.339  1.00  0.00     0.010 A 
ATOM     39  C   UNL A   1      41.087  27.529  29.310  1.00  0.00    -0.014 A 
BRANCH  39  40
ATOM     40  C   UNL A   1      40.941  28.490  30.433  1.00  0.00     0.031 A 
ATOM     41  C   UNL A   1      41.805  28.361  31.658  1.00  0.00     0.074 A 
ATOM     42  C   UNL A   1      39.983  29.434  30.377  1.00  0.00     0.049 A 
ATOM     43  N   UNL A   1      41.780  29.058  32.765  1.00  0.00    -0.248 NA
ATOM     44  C   UNL A   1      42.808  27.285  31.649  1.00  0.00     0.031 C 
ATOM     45  C   UNL A   1      39.047  29.622  29.266  1.00  0.00     0.029 A 
ATOM     46  N   UNL A   1      39.627  30.403  31.280  1.00  0.00    -0.354 N 
ATOM     47  C   UNL A   1      42.753  28.501  33.585  1.00  0.00     0.074 A 
ATOM     48  C   UNL A   1      43.308  27.371  32.873  1.00  0.00     0.031 C 
ATOM     49  C   UNL A   1      38.232  30.650  29.548  1.00  0.00     0.029 A 
ATOM     50  C   UNL A   1      38.562  31.172  30.871  1.00  0.00     0.049 A 
ATOM     51  H   UNL A   1      40.088  30.536  32.140  1.00  0.00     0.167 HD
ATOM     52  C   UNL A   1      43.163  28.908  34.812  1.00  0.00     0.037 A 
ATOM     53  C   UNL A   1      37.917  32.177  31.494  1.00  0.00     0.037 A 
ATOM     54  C   UNL A   1      42.610  30.041  35.509  1.00  0.00     0.049 A 
ATOM     55  C   UNL A   1      38.390  32.620  32.851  1.00  0.00     0.074 A 
ATOM     56  C   UNL A   1      42.988  30.570  36.730  1.00  0.00     0.029 A 
ATOM     57  N   UNL A   1      41.554  30.816  35.048  1.00  0.00    -0.354 N 
ATOM     58  N   UNL A   1      39.357  32.126  33.586  1.00  0.00    -0.248 NA
ATOM     59  C   UNL A   1      37.694  33.762  33.458  1.00  0.00     0.031 C 
ATOM     60  C   UNL A   1      42.132  31.638  37.027  1.00  0.00     0.029 A 
ATOM     61  C   UNL A   1      41.254  31.807  35.969  1.00  0.00     0.049 A 
ATOM     62  H   UNL A   1      41.087  30.682  34.191  1.00  0.00     0.167 HD
ATOM     63  C   UNL A   1      39.400  32.908  34.736  1.00  0.00     0.074 A 
ATOM     64  C   UNL A   1      38.369  33.916  34.590  1.00  0.00     0.031 C 
ATOM     65  C   UNL A   1      40.219  32.801  35.811  1.00  0.00     0.037 A 
BRANCH  52  66
ATOM     66  C   UNL A   1      44.258  28.113  35.471  1.00  0.00     0.058 A 
ATOM     67  C   UNL A   1      43.975  27.037  36.330  1.00  0.00     0.135 A 
ATOM     68  C   UNL A   1      45.608  28.434  35.251  1.00  0.00     0.135 A 
ATOM     69  F   UNL A   1      42.703  26.693  36.587  1.00  0.00    -0.206 F 
ATOM     70  C   UNL A   1      44.986  26.344  36.988  1.00  0.00     0.059 A 
ATOM     71  C   UNL A   1      46.637  27.732  35.874  1.00  0.00     0.059 A 
ATOM     72  F   UNL A   1      45.939  29.447  34.437  1.00  0.00    -0.206 F 
ATOM     73  C   UNL A   1      46.315  26.705  36.759  1.00  0.00     0.060 A 
BRANCH  73  74
ATOM     74  S   UNL A   1      47.614  25.821  37.648  1.00  0.00     0.124 S 
ATOM     75  O   UNL A   1      48.799  26.578  37.255  1.00  0.00    -0.237 OA
ATOM     76  O   UNL A   1      47.201  25.971  39.039  1.00  0.00    -0.237 OA
ATOM     77  O   UNL A   1      47.530  24.465  37.115  1.00  0.00    -0.744 OA
ENDBRANCH  73  74
ENDBRANCH  52  66
BRANCH  53  78
ATOM     78  C   UNL A   1      36.773  32.841  30.815  1.00  0.00     0.058 A 
ATOM     79  C   UNL A   1      35.452  32.569  31.196  1.00  0.00     0.135 A 
ATOM     80  C   UNL A   1      36.983  33.805  29.816  1.00  0.00     0.135 A 
ATOM     81  F   UNL A   1      35.200  31.652  32.141  1.00  0.00    -0.206 F 
ATOM     82  C   UNL A   1      34.376  33.231  30.611  1.00  0.00     0.059 A 
ATOM     83  C   UNL A   1      35.926  34.496  29.234  1.00  0.00     0.059 A 
ATOM     84  F   UNL A   1      38.231  34.110  29.429  1.00  0.00    -0.206 F 
ATOM     85  C   UNL A   1      34.625  34.200  29.637  1.00  0.00     0.060 A 
BRANCH  85  86
ATOM     86  S   UNL A   1      33.226  35.113  28.949  1.00  0.00     0.124 S 
ATOM     87  O   UNL A   1      32.415  35.349  30.138  1.00  0.00    -0.237 OA
ATOM     88  O   UNL A   1      33.879  36.287  28.377  1.00  0.00    -0.237 OA
ATOM     89  O   UNL A   1      32.664  34.182  27.975  1.00  0.00    -0.744 OA
ENDBRANCH  85  86
ENDBRANCH  53  78
BRANCH  65  90
ATOM     90  C   UNL A   1      40.051  33.814  36.911  1.00  0.00     0.058 A 
ATOM     91  C   UNL A   1      40.650  35.082  36.843  1.00  0.00     0.135 A 
ATOM     92  C   UNL A   1      39.238  33.532  38.020  1.00  0.00     0.135 A 
ATOM     93  F   UNL A   1      41.443  35.401  35.809  1.00  0.00    -0.206 F 
ATOM     94  C   UNL A   1      40.464  36.027  37.848  1.00  0.00     0.059 A 
ATOM     95  C   UNL A   1      39.015  34.470  39.022  1.00  0.00     0.059 A 
ATOM     96  F   UNL A   1      38.634  32.337  38.128  1.00  0.00    -0.206 F 
ATOM     97  C   UNL A   1      39.642  35.712  38.932  1.00  0.00     0.060 A 
BRANCH  97  98
ATOM     98  S   UNL A   1      39.380  36.960  40.210  1.00  0.00     0.124 S 
ATOM     99  O   UNL A   1      39.113  38.150  39.409  1.00  0.00    -0.237 OA
ATOM    100  O   UNL A   1      38.239  36.421  40.945  1.00  0.00    -0.237 OA
ATOM    101  O   UNL A   1      40.643  36.968  40.943  1.00  0.00    -0.744 OA
ENDBRANCH  97  98
ENDBRANCH  65  90
ENDBRANCH  39  40
ENDBRANCH  31  34
ENDBRANCH  29  30
ENDBRANCH  28  29
ENDBRANCH  27  28
ENDBRANCH  26  27
ENDBRANCH   1  26
TORSDOF 22
ENDMDL
