MODEL 1
REMARK VINA RESULT:     -11.6      0.000      0.000
REMARK SMILES COc1cc(Cl)c(C)cc1N1C(=O)C[C@H](Nc2cc(C(=O)NCCCCCCNC(=O)c3ccc(-c4c5nc(c(-c6c(F)cc(S(=O)(=O)[O-])cc6F)c6ccc([nH]6)c(-c6c(F)cc(S(=O)(=O)[O-])cc6F)c6nc(c(-c7c(F)cc(S(=O)(=O)[O-])cc7F)c7ccc4[nH]7)C=C6)C=C5)cc3)ccc2C)C1=O
REMARK SMILES IDX 25 1 24 2 23 3 22 4 20 5 21 6 19 8 17 9 18 10 100 11 99 12
REMARK SMILES IDX 101 13 98 14 16 15 15 17 11 18 12 19 102 20 13 21 14 22
REMARK SMILES IDX 103 23 10 24 3 25 4 26 5 27 9 28 6 29 7 30 8 31 2 32 1 33
REMARK SMILES IDX 26 34 27 35 28 36 29 37 30 38 31 40 32 41 33 42 97 43 34 44
REMARK SMILES IDX 96 45 35 46 36 47 37 48 90 49 38 50 95 51 89 52 91 53 39 54
REMARK SMILES IDX 94 55 88 56 87 57 40 59 74 60 53 61 73 62 54 63 57 64 72 65
REMARK SMILES IDX 92 66 55 67 56 68 71 70 93 71 58 72 41 73 42 74 51 75 43 76
REMARK SMILES IDX 44 77 50 78 52 79 45 80 46 81 47 82 48 83 49 84 75 85 76 86
REMARK SMILES IDX 85 87 77 88 78 89 84 90 86 91 79 92 80 93 81 94 82 95 83 96
REMARK SMILES IDX 59 97 60 98 69 99 61 100 62 101 68 102 70 103 63 104 64 105
REMARK SMILES IDX 65 106 66 107 67 108
REMARK H PARENT 22 7 16 16 29 39 91 58 57 69
REMARK Flexibility Score: inf
ROOT
ATOM      1  C   UNL A   1      40.250  25.112  28.389  1.00  0.00     0.002 C 
ENDROOT
BRANCH   1   2
ATOM      2  C   UNL A   1      39.976  26.345  27.485  1.00  0.00     0.021 C 
BRANCH   2   3
ATOM      3  C   UNL A   1      39.664  27.645  28.159  1.00  0.00     0.116 C 
BRANCH   3   4
ATOM      4  N   UNL A   1      39.084  27.459  29.469  1.00  0.00    -0.352 N 
ATOM      5  C   UNL A   1      38.273  28.265  30.218  1.00  0.00     0.251 C 
ATOM      6  O   UNL A   1      37.988  27.901  31.359  1.00  0.00    -0.269 OA
ATOM      7  H   UNL A   1      39.312  26.602  29.897  1.00  0.00     0.163 HD
BRANCH   5   8
ATOM      8  C   UNL A   1      37.742  29.566  29.718  1.00  0.00     0.041 A 
ATOM      9  C   UNL A   1      36.172  30.928  28.427  1.00  0.00     0.038 A 
ATOM     10  C   UNL A   1      36.571  29.699  28.966  1.00  0.00     0.039 A 
ATOM     11  C   UNL A   1      36.916  32.076  28.751  1.00  0.00    -0.028 A 
ATOM     12  C   UNL A   1      38.040  31.965  29.584  1.00  0.00     0.006 A 
ATOM     13  C   UNL A   1      36.498  33.450  28.302  1.00  0.00     0.046 C 
ATOM     14  C   UNL A   1      38.464  30.718  30.040  1.00  0.00     0.014 A 
BRANCH   9  15
ATOM     15  N   UNL A   1      35.190  30.994  27.439  1.00  0.00    -0.373 N 
ATOM     16  H   UNL A   1      35.388  31.471  26.602  1.00  0.00     0.161 HD
BRANCH  15  17
ATOM     17  C   UNL A   1      33.874  30.374  27.610  1.00  0.00     0.179 C 
ATOM     18  N   UNL A   1      32.578  29.180  26.067  1.00  0.00    -0.245 N 
ATOM     19  C   UNL A   1      32.038  30.436  26.086  1.00  0.00     0.236 C 
ATOM     20  C   UNL A   1      33.715  29.076  26.833  1.00  0.00     0.256 C 
ATOM     21  O   UNL A   1      31.041  30.839  25.502  1.00  0.00    -0.274 OA
ATOM     22  C   UNL A   1      32.825  31.297  27.021  1.00  0.00     0.136 C 
ATOM     23  O   UNL A   1      34.523  28.159  26.872  1.00  0.00    -0.272 OA
BRANCH  18  24
ATOM     24  C   UNL A   1      31.996  28.108  25.360  1.00  0.00     0.094 A 
ATOM     25  C   UNL A   1      32.275  27.895  24.002  1.00  0.00     0.144 A 
ATOM     26  C   UNL A   1      31.706  26.815  23.324  1.00  0.00     0.069 A 
ATOM     27  C   UNL A   1      30.868  25.926  24.001  1.00  0.00     0.047 A 
ATOM     28  C   UNL A   1      31.164  27.201  26.033  1.00  0.00     0.035 A 
ATOM     29  Cl  UNL A   1      30.241  24.572  23.128  1.00  0.00    -0.084 Cl
ATOM     30  C   UNL A   1      30.572  26.116  25.360  1.00  0.00    -0.030 A 
ATOM     31  C   UNL A   1      29.626  25.215  26.104  1.00  0.00     0.046 C 
BRANCH  25  32
ATOM     32  O   UNL A   1      33.119  28.703  23.285  1.00  0.00    -0.495 OA
ATOM     33  C   UNL A   1      33.776  28.005  22.231  1.00  0.00     0.278 C 
ENDBRANCH  25  32
ENDBRANCH  18  24
ENDBRANCH  15  17
ENDBRANCH   9  15
ENDBRANCH   5   8
ENDBRANCH   3   4
ENDBRANCH   2   3
ENDBRANCH   1   2
BRANCH   1  34
ATOM     34  C   UNL A   1      41.187  23.891  28.019  1.00  0.00     0.002 C 
BRANCH  34  35
ATOM     35  C   UNL A   1      40.797  22.338  27.651  1.00  0.00     0.021 C 
BRANCH  35  36
ATOM     36  C   UNL A   1      41.412  21.667  26.326  1.00  0.00     0.116 C 
BRANCH  36  37
ATOM     37  N   UNL A   1      42.112  22.395  25.062  1.00  0.00    -0.352 N 
ATOM     38  C   UNL A   1      43.286  23.234  24.727  1.00  0.00     0.251 C 
ATOM     39  H   UNL A   1      41.585  22.223  24.248  1.00  0.00     0.163 HD
ATOM     40  O   UNL A   1      44.052  22.667  23.922  1.00  0.00    -0.269 OA
BRANCH  38  41
ATOM     41  C   UNL A   1      43.791  24.733  25.088  1.00  0.00     0.039 A 
ATOM     42  C   UNL A   1      45.184  25.078  25.080  1.00  0.00     0.014 A 
ATOM     43  C   UNL A   1      43.020  25.793  25.553  1.00  0.00     0.014 A 
ATOM     44  C   UNL A   1      45.730  26.049  26.032  1.00  0.00     0.010 A 
ATOM     45  C   UNL A   1      43.540  26.702  26.536  1.00  0.00     0.010 A 
ATOM     46  C   UNL A   1      44.875  26.667  26.964  1.00  0.00    -0.014 A 
BRANCH  46  47
ATOM     47  C   UNL A   1      45.230  27.008  28.425  1.00  0.00     0.031 A 
ATOM     48  C   UNL A   1      44.845  26.095  29.502  1.00  0.00     0.074 A 
ATOM     49  C   UNL A   1      46.040  28.005  28.916  1.00  0.00     0.049 A 
ATOM     50  N   UNL A   1      44.285  26.429  30.620  1.00  0.00    -0.248 NA
ATOM     51  C   UNL A   1      45.170  24.686  29.395  1.00  0.00     0.031 C 
ATOM     52  C   UNL A   1      46.548  28.348  30.263  1.00  0.00     0.029 A 
ATOM     53  N   UNL A   1      46.675  29.008  28.216  1.00  0.00    -0.354 N 
ATOM     54  C   UNL A   1      44.487  25.365  31.477  1.00  0.00     0.074 A 
ATOM     55  C   UNL A   1      44.845  24.259  30.615  1.00  0.00     0.031 C 
ATOM     56  C   UNL A   1      47.000  29.630  30.277  1.00  0.00     0.029 A 
ATOM     57  C   UNL A   1      46.783  30.182  28.956  1.00  0.00     0.049 A 
ATOM     58  H   UNL A   1      47.014  28.907  27.297  1.00  0.00     0.167 HD
ATOM     59  C   UNL A   1      44.601  25.552  32.831  1.00  0.00     0.037 A 
ATOM     60  C   UNL A   1      46.042  31.274  28.573  1.00  0.00     0.037 A 
ATOM     61  C   UNL A   1      44.658  26.990  33.159  1.00  0.00     0.049 A 
ATOM     62  C   UNL A   1      44.905  31.461  29.547  1.00  0.00     0.074 A 
ATOM     63  C   UNL A   1      45.703  27.810  33.565  1.00  0.00     0.029 A 
ATOM     64  N   UNL A   1      43.636  27.853  32.760  1.00  0.00    -0.354 N 
ATOM     65  N   UNL A   1      44.601  30.559  30.437  1.00  0.00    -0.248 NA
ATOM     66  C   UNL A   1      44.056  32.640  29.655  1.00  0.00     0.031 C 
ATOM     67  C   UNL A   1      45.347  29.158  33.288  1.00  0.00     0.029 A 
ATOM     68  C   UNL A   1      44.072  29.169  32.746  1.00  0.00     0.049 A 
ATOM     69  H   UNL A   1      42.726  27.564  32.522  1.00  0.00     0.167 HD
ATOM     70  C   UNL A   1      43.620  31.005  31.257  1.00  0.00     0.074 A 
ATOM     71  C   UNL A   1      43.297  32.317  30.722  1.00  0.00     0.031 C 
ATOM     72  C   UNL A   1      43.191  30.256  32.315  1.00  0.00     0.037 A 
BRANCH  59  73
ATOM     73  C   UNL A   1      45.016  24.439  33.798  1.00  0.00     0.058 A 
ATOM     74  C   UNL A   1      46.370  24.182  34.113  1.00  0.00     0.135 A 
ATOM     75  C   UNL A   1      44.107  23.599  34.481  1.00  0.00     0.135 A 
ATOM     76  F   UNL A   1      47.356  24.970  33.666  1.00  0.00    -0.206 F 
ATOM     77  C   UNL A   1      46.780  23.123  34.939  1.00  0.00     0.059 A 
ATOM     78  C   UNL A   1      44.491  22.488  35.240  1.00  0.00     0.059 A 
ATOM     79  F   UNL A   1      42.797  23.876  34.524  1.00  0.00    -0.206 F 
ATOM     80  C   UNL A   1      45.835  22.262  35.477  1.00  0.00     0.060 A 
BRANCH  80  81
ATOM     81  S   UNL A   1      46.363  20.929  36.573  1.00  0.00     0.124 S 
ATOM     82  O   UNL A   1      47.779  20.797  36.246  1.00  0.00    -0.237 OA
ATOM     83  O   UNL A   1      46.063  21.483  37.890  1.00  0.00    -0.237 OA
ATOM     84  O   UNL A   1      45.527  19.801  36.170  1.00  0.00    -0.744 OA
ENDBRANCH  80  81
ENDBRANCH  59  73
BRANCH  60  85
ATOM     85  C   UNL A   1      45.973  31.531  27.051  1.00  0.00     0.058 A 
ATOM     86  C   UNL A   1      44.685  31.872  26.603  1.00  0.00     0.135 A 
ATOM     87  C   UNL A   1      46.938  32.415  26.608  1.00  0.00     0.135 A 
ATOM     88  F   UNL A   1      43.750  30.922  26.469  1.00  0.00    -0.206 F 
ATOM     89  C   UNL A   1      44.298  33.208  26.448  1.00  0.00     0.059 A 
ATOM     90  C   UNL A   1      46.545  33.753  26.512  1.00  0.00     0.059 A 
ATOM     91  F   UNL A   1      48.239  32.143  26.799  1.00  0.00    -0.206 F 
ATOM     92  C   UNL A   1      45.253  34.192  26.621  1.00  0.00     0.060 A 
BRANCH  92  93
ATOM     93  S   UNL A   1      44.873  35.965  27.404  1.00  0.00     0.124 S 
ATOM     94  O   UNL A   1      45.988  36.696  26.871  1.00  0.00    -0.237 OA
ATOM     95  O   UNL A   1      43.613  36.402  26.842  1.00  0.00    -0.237 OA
ATOM     96  O   UNL A   1      44.940  35.887  28.843  1.00  0.00    -0.744 OA
ENDBRANCH  92  93
ENDBRANCH  60  85
BRANCH  72  97
ATOM     97  C   UNL A   1      41.967  30.558  33.128  1.00  0.00     0.058 A 
ATOM     98  C   UNL A   1      40.760  29.853  33.007  1.00  0.00     0.135 A 
ATOM     99  C   UNL A   1      42.024  31.512  34.172  1.00  0.00     0.135 A 
ATOM    100  F   UNL A   1      40.625  28.831  32.149  1.00  0.00    -0.206 F 
ATOM    101  C   UNL A   1      39.651  30.146  33.795  1.00  0.00     0.059 A 
ATOM    102  C   UNL A   1      40.954  31.769  35.016  1.00  0.00     0.059 A 
ATOM    103  F   UNL A   1      43.133  32.229  34.415  1.00  0.00    -0.206 F 
ATOM    104  C   UNL A   1      39.756  31.111  34.791  1.00  0.00     0.060 A 
BRANCH 104 105
ATOM    105  S   UNL A   1      38.323  31.484  35.810  1.00  0.00     0.124 S 
ATOM    106  O   UNL A   1      37.304  31.726  34.793  1.00  0.00    -0.237 OA
ATOM    107  O   UNL A   1      38.159  30.261  36.590  1.00  0.00    -0.237 OA
ATOM    108  O   UNL A   1      38.745  32.655  36.573  1.00  0.00    -0.744 OA
ENDBRANCH 104 105
ENDBRANCH  72  97
ENDBRANCH  46  47
ENDBRANCH  38  41
ENDBRANCH  36  37
ENDBRANCH  35  36
ENDBRANCH  34  35
ENDBRANCH   1  34
TORSDOF 20
ENDMDL
MODEL 2
REMARK VINA RESULT:     -11.3      3.763      7.653
REMARK SMILES COc1cc(Cl)c(C)cc1N1C(=O)C[C@H](Nc2cc(C(=O)NCCCCCCNC(=O)c3ccc(-c4c5nc(c(-c6c(F)cc(S(=O)(=O)[O-])cc6F)c6ccc([nH]6)c(-c6c(F)cc(S(=O)(=O)[O-])cc6F)c6nc(c(-c7c(F)cc(S(=O)(=O)[O-])cc7F)c7ccc4[nH]7)C=C6)C=C5)cc3)ccc2C)C1=O
REMARK SMILES IDX 25 1 24 2 23 3 22 4 20 5 21 6 19 8 17 9 18 10 100 11 99 12
REMARK SMILES IDX 101 13 98 14 16 15 15 17 11 18 12 19 102 20 13 21 14 22
REMARK SMILES IDX 103 23 10 24 3 25 4 26 5 27 9 28 6 29 7 30 8 31 2 32 1 33
REMARK SMILES IDX 26 34 27 35 28 36 29 37 30 38 31 40 32 41 33 42 97 43 34 44
REMARK SMILES IDX 96 45 35 46 36 47 37 48 90 49 38 50 95 51 89 52 91 53 39 54
REMARK SMILES IDX 94 55 88 56 87 57 40 59 74 60 53 61 73 62 54 63 57 64 72 65
REMARK SMILES IDX 92 66 55 67 56 68 71 70 93 71 58 72 41 73 42 74 51 75 43 76
REMARK SMILES IDX 44 77 50 78 52 79 45 80 46 81 47 82 48 83 49 84 75 85 76 86
REMARK SMILES IDX 85 87 77 88 78 89 84 90 86 91 79 92 80 93 81 94 82 95 83 96
REMARK SMILES IDX 59 97 60 98 69 99 61 100 62 101 68 102 70 103 63 104 64 105
REMARK SMILES IDX 65 106 66 107 67 108
REMARK H PARENT 22 7 16 16 29 39 91 58 57 69
REMARK Flexibility Score: inf
ROOT
ATOM      1  C   UNL A   1      37.305  21.271  24.645  1.00  0.00     0.002 C 
ENDROOT
BRANCH   1   2
ATOM      2  C   UNL A   1      37.630  22.611  25.359  1.00  0.00     0.021 C 
BRANCH   2   3
ATOM      3  C   UNL A   1      36.484  23.509  25.709  1.00  0.00     0.116 C 
BRANCH   3   4
ATOM      4  N   UNL A   1      35.733  23.022  26.843  1.00  0.00    -0.352 N 
ATOM      5  C   UNL A   1      34.386  22.935  27.061  1.00  0.00     0.251 C 
ATOM      6  O   UNL A   1      34.001  22.559  28.168  1.00  0.00    -0.269 OA
ATOM      7  H   UNL A   1      36.287  22.696  27.589  1.00  0.00     0.163 HD
BRANCH   5   8
ATOM      8  C   UNL A   1      33.375  23.297  26.026  1.00  0.00     0.041 A 
ATOM      9  C   UNL A   1      32.443  24.773  24.311  1.00  0.00     0.038 A 
ATOM     10  C   UNL A   1      33.471  24.415  25.192  1.00  0.00     0.039 A 
ATOM     11  C   UNL A   1      31.336  23.915  24.187  1.00  0.00    -0.028 A 
ATOM     12  C   UNL A   1      31.278  22.740  24.952  1.00  0.00     0.006 A 
ATOM     13  C   UNL A   1      30.240  24.169  23.189  1.00  0.00     0.046 C 
ATOM     14  C   UNL A   1      32.274  22.448  25.882  1.00  0.00     0.014 A 
BRANCH   9  15
ATOM     15  N   UNL A   1      32.411  26.036  23.721  1.00  0.00    -0.373 N 
ATOM     16  H   UNL A   1      32.727  26.137  22.795  1.00  0.00     0.161 HD
BRANCH  15  17
ATOM     17  C   UNL A   1      31.921  27.216  24.436  1.00  0.00     0.179 C 
ATOM     18  N   UNL A   1      32.958  28.478  26.114  1.00  0.00    -0.245 N 
ATOM     19  C   UNL A   1      32.084  27.661  26.775  1.00  0.00     0.236 C 
ATOM     20  C   UNL A   1      33.017  28.218  24.766  1.00  0.00     0.256 C 
ATOM     21  O   UNL A   1      31.821  27.643  27.971  1.00  0.00    -0.274 OA
ATOM     22  C   UNL A   1      31.392  26.777  25.788  1.00  0.00     0.136 C 
ATOM     23  O   UNL A   1      33.823  28.635  23.947  1.00  0.00    -0.272 OA
BRANCH  18  24
ATOM     24  C   UNL A   1      33.685  29.500  26.759  1.00  0.00     0.094 A 
ATOM     25  C   UNL A   1      33.082  30.720  27.097  1.00  0.00     0.144 A 
ATOM     26  C   UNL A   1      33.814  31.712  27.755  1.00  0.00     0.069 A 
ATOM     27  C   UNL A   1      35.148  31.485  28.101  1.00  0.00     0.047 A 
ATOM     28  C   UNL A   1      35.022  29.278  27.123  1.00  0.00     0.035 A 
ATOM     29  Cl  UNL A   1      35.986  32.723  28.969  1.00  0.00    -0.084 Cl
ATOM     30  C   UNL A   1      35.775  30.272  27.774  1.00  0.00    -0.030 A 
ATOM     31  C   UNL A   1      37.227  30.019  28.074  1.00  0.00     0.046 C 
BRANCH  25  32
ATOM     32  O   UNL A   1      31.767  30.996  26.826  1.00  0.00    -0.495 OA
ATOM     33  C   UNL A   1      31.524  32.392  26.677  1.00  0.00     0.278 C 
ENDBRANCH  25  32
ENDBRANCH  18  24
ENDBRANCH  15  17
ENDBRANCH   9  15
ENDBRANCH   5   8
ENDBRANCH   3   4
ENDBRANCH   2   3
ENDBRANCH   1   2
BRANCH   1  34
ATOM     34  C   UNL A   1      37.782  19.838  25.117  1.00  0.00     0.002 C 
BRANCH  34  35
ATOM     35  C   UNL A   1      39.298  19.281  25.422  1.00  0.00     0.021 C 
BRANCH  35  36
ATOM     36  C   UNL A   1      40.336  20.223  26.210  1.00  0.00     0.116 C 
BRANCH  36  37
ATOM     37  N   UNL A   1      41.055  21.577  25.697  1.00  0.00    -0.352 N 
ATOM     38  C   UNL A   1      41.444  22.924  26.178  1.00  0.00     0.251 C 
ATOM     39  H   UNL A   1      41.324  21.473  24.755  1.00  0.00     0.163 HD
ATOM     40  O   UNL A   1      42.679  23.095  26.141  1.00  0.00    -0.269 OA
BRANCH  38  41
ATOM     41  C   UNL A   1      40.664  24.256  26.676  1.00  0.00     0.039 A 
ATOM     42  C   UNL A   1      40.845  25.521  26.022  1.00  0.00     0.014 A 
ATOM     43  C   UNL A   1      39.865  24.392  27.806  1.00  0.00     0.014 A 
ATOM     44  C   UNL A   1      40.812  26.777  26.776  1.00  0.00     0.010 A 
ATOM     45  C   UNL A   1      39.887  25.603  28.578  1.00  0.00     0.010 A 
ATOM     46  C   UNL A   1      40.584  26.748  28.166  1.00  0.00    -0.014 A 
BRANCH  46  47
ATOM     47  C   UNL A   1      41.255  27.666  29.207  1.00  0.00     0.031 A 
ATOM     48  C   UNL A   1      40.455  28.650  29.937  1.00  0.00     0.074 A 
ATOM     49  C   UNL A   1      42.527  27.612  29.726  1.00  0.00     0.049 A 
ATOM     50  N   UNL A   1      40.765  29.891  30.130  1.00  0.00    -0.248 NA
ATOM     51  C   UNL A   1      39.231  28.231  30.593  1.00  0.00     0.031 C 
ATOM     52  C   UNL A   1      43.232  28.344  30.802  1.00  0.00     0.029 A 
ATOM     53  N   UNL A   1      43.555  26.763  29.375  1.00  0.00    -0.354 N 
ATOM     54  C   UNL A   1      39.979  30.318  31.183  1.00  0.00     0.074 A 
ATOM     55  C   UNL A   1      38.926  29.330  31.282  1.00  0.00     0.031 C 
ATOM     56  C   UNL A   1      44.575  28.183  30.671  1.00  0.00     0.029 A 
ATOM     57  C   UNL A   1      44.804  27.365  29.499  1.00  0.00     0.049 A 
ATOM     58  H   UNL A   1      43.422  25.836  29.070  1.00  0.00     0.167 HD
ATOM     59  C   UNL A   1      40.411  31.294  32.044  1.00  0.00     0.037 A 
ATOM     60  C   UNL A   1      45.516  27.648  28.358  1.00  0.00     0.037 A 
ATOM     61  C   UNL A   1      41.822  31.638  31.782  1.00  0.00     0.049 A 
ATOM     62  C   UNL A   1      45.477  29.136  28.112  1.00  0.00     0.074 A 
ATOM     63  C   UNL A   1      42.993  31.353  32.473  1.00  0.00     0.029 A 
ATOM     64  N   UNL A   1      42.227  32.069  30.518  1.00  0.00    -0.354 N 
ATOM     65  N   UNL A   1      44.683  29.927  28.777  1.00  0.00    -0.248 NA
ATOM     66  C   UNL A   1      46.315  29.870  27.173  1.00  0.00     0.031 C 
ATOM     67  C   UNL A   1      44.087  31.494  31.576  1.00  0.00     0.029 A 
ATOM     68  C   UNL A   1      43.592  31.899  30.347  1.00  0.00     0.049 A 
ATOM     69  H   UNL A   1      41.623  32.444  29.838  1.00  0.00     0.167 HD
ATOM     70  C   UNL A   1      44.911  31.221  28.451  1.00  0.00     0.074 A 
ATOM     71  C   UNL A   1      45.941  31.140  27.428  1.00  0.00     0.031 C 
ATOM     72  C   UNL A   1      44.247  32.234  29.081  1.00  0.00     0.037 A 
BRANCH  59  73
ATOM     73  C   UNL A   1      39.668  31.663  33.332  1.00  0.00     0.058 A 
ATOM     74  C   UNL A   1      38.833  32.800  33.420  1.00  0.00     0.135 A 
ATOM     75  C   UNL A   1      39.717  30.903  34.523  1.00  0.00     0.135 A 
ATOM     76  F   UNL A   1      38.560  33.554  32.348  1.00  0.00    -0.206 F 
ATOM     77  C   UNL A   1      38.199  33.200  34.607  1.00  0.00     0.059 A 
ATOM     78  C   UNL A   1      39.165  31.322  35.739  1.00  0.00     0.059 A 
ATOM     79  F   UNL A   1      40.221  29.663  34.541  1.00  0.00    -0.206 F 
ATOM     80  C   UNL A   1      38.393  32.470  35.772  1.00  0.00     0.060 A 
BRANCH  80  81
ATOM     81  S   UNL A   1      37.542  32.962  37.285  1.00  0.00     0.124 S 
ATOM     82  O   UNL A   1      36.274  33.478  36.779  1.00  0.00    -0.237 OA
ATOM     83  O   UNL A   1      37.469  31.700  38.015  1.00  0.00    -0.237 OA
ATOM     84  O   UNL A   1      38.430  33.965  37.868  1.00  0.00    -0.744 OA
ENDBRANCH  80  81
ENDBRANCH  59  73
BRANCH  60  85
ATOM     85  C   UNL A   1      45.485  26.555  27.266  1.00  0.00     0.058 A 
ATOM     86  C   UNL A   1      45.459  27.076  25.960  1.00  0.00     0.135 A 
ATOM     87  C   UNL A   1      46.465  25.596  27.433  1.00  0.00     0.135 A 
ATOM     88  F   UNL A   1      44.322  27.582  25.464  1.00  0.00    -0.206 F 
ATOM     89  C   UNL A   1      46.633  27.231  25.216  1.00  0.00     0.059 A 
ATOM     90  C   UNL A   1      47.650  25.801  26.722  1.00  0.00     0.059 A 
ATOM     91  F   UNL A   1      46.516  24.875  28.565  1.00  0.00    -0.206 F 
ATOM     92  C   UNL A   1      47.815  26.742  25.741  1.00  0.00     0.060 A 
BRANCH  92  93
ATOM     93  S   UNL A   1      49.573  27.603  25.480  1.00  0.00     0.124 S 
ATOM     94  O   UNL A   1      49.738  27.368  24.073  1.00  0.00    -0.237 OA
ATOM     95  O   UNL A   1      49.394  29.006  25.784  1.00  0.00    -0.237 OA
ATOM     96  O   UNL A   1      50.576  26.904  26.247  1.00  0.00    -0.744 OA
ENDBRANCH  92  93
ENDBRANCH  60  85
BRANCH  72  97
ATOM     97  C   UNL A   1      44.261  33.666  28.633  1.00  0.00     0.058 A 
ATOM     98  C   UNL A   1      43.889  34.081  27.345  1.00  0.00     0.135 A 
ATOM     99  C   UNL A   1      44.536  34.699  29.561  1.00  0.00     0.135 A 
ATOM    100  F   UNL A   1      43.474  33.206  26.417  1.00  0.00    -0.206 F 
ATOM    101  C   UNL A   1      43.892  35.421  26.971  1.00  0.00     0.059 A 
ATOM    102  C   UNL A   1      44.474  36.044  29.229  1.00  0.00     0.059 A 
ATOM    103  F   UNL A   1      44.868  34.436  30.834  1.00  0.00    -0.206 F 
ATOM    104  C   UNL A   1      44.194  36.395  27.918  1.00  0.00     0.060 A 
BRANCH 104 105
ATOM    105  S   UNL A   1      44.193  38.124  27.433  1.00  0.00     0.124 S 
ATOM    106  O   UNL A   1      42.954  38.206  26.665  1.00  0.00    -0.237 OA
ATOM    107  O   UNL A   1      44.185  38.817  28.718  1.00  0.00    -0.237 OA
ATOM    108  O   UNL A   1      45.425  38.261  26.662  1.00  0.00    -0.744 OA
ENDBRANCH 104 105
ENDBRANCH  72  97
ENDBRANCH  46  47
ENDBRANCH  38  41
ENDBRANCH  36  37
ENDBRANCH  35  36
ENDBRANCH  34  35
ENDBRANCH   1  34
TORSDOF 20
ENDMDL
MODEL 3
REMARK VINA RESULT:     -11.3      5.833      8.759
REMARK SMILES COc1cc(Cl)c(C)cc1N1C(=O)C[C@H](Nc2cc(C(=O)NCCCCCCNC(=O)c3ccc(-c4c5nc(c(-c6c(F)cc(S(=O)(=O)[O-])cc6F)c6ccc([nH]6)c(-c6c(F)cc(S(=O)(=O)[O-])cc6F)c6nc(c(-c7c(F)cc(S(=O)(=O)[O-])cc7F)c7ccc4[nH]7)C=C6)C=C5)cc3)ccc2C)C1=O
REMARK SMILES IDX 25 1 24 2 23 3 22 4 20 5 21 6 19 8 17 9 18 10 100 11 99 12
REMARK SMILES IDX 101 13 98 14 16 15 15 17 11 18 12 19 102 20 13 21 14 22
REMARK SMILES IDX 103 23 10 24 3 25 4 26 5 27 9 28 6 29 7 30 8 31 2 32 1 33
REMARK SMILES IDX 26 34 27 35 28 36 29 37 30 38 31 40 32 41 33 42 97 43 34 44
REMARK SMILES IDX 96 45 35 46 36 47 37 48 90 49 38 50 95 51 89 52 91 53 39 54
REMARK SMILES IDX 94 55 88 56 87 57 40 59 74 60 53 61 73 62 54 63 57 64 72 65
REMARK SMILES IDX 92 66 55 67 56 68 71 70 93 71 58 72 41 73 42 74 51 75 43 76
REMARK SMILES IDX 44 77 50 78 52 79 45 80 46 81 47 82 48 83 49 84 75 85 76 86
REMARK SMILES IDX 85 87 77 88 78 89 84 90 86 91 79 92 80 93 81 94 82 95 83 96
REMARK SMILES IDX 59 97 60 98 69 99 61 100 62 101 68 102 70 103 63 104 64 105
REMARK SMILES IDX 65 106 66 107 67 108
REMARK H PARENT 22 7 16 16 29 39 91 58 57 69
REMARK Flexibility Score: inf
ROOT
ATOM      1  C   UNL A   1      32.765  30.713  27.468  1.00  0.00     0.002 C 
ENDROOT
BRANCH   1   2
ATOM      2  C   UNL A   1      31.409  30.579  26.721  1.00  0.00     0.021 C 
BRANCH   2   3
ATOM      3  C   UNL A   1      31.146  31.516  25.584  1.00  0.00     0.116 C 
BRANCH   3   4
ATOM      4  N   UNL A   1      30.289  30.930  24.578  1.00  0.00    -0.352 N 
ATOM      5  C   UNL A   1      30.313  29.702  23.979  1.00  0.00     0.251 C 
ATOM      6  O   UNL A   1      29.508  29.484  23.073  1.00  0.00    -0.269 OA
ATOM      7  H   UNL A   1      29.560  31.518  24.271  1.00  0.00     0.163 HD
BRANCH   5   8
ATOM      8  C   UNL A   1      31.281  28.635  24.362  1.00  0.00     0.041 A 
ATOM      9  C   UNL A   1      31.903  26.566  25.512  1.00  0.00     0.038 A 
ATOM     10  C   UNL A   1      30.939  27.485  25.081  1.00  0.00     0.039 A 
ATOM     11  C   UNL A   1      33.236  26.752  25.107  1.00  0.00    -0.028 A 
ATOM     12  C   UNL A   1      33.573  27.854  24.304  1.00  0.00     0.006 A 
ATOM     13  C   UNL A   1      34.315  25.757  25.435  1.00  0.00     0.046 C 
ATOM     14  C   UNL A   1      32.609  28.800  23.959  1.00  0.00     0.014 A 
BRANCH   9  15
ATOM     15  N   UNL A   1      31.599  25.605  26.474  1.00  0.00    -0.373 N 
ATOM     16  H   UNL A   1      31.710  25.831  27.425  1.00  0.00     0.161 HD
BRANCH  15  17
ATOM     17  C   UNL A   1      31.118  24.269  26.114  1.00  0.00     0.179 C 
ATOM     18  N   UNL A   1      32.274  22.482  25.137  1.00  0.00    -0.245 N 
ATOM     19  C   UNL A   1      31.578  23.057  24.110  1.00  0.00     0.236 C 
ATOM     20  C   UNL A   1      32.159  23.179  26.316  1.00  0.00     0.256 C 
ATOM     21  O   UNL A   1      31.493  22.680  22.948  1.00  0.00    -0.274 OA
ATOM     22  C   UNL A   1      30.829  24.244  24.625  1.00  0.00     0.136 C 
ATOM     23  O   UNL A   1      32.800  23.036  27.347  1.00  0.00    -0.272 OA
BRANCH  18  24
ATOM     24  C   UNL A   1      32.996  21.280  24.991  1.00  0.00     0.094 A 
ATOM     25  C   UNL A   1      34.391  21.284  24.835  1.00  0.00     0.144 A 
ATOM     26  C   UNL A   1      35.092  20.082  24.714  1.00  0.00     0.069 A 
ATOM     27  C   UNL A   1      34.408  18.864  24.769  1.00  0.00     0.047 A 
ATOM     28  C   UNL A   1      32.323  20.051  25.058  1.00  0.00     0.035 A 
ATOM     29  Cl  UNL A   1      35.334  17.407  24.676  1.00  0.00    -0.084 Cl
ATOM     30  C   UNL A   1      33.014  18.833  24.924  1.00  0.00    -0.030 A 
ATOM     31  C   UNL A   1      32.241  17.543  24.923  1.00  0.00     0.046 C 
BRANCH  25  32
ATOM     32  O   UNL A   1      35.130  22.438  24.815  1.00  0.00    -0.495 OA
ATOM     33  C   UNL A   1      36.333  22.300  24.065  1.00  0.00     0.278 C 
ENDBRANCH  25  32
ENDBRANCH  18  24
ENDBRANCH  15  17
ENDBRANCH   9  15
ENDBRANCH   5   8
ENDBRANCH   3   4
ENDBRANCH   2   3
ENDBRANCH   1   2
BRANCH   1  34
ATOM     34  C   UNL A   1      34.167  30.223  26.922  1.00  0.00     0.002 C 
BRANCH  34  35
ATOM     35  C   UNL A   1      35.342  29.352  27.672  1.00  0.00     0.021 C 
BRANCH  35  36
ATOM     36  C   UNL A   1      36.771  30.036  27.946  1.00  0.00     0.116 C 
BRANCH  36  37
ATOM     37  N   UNL A   1      38.226  29.333  28.020  1.00  0.00    -0.352 N 
ATOM     38  C   UNL A   1      38.946  28.258  28.742  1.00  0.00     0.251 C 
ATOM     39  H   UNL A   1      38.832  29.759  27.371  1.00  0.00     0.163 HD
ATOM     40  O   UNL A   1      39.331  27.355  27.973  1.00  0.00    -0.269 OA
BRANCH  38  41
ATOM     41  C   UNL A   1      39.419  27.993  30.271  1.00  0.00     0.039 A 
ATOM     42  C   UNL A   1      38.499  28.086  31.368  1.00  0.00     0.014 A 
ATOM     43  C   UNL A   1      40.716  27.783  30.726  1.00  0.00     0.014 A 
ATOM     44  C   UNL A   1      38.929  28.583  32.679  1.00  0.00     0.010 A 
ATOM     45  C   UNL A   1      41.149  28.329  31.983  1.00  0.00     0.010 A 
ATOM     46  C   UNL A   1      40.271  28.964  32.873  1.00  0.00    -0.014 A 
BRANCH  46  47
ATOM     47  C   UNL A   1      40.755  30.153  33.725  1.00  0.00     0.031 A 
ATOM     48  C   UNL A   1      41.637  29.921  34.870  1.00  0.00     0.074 A 
ATOM     49  C   UNL A   1      40.628  31.503  33.492  1.00  0.00     0.049 A 
ATOM     50  N   UNL A   1      41.501  30.431  36.051  1.00  0.00    -0.248 NA
ATOM     51  C   UNL A   1      42.833  29.118  34.699  1.00  0.00     0.031 C 
ATOM     52  C   UNL A   1      41.151  32.716  34.158  1.00  0.00     0.029 A 
ATOM     53  N   UNL A   1      39.955  32.130  32.464  1.00  0.00    -0.354 N 
ATOM     54  C   UNL A   1      42.733  30.299  36.663  1.00  0.00     0.074 A 
ATOM     55  C   UNL A   1      43.435  29.311  35.872  1.00  0.00     0.031 C 
ATOM     56  C   UNL A   1      40.437  33.805  33.768  1.00  0.00     0.029 A 
ATOM     57  C   UNL A   1      39.409  33.348  32.857  1.00  0.00     0.049 A 
ATOM     58  H   UNL A   1      39.870  31.758  31.557  1.00  0.00     0.167 HD
ATOM     59  C   UNL A   1      43.162  31.201  37.603  1.00  0.00     0.037 A 
ATOM     60  C   UNL A   1      38.042  33.458  32.951  1.00  0.00     0.037 A 
ATOM     61  C   UNL A   1      42.234  32.346  37.692  1.00  0.00     0.049 A 
ATOM     62  C   UNL A   1      37.651  33.484  34.407  1.00  0.00     0.074 A 
ATOM     63  C   UNL A   1      42.337  33.662  37.258  1.00  0.00     0.029 A 
ATOM     64  N   UNL A   1      40.882  32.147  37.975  1.00  0.00    -0.354 N 
ATOM     65  N   UNL A   1      38.498  33.203  35.357  1.00  0.00    -0.248 NA
ATOM     66  C   UNL A   1      36.344  33.853  34.936  1.00  0.00     0.031 C 
ATOM     67  C   UNL A   1      41.026  34.204  37.162  1.00  0.00     0.029 A 
ATOM     68  C   UNL A   1      40.123  33.235  37.571  1.00  0.00     0.049 A 
ATOM     69  H   UNL A   1      40.517  31.341  38.405  1.00  0.00     0.167 HD
ATOM     70  C   UNL A   1      37.939  33.400  36.574  1.00  0.00     0.074 A 
ATOM     71  C   UNL A   1      36.576  33.800  36.263  1.00  0.00     0.031 C 
ATOM     72  C   UNL A   1      38.667  33.241  37.718  1.00  0.00     0.037 A 
BRANCH  59  73
ATOM     73  C   UNL A   1      44.587  31.212  38.165  1.00  0.00     0.058 A 
ATOM     74  C   UNL A   1      45.713  31.489  37.357  1.00  0.00     0.135 A 
ATOM     75  C   UNL A   1      44.907  30.983  39.522  1.00  0.00     0.135 A 
ATOM     76  F   UNL A   1      45.583  31.865  36.078  1.00  0.00    -0.206 F 
ATOM     77  C   UNL A   1      47.033  31.433  37.831  1.00  0.00     0.059 A 
ATOM     78  C   UNL A   1      46.214  30.839  40.003  1.00  0.00     0.059 A 
ATOM     79  F   UNL A   1      43.963  30.984  40.473  1.00  0.00    -0.206 F 
ATOM     80  C   UNL A   1      47.277  31.080  39.151  1.00  0.00     0.060 A 
BRANCH  80  81
ATOM     81  S   UNL A   1      48.973  31.053  39.768  1.00  0.00     0.124 S 
ATOM     82  O   UNL A   1      49.139  32.406  40.288  1.00  0.00    -0.237 OA
ATOM     83  O   UNL A   1      48.915  29.990  40.766  1.00  0.00    -0.237 OA
ATOM     84  O   UNL A   1      49.766  30.745  38.580  1.00  0.00    -0.744 OA
ENDBRANCH  80  81
ENDBRANCH  59  73
BRANCH  60  85
ATOM     85  C   UNL A   1      37.240  32.781  31.817  1.00  0.00     0.058 A 
ATOM     86  C   UNL A   1      36.058  32.165  32.263  1.00  0.00     0.135 A 
ATOM     87  C   UNL A   1      37.027  33.612  30.734  1.00  0.00     0.135 A 
ATOM     88  F   UNL A   1      36.117  30.990  32.903  1.00  0.00    -0.206 F 
ATOM     89  C   UNL A   1      34.826  32.826  32.204  1.00  0.00     0.059 A 
ATOM     90  C   UNL A   1      35.813  34.304  30.724  1.00  0.00     0.059 A 
ATOM     91  F   UNL A   1      38.071  34.144  30.076  1.00  0.00    -0.206 F 
ATOM     92  C   UNL A   1      34.770  34.057  31.576  1.00  0.00     0.060 A 
BRANCH  92  93
ATOM     93  S   UNL A   1      33.592  35.533  32.154  1.00  0.00     0.124 S 
ATOM     94  O   UNL A   1      32.405  34.779  32.445  1.00  0.00    -0.237 OA
ATOM     95  O   UNL A   1      34.189  36.094  33.346  1.00  0.00    -0.237 OA
ATOM     96  O   UNL A   1      33.376  36.443  31.055  1.00  0.00    -0.744 OA
ENDBRANCH  92  93
ENDBRANCH  60  85
BRANCH  72  97
ATOM     97  C   UNL A   1      38.081  33.210  39.099  1.00  0.00     0.058 A 
ATOM     98  C   UNL A   1      38.213  34.257  40.023  1.00  0.00     0.135 A 
ATOM     99  C   UNL A   1      37.238  32.142  39.490  1.00  0.00     0.135 A 
ATOM    100  F   UNL A   1      38.873  35.385  39.719  1.00  0.00    -0.206 F 
ATOM    101  C   UNL A   1      37.636  34.204  41.289  1.00  0.00     0.059 A 
ATOM    102  C   UNL A   1      36.594  32.103  40.718  1.00  0.00     0.059 A 
ATOM    103  F   UNL A   1      37.001  31.097  38.683  1.00  0.00    -0.206 F 
ATOM    104  C   UNL A   1      36.835  33.118  41.629  1.00  0.00     0.060 A 
BRANCH 104 105
ATOM    105  S   UNL A   1      36.088  33.055  43.262  1.00  0.00     0.124 S 
ATOM    106  O   UNL A   1      34.779  32.486  42.956  1.00  0.00    -0.237 OA
ATOM    107  O   UNL A   1      36.999  32.183  43.997  1.00  0.00    -0.237 OA
ATOM    108  O   UNL A   1      36.087  34.451  43.689  1.00  0.00    -0.744 OA
ENDBRANCH 104 105
ENDBRANCH  72  97
ENDBRANCH  46  47
ENDBRANCH  38  41
ENDBRANCH  36  37
ENDBRANCH  35  36
ENDBRANCH  34  35
ENDBRANCH   1  34
TORSDOF 20
ENDMDL
