MODEL 1
REMARK VINA RESULT:     -11.3      0.000      0.000
REMARK SMILES CC(C)[C@H](NC(=O)CCC1=c2ccccc2=NC1)C(=O)NCCCCCCNC(=O)c1ccc(-c2c3nc(c(-c4c(F)cc(S(=O)(=O)[O-])cc4F)c4ccc([nH]4)c(-c4c(F)cc(S(=O)(=O)[O-])cc4F)c4nc(c(-c5c(F)cc(S(=O)(=O)[O-])cc5F)c5ccc2[nH]5)C=C4)C=C3)cc1
REMARK SMILES IDX 24 1 23 2 22 3 21 4 19 5 20 6 4 8 2 9 1 10 3 11 5 12 6 13
REMARK SMILES IDX 7 15 8 16 9 17 10 18 11 19 18 20 12 21 16 22 17 23 13 24
REMARK SMILES IDX 15 25 14 26 25 27 26 28 27 29 28 30 29 31 30 33 31 34 32 35
REMARK SMILES IDX 96 36 33 37 95 38 34 39 35 40 36 41 89 42 37 43 94 44 88 45
REMARK SMILES IDX 90 46 38 47 93 48 87 49 86 50 39 52 73 53 52 54 72 55 53 56
REMARK SMILES IDX 56 57 71 58 91 59 54 60 55 61 70 63 92 64 57 65 40 66 41 67
REMARK SMILES IDX 50 68 42 69 43 70 49 71 51 72 44 73 45 74 46 75 47 76 48 77
REMARK SMILES IDX 74 78 75 79 84 80 76 81 77 82 83 83 85 84 78 85 79 86 80 87
REMARK SMILES IDX 81 88 82 89 58 90 59 91 68 92 60 93 61 94 67 95 69 96 62 97
REMARK SMILES IDX 63 98 64 99 65 100 66 101
REMARK H PARENT 21 7 5 14 28 32 90 51 56 62
REMARK Flexibility Score: inf
ROOT
ATOM      1  C   UNL A   1      31.042  27.174  24.923  1.00  0.00     0.002 C 
ENDROOT
BRANCH   1   2
ATOM      2  C   UNL A   1      31.868  26.003  24.391  1.00  0.00     0.021 C 
BRANCH   2   3
ATOM      3  C   UNL A   1      31.359  25.479  23.051  1.00  0.00     0.116 C 
BRANCH   3   4
ATOM      4  N   UNL A   1      32.323  24.619  22.335  1.00  0.00    -0.354 N 
ATOM      5  C   UNL A   1      32.977  23.330  22.431  1.00  0.00     0.242 C 
ATOM      6  O   UNL A   1      33.372  23.336  21.209  1.00  0.00    -0.273 OA
ATOM      7  H   UNL A   1      32.623  25.077  21.517  1.00  0.00     0.163 HD
BRANCH   5   8
ATOM      8  C   UNL A   1      33.318  21.838  24.011  1.00  0.00     0.173 C 
BRANCH   8   9
ATOM      9  C   UNL A   1      32.998  20.059  24.141  1.00  0.00     0.015 C 
ATOM     10  C   UNL A   1      32.199  19.356  23.018  1.00  0.00     0.010 C 
ATOM     11  C   UNL A   1      34.086  19.120  24.700  1.00  0.00     0.010 C 
ENDBRANCH   8   9
BRANCH   8  12
ATOM     12  N   UNL A   1      33.032  22.011  25.726  1.00  0.00    -0.344 N 
ATOM     13  C   UNL A   1      33.680  22.226  26.900  1.00  0.00     0.220 C 
ATOM     14  H   UNL A   1      32.068  21.921  25.902  1.00  0.00     0.164 HD
ATOM     15  O   UNL A   1      32.961  22.245  27.909  1.00  0.00    -0.275 OA
BRANCH  13  16
ATOM     16  C   UNL A   1      35.145  22.617  27.054  1.00  0.00     0.104 C 
BRANCH  16  17
ATOM     17  C   UNL A   1      35.683  23.644  26.084  1.00  0.00     0.043 C 
BRANCH  17  18
ATOM     18  C   UNL A   1      37.143  23.520  25.814  1.00  0.00    -0.039 C 
ATOM     19  C   UNL A   1      37.724  22.508  25.158  1.00  0.00     0.001 A 
ATOM     20  C   UNL A   1      38.107  24.308  26.728  1.00  0.00     0.174 C 
ATOM     21  C   UNL A   1      37.212  20.889  24.389  1.00  0.00     0.010 A 
ATOM     22  C   UNL A   1      39.279  22.502  26.273  1.00  0.00     0.065 A 
ATOM     23  N   UNL A   1      39.392  23.563  27.003  1.00  0.00    -0.280 NA
ATOM     24  C   UNL A   1      37.913  19.516  24.820  1.00  0.00     0.001 A 
ATOM     25  C   UNL A   1      40.150  20.812  26.439  1.00  0.00     0.028 A 
ATOM     26  C   UNL A   1      39.512  19.514  25.861  1.00  0.00     0.002 A 
ENDBRANCH  17  18
ENDBRANCH  16  17
ENDBRANCH  13  16
ENDBRANCH   8  12
ENDBRANCH   5   8
ENDBRANCH   3   4
ENDBRANCH   2   3
ENDBRANCH   1   2
BRANCH   1  27
ATOM     27  C   UNL A   1      31.717  28.016  26.016  1.00  0.00     0.002 C 
BRANCH  27  28
ATOM     28  C   UNL A   1      33.071  27.494  26.503  1.00  0.00     0.021 C 
BRANCH  28  29
ATOM     29  C   UNL A   1      34.246  28.376  26.106  1.00  0.00     0.116 C 
BRANCH  29  30
ATOM     30  N   UNL A   1      33.992  29.774  26.428  1.00  0.00    -0.352 N 
ATOM     31  C   UNL A   1      34.586  30.558  27.382  1.00  0.00     0.251 C 
ATOM     32  H   UNL A   1      33.299  30.216  25.886  1.00  0.00     0.163 HD
ATOM     33  O   UNL A   1      34.076  31.616  27.730  1.00  0.00    -0.269 OA
BRANCH  31  34
ATOM     34  C   UNL A   1      35.852  30.093  27.973  1.00  0.00     0.039 A 
ATOM     35  C   UNL A   1      35.831  29.484  29.230  1.00  0.00     0.014 A 
ATOM     36  C   UNL A   1      37.054  30.310  27.300  1.00  0.00     0.014 A 
ATOM     37  C   UNL A   1      37.025  29.237  29.886  1.00  0.00     0.010 A 
ATOM     38  C   UNL A   1      38.253  29.964  27.923  1.00  0.00     0.010 A 
ATOM     39  C   UNL A   1      38.248  29.461  29.234  1.00  0.00    -0.014 A 
BRANCH  39  40
ATOM     40  C   UNL A   1      39.510  29.146  29.944  1.00  0.00     0.031 A 
ATOM     41  C   UNL A   1      40.438  28.084  29.425  1.00  0.00     0.074 A 
ATOM     42  C   UNL A   1      39.832  29.865  31.038  1.00  0.00     0.049 A 
ATOM     43  N   UNL A   1      41.567  27.661  29.931  1.00  0.00    -0.248 NA
ATOM     44  C   UNL A   1      40.049  27.403  28.178  1.00  0.00     0.031 C 
ATOM     45  C   UNL A   1      39.011  30.936  31.613  1.00  0.00     0.029 A 
ATOM     46  N   UNL A   1      40.936  29.825  31.847  1.00  0.00    -0.354 N 
ATOM     47  C   UNL A   1      42.013  26.656  29.081  1.00  0.00     0.074 A 
ATOM     48  C   UNL A   1      41.018  26.509  28.042  1.00  0.00     0.031 C 
ATOM     49  C   UNL A   1      39.666  31.485  32.645  1.00  0.00     0.029 A 
ATOM     50  C   UNL A   1      40.909  30.755  32.858  1.00  0.00     0.049 A 
ATOM     51  H   UNL A   1      41.678  29.192  31.716  1.00  0.00     0.167 HD
ATOM     52  C   UNL A   1      43.158  25.937  29.157  1.00  0.00     0.037 A 
ATOM     53  C   UNL A   1      41.776  30.981  33.863  1.00  0.00     0.037 A 
ATOM     54  C   UNL A   1      44.147  26.111  30.190  1.00  0.00     0.049 A 
ATOM     55  C   UNL A   1      43.003  30.123  33.960  1.00  0.00     0.074 A 
ATOM     56  C   UNL A   1      45.345  25.438  30.354  1.00  0.00     0.029 A 
ATOM     57  N   UNL A   1      44.055  27.022  31.233  1.00  0.00    -0.354 N 
ATOM     58  N   UNL A   1      43.407  29.171  33.153  1.00  0.00    -0.248 NA
ATOM     59  C   UNL A   1      43.886  30.358  35.108  1.00  0.00     0.031 C 
ATOM     60  C   UNL A   1      45.953  25.908  31.523  1.00  0.00     0.029 A 
ATOM     61  C   UNL A   1      45.162  26.913  32.058  1.00  0.00     0.049 A 
ATOM     62  H   UNL A   1      43.310  27.653  31.368  1.00  0.00     0.167 HD
ATOM     63  C   UNL A   1      44.601  28.702  33.686  1.00  0.00     0.074 A 
ATOM     64  C   UNL A   1      44.863  29.491  34.874  1.00  0.00     0.031 C 
ATOM     65  C   UNL A   1      45.405  27.707  33.238  1.00  0.00     0.037 A 
BRANCH  52  66
ATOM     66  C   UNL A   1      43.403  24.887  28.107  1.00  0.00     0.058 A 
ATOM     67  C   UNL A   1      44.162  25.157  26.957  1.00  0.00     0.135 A 
ATOM     68  C   UNL A   1      42.927  23.577  28.281  1.00  0.00     0.135 A 
ATOM     69  F   UNL A   1      44.627  26.396  26.728  1.00  0.00    -0.206 F 
ATOM     70  C   UNL A   1      44.426  24.172  26.010  1.00  0.00     0.059 A 
ATOM     71  C   UNL A   1      43.201  22.568  27.362  1.00  0.00     0.059 A 
ATOM     72  F   UNL A   1      42.194  23.263  29.361  1.00  0.00    -0.206 F 
ATOM     73  C   UNL A   1      43.944  22.879  26.224  1.00  0.00     0.060 A 
BRANCH  73  74
ATOM     74  S   UNL A   1      44.311  21.613  24.990  1.00  0.00     0.124 S 
ATOM     75  O   UNL A   1      45.698  21.288  25.310  1.00  0.00    -0.237 OA
ATOM     76  O   UNL A   1      43.330  20.581  25.305  1.00  0.00    -0.237 OA
ATOM     77  O   UNL A   1      44.108  22.304  23.720  1.00  0.00    -0.744 OA
ENDBRANCH  73  74
ENDBRANCH  52  66
BRANCH  53  78
ATOM     78  C   UNL A   1      41.495  32.055  34.850  1.00  0.00     0.058 A 
ATOM     79  C   UNL A   1      42.075  33.324  34.716  1.00  0.00     0.135 A 
ATOM     80  C   UNL A   1      40.609  31.850  35.920  1.00  0.00     0.135 A 
ATOM     81  F   UNL A   1      42.931  33.568  33.712  1.00  0.00    -0.206 F 
ATOM     82  C   UNL A   1      41.790  34.352  35.609  1.00  0.00     0.059 A 
ATOM     83  C   UNL A   1      40.285  32.870  36.808  1.00  0.00     0.059 A 
ATOM     84  F   UNL A   1      40.014  30.657  36.083  1.00  0.00    -0.206 F 
ATOM     85  C   UNL A   1      40.888  34.117  36.648  1.00  0.00     0.060 A 
BRANCH  85  86
ATOM     86  S   UNL A   1      40.483  35.477  37.764  1.00  0.00     0.124 S 
ATOM     87  O   UNL A   1      39.683  34.797  38.776  1.00  0.00    -0.237 OA
ATOM     88  O   UNL A   1      41.807  35.922  38.190  1.00  0.00    -0.237 OA
ATOM     89  O   UNL A   1      39.759  36.411  36.908  1.00  0.00    -0.744 OA
ENDBRANCH  85  86
ENDBRANCH  53  78
BRANCH  65  90
ATOM     90  C   UNL A   1      46.653  27.421  34.023  1.00  0.00     0.058 A 
ATOM     91  C   UNL A   1      47.852  28.106  33.771  1.00  0.00     0.135 A 
ATOM     92  C   UNL A   1      46.633  26.498  35.082  1.00  0.00     0.135 A 
ATOM     93  F   UNL A   1      47.926  28.990  32.764  1.00  0.00    -0.206 F 
ATOM     94  C   UNL A   1      48.993  27.875  34.531  1.00  0.00     0.059 A 
ATOM     95  C   UNL A   1      47.753  26.274  35.875  1.00  0.00     0.059 A 
ATOM     96  F   UNL A   1      45.509  25.823  35.370  1.00  0.00    -0.206 F 
ATOM     97  C   UNL A   1      48.931  26.962  35.586  1.00  0.00     0.060 A 
BRANCH  97  98
ATOM     98  S   UNL A   1      50.409  26.708  36.590  1.00  0.00     0.124 S 
ATOM     99  O   UNL A   1      50.063  25.496  37.323  1.00  0.00    -0.237 OA
ATOM    100  O   UNL A   1      51.449  26.564  35.578  1.00  0.00    -0.237 OA
ATOM    101  O   UNL A   1      50.488  27.926  37.394  1.00  0.00    -0.744 OA
ENDBRANCH  97  98
ENDBRANCH  65  90
ENDBRANCH  39  40
ENDBRANCH  31  34
ENDBRANCH  29  30
ENDBRANCH  28  29
ENDBRANCH  27  28
ENDBRANCH   1  27
TORSDOF 21
ENDMDL
MODEL 2
REMARK VINA RESULT:     -11.2      3.141      9.511
REMARK SMILES CC(C)[C@H](NC(=O)CCC1=c2ccccc2=NC1)C(=O)NCCCCCCNC(=O)c1ccc(-c2c3nc(c(-c4c(F)cc(S(=O)(=O)[O-])cc4F)c4ccc([nH]4)c(-c4c(F)cc(S(=O)(=O)[O-])cc4F)c4nc(c(-c5c(F)cc(S(=O)(=O)[O-])cc5F)c5ccc2[nH]5)C=C4)C=C3)cc1
REMARK SMILES IDX 24 1 23 2 22 3 21 4 19 5 20 6 4 8 2 9 1 10 3 11 5 12 6 13
REMARK SMILES IDX 7 15 8 16 9 17 10 18 11 19 18 20 12 21 16 22 17 23 13 24
REMARK SMILES IDX 15 25 14 26 25 27 26 28 27 29 28 30 29 31 30 33 31 34 32 35
REMARK SMILES IDX 96 36 33 37 95 38 34 39 35 40 36 41 89 42 37 43 94 44 88 45
REMARK SMILES IDX 90 46 38 47 93 48 87 49 86 50 39 52 73 53 52 54 72 55 53 56
REMARK SMILES IDX 56 57 71 58 91 59 54 60 55 61 70 63 92 64 57 65 40 66 41 67
REMARK SMILES IDX 50 68 42 69 43 70 49 71 51 72 44 73 45 74 46 75 47 76 48 77
REMARK SMILES IDX 74 78 75 79 84 80 76 81 77 82 83 83 85 84 78 85 79 86 80 87
REMARK SMILES IDX 81 88 82 89 58 90 59 91 68 92 60 93 61 94 67 95 69 96 62 97
REMARK SMILES IDX 63 98 64 99 65 100 66 101
REMARK H PARENT 21 7 5 14 28 32 90 51 56 62
REMARK Flexibility Score: inf
ROOT
ATOM      1  C   UNL A   1      40.377  22.642  27.307  1.00  0.00     0.002 C 
ENDROOT
BRANCH   1   2
ATOM      2  C   UNL A   1      39.508  23.283  26.226  1.00  0.00     0.021 C 
BRANCH   2   3
ATOM      3  C   UNL A   1      38.110  22.676  26.153  1.00  0.00     0.116 C 
BRANCH   3   4
ATOM      4  N   UNL A   1      37.528  22.666  24.795  1.00  0.00    -0.354 N 
ATOM      5  C   UNL A   1      36.269  22.475  24.106  1.00  0.00     0.242 C 
ATOM      6  O   UNL A   1      36.692  22.969  22.999  1.00  0.00    -0.273 OA
ATOM      7  H   UNL A   1      38.235  22.851  24.136  1.00  0.00     0.163 HD
BRANCH   5   8
ATOM      8  C   UNL A   1      34.305  21.614  24.600  1.00  0.00     0.173 C 
BRANCH   8   9
ATOM      9  C   UNL A   1      32.801  21.297  23.639  1.00  0.00     0.015 C 
ATOM     10  C   UNL A   1      32.520  22.153  22.381  1.00  0.00     0.010 C 
ATOM     11  C   UNL A   1      32.312  19.850  23.429  1.00  0.00     0.010 C 
ENDBRANCH   8   9
BRANCH   8  12
ATOM     12  N   UNL A   1      33.331  21.915  26.018  1.00  0.00    -0.344 N 
ATOM     13  C   UNL A   1      32.621  22.893  26.638  1.00  0.00     0.220 C 
ATOM     14  H   UNL A   1      33.281  21.092  26.555  1.00  0.00     0.164 HD
ATOM     15  O   UNL A   1      32.094  22.570  27.712  1.00  0.00    -0.275 OA
BRANCH  13  16
ATOM     16  C   UNL A   1      32.276  24.256  26.051  1.00  0.00     0.104 C 
BRANCH  16  17
ATOM     17  C   UNL A   1      33.362  25.308  26.082  1.00  0.00     0.043 C 
BRANCH  17  18
ATOM     18  C   UNL A   1      33.122  26.459  25.167  1.00  0.00    -0.039 C 
ATOM     19  C   UNL A   1      33.496  27.723  25.401  1.00  0.00     0.001 A 
ATOM     20  C   UNL A   1      31.975  26.327  24.140  1.00  0.00     0.174 C 
ATOM     21  C   UNL A   1      34.315  28.687  26.770  1.00  0.00     0.010 A 
ATOM     22  C   UNL A   1      31.926  28.476  24.609  1.00  0.00     0.065 A 
ATOM     23  N   UNL A   1      31.250  27.631  23.901  1.00  0.00    -0.280 NA
ATOM     24  C   UNL A   1      33.610  29.977  27.402  1.00  0.00     0.001 A 
ATOM     25  C   UNL A   1      31.398  30.171  25.311  1.00  0.00     0.028 A 
ATOM     26  C   UNL A   1      32.094  30.778  26.565  1.00  0.00     0.002 A 
ENDBRANCH  17  18
ENDBRANCH  16  17
ENDBRANCH  13  16
ENDBRANCH   8  12
ENDBRANCH   5   8
ENDBRANCH   3   4
ENDBRANCH   2   3
ENDBRANCH   1   2
BRANCH   1  27
ATOM     27  C   UNL A   1      41.845  22.406  26.921  1.00  0.00     0.002 C 
BRANCH  27  28
ATOM     28  C   UNL A   1      42.878  23.065  27.837  1.00  0.00     0.021 C 
BRANCH  28  29
ATOM     29  C   UNL A   1      43.757  24.089  27.133  1.00  0.00     0.116 C 
BRANCH  29  30
ATOM     30  N   UNL A   1      43.046  24.733  26.037  1.00  0.00    -0.352 N 
ATOM     31  C   UNL A   1      42.103  25.727  26.089  1.00  0.00     0.251 C 
ATOM     32  H   UNL A   1      43.273  24.411  25.135  1.00  0.00     0.163 HD
ATOM     33  O   UNL A   1      41.389  25.965  25.123  1.00  0.00    -0.269 OA
BRANCH  31  34
ATOM     34  C   UNL A   1      41.976  26.499  27.336  1.00  0.00     0.039 A 
ATOM     35  C   UNL A   1      41.012  26.120  28.274  1.00  0.00     0.014 A 
ATOM     36  C   UNL A   1      42.780  27.620  27.544  1.00  0.00     0.014 A 
ATOM     37  C   UNL A   1      40.740  26.956  29.344  1.00  0.00     0.010 A 
ATOM     38  C   UNL A   1      42.570  28.404  28.679  1.00  0.00     0.010 A 
ATOM     39  C   UNL A   1      41.525  28.098  29.565  1.00  0.00    -0.014 A 
BRANCH  39  40
ATOM     40  C   UNL A   1      41.239  28.951  30.744  1.00  0.00     0.031 A 
ATOM     41  C   UNL A   1      40.099  29.930  30.723  1.00  0.00     0.074 A 
ATOM     42  C   UNL A   1      41.992  28.796  31.850  1.00  0.00     0.049 A 
ATOM     43  N   UNL A   1      39.722  30.771  31.651  1.00  0.00    -0.248 NA
ATOM     44  C   UNL A   1      39.276  29.978  29.503  1.00  0.00     0.031 C 
ATOM     45  C   UNL A   1      43.109  27.855  31.983  1.00  0.00     0.029 A 
ATOM     46  N   UNL A   1      41.922  29.401  33.076  1.00  0.00    -0.354 N 
ATOM     47  C   UNL A   1      38.636  31.458  31.124  1.00  0.00     0.074 A 
ATOM     48  C   UNL A   1      38.431  30.960  29.782  1.00  0.00     0.031 C 
ATOM     49  C   UNL A   1      43.582  27.908  33.236  1.00  0.00     0.029 A 
ATOM     50  C   UNL A   1      42.861  28.941  33.969  1.00  0.00     0.049 A 
ATOM     51  H   UNL A   1      41.263  30.098  33.298  1.00  0.00     0.167 HD
ATOM     52  C   UNL A   1      37.873  32.407  31.717  1.00  0.00     0.037 A 
ATOM     53  C   UNL A   1      43.132  29.326  35.230  1.00  0.00     0.037 A 
ATOM     54  C   UNL A   1      38.081  32.878  33.063  1.00  0.00     0.049 A 
ATOM     55  C   UNL A   1      42.312  30.426  35.838  1.00  0.00     0.074 A 
ATOM     56  C   UNL A   1      37.359  33.830  33.761  1.00  0.00     0.029 A 
ATOM     57  N   UNL A   1      39.081  32.431  33.914  1.00  0.00    -0.354 N 
ATOM     58  N   UNL A   1      41.293  31.072  35.324  1.00  0.00    -0.248 NA
ATOM     59  C   UNL A   1      42.683  30.859  37.190  1.00  0.00     0.031 C 
ATOM     60  C   UNL A   1      37.954  33.995  35.015  1.00  0.00     0.029 A 
ATOM     61  C   UNL A   1      39.011  33.105  35.123  1.00  0.00     0.049 A 
ATOM     62  H   UNL A   1      39.745  31.738  33.692  1.00  0.00     0.167 HD
ATOM     63  C   UNL A   1      40.889  31.980  36.295  1.00  0.00     0.074 A 
ATOM     64  C   UNL A   1      41.763  31.783  37.435  1.00  0.00     0.031 C 
ATOM     65  C   UNL A   1      39.892  32.896  36.246  1.00  0.00     0.037 A 
BRANCH  52  66
ATOM     66  C   UNL A   1      36.750  33.012  30.918  1.00  0.00     0.058 A 
ATOM     67  C   UNL A   1      35.408  32.675  31.158  1.00  0.00     0.135 A 
ATOM     68  C   UNL A   1      37.013  33.986  29.940  1.00  0.00     0.135 A 
ATOM     69  F   UNL A   1      35.098  31.737  32.068  1.00  0.00    -0.206 F 
ATOM     70  C   UNL A   1      34.369  33.270  30.448  1.00  0.00     0.059 A 
ATOM     71  C   UNL A   1      35.989  34.615  29.237  1.00  0.00     0.059 A 
ATOM     72  F   UNL A   1      38.277  34.344  29.667  1.00  0.00    -0.206 F 
ATOM     73  C   UNL A   1      34.669  34.242  29.492  1.00  0.00     0.060 A 
BRANCH  73  74
ATOM     74  S   UNL A   1      33.305  35.011  28.595  1.00  0.00     0.124 S 
ATOM     75  O   UNL A   1      32.459  35.473  29.691  1.00  0.00    -0.237 OA
ATOM     76  O   UNL A   1      33.984  36.056  27.837  1.00  0.00    -0.237 OA
ATOM     77  O   UNL A   1      32.758  33.916  27.800  1.00  0.00    -0.744 OA
ENDBRANCH  73  74
ENDBRANCH  52  66
BRANCH  53  78
ATOM     78  C   UNL A   1      44.232  28.667  35.981  1.00  0.00     0.058 A 
ATOM     79  C   UNL A   1      43.978  27.565  36.809  1.00  0.00     0.135 A 
ATOM     80  C   UNL A   1      45.563  29.095  35.851  1.00  0.00     0.135 A 
ATOM     81  F   UNL A   1      42.722  27.120  36.969  1.00  0.00    -0.206 F 
ATOM     82  C   UNL A   1      45.003  26.913  37.487  1.00  0.00     0.059 A 
ATOM     83  C   UNL A   1      46.608  28.441  36.494  1.00  0.00     0.059 A 
ATOM     84  F   UNL A   1      45.861  30.136  35.057  1.00  0.00    -0.206 F 
ATOM     85  C   UNL A   1      46.316  27.354  37.316  1.00  0.00     0.060 A 
BRANCH  85  86
ATOM     86  S   UNL A   1      47.642  26.462  38.156  1.00  0.00     0.124 S 
ATOM     87  O   UNL A   1      48.003  25.465  37.156  1.00  0.00    -0.237 OA
ATOM     88  O   UNL A   1      48.621  27.521  38.385  1.00  0.00    -0.237 OA
ATOM     89  O   UNL A   1      46.993  25.946  39.357  1.00  0.00    -0.744 OA
ENDBRANCH  85  86
ENDBRANCH  53  78
BRANCH  65  90
ATOM     90  C   UNL A   1      39.676  33.748  37.465  1.00  0.00     0.058 A 
ATOM     91  C   UNL A   1      38.860  33.321  38.524  1.00  0.00     0.135 A 
ATOM     92  C   UNL A   1      40.347  34.975  37.604  1.00  0.00     0.135 A 
ATOM     93  F   UNL A   1      38.190  32.161  38.436  1.00  0.00    -0.206 F 
ATOM     94  C   UNL A   1      38.702  34.089  39.672  1.00  0.00     0.059 A 
ATOM     95  C   UNL A   1      40.227  35.744  38.756  1.00  0.00     0.059 A 
ATOM     96  F   UNL A   1      41.147  35.423  36.624  1.00  0.00    -0.206 F 
ATOM     97  C   UNL A   1      39.396  35.296  39.782  1.00  0.00     0.060 A 
BRANCH  97  98
ATOM     98  S   UNL A   1      39.213  36.257  41.298  1.00  0.00     0.124 S 
ATOM     99  O   UNL A   1      40.479  35.990  41.971  1.00  0.00    -0.237 OA
ATOM    100  O   UNL A   1      39.039  37.612  40.786  1.00  0.00    -0.237 OA
ATOM    101  O   UNL A   1      38.032  35.675  41.930  1.00  0.00    -0.744 OA
ENDBRANCH  97  98
ENDBRANCH  65  90
ENDBRANCH  39  40
ENDBRANCH  31  34
ENDBRANCH  29  30
ENDBRANCH  28  29
ENDBRANCH  27  28
ENDBRANCH   1  27
TORSDOF 21
ENDMDL
MODEL 3
REMARK VINA RESULT:     -11.0      2.994      8.872
REMARK SMILES CC(C)[C@H](NC(=O)CCC1=c2ccccc2=NC1)C(=O)NCCCCCCNC(=O)c1ccc(-c2c3nc(c(-c4c(F)cc(S(=O)(=O)[O-])cc4F)c4ccc([nH]4)c(-c4c(F)cc(S(=O)(=O)[O-])cc4F)c4nc(c(-c5c(F)cc(S(=O)(=O)[O-])cc5F)c5ccc2[nH]5)C=C4)C=C3)cc1
REMARK SMILES IDX 24 1 23 2 22 3 21 4 19 5 20 6 4 8 2 9 1 10 3 11 5 12 6 13
REMARK SMILES IDX 7 15 8 16 9 17 10 18 11 19 18 20 12 21 16 22 17 23 13 24
REMARK SMILES IDX 15 25 14 26 25 27 26 28 27 29 28 30 29 31 30 33 31 34 32 35
REMARK SMILES IDX 96 36 33 37 95 38 34 39 35 40 36 41 89 42 37 43 94 44 88 45
REMARK SMILES IDX 90 46 38 47 93 48 87 49 86 50 39 52 73 53 52 54 72 55 53 56
REMARK SMILES IDX 56 57 71 58 91 59 54 60 55 61 70 63 92 64 57 65 40 66 41 67
REMARK SMILES IDX 50 68 42 69 43 70 49 71 51 72 44 73 45 74 46 75 47 76 48 77
REMARK SMILES IDX 74 78 75 79 84 80 76 81 77 82 83 83 85 84 78 85 79 86 80 87
REMARK SMILES IDX 81 88 82 89 58 90 59 91 68 92 60 93 61 94 67 95 69 96 62 97
REMARK SMILES IDX 63 98 64 99 65 100 66 101
REMARK H PARENT 21 7 5 14 28 32 90 51 56 62
REMARK Flexibility Score: inf
ROOT
ATOM      1  C   UNL A   1      40.591  21.474  26.998  1.00  0.00     0.002 C 
ENDROOT
BRANCH   1   2
ATOM      2  C   UNL A   1      39.862  22.253  25.904  1.00  0.00     0.021 C 
BRANCH   2   3
ATOM      3  C   UNL A   1      38.356  22.333  26.137  1.00  0.00     0.116 C 
BRANCH   3   4
ATOM      4  N   UNL A   1      37.552  22.300  24.898  1.00  0.00    -0.354 N 
ATOM      5  C   UNL A   1      36.187  22.141  24.440  1.00  0.00     0.242 C 
ATOM      6  O   UNL A   1      36.435  22.574  23.258  1.00  0.00    -0.273 OA
ATOM      7  H   UNL A   1      38.143  22.428  24.123  1.00  0.00     0.163 HD
BRANCH   5   8
ATOM      8  C   UNL A   1      34.304  21.390  25.296  1.00  0.00     0.173 C 
BRANCH   8   9
ATOM      9  C   UNL A   1      32.884  20.500  24.605  1.00  0.00     0.015 C 
ATOM     10  C   UNL A   1      32.526  20.701  23.113  1.00  0.00     0.010 C 
ATOM     11  C   UNL A   1      32.600  19.048  25.038  1.00  0.00     0.010 C 
ENDBRANCH   8   9
BRANCH   8  12
ATOM     12  N   UNL A   1      33.244  22.198  26.425  1.00  0.00    -0.344 N 
ATOM     13  C   UNL A   1      32.029  22.799  26.506  1.00  0.00     0.220 C 
ATOM     14  H   UNL A   1      33.678  22.229  27.308  1.00  0.00     0.164 HD
ATOM     15  O   UNL A   1      31.736  23.260  27.618  1.00  0.00    -0.275 OA
BRANCH  13  16
ATOM     16  C   UNL A   1      30.954  22.792  25.426  1.00  0.00     0.104 C 
BRANCH  16  17
ATOM     17  C   UNL A   1      31.018  23.893  24.391  1.00  0.00     0.043 C 
BRANCH  17  18
ATOM     18  C   UNL A   1      32.340  24.576  24.310  1.00  0.00    -0.039 C 
ATOM     19  C   UNL A   1      32.688  25.670  24.998  1.00  0.00     0.001 A 
ATOM     20  C   UNL A   1      33.187  24.341  23.040  1.00  0.00     0.174 C 
ATOM     21  C   UNL A   1      31.891  26.857  26.194  1.00  0.00     0.010 A 
ATOM     22  C   UNL A   1      33.703  26.416  23.559  1.00  0.00     0.065 A 
ATOM     23  N   UNL A   1      33.960  25.568  22.616  1.00  0.00    -0.280 NA
ATOM     24  C   UNL A   1      31.875  28.431  25.901  1.00  0.00     0.001 A 
ATOM     25  C   UNL A   1      33.804  28.322  23.541  1.00  0.00     0.028 A 
ATOM     26  C   UNL A   1      32.953  29.185  24.519  1.00  0.00     0.002 A 
ENDBRANCH  17  18
ENDBRANCH  16  17
ENDBRANCH  13  16
ENDBRANCH   8  12
ENDBRANCH   5   8
ENDBRANCH   3   4
ENDBRANCH   2   3
ENDBRANCH   1   2
BRANCH   1  27
ATOM     27  C   UNL A   1      42.120  21.618  27.004  1.00  0.00     0.002 C 
BRANCH  27  28
ATOM     28  C   UNL A   1      42.703  22.365  28.205  1.00  0.00     0.021 C 
BRANCH  28  29
ATOM     29  C   UNL A   1      43.461  23.630  27.831  1.00  0.00     0.116 C 
BRANCH  29  30
ATOM     30  N   UNL A   1      43.057  24.123  26.521  1.00  0.00    -0.352 N 
ATOM     31  C   UNL A   1      42.173  25.124  26.214  1.00  0.00     0.251 C 
ATOM     32  H   UNL A   1      43.477  23.675  25.751  1.00  0.00     0.163 HD
ATOM     33  O   UNL A   1      41.718  25.232  25.082  1.00  0.00    -0.269 OA
BRANCH  31  34
ATOM     34  C   UNL A   1      41.789  26.063  27.281  1.00  0.00     0.039 A 
ATOM     35  C   UNL A   1      42.491  27.263  27.414  1.00  0.00     0.014 A 
ATOM     36  C   UNL A   1      40.770  25.724  28.171  1.00  0.00     0.014 A 
ATOM     37  C   UNL A   1      42.284  28.051  28.533  1.00  0.00     0.010 A 
ATOM     38  C   UNL A   1      40.495  26.574  29.242  1.00  0.00     0.010 A 
ATOM     39  C   UNL A   1      41.274  27.723  29.451  1.00  0.00    -0.014 A 
BRANCH  39  40
ATOM     40  C   UNL A   1      41.046  28.608  30.617  1.00  0.00     0.031 A 
ATOM     41  C   UNL A   1      41.933  28.527  31.827  1.00  0.00     0.074 A 
ATOM     42  C   UNL A   1      40.055  29.520  30.550  1.00  0.00     0.049 A 
ATOM     43  N   UNL A   1      41.862  29.205  32.944  1.00  0.00    -0.248 NA
ATOM     44  C   UNL A   1      43.042  27.559  31.784  1.00  0.00     0.031 C 
ATOM     45  C   UNL A   1      39.150  29.698  29.410  1.00  0.00     0.029 A 
ATOM     46  N   UNL A   1      39.658  30.481  31.441  1.00  0.00    -0.354 N 
ATOM     47  C   UNL A   1      42.899  28.735  33.741  1.00  0.00     0.074 A 
ATOM     48  C   UNL A   1      43.566  27.691  32.995  1.00  0.00     0.031 C 
ATOM     49  C   UNL A   1      38.342  30.740  29.649  1.00  0.00     0.029 A 
ATOM     50  C   UNL A   1      38.612  31.250  30.987  1.00  0.00     0.049 A 
ATOM     51  H   UNL A   1      40.079  30.610  32.321  1.00  0.00     0.167 HD
ATOM     52  C   UNL A   1      43.264  29.151  34.977  1.00  0.00     0.037 A 
ATOM     53  C   UNL A   1      37.927  32.240  31.590  1.00  0.00     0.037 A 
ATOM     54  C   UNL A   1      42.598  30.205  35.698  1.00  0.00     0.049 A 
ATOM     55  C   UNL A   1      38.313  32.635  32.985  1.00  0.00     0.074 A 
ATOM     56  C   UNL A   1      42.895  30.708  36.952  1.00  0.00     0.029 A 
ATOM     57  N   UNL A   1      41.504  30.919  35.230  1.00  0.00    -0.354 N 
ATOM     58  N   UNL A   1      39.291  32.175  33.729  1.00  0.00    -0.248 NA
ATOM     59  C   UNL A   1      37.499  33.671  33.629  1.00  0.00     0.031 C 
ATOM     60  C   UNL A   1      41.950  31.691  37.262  1.00  0.00     0.029 A 
ATOM     61  C   UNL A   1      41.098  31.842  36.179  1.00  0.00     0.049 A 
ATOM     62  H   UNL A   1      41.077  30.788  34.351  1.00  0.00     0.167 HD
ATOM     63  C   UNL A   1      39.220  32.877  34.926  1.00  0.00     0.074 A 
ATOM     64  C   UNL A   1      38.116  33.806  34.796  1.00  0.00     0.031 C 
ATOM     65  C   UNL A   1      39.994  32.759  36.033  1.00  0.00     0.037 A 
BRANCH  52  66
ATOM     66  C   UNL A   1      44.428  28.463  35.638  1.00  0.00     0.058 A 
ATOM     67  C   UNL A   1      44.260  27.296  36.401  1.00  0.00     0.135 A 
ATOM     68  C   UNL A   1      45.738  28.939  35.455  1.00  0.00     0.135 A 
ATOM     69  F   UNL A   1      43.030  26.805  36.624  1.00  0.00    -0.206 F 
ATOM     70  C   UNL A   1      45.344  26.637  36.973  1.00  0.00     0.059 A 
ATOM     71  C   UNL A   1      46.839  28.281  35.994  1.00  0.00     0.059 A 
ATOM     72  F   UNL A   1      45.957  30.052  34.737  1.00  0.00    -0.206 F 
ATOM     73  C   UNL A   1      46.631  27.135  36.760  1.00  0.00     0.060 A 
BRANCH  73  74
ATOM     74  S   UNL A   1      48.023  26.255  37.498  1.00  0.00     0.124 S 
ATOM     75  O   UNL A   1      49.117  26.649  36.616  1.00  0.00    -0.237 OA
ATOM     76  O   UNL A   1      48.063  26.814  38.845  1.00  0.00    -0.237 OA
ATOM     77  O   UNL A   1      47.626  24.853  37.414  1.00  0.00    -0.744 OA
ENDBRANCH  73  74
ENDBRANCH  52  66
BRANCH  53  78
ATOM     78  C   UNL A   1      36.809  32.905  30.872  1.00  0.00     0.058 A 
ATOM     79  C   UNL A   1      35.476  32.584  31.163  1.00  0.00     0.135 A 
ATOM     80  C   UNL A   1      37.048  33.905  29.915  1.00  0.00     0.135 A 
ATOM     81  F   UNL A   1      35.196  31.633  32.067  1.00  0.00    -0.206 F 
ATOM     82  C   UNL A   1      34.418  33.227  30.529  1.00  0.00     0.059 A 
ATOM     83  C   UNL A   1      36.008  34.582  29.290  1.00  0.00     0.059 A 
ATOM     84  F   UNL A   1      38.307  34.260  29.613  1.00  0.00    -0.206 F 
ATOM     85  C   UNL A   1      34.695  34.231  29.599  1.00  0.00     0.060 A 
BRANCH  85  86
ATOM     86  S   UNL A   1      33.312  35.097  28.827  1.00  0.00     0.124 S 
ATOM     87  O   UNL A   1      34.001  36.142  28.080  1.00  0.00    -0.237 OA
ATOM     88  O   UNL A   1      32.700  34.039  28.029  1.00  0.00    -0.237 OA
ATOM     89  O   UNL A   1      32.521  35.552  29.966  1.00  0.00    -0.744 OA
ENDBRANCH  85  86
ENDBRANCH  53  78
BRANCH  65  90
ATOM     90  C   UNL A   1      39.687  33.668  37.189  1.00  0.00     0.058 A 
ATOM     91  C   UNL A   1      38.837  33.269  38.232  1.00  0.00     0.135 A 
ATOM     92  C   UNL A   1      40.303  34.927  37.288  1.00  0.00     0.135 A 
ATOM     93  F   UNL A   1      38.217  32.079  38.180  1.00  0.00    -0.206 F 
ATOM     94  C   UNL A   1      38.594  34.092  39.325  1.00  0.00     0.059 A 
ATOM     95  C   UNL A   1      40.098  35.754  38.387  1.00  0.00     0.059 A 
ATOM     96  F   UNL A   1      41.132  35.353  36.322  1.00  0.00    -0.206 F 
ATOM     97  C   UNL A   1      39.235  35.330  39.397  1.00  0.00     0.060 A 
BRANCH  97  98
ATOM     98  S   UNL A   1      38.943  36.366  40.845  1.00  0.00     0.124 S 
ATOM     99  O   UNL A   1      40.247  36.337  41.498  1.00  0.00    -0.237 OA
ATOM    100  O   UNL A   1      38.563  37.639  40.243  1.00  0.00    -0.237 OA
ATOM    101  O   UNL A   1      37.872  35.668  41.552  1.00  0.00    -0.744 OA
ENDBRANCH  97  98
ENDBRANCH  65  90
ENDBRANCH  39  40
ENDBRANCH  31  34
ENDBRANCH  29  30
ENDBRANCH  28  29
ENDBRANCH  27  28
ENDBRANCH   1  27
TORSDOF 21
ENDMDL
