MODEL 1
REMARK VINA RESULT:     -10.9      0.000      0.000
REMARK SMILES CC(C)[C@H](NS(=O)(=O)c1cccc(F)c1)C(=O)NCCCCCCNC(=O)c1ccc(-c2c3nc(c(-c4c(F)cc(S(=O)(=O)[O-])cc4F)c4ccc([nH]4)c(-c4c(F)cc(S(=O)(=O)[O-])cc4F)c4nc(c(-c5c(F)cc(S(=O)(=O)[O-])cc5F)c5ccc2[nH]5)C=C4)C=C3)cc1
REMARK SMILES IDX 21 1 20 2 19 3 18 4 16 5 17 6 4 8 2 9 1 10 3 11 5 12 6 14
REMARK SMILES IDX 7 15 8 16 9 17 10 18 15 19 11 20 13 21 12 22 14 23 22 24
REMARK SMILES IDX 23 25 24 26 25 27 26 28 27 30 28 31 29 32 93 33 30 34 92 35
REMARK SMILES IDX 31 36 32 37 33 38 86 39 34 40 91 41 85 42 87 43 35 44 90 45
REMARK SMILES IDX 84 46 83 47 36 49 70 50 49 51 69 52 50 53 53 54 68 55 88 56
REMARK SMILES IDX 51 57 52 58 67 60 89 61 54 62 37 63 38 64 47 65 39 66 40 67
REMARK SMILES IDX 46 68 48 69 41 70 42 71 43 72 44 73 45 74 71 75 72 76 81 77
REMARK SMILES IDX 73 78 74 79 80 80 82 81 75 82 76 83 77 84 78 85 79 86 55 87
REMARK SMILES IDX 56 88 65 89 57 90 58 91 64 92 66 93 59 94 60 95 61 96 62 97
REMARK SMILES IDX 63 98
REMARK H PARENT 18 7 5 13 25 29 87 48 53 59
REMARK Flexibility Score: inf
ROOT
ATOM      1  C   UNL A   1      31.620  25.727  24.646  1.00  0.00     0.002 C 
ENDROOT
BRANCH   1   2
ATOM      2  C   UNL A   1      31.132  24.281  24.783  1.00  0.00     0.021 C 
BRANCH   2   3
ATOM      3  C   UNL A   1      30.970  23.555  23.452  1.00  0.00     0.116 C 
BRANCH   3   4
ATOM      4  N   UNL A   1      32.176  23.621  22.651  1.00  0.00    -0.355 N 
ATOM      5  C   UNL A   1      33.442  23.220  22.959  1.00  0.00     0.238 C 
ATOM      6  O   UNL A   1      34.311  23.342  22.089  1.00  0.00    -0.273 OA
ATOM      7  H   UNL A   1      32.065  24.012  21.754  1.00  0.00     0.163 HD
BRANCH   5   8
ATOM      8  C   UNL A   1      33.799  22.638  24.345  1.00  0.00     0.161 C 
BRANCH   8   9
ATOM      9  C   UNL A   1      34.997  23.313  25.058  1.00  0.00     0.010 C 
ATOM     10  C   UNL A   1      34.905  23.370  26.591  1.00  0.00     0.009 C 
ATOM     11  C   UNL A   1      36.293  22.546  24.735  1.00  0.00     0.009 C 
ENDBRANCH   8   9
BRANCH   8  12
ATOM     12  N   UNL A   1      33.781  21.159  24.231  1.00  0.00    -0.198 NA
ATOM     13  H   UNL A   1      34.296  20.841  25.052  1.00  0.00     0.142 HD
BRANCH  12  14
ATOM     14  S   UNL A   1      32.501  20.110  24.122  1.00  0.00     0.241 S 
ATOM     15  O   UNL A   1      31.608  20.481  25.198  1.00  0.00    -0.207 OA
ATOM     16  O   UNL A   1      32.045  20.070  22.752  1.00  0.00    -0.207 OA
BRANCH  14  17
ATOM     17  C   UNL A   1      33.185  18.538  24.540  1.00  0.00     0.085 A 
ATOM     18  C   UNL A   1      34.526  18.260  24.245  1.00  0.00     0.022 A 
ATOM     19  C   UNL A   1      32.380  17.598  25.186  1.00  0.00     0.061 A 
ATOM     20  C   UNL A   1      35.078  17.041  24.641  1.00  0.00     0.004 A 
ATOM     21  C   UNL A   1      32.949  16.392  25.573  1.00  0.00     0.124 A 
ATOM     22  C   UNL A   1      34.289  16.109  25.314  1.00  0.00     0.039 A 
ATOM     23  F   UNL A   1      32.201  15.493  26.225  1.00  0.00    -0.207 F 
ENDBRANCH  14  17
ENDBRANCH  12  14
ENDBRANCH   8  12
ENDBRANCH   5   8
ENDBRANCH   3   4
ENDBRANCH   2   3
ENDBRANCH   1   2
BRANCH   1  24
ATOM     24  C   UNL A   1      32.606  26.191  25.725  1.00  0.00     0.002 C 
BRANCH  24  25
ATOM     25  C   UNL A   1      32.562  27.686  26.061  1.00  0.00     0.021 C 
BRANCH  25  26
ATOM     26  C   UNL A   1      33.694  28.185  26.957  1.00  0.00     0.116 C 
BRANCH  26  27
ATOM     27  N   UNL A   1      33.528  29.579  27.328  1.00  0.00    -0.352 N 
ATOM     28  C   UNL A   1      34.393  30.424  27.975  1.00  0.00     0.251 C 
ATOM     29  H   UNL A   1      32.664  29.978  27.076  1.00  0.00     0.163 HD
ATOM     30  O   UNL A   1      33.995  31.526  28.345  1.00  0.00    -0.269 OA
BRANCH  28  31
ATOM     31  C   UNL A   1      35.787  30.011  28.248  1.00  0.00     0.039 A 
ATOM     32  C   UNL A   1      36.719  30.085  27.209  1.00  0.00     0.014 A 
ATOM     33  C   UNL A   1      36.174  29.522  29.500  1.00  0.00     0.014 A 
ATOM     34  C   UNL A   1      38.045  29.716  27.438  1.00  0.00     0.010 A 
ATOM     35  C   UNL A   1      37.511  29.207  29.744  1.00  0.00     0.010 A 
ATOM     36  C   UNL A   1      38.459  29.299  28.715  1.00  0.00    -0.014 A 
BRANCH  36  37
ATOM     37  C   UNL A   1      39.885  28.982  28.977  1.00  0.00     0.031 A 
ATOM     38  C   UNL A   1      40.792  29.993  29.620  1.00  0.00     0.074 A 
ATOM     39  C   UNL A   1      40.367  27.779  28.608  1.00  0.00     0.049 A 
ATOM     40  N   UNL A   1      42.058  29.882  29.933  1.00  0.00    -0.248 NA
ATOM     41  C   UNL A   1      40.210  31.307  29.936  1.00  0.00     0.031 C 
ATOM     42  C   UNL A   1      39.599  26.734  27.929  1.00  0.00     0.029 A 
ATOM     43  N   UNL A   1      41.616  27.229  28.756  1.00  0.00    -0.354 N 
ATOM     44  C   UNL A   1      42.424  31.106  30.480  1.00  0.00     0.074 A 
ATOM     45  C   UNL A   1      41.260  31.962  30.413  1.00  0.00     0.031 C 
ATOM     46  C   UNL A   1      40.381  25.658  27.750  1.00  0.00     0.029 A 
ATOM     47  C   UNL A   1      41.712  25.944  28.277  1.00  0.00     0.049 A 
ATOM     48  H   UNL A   1      42.371  27.708  29.167  1.00  0.00     0.167 HD
ATOM     49  C   UNL A   1      43.614  31.473  31.011  1.00  0.00     0.037 A 
ATOM     50  C   UNL A   1      42.752  25.088  28.268  1.00  0.00     0.037 A 
ATOM     51  C   UNL A   1      44.764  30.608  31.097  1.00  0.00     0.049 A 
ATOM     52  C   UNL A   1      44.058  25.513  28.877  1.00  0.00     0.074 A 
ATOM     53  C   UNL A   1      45.997  30.870  31.670  1.00  0.00     0.029 A 
ATOM     54  N   UNL A   1      44.824  29.315  30.598  1.00  0.00    -0.354 N 
ATOM     55  N   UNL A   1      44.370  26.657  29.439  1.00  0.00    -0.248 NA
ATOM     56  C   UNL A   1      45.151  24.532  28.857  1.00  0.00     0.031 C 
ATOM     57  C   UNL A   1      46.813  29.749  31.489  1.00  0.00     0.029 A 
ATOM     58  C   UNL A   1      46.077  28.774  30.836  1.00  0.00     0.049 A 
ATOM     59  H   UNL A   1      44.084  28.851  30.144  1.00  0.00     0.167 HD
ATOM     60  C   UNL A   1      45.693  26.532  29.844  1.00  0.00     0.074 A 
ATOM     61  C   UNL A   1      46.115  25.193  29.485  1.00  0.00     0.031 C 
ATOM     62  C   UNL A   1      46.488  27.445  30.455  1.00  0.00     0.037 A 
BRANCH  49  63
ATOM     63  C   UNL A   1      43.735  32.866  31.561  1.00  0.00     0.058 A 
ATOM     64  C   UNL A   1      43.424  33.138  32.902  1.00  0.00     0.135 A 
ATOM     65  C   UNL A   1      44.105  33.946  30.743  1.00  0.00     0.135 A 
ATOM     66  F   UNL A   1      43.072  32.143  33.730  1.00  0.00    -0.206 F 
ATOM     67  C   UNL A   1      43.462  34.434  33.410  1.00  0.00     0.059 A 
ATOM     68  C   UNL A   1      44.171  35.247  31.234  1.00  0.00     0.059 A 
ATOM     69  F   UNL A   1      44.433  33.738  29.458  1.00  0.00    -0.206 F 
ATOM     70  C   UNL A   1      43.834  35.482  32.567  1.00  0.00     0.060 A 
BRANCH  70  71
ATOM     71  S   UNL A   1      43.908  37.153  33.247  1.00  0.00     0.124 S 
ATOM     72  O   UNL A   1      42.674  37.218  34.021  1.00  0.00    -0.237 OA
ATOM     73  O   UNL A   1      45.145  37.117  34.020  1.00  0.00    -0.237 OA
ATOM     74  O   UNL A   1      43.951  37.999  32.057  1.00  0.00    -0.744 OA
ENDBRANCH  70  71
ENDBRANCH  49  63
BRANCH  50  75
ATOM     75  C   UNL A   1      42.578  23.728  27.696  1.00  0.00     0.058 A 
ATOM     76  C   UNL A   1      42.391  22.609  28.521  1.00  0.00     0.135 A 
ATOM     77  C   UNL A   1      42.640  23.520  26.310  1.00  0.00     0.135 A 
ATOM     78  F   UNL A   1      42.335  22.757  29.853  1.00  0.00    -0.206 F 
ATOM     79  C   UNL A   1      42.299  21.326  27.994  1.00  0.00     0.059 A 
ATOM     80  C   UNL A   1      42.530  22.247  25.758  1.00  0.00     0.059 A 
ATOM     81  F   UNL A   1      42.805  24.563  25.483  1.00  0.00    -0.206 F 
ATOM     82  C   UNL A   1      42.378  21.154  26.610  1.00  0.00     0.060 A 
BRANCH  82  83
ATOM     83  S   UNL A   1      42.283  19.478  25.946  1.00  0.00     0.124 S 
ATOM     84  O   UNL A   1      43.183  19.568  24.801  1.00  0.00    -0.237 OA
ATOM     85  O   UNL A   1      42.759  18.675  27.067  1.00  0.00    -0.237 OA
ATOM     86  O   UNL A   1      40.868  19.324  25.624  1.00  0.00    -0.744 OA
ENDBRANCH  82  83
ENDBRANCH  50  75
BRANCH  62  87
ATOM     87  C   UNL A   1      47.898  27.030  30.766  1.00  0.00     0.058 A 
ATOM     88  C   UNL A   1      48.208  26.399  31.981  1.00  0.00     0.135 A 
ATOM     89  C   UNL A   1      48.948  27.289  29.872  1.00  0.00     0.135 A 
ATOM     90  F   UNL A   1      47.241  26.131  32.872  1.00  0.00    -0.206 F 
ATOM     91  C   UNL A   1      49.514  26.044  32.301  1.00  0.00     0.059 A 
ATOM     92  C   UNL A   1      50.259  26.923  30.162  1.00  0.00     0.059 A 
ATOM     93  F   UNL A   1      48.700  27.879  28.691  1.00  0.00    -0.206 F 
ATOM     94  C   UNL A   1      50.533  26.311  31.385  1.00  0.00     0.060 A 
BRANCH  94  95
ATOM     95  S   UNL A   1      52.217  25.802  31.792  1.00  0.00     0.124 S 
ATOM     96  O   UNL A   1      52.551  26.717  32.878  1.00  0.00    -0.237 OA
ATOM     97  O   UNL A   1      52.038  24.404  32.172  1.00  0.00    -0.237 OA
ATOM     98  O   UNL A   1      52.944  26.014  30.543  1.00  0.00    -0.744 OA
ENDBRANCH  94  95
ENDBRANCH  62  87
ENDBRANCH  36  37
ENDBRANCH  28  31
ENDBRANCH  26  27
ENDBRANCH  25  26
ENDBRANCH  24  25
ENDBRANCH   1  24
TORSDOF 20
ENDMDL
MODEL 2
REMARK VINA RESULT:     -10.7      1.117      8.234
REMARK SMILES CC(C)[C@H](NS(=O)(=O)c1cccc(F)c1)C(=O)NCCCCCCNC(=O)c1ccc(-c2c3nc(c(-c4c(F)cc(S(=O)(=O)[O-])cc4F)c4ccc([nH]4)c(-c4c(F)cc(S(=O)(=O)[O-])cc4F)c4nc(c(-c5c(F)cc(S(=O)(=O)[O-])cc5F)c5ccc2[nH]5)C=C4)C=C3)cc1
REMARK SMILES IDX 21 1 20 2 19 3 18 4 16 5 17 6 4 8 2 9 1 10 3 11 5 12 6 14
REMARK SMILES IDX 7 15 8 16 9 17 10 18 15 19 11 20 13 21 12 22 14 23 22 24
REMARK SMILES IDX 23 25 24 26 25 27 26 28 27 30 28 31 29 32 93 33 30 34 92 35
REMARK SMILES IDX 31 36 32 37 33 38 86 39 34 40 91 41 85 42 87 43 35 44 90 45
REMARK SMILES IDX 84 46 83 47 36 49 70 50 49 51 69 52 50 53 53 54 68 55 88 56
REMARK SMILES IDX 51 57 52 58 67 60 89 61 54 62 37 63 38 64 47 65 39 66 40 67
REMARK SMILES IDX 46 68 48 69 41 70 42 71 43 72 44 73 45 74 71 75 72 76 81 77
REMARK SMILES IDX 73 78 74 79 80 80 82 81 75 82 76 83 77 84 78 85 79 86 55 87
REMARK SMILES IDX 56 88 65 89 57 90 58 91 64 92 66 93 59 94 60 95 61 96 62 97
REMARK SMILES IDX 63 98
REMARK H PARENT 18 7 5 13 25 29 87 48 53 59
REMARK Flexibility Score: inf
ROOT
ATOM      1  C   UNL A   1      31.255  27.379  24.356  1.00  0.00     0.002 C 
ENDROOT
BRANCH   1   2
ATOM      2  C   UNL A   1      31.896  26.932  23.039  1.00  0.00     0.021 C 
BRANCH   2   3
ATOM      3  C   UNL A   1      31.648  25.467  22.697  1.00  0.00     0.116 C 
BRANCH   3   4
ATOM      4  N   UNL A   1      32.875  24.781  22.340  1.00  0.00    -0.355 N 
ATOM      5  C   UNL A   1      33.533  23.787  23.001  1.00  0.00     0.238 C 
ATOM      6  O   UNL A   1      34.552  23.325  22.476  1.00  0.00    -0.273 OA
ATOM      7  H   UNL A   1      33.293  25.076  21.500  1.00  0.00     0.163 HD
BRANCH   5   8
ATOM      8  C   UNL A   1      33.043  23.248  24.364  1.00  0.00     0.161 C 
BRANCH   8   9
ATOM      9  C   UNL A   1      33.593  23.990  25.607  1.00  0.00     0.010 C 
ATOM     10  C   UNL A   1      34.693  25.025  25.324  1.00  0.00     0.009 C 
ATOM     11  C   UNL A   1      32.452  24.757  26.301  1.00  0.00     0.009 C 
ENDBRANCH   8   9
BRANCH   8  12
ATOM     12  N   UNL A   1      33.134  21.768  24.322  1.00  0.00    -0.198 NA
ATOM     13  H   UNL A   1      33.415  21.565  23.363  1.00  0.00     0.142 HD
BRANCH  12  14
ATOM     14  S   UNL A   1      34.040  20.726  25.241  1.00  0.00     0.241 S 
ATOM     15  O   UNL A   1      35.418  21.086  24.985  1.00  0.00    -0.207 OA
ATOM     16  O   UNL A   1      33.510  20.705  26.584  1.00  0.00    -0.207 OA
BRANCH  14  17
ATOM     17  C   UNL A   1      33.775  19.145  24.501  1.00  0.00     0.085 A 
ATOM     18  C   UNL A   1      32.777  18.988  23.531  1.00  0.00     0.022 A 
ATOM     19  C   UNL A   1      34.589  18.075  24.878  1.00  0.00     0.061 A 
ATOM     20  C   UNL A   1      32.620  17.752  22.901  1.00  0.00     0.004 A 
ATOM     21  C   UNL A   1      34.418  16.855  24.237  1.00  0.00     0.124 A 
ATOM     22  C   UNL A   1      33.449  16.686  23.250  1.00  0.00     0.039 A 
ATOM     23  F   UNL A   1      35.212  15.827  24.561  1.00  0.00    -0.207 F 
ENDBRANCH  14  17
ENDBRANCH  12  14
ENDBRANCH   8  12
ENDBRANCH   5   8
ENDBRANCH   3   4
ENDBRANCH   2   3
ENDBRANCH   1   2
BRANCH   1  24
ATOM     24  C   UNL A   1      31.988  28.507  25.093  1.00  0.00     0.002 C 
BRANCH  24  25
ATOM     25  C   UNL A   1      33.468  28.247  25.393  1.00  0.00     0.021 C 
BRANCH  25  26
ATOM     26  C   UNL A   1      33.864  28.363  26.863  1.00  0.00     0.116 C 
BRANCH  26  27
ATOM     27  N   UNL A   1      33.650  29.701  27.386  1.00  0.00    -0.352 N 
ATOM     28  C   UNL A   1      34.481  30.495  28.134  1.00  0.00     0.251 C 
ATOM     29  H   UNL A   1      32.775  30.099  27.169  1.00  0.00     0.163 HD
ATOM     30  O   UNL A   1      34.045  31.536  28.620  1.00  0.00    -0.269 OA
BRANCH  28  31
ATOM     31  C   UNL A   1      35.885  30.098  28.376  1.00  0.00     0.039 A 
ATOM     32  C   UNL A   1      36.792  30.177  27.315  1.00  0.00     0.014 A 
ATOM     33  C   UNL A   1      36.306  29.618  29.621  1.00  0.00     0.014 A 
ATOM     34  C   UNL A   1      38.127  29.823  27.516  1.00  0.00     0.010 A 
ATOM     35  C   UNL A   1      37.651  29.319  29.835  1.00  0.00     0.010 A 
ATOM     36  C   UNL A   1      38.575  29.416  28.784  1.00  0.00    -0.014 A 
BRANCH  36  37
ATOM     37  C   UNL A   1      40.010  29.115  29.014  1.00  0.00     0.031 A 
ATOM     38  C   UNL A   1      40.578  27.767  28.668  1.00  0.00     0.074 A 
ATOM     39  C   UNL A   1      40.798  30.061  29.562  1.00  0.00     0.049 A 
ATOM     40  N   UNL A   1      41.807  27.336  28.790  1.00  0.00    -0.248 NA
ATOM     41  C   UNL A   1      39.642  26.766  28.132  1.00  0.00     0.031 C 
ATOM     42  C   UNL A   1      40.351  31.388  29.989  1.00  0.00     0.029 A 
ATOM     43  N   UNL A   1      42.140  30.054  29.850  1.00  0.00    -0.354 N 
ATOM     44  C   UNL A   1      41.794  26.019  28.349  1.00  0.00     0.074 A 
ATOM     45  C   UNL A   1      40.425  25.704  28.002  1.00  0.00     0.031 C 
ATOM     46  C   UNL A   1      41.405  32.079  30.452  1.00  0.00     0.029 A 
ATOM     47  C   UNL A   1      42.595  31.238  30.380  1.00  0.00     0.049 A 
ATOM     48  H   UNL A   1      42.721  29.276  29.692  1.00  0.00     0.167 HD
ATOM     49  C   UNL A   1      42.833  25.158  28.224  1.00  0.00     0.037 A 
ATOM     50  C   UNL A   1      43.834  31.609  30.757  1.00  0.00     0.037 A 
ATOM     51  C   UNL A   1      44.198  25.484  28.549  1.00  0.00     0.049 A 
ATOM     52  C   UNL A   1      44.972  30.642  30.595  1.00  0.00     0.074 A 
ATOM     53  C   UNL A   1      45.329  24.699  28.401  1.00  0.00     0.029 A 
ATOM     54  N   UNL A   1      44.620  26.692  29.085  1.00  0.00    -0.354 N 
ATOM     55  N   UNL A   1      44.950  29.417  30.126  1.00  0.00    -0.248 NA
ATOM     56  C   UNL A   1      46.303  31.107  31.005  1.00  0.00     0.031 C 
ATOM     57  C   UNL A   1      46.429  25.419  28.879  1.00  0.00     0.029 A 
ATOM     58  C   UNL A   1      45.990  26.666  29.290  1.00  0.00     0.049 A 
ATOM     59  H   UNL A   1      44.032  27.455  29.289  1.00  0.00     0.167 HD
ATOM     60  C   UNL A   1      46.263  28.967  30.180  1.00  0.00     0.074 A 
ATOM     61  C   UNL A   1      47.058  30.059  30.704  1.00  0.00     0.031 C 
ATOM     62  C   UNL A   1      46.765  27.756  29.831  1.00  0.00     0.037 A 
BRANCH  49  63
ATOM     63  C   UNL A   1      42.541  23.782  27.695  1.00  0.00     0.058 A 
ATOM     64  C   UNL A   1      42.436  22.686  28.566  1.00  0.00     0.135 A 
ATOM     65  C   UNL A   1      42.425  23.538  26.317  1.00  0.00     0.135 A 
ATOM     66  F   UNL A   1      42.533  22.863  29.892  1.00  0.00    -0.206 F 
ATOM     67  C   UNL A   1      42.237  21.393  28.087  1.00  0.00     0.059 A 
ATOM     68  C   UNL A   1      42.204  22.257  25.818  1.00  0.00     0.059 A 
ATOM     69  F   UNL A   1      42.497  24.554  25.443  1.00  0.00    -0.206 F 
ATOM     70  C   UNL A   1      42.126  21.189  26.711  1.00  0.00     0.060 A 
BRANCH  70  71
ATOM     71  S   UNL A   1      41.838  19.512  26.106  1.00  0.00     0.124 S 
ATOM     72  O   UNL A   1      42.751  19.441  24.971  1.00  0.00    -0.237 OA
ATOM     73  O   UNL A   1      42.195  18.701  27.265  1.00  0.00    -0.237 OA
ATOM     74  O   UNL A   1      40.416  19.514  25.771  1.00  0.00    -0.744 OA
ENDBRANCH  70  71
ENDBRANCH  49  63
BRANCH  50  75
ATOM     75  C   UNL A   1      44.059  32.978  31.289  1.00  0.00     0.058 A 
ATOM     76  C   UNL A   1      44.000  33.243  32.666  1.00  0.00     0.135 A 
ATOM     77  C   UNL A   1      44.291  34.056  30.423  1.00  0.00     0.135 A 
ATOM     78  F   UNL A   1      43.769  32.246  33.534  1.00  0.00    -0.206 F 
ATOM     79  C   UNL A   1      44.138  34.534  33.163  1.00  0.00     0.059 A 
ATOM     80  C   UNL A   1      44.454  35.353  30.898  1.00  0.00     0.059 A 
ATOM     81  F   UNL A   1      44.368  33.846  29.100  1.00  0.00    -0.206 F 
ATOM     82  C   UNL A   1      44.356  35.585  32.270  1.00  0.00     0.060 A 
BRANCH  82  83
ATOM     83  S   UNL A   1      44.507  37.257  32.932  1.00  0.00     0.124 S 
ATOM     84  O   UNL A   1      44.283  38.063  31.737  1.00  0.00    -0.237 OA
ATOM     85  O   UNL A   1      43.442  37.291  33.930  1.00  0.00    -0.237 OA
ATOM     86  O   UNL A   1      45.865  37.287  33.466  1.00  0.00    -0.744 OA
ENDBRANCH  82  83
ENDBRANCH  50  75
BRANCH  62  87
ATOM     87  C   UNL A   1      48.241  27.546  30.013  1.00  0.00     0.058 A 
ATOM     88  C   UNL A   1      48.749  27.040  31.219  1.00  0.00     0.135 A 
ATOM     89  C   UNL A   1      49.155  27.881  29.002  1.00  0.00     0.135 A 
ATOM     90  F   UNL A   1      47.918  26.707  32.219  1.00  0.00    -0.206 F 
ATOM     91  C   UNL A   1      50.116  26.877  31.418  1.00  0.00     0.059 A 
ATOM     92  C   UNL A   1      50.526  27.705  29.172  1.00  0.00     0.059 A 
ATOM     93  F   UNL A   1      48.717  28.358  27.826  1.00  0.00    -0.206 F 
ATOM     94  C   UNL A   1      50.997  27.213  30.389  1.00  0.00     0.060 A 
BRANCH  94  95
ATOM     95  S   UNL A   1      52.765  26.951  30.643  1.00  0.00     0.124 S 
ATOM     96  O   UNL A   1      52.788  25.615  31.227  1.00  0.00    -0.237 OA
ATOM     97  O   UNL A   1      53.296  27.063  29.288  1.00  0.00    -0.237 OA
ATOM     98  O   UNL A   1      53.140  28.039  31.544  1.00  0.00    -0.744 OA
ENDBRANCH  94  95
ENDBRANCH  62  87
ENDBRANCH  36  37
ENDBRANCH  28  31
ENDBRANCH  26  27
ENDBRANCH  25  26
ENDBRANCH  24  25
ENDBRANCH   1  24
TORSDOF 20
ENDMDL
MODEL 3
REMARK VINA RESULT:     -10.6      2.788      4.022
REMARK SMILES CC(C)[C@H](NS(=O)(=O)c1cccc(F)c1)C(=O)NCCCCCCNC(=O)c1ccc(-c2c3nc(c(-c4c(F)cc(S(=O)(=O)[O-])cc4F)c4ccc([nH]4)c(-c4c(F)cc(S(=O)(=O)[O-])cc4F)c4nc(c(-c5c(F)cc(S(=O)(=O)[O-])cc5F)c5ccc2[nH]5)C=C4)C=C3)cc1
REMARK SMILES IDX 21 1 20 2 19 3 18 4 16 5 17 6 4 8 2 9 1 10 3 11 5 12 6 14
REMARK SMILES IDX 7 15 8 16 9 17 10 18 15 19 11 20 13 21 12 22 14 23 22 24
REMARK SMILES IDX 23 25 24 26 25 27 26 28 27 30 28 31 29 32 93 33 30 34 92 35
REMARK SMILES IDX 31 36 32 37 33 38 86 39 34 40 91 41 85 42 87 43 35 44 90 45
REMARK SMILES IDX 84 46 83 47 36 49 70 50 49 51 69 52 50 53 53 54 68 55 88 56
REMARK SMILES IDX 51 57 52 58 67 60 89 61 54 62 37 63 38 64 47 65 39 66 40 67
REMARK SMILES IDX 46 68 48 69 41 70 42 71 43 72 44 73 45 74 71 75 72 76 81 77
REMARK SMILES IDX 73 78 74 79 80 80 82 81 75 82 76 83 77 84 78 85 79 86 55 87
REMARK SMILES IDX 56 88 65 89 57 90 58 91 64 92 66 93 59 94 60 95 61 96 62 97
REMARK SMILES IDX 63 98
REMARK H PARENT 18 7 5 13 25 29 87 48 53 59
REMARK Flexibility Score: inf
ROOT
ATOM      1  C   UNL A   1      32.540  26.813  22.737  1.00  0.00     0.002 C 
ENDROOT
BRANCH   1   2
ATOM      2  C   UNL A   1      33.430  25.600  22.445  1.00  0.00     0.021 C 
BRANCH   2   3
ATOM      3  C   UNL A   1      32.686  24.269  22.464  1.00  0.00     0.116 C 
BRANCH   3   4
ATOM      4  N   UNL A   1      32.151  23.968  23.777  1.00  0.00    -0.355 N 
ATOM      5  C   UNL A   1      32.483  22.963  24.636  1.00  0.00     0.238 C 
ATOM      6  O   UNL A   1      31.912  22.931  25.731  1.00  0.00    -0.273 OA
ATOM      7  H   UNL A   1      31.447  24.578  24.095  1.00  0.00     0.163 HD
BRANCH   5   8
ATOM      8  C   UNL A   1      33.528  21.886  24.268  1.00  0.00     0.161 C 
BRANCH   8   9
ATOM      9  C   UNL A   1      33.039  20.421  24.382  1.00  0.00     0.010 C 
ATOM     10  C   UNL A   1      32.319  19.868  23.142  1.00  0.00     0.009 C 
ATOM     11  C   UNL A   1      34.240  19.490  24.631  1.00  0.00     0.009 C 
ENDBRANCH   8   9
BRANCH   8  12
ATOM     12  N   UNL A   1      34.808  22.260  24.918  1.00  0.00    -0.198 NA
ATOM     13  H   UNL A   1      35.377  21.417  24.848  1.00  0.00     0.142 HD
BRANCH  12  14
ATOM     14  S   UNL A   1      35.863  23.493  24.573  1.00  0.00     0.241 S 
ATOM     15  O   UNL A   1      36.075  23.429  23.144  1.00  0.00    -0.207 OA
ATOM     16  O   UNL A   1      35.390  24.703  25.205  1.00  0.00    -0.207 OA
BRANCH  14  17
ATOM     17  C   UNL A   1      37.375  23.005  25.342  1.00  0.00     0.085 A 
ATOM     18  C   UNL A   1      38.081  23.919  26.135  1.00  0.00     0.022 A 
ATOM     19  C   UNL A   1      37.834  21.698  25.166  1.00  0.00     0.061 A 
ATOM     20  C   UNL A   1      39.238  23.504  26.795  1.00  0.00     0.004 A 
ATOM     21  C   UNL A   1      38.986  21.306  25.833  1.00  0.00     0.124 A 
ATOM     22  C   UNL A   1      39.687  22.191  26.649  1.00  0.00     0.039 A 
ATOM     23  F   UNL A   1      39.422  20.046  25.703  1.00  0.00    -0.207 F 
ENDBRANCH  14  17
ENDBRANCH  12  14
ENDBRANCH   8  12
ENDBRANCH   5   8
ENDBRANCH   3   4
ENDBRANCH   2   3
ENDBRANCH   1   2
BRANCH   1  24
ATOM     24  C   UNL A   1      33.152  27.866  23.670  1.00  0.00     0.002 C 
BRANCH  24  25
ATOM     25  C   UNL A   1      32.884  27.659  25.165  1.00  0.00     0.021 C 
BRANCH  25  26
ATOM     26  C   UNL A   1      33.925  28.268  26.102  1.00  0.00     0.116 C 
BRANCH  26  27
ATOM     27  N   UNL A   1      33.647  29.662  26.401  1.00  0.00    -0.352 N 
ATOM     28  C   UNL A   1      34.281  30.518  27.264  1.00  0.00     0.251 C 
ATOM     29  H   UNL A   1      32.889  30.051  25.907  1.00  0.00     0.163 HD
ATOM     30  O   UNL A   1      33.785  31.617  27.497  1.00  0.00    -0.269 OA
BRANCH  28  31
ATOM     31  C   UNL A   1      35.541  30.119  27.930  1.00  0.00     0.039 A 
ATOM     32  C   UNL A   1      36.740  30.259  27.225  1.00  0.00     0.014 A 
ATOM     33  C   UNL A   1      35.548  29.581  29.221  1.00  0.00     0.014 A 
ATOM     34  C   UNL A   1      37.947  29.906  27.830  1.00  0.00     0.010 A 
ATOM     35  C   UNL A   1      36.759  29.281  29.845  1.00  0.00     0.010 A 
ATOM     36  C   UNL A   1      37.970  29.439  29.156  1.00  0.00    -0.014 A 
BRANCH  36  37
ATOM     37  C   UNL A   1      39.260  29.138  29.824  1.00  0.00     0.031 A 
ATOM     38  C   UNL A   1      39.687  29.896  31.050  1.00  0.00     0.074 A 
ATOM     39  C   UNL A   1      40.062  28.187  29.304  1.00  0.00     0.049 A 
ATOM     40  N   UNL A   1      40.772  29.757  31.767  1.00  0.00    -0.248 NA
ATOM     41  C   UNL A   1      38.789  30.962  31.522  1.00  0.00     0.031 C 
ATOM     42  C   UNL A   1      39.782  27.420  28.088  1.00  0.00     0.029 A 
ATOM     43  N   UNL A   1      41.272  27.701  29.732  1.00  0.00    -0.354 N 
ATOM     44  C   UNL A   1      40.690  30.713  32.772  1.00  0.00     0.074 A 
ATOM     45  C   UNL A   1      39.471  31.460  32.544  1.00  0.00     0.031 C 
ATOM     46  C   UNL A   1      40.773  26.537  27.888  1.00  0.00     0.029 A 
ATOM     47  C   UNL A   1      41.769  26.692  28.942  1.00  0.00     0.049 A 
ATOM     48  H   UNL A   1      41.738  28.042  30.528  1.00  0.00     0.167 HD
ATOM     49  C   UNL A   1      41.540  30.933  33.802  1.00  0.00     0.037 A 
ATOM     50  C   UNL A   1      42.898  25.965  29.058  1.00  0.00     0.037 A 
ATOM     51  C   UNL A   1      42.740  30.171  34.039  1.00  0.00     0.049 A 
ATOM     52  C   UNL A   1      43.818  26.218  30.219  1.00  0.00     0.074 A 
ATOM     53  C   UNL A   1      43.636  30.281  35.089  1.00  0.00     0.029 A 
ATOM     54  N   UNL A   1      43.213  29.159  33.216  1.00  0.00    -0.354 N 
ATOM     55  N   UNL A   1      43.697  27.092  31.189  1.00  0.00    -0.248 NA
ATOM     56  C   UNL A   1      45.024  25.384  30.304  1.00  0.00     0.031 C 
ATOM     57  C   UNL A   1      44.668  29.358  34.884  1.00  0.00     0.029 A 
ATOM     58  C   UNL A   1      44.395  28.648  33.726  1.00  0.00     0.049 A 
ATOM     59  H   UNL A   1      42.772  28.849  32.392  1.00  0.00     0.167 HD
ATOM     60  C   UNL A   1      44.807  26.909  32.005  1.00  0.00     0.074 A 
ATOM     61  C   UNL A   1      45.576  25.826  31.427  1.00  0.00     0.031 C 
ATOM     62  C   UNL A   1      45.160  27.581  33.128  1.00  0.00     0.037 A 
BRANCH  49  63
ATOM     63  C   UNL A   1      41.198  32.031  34.770  1.00  0.00     0.058 A 
ATOM     64  C   UNL A   1      41.708  33.327  34.595  1.00  0.00     0.135 A 
ATOM     65  C   UNL A   1      40.410  31.785  35.906  1.00  0.00     0.135 A 
ATOM     66  F   UNL A   1      42.460  33.619  33.524  1.00  0.00    -0.206 F 
ATOM     67  C   UNL A   1      41.459  34.338  35.520  1.00  0.00     0.059 A 
ATOM     68  C   UNL A   1      40.130  32.785  36.833  1.00  0.00     0.059 A 
ATOM     69  F   UNL A   1      39.880  30.568  36.110  1.00  0.00    -0.206 F 
ATOM     70  C   UNL A   1      40.671  34.056  36.637  1.00  0.00     0.060 A 
BRANCH  70  71
ATOM     71  S   UNL A   1      40.332  35.384  37.812  1.00  0.00     0.124 S 
ATOM     72  O   UNL A   1      40.277  36.551  36.939  1.00  0.00    -0.237 OA
ATOM     73  O   UNL A   1      39.062  34.963  38.395  1.00  0.00    -0.237 OA
ATOM     74  O   UNL A   1      41.474  35.330  38.721  1.00  0.00    -0.744 OA
ENDBRANCH  70  71
ENDBRANCH  49  63
BRANCH  50  75
ATOM     75  C   UNL A   1      43.192  24.904  28.061  1.00  0.00     0.058 A 
ATOM     76  C   UNL A   1      42.899  23.558  28.323  1.00  0.00     0.135 A 
ATOM     77  C   UNL A   1      43.815  25.215  26.844  1.00  0.00     0.135 A 
ATOM     78  F   UNL A   1      42.312  23.209  29.479  1.00  0.00    -0.206 F 
ATOM     79  C   UNL A   1      43.237  22.552  27.424  1.00  0.00     0.059 A 
ATOM     80  C   UNL A   1      44.144  24.229  25.918  1.00  0.00     0.059 A 
ATOM     81  F   UNL A   1      44.102  26.492  26.546  1.00  0.00    -0.206 F 
ATOM     82  C   UNL A   1      43.868  22.898  26.227  1.00  0.00     0.060 A 
BRANCH  82  83
ATOM     83  S   UNL A   1      44.323  21.577  25.084  1.00  0.00     0.124 S 
ATOM     84  O   UNL A   1      45.653  21.221  25.567  1.00  0.00    -0.237 OA
ATOM     85  O   UNL A   1      43.275  20.589  25.322  1.00  0.00    -0.237 OA
ATOM     86  O   UNL A   1      44.281  22.230  23.780  1.00  0.00    -0.744 OA
ENDBRANCH  82  83
ENDBRANCH  50  75
BRANCH  62  87
ATOM     87  C   UNL A   1      46.438  27.170  33.802  1.00  0.00     0.058 A 
ATOM     88  C   UNL A   1      47.652  27.794  33.477  1.00  0.00     0.135 A 
ATOM     89  C   UNL A   1      46.463  26.131  34.745  1.00  0.00     0.135 A 
ATOM     90  F   UNL A   1      47.683  28.791  32.579  1.00  0.00    -0.206 F 
ATOM     91  C   UNL A   1      48.850  27.398  34.062  1.00  0.00     0.059 A 
ATOM     92  C   UNL A   1      47.648  25.733  35.359  1.00  0.00     0.059 A 
ATOM     93  F   UNL A   1      45.326  25.511  35.097  1.00  0.00    -0.206 F 
ATOM     94  C   UNL A   1      48.838  26.366  35.002  1.00  0.00     0.060 A 
BRANCH  94  95
ATOM     95  S   UNL A   1      50.393  25.894  35.789  1.00  0.00     0.124 S 
ATOM     96  O   UNL A   1      49.968  24.804  36.660  1.00  0.00    -0.237 OA
ATOM     97  O   UNL A   1      51.218  25.512  34.647  1.00  0.00    -0.237 OA
ATOM     98  O   UNL A   1      50.811  27.118  36.469  1.00  0.00    -0.744 OA
ENDBRANCH  94  95
ENDBRANCH  62  87
ENDBRANCH  36  37
ENDBRANCH  28  31
ENDBRANCH  26  27
ENDBRANCH  25  26
ENDBRANCH  24  25
ENDBRANCH   1  24
TORSDOF 20
ENDMDL
