MODEL 1
REMARK VINA RESULT:     -10.7      0.000      0.000
REMARK SMILES C[C@H](Oc1ccc(/C=C2/SC(=S)N(c3ccc(F)cc3)C2=O)cc1)C(=O)NCCCCCCNC(=O)c1ccc(-c2c3nc(c(-c4c(F)cc(S(=O)(=O)[O-])cc4F)c4ccc([nH]4)c(-c4c(F)cc(S(=O)(=O)[O-])cc4F)c4nc(c(-c5c(F)cc(S(=O)(=O)[O-])cc5F)c5ccc2[nH]5)C=C4)C=C3)cc1
REMARK SMILES IDX 30 1 29 2 28 3 27 4 25 5 26 6 2 8 1 9 3 10 4 11 5 12 24 13
REMARK SMILES IDX 6 14 23 15 7 16 8 17 9 18 10 19 21 20 11 21 13 22 22 23
REMARK SMILES IDX 12 24 14 25 15 26 20 27 16 28 19 29 17 30 18 31 31 32 32 33
REMARK SMILES IDX 33 34 34 35 35 36 36 38 37 39 38 40 102 41 39 42 101 43
REMARK SMILES IDX 40 44 41 45 42 46 95 47 43 48 100 49 94 50 96 51 44 52 99 53
REMARK SMILES IDX 93 54 92 55 45 57 79 58 58 59 78 60 59 61 62 62 77 63 97 64
REMARK SMILES IDX 60 65 61 66 76 68 98 69 63 70 46 71 47 72 56 73 48 74 49 75
REMARK SMILES IDX 55 76 57 77 50 78 51 79 52 80 53 81 54 82 80 83 81 84 90 85
REMARK SMILES IDX 82 86 83 87 89 88 91 89 84 90 85 91 86 92 87 93 88 94 64 95
REMARK SMILES IDX 65 96 74 97 66 98 67 99 73 100 75 101 68 102 69 103 70 104
REMARK SMILES IDX 71 105 72 106
REMARK H PARENT 27 7 34 37 96 56 62 67
REMARK Flexibility Score: inf
ROOT
ATOM      1  C   UNL A   1      35.158  21.488  24.788  1.00  0.00     0.002 C 
ENDROOT
BRANCH   1   2
ATOM      2  C   UNL A   1      33.917  20.838  25.407  1.00  0.00     0.021 C 
BRANCH   2   3
ATOM      3  C   UNL A   1      32.589  21.438  24.951  1.00  0.00     0.116 C 
BRANCH   3   4
ATOM      4  N   UNL A   1      31.836  22.011  26.057  1.00  0.00    -0.353 N 
ATOM      5  C   UNL A   1      31.456  23.311  26.266  1.00  0.00     0.260 C 
ATOM      6  O   UNL A   1      30.801  23.568  27.280  1.00  0.00    -0.271 OA
ATOM      7  H   UNL A   1      31.561  21.373  26.754  1.00  0.00     0.163 HD
BRANCH   5   8
ATOM      8  C   UNL A   1      31.785  24.399  25.229  1.00  0.00     0.258 C 
ATOM      9  C   UNL A   1      33.291  24.660  25.291  1.00  0.00     0.064 C 
BRANCH   8  10
ATOM     10  O   UNL A   1      30.852  25.449  25.485  1.00  0.00    -0.481 OA
BRANCH  10  11
ATOM     11  C   UNL A   1      31.181  26.737  25.750  1.00  0.00     0.120 A 
ATOM     12  C   UNL A   1      31.463  27.743  24.837  1.00  0.00     0.047 A 
ATOM     13  C   UNL A   1      31.244  27.028  27.116  1.00  0.00     0.047 A 
ATOM     14  C   UNL A   1      31.929  28.987  25.282  1.00  0.00     0.012 A 
ATOM     15  C   UNL A   1      31.673  28.276  27.565  1.00  0.00     0.012 A 
ATOM     16  C   UNL A   1      32.076  29.249  26.649  1.00  0.00    -0.024 A 
BRANCH  16  17
ATOM     17  C   UNL A   1      32.583  30.552  27.086  1.00  0.00     0.029 C 
ATOM     18  C   UNL A   1      33.831  30.845  27.483  1.00  0.00     0.081 C 
ATOM     19  S   UNL A   1      34.241  32.411  28.076  1.00  0.00    -0.054 SA
ATOM     20  C   UNL A   1      35.028  29.947  27.552  1.00  0.00     0.270 C 
ATOM     21  C   UNL A   1      35.858  31.916  28.570  1.00  0.00     0.152 C 
ATOM     22  N   UNL A   1      36.059  30.581  28.246  1.00  0.00    -0.261 N 
ATOM     23  O   UNL A   1      35.043  28.816  27.087  1.00  0.00    -0.268 OA
ATOM     24  S   UNL A   1      36.907  33.035  29.237  1.00  0.00    -0.051 S 
BRANCH  22  25
ATOM     25  C   UNL A   1      37.231  29.843  28.592  1.00  0.00     0.051 A 
ATOM     26  C   UNL A   1      37.344  29.221  29.845  1.00  0.00     0.030 A 
ATOM     27  C   UNL A   1      38.316  29.772  27.702  1.00  0.00     0.030 A 
ATOM     28  C   UNL A   1      38.498  28.510  30.182  1.00  0.00     0.041 A 
ATOM     29  C   UNL A   1      39.477  29.081  28.050  1.00  0.00     0.041 A 
ATOM     30  C   UNL A   1      39.554  28.451  29.282  1.00  0.00     0.123 A 
ATOM     31  F   UNL A   1      40.676  27.798  29.611  1.00  0.00    -0.207 F 
ENDBRANCH  22  25
ENDBRANCH  16  17
ENDBRANCH  10  11
ENDBRANCH   8  10
ENDBRANCH   5   8
ENDBRANCH   3   4
ENDBRANCH   2   3
ENDBRANCH   1   2
BRANCH   1  32
ATOM     32  C   UNL A   1      36.288  21.815  25.770  1.00  0.00     0.002 C 
BRANCH  32  33
ATOM     33  C   UNL A   1      37.225  22.951  25.346  1.00  0.00     0.021 C 
BRANCH  33  34
ATOM     34  C   UNL A   1      38.546  23.021  26.109  1.00  0.00     0.116 C 
BRANCH  34  35
ATOM     35  N   UNL A   1      39.264  21.755  26.090  1.00  0.00    -0.352 N 
ATOM     36  C   UNL A   1      40.556  21.478  26.467  1.00  0.00     0.251 C 
ATOM     37  H   UNL A   1      38.748  20.984  25.758  1.00  0.00     0.163 HD
ATOM     38  O   UNL A   1      41.046  20.379  26.219  1.00  0.00    -0.269 OA
BRANCH  36  39
ATOM     39  C   UNL A   1      41.360  22.510  27.158  1.00  0.00     0.039 A 
ATOM     40  C   UNL A   1      40.724  23.431  27.993  1.00  0.00     0.014 A 
ATOM     41  C   UNL A   1      42.741  22.575  26.970  1.00  0.00     0.014 A 
ATOM     42  C   UNL A   1      41.484  24.367  28.705  1.00  0.00     0.010 A 
ATOM     43  C   UNL A   1      43.496  23.473  27.721  1.00  0.00     0.010 A 
ATOM     44  C   UNL A   1      42.886  24.370  28.609  1.00  0.00    -0.014 A 
BRANCH  44  45
ATOM     45  C   UNL A   1      43.727  25.275  29.442  1.00  0.00     0.031 A 
ATOM     46  C   UNL A   1      44.305  24.801  30.752  1.00  0.00     0.074 A 
ATOM     47  C   UNL A   1      43.913  26.556  29.060  1.00  0.00     0.049 A 
ATOM     48  N   UNL A   1      45.006  25.468  31.635  1.00  0.00    -0.248 NA
ATOM     49  C   UNL A   1      44.046  23.402  31.126  1.00  0.00     0.031 C 
ATOM     50  C   UNL A   1      43.366  27.167  27.846  1.00  0.00     0.029 A 
ATOM     51  N   UNL A   1      44.611  27.578  29.656  1.00  0.00    -0.354 N 
ATOM     52  C   UNL A   1      45.251  24.578  32.676  1.00  0.00     0.074 A 
ATOM     53  C   UNL A   1      44.587  23.339  32.334  1.00  0.00     0.031 C 
ATOM     54  C   UNL A   1      43.775  28.444  27.772  1.00  0.00     0.029 A 
ATOM     55  C   UNL A   1      44.581  28.758  28.947  1.00  0.00     0.049 A 
ATOM     56  H   UNL A   1      45.088  27.478  30.511  1.00  0.00     0.167 HD
ATOM     57  C   UNL A   1      45.982  24.765  33.801  1.00  0.00     0.037 A 
ATOM     58  C   UNL A   1      45.137  29.957  29.210  1.00  0.00     0.037 A 
ATOM     59  C   UNL A   1      46.669  25.986  34.132  1.00  0.00     0.049 A 
ATOM     60  C   UNL A   1      45.954  30.138  30.460  1.00  0.00     0.074 A 
ATOM     61  C   UNL A   1      47.482  26.249  35.222  1.00  0.00     0.029 A 
ATOM     62  N   UNL A   1      46.628  27.148  33.377  1.00  0.00    -0.354 N 
ATOM     63  N   UNL A   1      46.224  29.266  31.402  1.00  0.00    -0.248 NA
ATOM     64  C   UNL A   1      46.547  31.465  30.682  1.00  0.00     0.031 C 
ATOM     65  C   UNL A   1      47.906  27.579  35.143  1.00  0.00     0.029 A 
ATOM     66  C   UNL A   1      47.391  28.134  33.983  1.00  0.00     0.049 A 
ATOM     67  H   UNL A   1      46.130  27.258  32.534  1.00  0.00     0.167 HD
ATOM     68  C   UNL A   1      47.038  29.930  32.314  1.00  0.00     0.074 A 
ATOM     69  C   UNL A   1      47.225  31.273  31.807  1.00  0.00     0.031 C 
ATOM     70  C   UNL A   1      47.581  29.466  33.465  1.00  0.00     0.037 A 
BRANCH  57  71
ATOM     71  C   UNL A   1      46.093  23.608  34.757  1.00  0.00     0.058 A 
ATOM     72  C   UNL A   1      45.091  23.341  35.704  1.00  0.00     0.135 A 
ATOM     73  C   UNL A   1      47.189  22.732  34.700  1.00  0.00     0.135 A 
ATOM     74  F   UNL A   1      44.027  24.153  35.809  1.00  0.00    -0.206 F 
ATOM     75  C   UNL A   1      45.186  22.267  36.581  1.00  0.00     0.059 A 
ATOM     76  C   UNL A   1      47.292  21.635  35.551  1.00  0.00     0.059 A 
ATOM     77  F   UNL A   1      48.175  22.938  33.812  1.00  0.00    -0.206 F 
ATOM     78  C   UNL A   1      46.292  21.419  36.498  1.00  0.00     0.060 A 
BRANCH  78  79
ATOM     79  S   UNL A   1      46.399  20.026  37.641  1.00  0.00     0.124 S 
ATOM     80  O   UNL A   1      45.958  20.640  38.890  1.00  0.00    -0.237 OA
ATOM     81  O   UNL A   1      45.477  19.063  37.049  1.00  0.00    -0.237 OA
ATOM     82  O   UNL A   1      47.809  19.652  37.590  1.00  0.00    -0.744 OA
ENDBRANCH  78  79
ENDBRANCH  57  71
BRANCH  58  83
ATOM     83  C   UNL A   1      44.968  31.079  28.249  1.00  0.00     0.058 A 
ATOM     84  C   UNL A   1      45.802  31.193  27.126  1.00  0.00     0.135 A 
ATOM     85  C   UNL A   1      43.971  32.051  28.425  1.00  0.00     0.135 A 
ATOM     86  F   UNL A   1      46.774  30.292  26.920  1.00  0.00    -0.206 F 
ATOM     87  C   UNL A   1      45.662  32.235  26.216  1.00  0.00     0.059 A 
ATOM     88  C   UNL A   1      43.797  33.091  27.516  1.00  0.00     0.059 A 
ATOM     89  F   UNL A   1      43.139  31.977  29.474  1.00  0.00    -0.206 F 
ATOM     90  C   UNL A   1      44.655  33.180  26.420  1.00  0.00     0.060 A 
BRANCH  90  91
ATOM     91  S   UNL A   1      44.446  34.501  25.207  1.00  0.00     0.124 S 
ATOM     92  O   UNL A   1      43.031  34.820  25.360  1.00  0.00    -0.237 OA
ATOM     93  O   UNL A   1      45.384  35.512  25.687  1.00  0.00    -0.237 OA
ATOM     94  O   UNL A   1      44.818  33.860  23.949  1.00  0.00    -0.744 OA
ENDBRANCH  90  91
ENDBRANCH  58  83
BRANCH  70  95
ATOM     95  C   UNL A   1      48.461  30.402  34.246  1.00  0.00     0.058 A 
ATOM     96  C   UNL A   1      47.940  31.245  35.240  1.00  0.00     0.135 A 
ATOM     97  C   UNL A   1      49.849  30.416  34.033  1.00  0.00     0.135 A 
ATOM     98  F   UNL A   1      46.620  31.276  35.478  1.00  0.00    -0.206 F 
ATOM     99  C   UNL A   1      48.764  32.083  35.986  1.00  0.00     0.059 A 
ATOM    100  C   UNL A   1      50.694  31.228  34.783  1.00  0.00     0.059 A 
ATOM    101  F   UNL A   1      50.398  29.623  33.100  1.00  0.00    -0.206 F 
ATOM    102  C   UNL A   1      50.141  32.066  35.751  1.00  0.00     0.060 A 
BRANCH 102 103
ATOM    103  S   UNL A   1      51.204  33.129  36.752  1.00  0.00     0.124 S 
ATOM    104  O   UNL A   1      50.660  32.914  38.088  1.00  0.00    -0.237 OA
ATOM    105  O   UNL A   1      52.529  32.565  36.508  1.00  0.00    -0.237 OA
ATOM    106  O   UNL A   1      50.983  34.457  36.188  1.00  0.00    -0.744 OA
ENDBRANCH 102 103
ENDBRANCH  70  95
ENDBRANCH  44  45
ENDBRANCH  36  39
ENDBRANCH  34  35
ENDBRANCH  33  34
ENDBRANCH  32  33
ENDBRANCH   1  32
TORSDOF 20
ENDMDL
MODEL 2
REMARK VINA RESULT:     -10.6      0.442      7.820
REMARK SMILES C[C@H](Oc1ccc(/C=C2/SC(=S)N(c3ccc(F)cc3)C2=O)cc1)C(=O)NCCCCCCNC(=O)c1ccc(-c2c3nc(c(-c4c(F)cc(S(=O)(=O)[O-])cc4F)c4ccc([nH]4)c(-c4c(F)cc(S(=O)(=O)[O-])cc4F)c4nc(c(-c5c(F)cc(S(=O)(=O)[O-])cc5F)c5ccc2[nH]5)C=C4)C=C3)cc1
REMARK SMILES IDX 30 1 29 2 28 3 27 4 25 5 26 6 2 8 1 9 3 10 4 11 5 12 24 13
REMARK SMILES IDX 6 14 23 15 7 16 8 17 9 18 10 19 21 20 11 21 13 22 22 23
REMARK SMILES IDX 12 24 14 25 15 26 20 27 16 28 19 29 17 30 18 31 31 32 32 33
REMARK SMILES IDX 33 34 34 35 35 36 36 38 37 39 38 40 102 41 39 42 101 43
REMARK SMILES IDX 40 44 41 45 42 46 95 47 43 48 100 49 94 50 96 51 44 52 99 53
REMARK SMILES IDX 93 54 92 55 45 57 79 58 58 59 78 60 59 61 62 62 77 63 97 64
REMARK SMILES IDX 60 65 61 66 76 68 98 69 63 70 46 71 47 72 56 73 48 74 49 75
REMARK SMILES IDX 55 76 57 77 50 78 51 79 52 80 53 81 54 82 80 83 81 84 90 85
REMARK SMILES IDX 82 86 83 87 89 88 91 89 84 90 85 91 86 92 87 93 88 94 64 95
REMARK SMILES IDX 65 96 74 97 66 98 67 99 73 100 75 101 68 102 69 103 70 104
REMARK SMILES IDX 71 105 72 106
REMARK H PARENT 27 7 34 37 96 56 62 67
REMARK Flexibility Score: inf
ROOT
ATOM      1  C   UNL A   1      35.026  21.775  24.829  1.00  0.00     0.002 C 
ENDROOT
BRANCH   1   2
ATOM      2  C   UNL A   1      33.874  21.191  25.654  1.00  0.00     0.021 C 
BRANCH   2   3
ATOM      3  C   UNL A   1      32.482  21.482  25.100  1.00  0.00     0.116 C 
BRANCH   3   4
ATOM      4  N   UNL A   1      31.605  22.070  26.101  1.00  0.00    -0.353 N 
ATOM      5  C   UNL A   1      31.282  23.385  26.306  1.00  0.00     0.260 C 
ATOM      6  O   UNL A   1      30.494  23.655  27.218  1.00  0.00    -0.271 OA
ATOM      7  H   UNL A   1      31.183  21.430  26.719  1.00  0.00     0.163 HD
BRANCH   5   8
ATOM      8  C   UNL A   1      31.838  24.482  25.381  1.00  0.00     0.258 C 
ATOM      9  C   UNL A   1      33.313  24.685  25.737  1.00  0.00     0.064 C 
BRANCH   8  10
ATOM     10  O   UNL A   1      30.909  25.560  25.484  1.00  0.00    -0.481 OA
BRANCH  10  11
ATOM     11  C   UNL A   1      31.234  26.846  25.763  1.00  0.00     0.120 A 
ATOM     12  C   UNL A   1      31.514  27.864  24.861  1.00  0.00     0.047 A 
ATOM     13  C   UNL A   1      31.295  27.122  27.132  1.00  0.00     0.047 A 
ATOM     14  C   UNL A   1      31.976  29.104  25.321  1.00  0.00     0.012 A 
ATOM     15  C   UNL A   1      31.720  28.367  27.596  1.00  0.00     0.012 A 
ATOM     16  C   UNL A   1      32.121  29.350  26.691  1.00  0.00    -0.024 A 
BRANCH  16  17
ATOM     17  C   UNL A   1      32.624  30.651  27.142  1.00  0.00     0.029 C 
ATOM     18  C   UNL A   1      33.870  30.942  27.546  1.00  0.00     0.081 C 
ATOM     19  S   UNL A   1      34.276  32.502  28.156  1.00  0.00    -0.054 SA
ATOM     20  C   UNL A   1      35.069  30.046  27.609  1.00  0.00     0.270 C 
ATOM     21  C   UNL A   1      35.892  32.006  28.650  1.00  0.00     0.152 C 
ATOM     22  N   UNL A   1      36.097  30.675  28.314  1.00  0.00    -0.261 N 
ATOM     23  O   UNL A   1      35.087  28.920  27.133  1.00  0.00    -0.268 OA
ATOM     24  S   UNL A   1      36.937  33.120  29.331  1.00  0.00    -0.051 S 
BRANCH  22  25
ATOM     25  C   UNL A   1      37.269  29.935  28.655  1.00  0.00     0.051 A 
ATOM     26  C   UNL A   1      38.307  29.765  27.726  1.00  0.00     0.030 A 
ATOM     27  C   UNL A   1      37.380  29.318  29.913  1.00  0.00     0.030 A 
ATOM     28  C   UNL A   1      39.446  29.030  28.062  1.00  0.00     0.041 A 
ATOM     29  C   UNL A   1      38.508  28.564  30.238  1.00  0.00     0.041 A 
ATOM     30  C   UNL A   1      39.533  28.434  29.314  1.00  0.00     0.123 A 
ATOM     31  F   UNL A   1      40.607  27.702  29.632  1.00  0.00    -0.207 F 
ENDBRANCH  22  25
ENDBRANCH  16  17
ENDBRANCH  10  11
ENDBRANCH   8  10
ENDBRANCH   5   8
ENDBRANCH   3   4
ENDBRANCH   2   3
ENDBRANCH   1   2
BRANCH   1  32
ATOM     32  C   UNL A   1      36.423  21.604  25.436  1.00  0.00     0.002 C 
BRANCH  32  33
ATOM     33  C   UNL A   1      37.372  22.793  25.256  1.00  0.00     0.021 C 
BRANCH  33  34
ATOM     34  C   UNL A   1      38.591  22.794  26.176  1.00  0.00     0.116 C 
BRANCH  34  35
ATOM     35  N   UNL A   1      39.397  21.591  26.028  1.00  0.00    -0.352 N 
ATOM     36  C   UNL A   1      40.715  21.379  26.352  1.00  0.00     0.251 C 
ATOM     37  H   UNL A   1      38.929  20.817  25.640  1.00  0.00     0.163 HD
ATOM     38  O   UNL A   1      41.277  20.346  25.996  1.00  0.00    -0.269 OA
BRANCH  36  39
ATOM     39  C   UNL A   1      41.462  22.403  27.116  1.00  0.00     0.039 A 
ATOM     40  C   UNL A   1      40.758  23.369  27.840  1.00  0.00     0.014 A 
ATOM     41  C   UNL A   1      42.857  22.417  27.107  1.00  0.00     0.014 A 
ATOM     42  C   UNL A   1      41.454  24.299  28.621  1.00  0.00     0.010 A 
ATOM     43  C   UNL A   1      43.541  23.309  27.927  1.00  0.00     0.010 A 
ATOM     44  C   UNL A   1      42.856  24.252  28.707  1.00  0.00    -0.014 A 
BRANCH  44  45
ATOM     45  C   UNL A   1      43.616  25.151  29.620  1.00  0.00     0.031 A 
ATOM     46  C   UNL A   1      43.920  26.574  29.223  1.00  0.00     0.074 A 
ATOM     47  C   UNL A   1      44.103  24.669  30.783  1.00  0.00     0.049 A 
ATOM     48  N   UNL A   1      44.621  27.478  29.861  1.00  0.00    -0.248 NA
ATOM     49  C   UNL A   1      43.383  27.034  27.933  1.00  0.00     0.031 C 
ATOM     50  C   UNL A   1      43.934  23.297  31.268  1.00  0.00     0.029 A 
ATOM     51  N   UNL A   1      44.844  25.276  31.767  1.00  0.00    -0.354 N 
ATOM     52  C   UNL A   1      44.628  28.602  29.043  1.00  0.00     0.074 A 
ATOM     53  C   UNL A   1      43.899  28.252  27.842  1.00  0.00     0.031 C 
ATOM     54  C   UNL A   1      44.525  23.178  32.469  1.00  0.00     0.029 A 
ATOM     55  C   UNL A   1      45.147  24.449  32.825  1.00  0.00     0.049 A 
ATOM     56  H   UNL A   1      45.134  26.215  31.720  1.00  0.00     0.167 HD
ATOM     57  C   UNL A   1      45.168  29.822  29.276  1.00  0.00     0.037 A 
ATOM     58  C   UNL A   1      45.844  24.683  33.954  1.00  0.00     0.037 A 
ATOM     59  C   UNL A   1      45.869  30.186  30.480  1.00  0.00     0.049 A 
ATOM     60  C   UNL A   1      46.426  26.049  34.197  1.00  0.00     0.074 A 
ATOM     61  C   UNL A   1      46.400  31.415  30.830  1.00  0.00     0.029 A 
ATOM     62  N   UNL A   1      46.134  29.324  31.533  1.00  0.00    -0.354 N 
ATOM     63  N   UNL A   1      46.369  27.116  33.436  1.00  0.00    -0.248 NA
ATOM     64  C   UNL A   1      47.163  26.246  35.454  1.00  0.00     0.031 C 
ATOM     65  C   UNL A   1      47.014  31.290  32.080  1.00  0.00     0.029 A 
ATOM     66  C   UNL A   1      46.832  29.992  32.527  1.00  0.00     0.049 A 
ATOM     67  H   UNL A   1      45.867  28.376  31.570  1.00  0.00     0.167 HD
ATOM     68  C   UNL A   1      47.039  28.117  34.133  1.00  0.00     0.074 A 
ATOM     69  C   UNL A   1      47.484  27.531  35.381  1.00  0.00     0.031 C 
ATOM     70  C   UNL A   1      47.261  29.403  33.771  1.00  0.00     0.037 A 
BRANCH  57  71
ATOM     71  C   UNL A   1      45.006  30.869  28.207  1.00  0.00     0.058 A 
ATOM     72  C   UNL A   1      43.957  31.801  28.248  1.00  0.00     0.135 A 
ATOM     73  C   UNL A   1      45.931  30.970  27.155  1.00  0.00     0.135 A 
ATOM     74  F   UNL A   1      43.039  31.743  29.225  1.00  0.00    -0.206 F 
ATOM     75  C   UNL A   1      43.812  32.776  27.267  1.00  0.00     0.059 A 
ATOM     76  C   UNL A   1      45.820  31.955  26.177  1.00  0.00     0.059 A 
ATOM     77  F   UNL A   1      46.956  30.106  27.069  1.00  0.00    -0.206 F 
ATOM     78  C   UNL A   1      44.747  32.844  26.233  1.00  0.00     0.060 A 
BRANCH  78  79
ATOM     79  S   UNL A   1      44.547  34.118  24.970  1.00  0.00     0.124 S 
ATOM     80  O   UNL A   1      43.281  34.726  25.369  1.00  0.00    -0.237 OA
ATOM     81  O   UNL A   1      45.735  34.944  25.166  1.00  0.00    -0.237 OA
ATOM     82  O   UNL A   1      44.513  33.359  23.724  1.00  0.00    -0.744 OA
ENDBRANCH  78  79
ENDBRANCH  57  71
BRANCH  58  83
ATOM     83  C   UNL A   1      46.005  23.603  34.964  1.00  0.00     0.058 A 
ATOM     84  C   UNL A   1      47.165  22.814  34.990  1.00  0.00     0.135 A 
ATOM     85  C   UNL A   1      45.014  23.344  35.922  1.00  0.00     0.135 A 
ATOM     86  F   UNL A   1      48.136  23.020  34.088  1.00  0.00    -0.206 F 
ATOM     87  C   UNL A   1      47.334  21.798  35.924  1.00  0.00     0.059 A 
ATOM     88  C   UNL A   1      45.170  22.347  36.882  1.00  0.00     0.059 A 
ATOM     89  F   UNL A   1      43.894  24.081  35.948  1.00  0.00    -0.206 F 
ATOM     90  C   UNL A   1      46.329  21.573  36.868  1.00  0.00     0.060 A 
BRANCH  90  91
ATOM     91  S   UNL A   1      46.579  20.286  38.111  1.00  0.00     0.124 S 
ATOM     92  O   UNL A   1      46.116  20.954  39.321  1.00  0.00    -0.237 OA
ATOM     93  O   UNL A   1      45.731  19.207  37.611  1.00  0.00    -0.237 OA
ATOM     94  O   UNL A   1      48.014  20.028  38.039  1.00  0.00    -0.744 OA
ENDBRANCH  90  91
ENDBRANCH  58  83
BRANCH  70  95
ATOM     95  C   UNL A   1      47.992  30.284  34.747  1.00  0.00     0.058 A 
ATOM     96  C   UNL A   1      49.378  30.485  34.663  1.00  0.00     0.135 A 
ATOM     97  C   UNL A   1      47.287  30.976  35.745  1.00  0.00     0.135 A 
ATOM     98  F   UNL A   1      50.100  29.841  33.732  1.00  0.00    -0.206 F 
ATOM     99  C   UNL A   1      50.044  31.330  35.546  1.00  0.00     0.059 A 
ATOM    100  C   UNL A   1      47.928  31.845  36.622  1.00  0.00     0.059 A 
ATOM    101  F   UNL A   1      45.958  30.825  35.862  1.00  0.00    -0.206 F 
ATOM    102  C   UNL A   1      49.309  32.008  36.522  1.00  0.00     0.060 A 
BRANCH 102 103
ATOM    103  S   UNL A   1      50.178  33.132  37.636  1.00  0.00     0.124 S 
ATOM    104  O   UNL A   1      51.489  32.500  37.729  1.00  0.00    -0.237 OA
ATOM    105  O   UNL A   1      50.133  34.395  36.906  1.00  0.00    -0.237 OA
ATOM    106  O   UNL A   1      49.372  33.092  38.853  1.00  0.00    -0.744 OA
ENDBRANCH 102 103
ENDBRANCH  70  95
ENDBRANCH  44  45
ENDBRANCH  36  39
ENDBRANCH  34  35
ENDBRANCH  33  34
ENDBRANCH  32  33
ENDBRANCH   1  32
TORSDOF 20
ENDMDL
MODEL 3
REMARK VINA RESULT:     -10.4      8.509     15.664
REMARK SMILES C[C@H](Oc1ccc(/C=C2/SC(=S)N(c3ccc(F)cc3)C2=O)cc1)C(=O)NCCCCCCNC(=O)c1ccc(-c2c3nc(c(-c4c(F)cc(S(=O)(=O)[O-])cc4F)c4ccc([nH]4)c(-c4c(F)cc(S(=O)(=O)[O-])cc4F)c4nc(c(-c5c(F)cc(S(=O)(=O)[O-])cc5F)c5ccc2[nH]5)C=C4)C=C3)cc1
REMARK SMILES IDX 30 1 29 2 28 3 27 4 25 5 26 6 2 8 1 9 3 10 4 11 5 12 24 13
REMARK SMILES IDX 6 14 23 15 7 16 8 17 9 18 10 19 21 20 11 21 13 22 22 23
REMARK SMILES IDX 12 24 14 25 15 26 20 27 16 28 19 29 17 30 18 31 31 32 32 33
REMARK SMILES IDX 33 34 34 35 35 36 36 38 37 39 38 40 102 41 39 42 101 43
REMARK SMILES IDX 40 44 41 45 42 46 95 47 43 48 100 49 94 50 96 51 44 52 99 53
REMARK SMILES IDX 93 54 92 55 45 57 79 58 58 59 78 60 59 61 62 62 77 63 97 64
REMARK SMILES IDX 60 65 61 66 76 68 98 69 63 70 46 71 47 72 56 73 48 74 49 75
REMARK SMILES IDX 55 76 57 77 50 78 51 79 52 80 53 81 54 82 80 83 81 84 90 85
REMARK SMILES IDX 82 86 83 87 89 88 91 89 84 90 85 91 86 92 87 93 88 94 64 95
REMARK SMILES IDX 65 96 74 97 66 98 67 99 73 100 75 101 68 102 69 103 70 104
REMARK SMILES IDX 71 105 72 106
REMARK H PARENT 27 7 34 37 96 56 62 67
REMARK Flexibility Score: inf
ROOT
ATOM      1  C   UNL A   1      43.223  40.049  28.496  1.00  0.00     0.002 C 
ENDROOT
BRANCH   1   2
ATOM      2  C   UNL A   1      44.423  40.454  27.633  1.00  0.00     0.021 C 
BRANCH   2   3
ATOM      3  C   UNL A   1      44.237  41.751  26.852  1.00  0.00     0.116 C 
BRANCH   3   4
ATOM      4  N   UNL A   1      44.538  42.925  27.657  1.00  0.00    -0.353 N 
ATOM      5  C   UNL A   1      45.629  43.753  27.610  1.00  0.00     0.260 C 
ATOM      6  O   UNL A   1      45.667  44.710  28.389  1.00  0.00    -0.271 OA
ATOM      7  H   UNL A   1      43.861  43.158  28.333  1.00  0.00     0.163 HD
BRANCH   5   8
ATOM      8  C   UNL A   1      46.740  43.526  26.568  1.00  0.00     0.258 C 
ATOM      9  C   UNL A   1      48.084  43.727  27.271  1.00  0.00     0.064 C 
BRANCH   8  10
ATOM     10  O   UNL A   1      46.372  44.338  25.453  1.00  0.00    -0.481 OA
BRANCH  10  11
ATOM     11  C   UNL A   1      45.654  43.915  24.384  1.00  0.00     0.120 A 
ATOM     12  C   UNL A   1      46.045  43.012  23.405  1.00  0.00     0.047 A 
ATOM     13  C   UNL A   1      44.387  44.498  24.297  1.00  0.00     0.047 A 
ATOM     14  C   UNL A   1      45.233  42.794  22.284  1.00  0.00     0.012 A 
ATOM     15  C   UNL A   1      43.558  44.257  23.201  1.00  0.00     0.012 A 
ATOM     16  C   UNL A   1      44.001  43.446  22.155  1.00  0.00    -0.024 A 
BRANCH  16  17
ATOM     17  C   UNL A   1      43.181  43.213  20.963  1.00  0.00     0.029 C 
ATOM     18  C   UNL A   1      43.174  43.932  19.830  1.00  0.00     0.081 C 
ATOM     19  S   UNL A   1      42.064  43.592  18.557  1.00  0.00    -0.054 SA
ATOM     20  C   UNL A   1      44.011  45.121  19.470  1.00  0.00     0.270 C 
ATOM     21  C   UNL A   1      42.516  45.025  17.637  1.00  0.00     0.152 C 
ATOM     22  N   UNL A   1      43.520  45.713  18.305  1.00  0.00    -0.261 N 
ATOM     23  O   UNL A   1      44.955  45.504  20.146  1.00  0.00    -0.268 OA
ATOM     24  S   UNL A   1      41.806  45.324  16.153  1.00  0.00    -0.051 S 
BRANCH  22  25
ATOM     25  C   UNL A   1      44.050  46.967  17.877  1.00  0.00     0.051 A 
ATOM     26  C   UNL A   1      43.407  48.169  18.209  1.00  0.00     0.030 A 
ATOM     27  C   UNL A   1      45.198  47.016  17.067  1.00  0.00     0.030 A 
ATOM     28  C   UNL A   1      43.924  49.393  17.777  1.00  0.00     0.041 A 
ATOM     29  C   UNL A   1      45.699  48.238  16.617  1.00  0.00     0.041 A 
ATOM     30  C   UNL A   1      45.063  49.414  16.982  1.00  0.00     0.123 A 
ATOM     31  F   UNL A   1      45.546  50.580  16.538  1.00  0.00    -0.207 F 
ENDBRANCH  22  25
ENDBRANCH  16  17
ENDBRANCH  10  11
ENDBRANCH   8  10
ENDBRANCH   5   8
ENDBRANCH   3   4
ENDBRANCH   2   3
ENDBRANCH   1   2
BRANCH   1  32
ATOM     32  C   UNL A   1      43.533  39.081  29.642  1.00  0.00     0.002 C 
BRANCH  32  33
ATOM     33  C   UNL A   1      44.205  37.766  29.233  1.00  0.00     0.021 C 
BRANCH  33  34
ATOM     34  C   UNL A   1      45.418  37.370  30.071  1.00  0.00     0.116 C 
BRANCH  34  35
ATOM     35  N   UNL A   1      46.674  37.748  29.440  1.00  0.00    -0.352 N 
ATOM     36  C   UNL A   1      47.621  36.956  28.837  1.00  0.00     0.251 C 
ATOM     37  H   UNL A   1      46.874  38.712  29.446  1.00  0.00     0.163 HD
ATOM     38  O   UNL A   1      48.704  37.435  28.509  1.00  0.00    -0.269 OA
BRANCH  36  39
ATOM     39  C   UNL A   1      47.341  35.523  28.597  1.00  0.00     0.039 A 
ATOM     40  C   UNL A   1      47.583  34.597  29.615  1.00  0.00     0.014 A 
ATOM     41  C   UNL A   1      46.853  35.093  27.364  1.00  0.00     0.014 A 
ATOM     42  C   UNL A   1      47.256  33.249  29.422  1.00  0.00     0.010 A 
ATOM     43  C   UNL A   1      46.481  33.762  27.197  1.00  0.00     0.010 A 
ATOM     44  C   UNL A   1      46.660  32.823  28.224  1.00  0.00    -0.014 A 
BRANCH  44  45
ATOM     45  C   UNL A   1      46.195  31.421  28.034  1.00  0.00     0.031 A 
ATOM     46  C   UNL A   1      44.769  31.034  28.337  1.00  0.00     0.074 A 
ATOM     47  C   UNL A   1      47.075  30.468  27.660  1.00  0.00     0.049 A 
ATOM     48  N   UNL A   1      44.205  29.852  28.291  1.00  0.00    -0.248 NA
ATOM     49  C   UNL A   1      43.864  32.112  28.765  1.00  0.00     0.031 C 
ATOM     50  C   UNL A   1      48.497  30.687  27.389  1.00  0.00     0.029 A 
ATOM     51  N   UNL A   1      46.904  29.121  27.447  1.00  0.00    -0.354 N 
ATOM     52  C   UNL A   1      42.891  30.041  28.704  1.00  0.00     0.074 A 
ATOM     53  C   UNL A   1      42.753  31.442  29.039  1.00  0.00     0.031 C 
ATOM     54  C   UNL A   1      49.060  29.527  27.015  1.00  0.00     0.029 A 
ATOM     55  C   UNL A   1      48.052  28.471  27.055  1.00  0.00     0.049 A 
ATOM     56  H   UNL A   1      46.041  28.663  27.564  1.00  0.00     0.167 HD
ATOM     57  C   UNL A   1      41.883  29.139  28.775  1.00  0.00     0.037 A 
ATOM     58  C   UNL A   1      48.273  27.175  26.761  1.00  0.00     0.037 A 
ATOM     59  C   UNL A   1      42.006  27.750  28.415  1.00  0.00     0.049 A 
ATOM     60  C   UNL A   1      47.136  26.193  26.836  1.00  0.00     0.074 A 
ATOM     61  C   UNL A   1      41.025  26.774  28.399  1.00  0.00     0.029 A 
ATOM     62  N   UNL A   1      43.181  27.139  28.005  1.00  0.00    -0.354 N 
ATOM     63  N   UNL A   1      45.886  26.404  27.172  1.00  0.00    -0.248 NA
ATOM     64  C   UNL A   1      47.437  24.796  26.488  1.00  0.00     0.031 C 
ATOM     65  C   UNL A   1      41.612  25.566  28.010  1.00  0.00     0.029 A 
ATOM     66  C   UNL A   1      42.951  25.797  27.745  1.00  0.00     0.049 A 
ATOM     67  H   UNL A   1      44.051  27.592  27.912  1.00  0.00     0.167 HD
ATOM     68  C   UNL A   1      45.246  25.175  27.050  1.00  0.00     0.074 A 
ATOM     69  C   UNL A   1      46.244  24.226  26.602  1.00  0.00     0.031 C 
ATOM     70  C   UNL A   1      43.949  24.863  27.288  1.00  0.00     0.037 A 
BRANCH  57  71
ATOM     71  C   UNL A   1      40.542  29.632  29.246  1.00  0.00     0.058 A 
ATOM     72  C   UNL A   1      39.465  29.789  28.359  1.00  0.00     0.135 A 
ATOM     73  C   UNL A   1      40.316  29.911  30.605  1.00  0.00     0.135 A 
ATOM     74  F   UNL A   1      39.629  29.547  27.048  1.00  0.00    -0.206 F 
ATOM     75  C   UNL A   1      38.222  30.234  28.794  1.00  0.00     0.059 A 
ATOM     76  C   UNL A   1      39.072  30.333  31.066  1.00  0.00     0.059 A 
ATOM     77  F   UNL A   1      41.310  29.776  31.498  1.00  0.00    -0.206 F 
ATOM     78  C   UNL A   1      38.035  30.506  30.150  1.00  0.00     0.060 A 
BRANCH  78  79
ATOM     79  S   UNL A   1      36.414  31.080  30.700  1.00  0.00     0.124 S 
ATOM     80  O   UNL A   1      36.055  30.048  31.669  1.00  0.00    -0.237 OA
ATOM     81  O   UNL A   1      36.719  32.393  31.259  1.00  0.00    -0.237 OA
ATOM     82  O   UNL A   1      35.623  31.092  29.474  1.00  0.00    -0.744 OA
ENDBRANCH  78  79
ENDBRANCH  57  71
BRANCH  58  83
ATOM     83  C   UNL A   1      49.627  26.732  26.333  1.00  0.00     0.058 A 
ATOM     84  C   UNL A   1      49.967  26.680  24.973  1.00  0.00     0.135 A 
ATOM     85  C   UNL A   1      50.606  26.362  27.268  1.00  0.00     0.135 A 
ATOM     86  F   UNL A   1      49.061  27.016  24.042  1.00  0.00    -0.206 F 
ATOM     87  C   UNL A   1      51.226  26.266  24.551  1.00  0.00     0.059 A 
ATOM     88  C   UNL A   1      51.880  25.967  26.871  1.00  0.00     0.059 A 
ATOM     89  F   UNL A   1      50.335  26.411  28.580  1.00  0.00    -0.206 F 
ATOM     90  C   UNL A   1      52.177  25.912  25.510  1.00  0.00     0.060 A 
BRANCH  90  91
ATOM     91  S   UNL A   1      53.827  25.427  24.957  1.00  0.00     0.124 S 
ATOM     92  O   UNL A   1      54.632  25.732  26.133  1.00  0.00    -0.237 OA
ATOM     93  O   UNL A   1      53.646  24.009  24.656  1.00  0.00    -0.237 OA
ATOM     94  O   UNL A   1      54.054  26.282  23.795  1.00  0.00    -0.744 OA
ENDBRANCH  90  91
ENDBRANCH  58  83
BRANCH  70  95
ATOM     95  C   UNL A   1      43.518  23.445  27.037  1.00  0.00     0.058 A 
ATOM     96  C   UNL A   1      43.332  22.534  28.089  1.00  0.00     0.135 A 
ATOM     97  C   UNL A   1      43.235  23.009  25.732  1.00  0.00     0.135 A 
ATOM     98  F   UNL A   1      43.596  22.898  29.353  1.00  0.00    -0.206 F 
ATOM     99  C   UNL A   1      42.897  21.233  27.853  1.00  0.00     0.059 A 
ATOM    100  C   UNL A   1      42.775  21.720  25.477  1.00  0.00     0.059 A 
ATOM    101  F   UNL A   1      43.388  23.844  24.692  1.00  0.00    -0.206 F 
ATOM    102  C   UNL A   1      42.619  20.836  26.543  1.00  0.00     0.060 A 
BRANCH 102 103
ATOM    103  S   UNL A   1      42.017  19.158  26.255  1.00  0.00     0.124 S 
ATOM    104  O   UNL A   1      42.877  18.721  25.161  1.00  0.00    -0.237 OA
ATOM    105  O   UNL A   1      42.253  18.514  27.543  1.00  0.00    -0.237 OA
ATOM    106  O   UNL A   1      40.612  19.356  25.910  1.00  0.00    -0.744 OA
ENDBRANCH 102 103
ENDBRANCH  70  95
ENDBRANCH  44  45
ENDBRANCH  36  39
ENDBRANCH  34  35
ENDBRANCH  33  34
ENDBRANCH  32  33
ENDBRANCH   1  32
TORSDOF 20
ENDMDL
