MODEL 1
REMARK VINA RESULT:     -12.0      0.000      0.000
REMARK SMILES CCn1cccc1C(=O)N1CC[C@H](C(=O)NCCCCCCNC(=O)c2ccc(-c3c4nc(c(-c5c(F)cc(S(=O)(=O)[O-])cc5F)c5ccc([nH]5)c(-c5c(F)cc(S(=O)(=O)[O-])cc5F)c5nc(c(-c6c(F)cc(S(=O)(=O)[O-])cc6F)c6ccc3[nH]6)C=C5)C=C4)cc2)[C@H]1C
REMARK SMILES IDX 19 1 18 2 17 3 16 4 14 5 15 6 13 8 10 9 11 10 92 11 12 12
REMARK SMILES IDX 93 13 8 14 9 15 7 16 3 17 4 18 5 19 6 20 2 21 1 22 20 23
REMARK SMILES IDX 21 24 22 25 23 26 24 27 25 29 26 30 27 31 91 32 28 33 90 34
REMARK SMILES IDX 29 35 30 36 31 37 84 38 32 39 89 40 83 41 85 42 33 43 88 44
REMARK SMILES IDX 82 45 81 46 34 48 68 49 47 50 67 51 48 52 51 53 66 54 86 55
REMARK SMILES IDX 49 56 50 57 65 59 87 60 52 61 35 62 36 63 45 64 37 65 38 66
REMARK SMILES IDX 44 67 46 68 39 69 40 70 41 71 42 72 43 73 69 74 70 75 79 76
REMARK SMILES IDX 71 77 72 78 78 79 80 80 73 81 74 82 75 83 76 84 77 85 53 86
REMARK SMILES IDX 54 87 63 88 55 89 56 90 62 91 64 92 57 93 58 94 59 95 60 96
REMARK SMILES IDX 61 97
REMARK H PARENT 16 7 23 28 85 47 51 58
REMARK Flexibility Score: inf
ROOT
ATOM      1  C   UNL A   1      32.392  30.066  25.418  1.00  0.00     0.002 C 
ENDROOT
BRANCH   1   2
ATOM      2  C   UNL A   1      30.955  30.032  24.886  1.00  0.00     0.021 C 
BRANCH   2   3
ATOM      3  C   UNL A   1      30.778  29.155  23.651  1.00  0.00     0.116 C 
BRANCH   3   4
ATOM      4  N   UNL A   1      30.369  27.812  24.009  1.00  0.00    -0.356 N 
ATOM      5  C   UNL A   1      31.016  26.630  23.828  1.00  0.00     0.225 C 
ATOM      6  O   UNL A   1      30.501  25.608  24.280  1.00  0.00    -0.275 OA
ATOM      7  H   UNL A   1      29.491  27.746  24.451  1.00  0.00     0.163 HD
BRANCH   5   8
ATOM      8  C   UNL A   1      32.341  26.626  23.089  1.00  0.00     0.102 C 
ATOM      9  N   UNL A   1      33.704  24.657  22.933  1.00  0.00    -0.334 N 
ATOM     10  C   UNL A   1      33.859  25.224  24.261  1.00  0.00     0.121 C 
ATOM     11  C   UNL A   1      32.529  25.297  22.314  1.00  0.00     0.094 C 
ATOM     12  C   UNL A   1      33.520  26.681  24.066  1.00  0.00     0.037 C 
ATOM     13  C   UNL A   1      32.686  25.542  20.816  1.00  0.00     0.032 C 
BRANCH   9  14
ATOM     14  C   UNL A   1      33.820  23.269  22.879  1.00  0.00     0.270 C 
ATOM     15  O   UNL A   1      32.955  22.611  22.299  1.00  0.00    -0.267 OA
BRANCH  14  16
ATOM     16  C   UNL A   1      34.927  22.632  23.587  1.00  0.00     0.107 A 
ATOM     17  N   UNL A   1      34.960  21.646  24.562  1.00  0.00    -0.344 N 
ATOM     18  C   UNL A   1      36.264  21.420  24.952  1.00  0.00     0.086 A 
ATOM     19  C   UNL A   1      37.092  22.199  24.186  1.00  0.00     0.020 A 
ATOM     20  C   UNL A   1      36.263  22.940  23.324  1.00  0.00     0.033 A 
BRANCH  17  21
ATOM     21  C   UNL A   1      33.855  20.959  25.202  1.00  0.00     0.119 C 
ATOM     22  C   UNL A   1      33.416  19.676  24.524  1.00  0.00     0.027 C 
ENDBRANCH  17  21
ENDBRANCH  14  16
ENDBRANCH   9  14
ENDBRANCH   5   8
ENDBRANCH   3   4
ENDBRANCH   2   3
ENDBRANCH   1   2
BRANCH   1  23
ATOM     23  C   UNL A   1      32.526  29.806  26.924  1.00  0.00     0.002 C 
BRANCH  23  24
ATOM     24  C   UNL A   1      33.354  28.567  27.294  1.00  0.00     0.021 C 
BRANCH  24  25
ATOM     25  C   UNL A   1      34.843  28.736  27.015  1.00  0.00     0.116 C 
BRANCH  25  26
ATOM     26  N   UNL A   1      35.236  30.125  27.197  1.00  0.00    -0.352 N 
ATOM     27  C   UNL A   1      36.261  30.638  27.937  1.00  0.00     0.251 C 
ATOM     28  H   UNL A   1      34.685  30.787  26.720  1.00  0.00     0.163 HD
ATOM     29  O   UNL A   1      36.216  31.823  28.288  1.00  0.00    -0.269 OA
BRANCH  27  30
ATOM     30  C   UNL A   1      37.411  29.804  28.322  1.00  0.00     0.039 A 
ATOM     31  C   UNL A   1      38.526  29.779  27.476  1.00  0.00     0.014 A 
ATOM     32  C   UNL A   1      37.356  28.983  29.454  1.00  0.00     0.014 A 
ATOM     33  C   UNL A   1      39.605  28.962  27.789  1.00  0.00     0.010 A 
ATOM     34  C   UNL A   1      38.445  28.191  29.788  1.00  0.00     0.010 A 
ATOM     35  C   UNL A   1      39.565  28.182  28.953  1.00  0.00    -0.014 A 
BRANCH  35  36
ATOM     36  C   UNL A   1      40.783  27.468  29.379  1.00  0.00     0.031 A 
ATOM     37  C   UNL A   1      41.011  26.217  28.488  1.00  0.00     0.074 A 
ATOM     38  C   UNL A   1      41.455  27.998  30.453  1.00  0.00     0.049 A 
ATOM     39  N   UNL A   1      41.519  25.066  28.794  1.00  0.00    -0.248 NA
ATOM     40  C   UNL A   1      40.508  26.199  27.081  1.00  0.00     0.031 C 
ATOM     41  C   UNL A   1      41.070  29.242  31.171  1.00  0.00     0.029 A 
ATOM     42  N   UNL A   1      42.584  27.637  31.165  1.00  0.00    -0.354 N 
ATOM     43  C   UNL A   1      41.621  24.298  27.605  1.00  0.00     0.074 A 
ATOM     44  C   UNL A   1      40.843  24.986  26.623  1.00  0.00     0.031 C 
ATOM     45  C   UNL A   1      41.871  29.467  32.238  1.00  0.00     0.029 A 
ATOM     46  C   UNL A   1      42.877  28.426  32.319  1.00  0.00     0.049 A 
ATOM     47  H   UNL A   1      43.151  26.880  30.893  1.00  0.00     0.167 HD
ATOM     48  C   UNL A   1      42.489  23.244  27.477  1.00  0.00     0.037 A 
ATOM     49  C   UNL A   1      43.839  28.226  33.280  1.00  0.00     0.037 A 
ATOM     50  C   UNL A   1      43.274  23.160  28.664  1.00  0.00     0.049 A 
ATOM     51  C   UNL A   1      44.669  27.140  32.745  1.00  0.00     0.074 A 
ATOM     52  C   UNL A   1      42.947  22.819  29.950  1.00  0.00     0.029 A 
ATOM     53  N   UNL A   1      44.442  23.890  28.658  1.00  0.00    -0.354 N 
ATOM     54  N   UNL A   1      45.477  27.258  31.736  1.00  0.00    -0.248 NA
ATOM     55  C   UNL A   1      44.530  25.803  33.332  1.00  0.00     0.031 C 
ATOM     56  C   UNL A   1      43.605  23.814  30.695  1.00  0.00     0.029 A 
ATOM     57  C   UNL A   1      44.549  24.470  29.892  1.00  0.00     0.049 A 
ATOM     58  H   UNL A   1      45.076  23.979  27.910  1.00  0.00     0.167 HD
ATOM     59  C   UNL A   1      45.644  25.953  31.354  1.00  0.00     0.074 A 
ATOM     60  C   UNL A   1      45.331  25.131  32.509  1.00  0.00     0.031 C 
ATOM     61  C   UNL A   1      45.394  25.628  30.059  1.00  0.00     0.037 A 
BRANCH  48  62
ATOM     62  C   UNL A   1      42.990  22.406  26.328  1.00  0.00     0.058 A 
ATOM     63  C   UNL A   1      42.655  21.023  26.338  1.00  0.00     0.135 A 
ATOM     64  C   UNL A   1      44.039  22.778  25.481  1.00  0.00     0.135 A 
ATOM     65  F   UNL A   1      41.623  20.572  27.072  1.00  0.00    -0.206 F 
ATOM     66  C   UNL A   1      43.410  20.061  25.679  1.00  0.00     0.059 A 
ATOM     67  C   UNL A   1      44.786  21.828  24.771  1.00  0.00     0.059 A 
ATOM     68  F   UNL A   1      44.422  24.060  25.386  1.00  0.00    -0.206 F 
ATOM     69  C   UNL A   1      44.498  20.470  24.920  1.00  0.00     0.060 A 
BRANCH  69  70
ATOM     70  S   UNL A   1      45.533  19.195  24.167  1.00  0.00     0.124 S 
ATOM     71  O   UNL A   1      44.884  19.007  22.874  1.00  0.00    -0.237 OA
ATOM     72  O   UNL A   1      46.841  19.844  24.129  1.00  0.00    -0.237 OA
ATOM     73  O   UNL A   1      45.424  18.079  25.101  1.00  0.00    -0.744 OA
ENDBRANCH  69  70
ENDBRANCH  48  62
BRANCH  49  74
ATOM     74  C   UNL A   1      44.222  28.664  34.689  1.00  0.00     0.058 A 
ATOM     75  C   UNL A   1      45.469  29.146  35.098  1.00  0.00     0.135 A 
ATOM     76  C   UNL A   1      43.185  28.845  35.658  1.00  0.00     0.135 A 
ATOM     77  F   UNL A   1      46.567  28.916  34.368  1.00  0.00    -0.206 F 
ATOM     78  C   UNL A   1      45.623  29.922  36.269  1.00  0.00     0.059 A 
ATOM     79  C   UNL A   1      43.292  29.669  36.773  1.00  0.00     0.059 A 
ATOM     80  F   UNL A   1      41.980  28.274  35.514  1.00  0.00    -0.206 F 
ATOM     81  C   UNL A   1      44.513  30.247  37.052  1.00  0.00     0.060 A 
BRANCH  81  82
ATOM     82  S   UNL A   1      44.604  31.532  38.322  1.00  0.00     0.124 S 
ATOM     83  O   UNL A   1      45.904  31.272  38.930  1.00  0.00    -0.237 OA
ATOM     84  O   UNL A   1      44.501  32.757  37.534  1.00  0.00    -0.237 OA
ATOM     85  O   UNL A   1      43.447  31.251  39.169  1.00  0.00    -0.744 OA
ENDBRANCH  81  82
ENDBRANCH  49  74
BRANCH  61  86
ATOM     86  C   UNL A   1      45.694  26.717  29.037  1.00  0.00     0.058 A 
ATOM     87  C   UNL A   1      47.012  27.191  28.889  1.00  0.00     0.135 A 
ATOM     88  C   UNL A   1      44.733  27.361  28.237  1.00  0.00     0.135 A 
ATOM     89  F   UNL A   1      48.006  26.632  29.598  1.00  0.00    -0.206 F 
ATOM     90  C   UNL A   1      47.351  28.225  28.010  1.00  0.00     0.059 A 
ATOM     91  C   UNL A   1      45.044  28.396  27.344  1.00  0.00     0.059 A 
ATOM     92  F   UNL A   1      43.453  26.998  28.295  1.00  0.00    -0.206 F 
ATOM     93  C   UNL A   1      46.362  28.818  27.231  1.00  0.00     0.060 A 
BRANCH  93  94
ATOM     94  S   UNL A   1      46.833  30.093  26.037  1.00  0.00     0.124 S 
ATOM     95  O   UNL A   1      46.640  29.415  24.760  1.00  0.00    -0.237 OA
ATOM     96  O   UNL A   1      45.879  31.157  26.338  1.00  0.00    -0.237 OA
ATOM     97  O   UNL A   1      48.222  30.390  26.379  1.00  0.00    -0.744 OA
ENDBRANCH  93  94
ENDBRANCH  61  86
ENDBRANCH  35  36
ENDBRANCH  27  30
ENDBRANCH  25  26
ENDBRANCH  24  25
ENDBRANCH  23  24
ENDBRANCH   1  23
TORSDOF 19
ENDMDL
MODEL 2
REMARK VINA RESULT:     -11.6      1.215      2.125
REMARK SMILES CCn1cccc1C(=O)N1CC[C@H](C(=O)NCCCCCCNC(=O)c2ccc(-c3c4nc(c(-c5c(F)cc(S(=O)(=O)[O-])cc5F)c5ccc([nH]5)c(-c5c(F)cc(S(=O)(=O)[O-])cc5F)c5nc(c(-c6c(F)cc(S(=O)(=O)[O-])cc6F)c6ccc3[nH]6)C=C5)C=C4)cc2)[C@H]1C
REMARK SMILES IDX 19 1 18 2 17 3 16 4 14 5 15 6 13 8 10 9 11 10 92 11 12 12
REMARK SMILES IDX 93 13 8 14 9 15 7 16 3 17 4 18 5 19 6 20 2 21 1 22 20 23
REMARK SMILES IDX 21 24 22 25 23 26 24 27 25 29 26 30 27 31 91 32 28 33 90 34
REMARK SMILES IDX 29 35 30 36 31 37 84 38 32 39 89 40 83 41 85 42 33 43 88 44
REMARK SMILES IDX 82 45 81 46 34 48 68 49 47 50 67 51 48 52 51 53 66 54 86 55
REMARK SMILES IDX 49 56 50 57 65 59 87 60 52 61 35 62 36 63 45 64 37 65 38 66
REMARK SMILES IDX 44 67 46 68 39 69 40 70 41 71 42 72 43 73 69 74 70 75 79 76
REMARK SMILES IDX 71 77 72 78 78 79 80 80 73 81 74 82 75 83 76 84 77 85 53 86
REMARK SMILES IDX 54 87 63 88 55 89 56 90 62 91 64 92 57 93 58 94 59 95 60 96
REMARK SMILES IDX 61 97
REMARK H PARENT 16 7 23 28 85 47 51 58
REMARK Flexibility Score: inf
ROOT
ATOM      1  C   UNL A   1      32.680  29.335  24.736  1.00  0.00     0.002 C 
ENDROOT
BRANCH   1   2
ATOM      2  C   UNL A   1      31.307  29.286  24.058  1.00  0.00     0.021 C 
BRANCH   2   3
ATOM      3  C   UNL A   1      30.876  27.884  23.641  1.00  0.00     0.116 C 
BRANCH   3   4
ATOM      4  N   UNL A   1      30.267  27.167  24.744  1.00  0.00    -0.356 N 
ATOM      5  C   UNL A   1      30.723  26.090  25.437  1.00  0.00     0.225 C 
ATOM      6  O   UNL A   1      30.059  25.687  26.391  1.00  0.00    -0.275 OA
ATOM      7  H   UNL A   1      29.393  27.514  25.036  1.00  0.00     0.163 HD
BRANCH   5   8
ATOM      8  C   UNL A   1      32.027  25.443  25.009  1.00  0.00     0.102 C 
ATOM      9  N   UNL A   1      32.450  23.103  25.331  1.00  0.00    -0.334 N 
ATOM     10  C   UNL A   1      32.608  23.783  26.605  1.00  0.00     0.121 C 
ATOM     11  C   UNL A   1      31.767  24.035  24.416  1.00  0.00     0.094 C 
ATOM     12  C   UNL A   1      32.945  25.200  26.211  1.00  0.00     0.037 C 
ATOM     13  C   UNL A   1      32.255  23.939  22.973  1.00  0.00     0.032 C 
BRANCH   9  14
ATOM     14  C   UNL A   1      31.984  21.793  25.428  1.00  0.00     0.270 C 
ATOM     15  O   UNL A   1      30.854  21.583  25.872  1.00  0.00    -0.267 OA
BRANCH  14  16
ATOM     16  C   UNL A   1      32.888  20.701  25.074  1.00  0.00     0.107 A 
ATOM     17  N   UNL A   1      34.258  20.545  25.225  1.00  0.00    -0.344 N 
ATOM     18  C   UNL A   1      34.653  19.342  24.678  1.00  0.00     0.086 A 
ATOM     19  C   UNL A   1      33.539  18.675  24.235  1.00  0.00     0.020 A 
ATOM     20  C   UNL A   1      32.439  19.513  24.496  1.00  0.00     0.033 A 
BRANCH  17  21
ATOM     21  C   UNL A   1      35.226  21.472  25.777  1.00  0.00     0.119 C 
ATOM     22  C   UNL A   1      35.848  22.426  24.776  1.00  0.00     0.027 C 
ENDBRANCH  17  21
ENDBRANCH  14  16
ENDBRANCH   9  14
ENDBRANCH   5   8
ENDBRANCH   3   4
ENDBRANCH   2   3
ENDBRANCH   1   2
BRANCH   1  23
ATOM     23  C   UNL A   1      32.653  29.756  26.211  1.00  0.00     0.002 C 
BRANCH  23  24
ATOM     24  C   UNL A   1      33.336  28.777  27.175  1.00  0.00     0.021 C 
BRANCH  24  25
ATOM     25  C   UNL A   1      34.858  28.832  27.107  1.00  0.00     0.116 C 
BRANCH  25  26
ATOM     26  N   UNL A   1      35.318  30.210  27.189  1.00  0.00    -0.352 N 
ATOM     27  C   UNL A   1      36.390  30.719  27.863  1.00  0.00     0.251 C 
ATOM     28  H   UNL A   1      34.780  30.866  26.690  1.00  0.00     0.163 HD
ATOM     29  O   UNL A   1      36.409  31.924  28.140  1.00  0.00    -0.269 OA
BRANCH  27  30
ATOM     30  C   UNL A   1      37.515  29.858  28.261  1.00  0.00     0.039 A 
ATOM     31  C   UNL A   1      38.650  29.826  27.442  1.00  0.00     0.014 A 
ATOM     32  C   UNL A   1      37.417  29.020  29.378  1.00  0.00     0.014 A 
ATOM     33  C   UNL A   1      39.705  28.985  27.768  1.00  0.00     0.010 A 
ATOM     34  C   UNL A   1      38.483  28.202  29.725  1.00  0.00     0.010 A 
ATOM     35  C   UNL A   1      39.623  28.187  28.918  1.00  0.00    -0.014 A 
BRANCH  35  36
ATOM     36  C   UNL A   1      40.817  27.443  29.361  1.00  0.00     0.031 A 
ATOM     37  C   UNL A   1      41.038  26.197  28.463  1.00  0.00     0.074 A 
ATOM     38  C   UNL A   1      41.478  27.950  30.454  1.00  0.00     0.049 A 
ATOM     39  N   UNL A   1      41.516  25.032  28.768  1.00  0.00    -0.248 NA
ATOM     40  C   UNL A   1      40.563  26.202  27.046  1.00  0.00     0.031 C 
ATOM     41  C   UNL A   1      41.104  29.195  31.176  1.00  0.00     0.029 A 
ATOM     42  N   UNL A   1      42.584  27.559  31.185  1.00  0.00    -0.354 N 
ATOM     43  C   UNL A   1      41.626  24.273  27.574  1.00  0.00     0.074 A 
ATOM     44  C   UNL A   1      40.882  24.987  26.584  1.00  0.00     0.031 C 
ATOM     45  C   UNL A   1      41.888  29.393  32.261  1.00  0.00     0.029 A 
ATOM     46  C   UNL A   1      42.870  28.331  32.352  1.00  0.00     0.049 A 
ATOM     47  H   UNL A   1      43.141  26.793  30.917  1.00  0.00     0.167 HD
ATOM     48  C   UNL A   1      42.475  23.203  27.454  1.00  0.00     0.037 A 
ATOM     49  C   UNL A   1      43.808  28.102  33.331  1.00  0.00     0.037 A 
ATOM     50  C   UNL A   1      43.233  23.092  28.656  1.00  0.00     0.049 A 
ATOM     51  C   UNL A   1      44.626  27.004  32.802  1.00  0.00     0.074 A 
ATOM     52  C   UNL A   1      42.873  22.746  29.931  1.00  0.00     0.029 A 
ATOM     53  N   UNL A   1      44.415  23.798  28.681  1.00  0.00    -0.354 N 
ATOM     54  N   UNL A   1      45.457  27.115  31.811  1.00  0.00    -0.248 NA
ATOM     55  C   UNL A   1      44.447  25.665  33.373  1.00  0.00     0.031 C 
ATOM     56  C   UNL A   1      43.536  23.720  30.699  1.00  0.00     0.029 A 
ATOM     57  C   UNL A   1      44.509  24.363  29.922  1.00  0.00     0.049 A 
ATOM     58  H   UNL A   1      45.067  23.880  27.946  1.00  0.00     0.167 HD
ATOM     59  C   UNL A   1      45.604  25.810  31.420  1.00  0.00     0.074 A 
ATOM     60  C   UNL A   1      45.252  24.984  32.560  1.00  0.00     0.031 C 
ATOM     61  C   UNL A   1      45.374  25.503  30.116  1.00  0.00     0.037 A 
BRANCH  48  62
ATOM     62  C   UNL A   1      42.981  22.365  26.307  1.00  0.00     0.058 A 
ATOM     63  C   UNL A   1      42.652  20.981  26.319  1.00  0.00     0.135 A 
ATOM     64  C   UNL A   1      44.031  22.741  25.462  1.00  0.00     0.135 A 
ATOM     65  F   UNL A   1      41.621  20.527  27.051  1.00  0.00    -0.206 F 
ATOM     66  C   UNL A   1      43.413  20.020  25.663  1.00  0.00     0.059 A 
ATOM     67  C   UNL A   1      44.783  21.792  24.755  1.00  0.00     0.059 A 
ATOM     68  F   UNL A   1      44.408  24.023  25.365  1.00  0.00    -0.206 F 
ATOM     69  C   UNL A   1      44.500  20.433  24.906  1.00  0.00     0.060 A 
BRANCH  69  70
ATOM     70  S   UNL A   1      45.542  19.162  24.157  1.00  0.00     0.124 S 
ATOM     71  O   UNL A   1      45.391  18.057  25.097  1.00  0.00    -0.237 OA
ATOM     72  O   UNL A   1      44.908  18.973  22.854  1.00  0.00    -0.237 OA
ATOM     73  O   UNL A   1      46.860  19.787  24.117  1.00  0.00    -0.744 OA
ENDBRANCH  69  70
ENDBRANCH  48  62
BRANCH  49  74
ATOM     74  C   UNL A   1      44.171  28.519  34.751  1.00  0.00     0.058 A 
ATOM     75  C   UNL A   1      43.712  27.931  35.933  1.00  0.00     0.135 A 
ATOM     76  C   UNL A   1      45.258  29.431  34.942  1.00  0.00     0.135 A 
ATOM     77  F   UNL A   1      42.607  27.175  35.938  1.00  0.00    -0.206 F 
ATOM     78  C   UNL A   1      44.404  28.073  37.157  1.00  0.00     0.059 A 
ATOM     79  C   UNL A   1      46.002  29.525  36.113  1.00  0.00     0.059 A 
ATOM     80  F   UNL A   1      45.693  30.225  33.953  1.00  0.00    -0.206 F 
ATOM     81  C   UNL A   1      45.593  28.803  37.215  1.00  0.00     0.060 A 
BRANCH  81  82
ATOM     82  S   UNL A   1      46.693  28.692  38.648  1.00  0.00     0.124 S 
ATOM     83  O   UNL A   1      47.832  29.497  38.223  1.00  0.00    -0.237 OA
ATOM     84  O   UNL A   1      45.873  29.259  39.714  1.00  0.00    -0.237 OA
ATOM     85  O   UNL A   1      46.946  27.258  38.767  1.00  0.00    -0.744 OA
ENDBRANCH  81  82
ENDBRANCH  49  74
BRANCH  61  86
ATOM     86  C   UNL A   1      45.718  26.594  29.111  1.00  0.00     0.058 A 
ATOM     87  C   UNL A   1      44.714  27.103  28.264  1.00  0.00     0.135 A 
ATOM     88  C   UNL A   1      47.004  27.121  28.901  1.00  0.00     0.135 A 
ATOM     89  F   UNL A   1      43.449  26.674  28.395  1.00  0.00    -0.206 F 
ATOM     90  C   UNL A   1      44.969  28.066  27.282  1.00  0.00     0.059 A 
ATOM     91  C   UNL A   1      47.288  28.091  27.928  1.00  0.00     0.059 A 
ATOM     92  F   UNL A   1      48.032  26.712  29.642  1.00  0.00    -0.206 F 
ATOM     93  C   UNL A   1      46.259  28.564  27.125  1.00  0.00     0.060 A 
BRANCH  93  94
ATOM     94  S   UNL A   1      46.552  29.872  25.910  1.00  0.00     0.124 S 
ATOM     95  O   UNL A   1      47.835  30.420  26.339  1.00  0.00    -0.237 OA
ATOM     96  O   UNL A   1      46.573  29.123  24.657  1.00  0.00    -0.237 OA
ATOM     97  O   UNL A   1      45.408  30.765  26.081  1.00  0.00    -0.744 OA
ENDBRANCH  93  94
ENDBRANCH  61  86
ENDBRANCH  35  36
ENDBRANCH  27  30
ENDBRANCH  25  26
ENDBRANCH  24  25
ENDBRANCH  23  24
ENDBRANCH   1  23
TORSDOF 19
ENDMDL
MODEL 3
REMARK VINA RESULT:     -11.2      2.980      9.141
REMARK SMILES CCn1cccc1C(=O)N1CC[C@H](C(=O)NCCCCCCNC(=O)c2ccc(-c3c4nc(c(-c5c(F)cc(S(=O)(=O)[O-])cc5F)c5ccc([nH]5)c(-c5c(F)cc(S(=O)(=O)[O-])cc5F)c5nc(c(-c6c(F)cc(S(=O)(=O)[O-])cc6F)c6ccc3[nH]6)C=C5)C=C4)cc2)[C@H]1C
REMARK SMILES IDX 19 1 18 2 17 3 16 4 14 5 15 6 13 8 10 9 11 10 92 11 12 12
REMARK SMILES IDX 93 13 8 14 9 15 7 16 3 17 4 18 5 19 6 20 2 21 1 22 20 23
REMARK SMILES IDX 21 24 22 25 23 26 24 27 25 29 26 30 27 31 91 32 28 33 90 34
REMARK SMILES IDX 29 35 30 36 31 37 84 38 32 39 89 40 83 41 85 42 33 43 88 44
REMARK SMILES IDX 82 45 81 46 34 48 68 49 47 50 67 51 48 52 51 53 66 54 86 55
REMARK SMILES IDX 49 56 50 57 65 59 87 60 52 61 35 62 36 63 45 64 37 65 38 66
REMARK SMILES IDX 44 67 46 68 39 69 40 70 41 71 42 72 43 73 69 74 70 75 79 76
REMARK SMILES IDX 71 77 72 78 78 79 80 80 73 81 74 82 75 83 76 84 77 85 53 86
REMARK SMILES IDX 54 87 63 88 55 89 56 90 62 91 64 92 57 93 58 94 59 95 60 96
REMARK SMILES IDX 61 97
REMARK H PARENT 16 7 23 28 85 47 51 58
REMARK Flexibility Score: inf
ROOT
ATOM      1  C   UNL A   1      31.632  29.707  25.384  1.00  0.00     0.002 C 
ENDROOT
BRANCH   1   2
ATOM      2  C   UNL A   1      32.480  29.147  24.238  1.00  0.00     0.021 C 
BRANCH   2   3
ATOM      3  C   UNL A   1      31.675  28.380  23.194  1.00  0.00     0.116 C 
BRANCH   3   4
ATOM      4  N   UNL A   1      32.541  27.717  22.239  1.00  0.00    -0.356 N 
ATOM      5  C   UNL A   1      32.917  26.413  22.168  1.00  0.00     0.225 C 
ATOM      6  O   UNL A   1      33.614  26.058  21.218  1.00  0.00    -0.275 OA
ATOM      7  H   UNL A   1      32.912  28.299  21.537  1.00  0.00     0.163 HD
BRANCH   5   8
ATOM      8  C   UNL A   1      32.454  25.457  23.252  1.00  0.00     0.102 C 
ATOM      9  N   UNL A   1      33.989  24.056  24.451  1.00  0.00    -0.334 N 
ATOM     10  C   UNL A   1      33.770  23.483  23.134  1.00  0.00     0.121 C 
ATOM     11  C   UNL A   1      33.466  25.434  24.425  1.00  0.00     0.094 C 
ATOM     12  C   UNL A   1      32.415  24.014  22.738  1.00  0.00     0.037 C 
ATOM     13  C   UNL A   1      32.811  25.861  25.735  1.00  0.00     0.032 C 
BRANCH   9  14
ATOM     14  C   UNL A   1      35.260  23.829  24.976  1.00  0.00     0.270 C 
ATOM     15  O   UNL A   1      35.922  24.780  25.395  1.00  0.00    -0.267 OA
BRANCH  14  16
ATOM     16  C   UNL A   1      35.801  22.472  24.937  1.00  0.00     0.107 A 
ATOM     17  N   UNL A   1      35.279  21.254  25.346  1.00  0.00    -0.344 N 
ATOM     18  C   UNL A   1      36.209  20.256  25.141  1.00  0.00     0.086 A 
ATOM     19  C   UNL A   1      37.310  20.801  24.532  1.00  0.00     0.020 A 
ATOM     20  C   UNL A   1      37.050  22.176  24.390  1.00  0.00     0.033 A 
BRANCH  17  21
ATOM     21  C   UNL A   1      34.005  20.974  25.979  1.00  0.00     0.119 C 
ATOM     22  C   UNL A   1      33.878  21.454  27.412  1.00  0.00     0.027 C 
ENDBRANCH  17  21
ENDBRANCH  14  16
ENDBRANCH   9  14
ENDBRANCH   5   8
ENDBRANCH   3   4
ENDBRANCH   2   3
ENDBRANCH   1   2
BRANCH   1  23
ATOM     23  C   UNL A   1      32.340  29.757  26.743  1.00  0.00     0.002 C 
BRANCH  23  24
ATOM     24  C   UNL A   1      32.768  31.160  27.197  1.00  0.00     0.021 C 
BRANCH  24  25
ATOM     25  C   UNL A   1      34.103  31.169  27.934  1.00  0.00     0.116 C 
BRANCH  25  26
ATOM     26  N   UNL A   1      34.040  32.064  29.080  1.00  0.00    -0.352 N 
ATOM     27  C   UNL A   1      34.837  32.098  30.187  1.00  0.00     0.251 C 
ATOM     28  H   UNL A   1      33.322  32.737  29.053  1.00  0.00     0.163 HD
ATOM     29  O   UNL A   1      34.418  32.645  31.214  1.00  0.00    -0.269 OA
BRANCH  27  30
ATOM     30  C   UNL A   1      36.180  31.495  30.175  1.00  0.00     0.039 A 
ATOM     31  C   UNL A   1      37.071  31.877  29.165  1.00  0.00     0.014 A 
ATOM     32  C   UNL A   1      36.527  30.495  31.092  1.00  0.00     0.014 A 
ATOM     33  C   UNL A   1      38.326  31.287  29.101  1.00  0.00     0.010 A 
ATOM     34  C   UNL A   1      37.791  29.927  31.051  1.00  0.00     0.010 A 
ATOM     35  C   UNL A   1      38.687  30.325  30.054  1.00  0.00    -0.014 A 
BRANCH  35  36
ATOM     36  C   UNL A   1      40.080  29.844  30.097  1.00  0.00     0.031 A 
ATOM     37  C   UNL A   1      41.006  30.932  30.705  1.00  0.00     0.074 A 
ATOM     38  C   UNL A   1      40.305  28.586  29.594  1.00  0.00     0.049 A 
ATOM     39  N   UNL A   1      42.240  31.215  30.431  1.00  0.00    -0.248 NA
ATOM     40  C   UNL A   1      40.456  31.921  31.681  1.00  0.00     0.031 C 
ATOM     41  C   UNL A   1      39.253  27.679  29.062  1.00  0.00     0.029 A 
ATOM     42  N   UNL A   1      41.426  27.795  29.424  1.00  0.00    -0.354 N 
ATOM     43  C   UNL A   1      42.676  32.213  31.339  1.00  0.00     0.074 A 
ATOM     44  C   UNL A   1      41.496  32.713  31.972  1.00  0.00     0.031 C 
ATOM     45  C   UNL A   1      39.787  26.541  28.559  1.00  0.00     0.029 A 
ATOM     46  C   UNL A   1      41.226  26.561  28.733  1.00  0.00     0.049 A 
ATOM     47  H   UNL A   1      42.311  28.067  29.760  1.00  0.00     0.167 HD
ATOM     48  C   UNL A   1      44.000  32.425  31.626  1.00  0.00     0.037 A 
ATOM     49  C   UNL A   1      42.162  25.650  28.305  1.00  0.00     0.037 A 
ATOM     50  C   UNL A   1      44.772  31.437  30.947  1.00  0.00     0.049 A 
ATOM     51  C   UNL A   1      43.417  26.100  28.918  1.00  0.00     0.074 A 
ATOM     52  C   UNL A   1      45.025  31.235  29.616  1.00  0.00     0.029 A 
ATOM     53  N   UNL A   1      44.992  30.270  31.645  1.00  0.00    -0.354 N 
ATOM     54  N   UNL A   1      43.688  26.021  30.185  1.00  0.00    -0.248 NA
ATOM     55  C   UNL A   1      44.413  26.756  28.065  1.00  0.00     0.031 C 
ATOM     56  C   UNL A   1      44.842  29.847  29.489  1.00  0.00     0.029 A 
ATOM     57  C   UNL A   1      44.839  29.244  30.755  1.00  0.00     0.049 A 
ATOM     58  H   UNL A   1      45.216  30.191  32.601  1.00  0.00     0.167 HD
ATOM     59  C   UNL A   1      44.698  26.937  30.314  1.00  0.00     0.074 A 
ATOM     60  C   UNL A   1      45.296  27.097  29.001  1.00  0.00     0.031 C 
ATOM     61  C   UNL A   1      44.560  27.916  31.247  1.00  0.00     0.037 A 
BRANCH  48  62
ATOM     62  C   UNL A   1      44.756  33.209  32.669  1.00  0.00     0.058 A 
ATOM     63  C   UNL A   1      44.487  32.905  34.032  1.00  0.00     0.135 A 
ATOM     64  C   UNL A   1      45.393  34.431  32.425  1.00  0.00     0.135 A 
ATOM     65  F   UNL A   1      43.932  31.730  34.377  1.00  0.00    -0.206 F 
ATOM     66  C   UNL A   1      44.691  33.816  35.062  1.00  0.00     0.059 A 
ATOM     67  C   UNL A   1      45.650  35.346  33.456  1.00  0.00     0.059 A 
ATOM     68  F   UNL A   1      45.706  34.804  31.177  1.00  0.00    -0.206 F 
ATOM     69  C   UNL A   1      45.245  35.052  34.759  1.00  0.00     0.060 A 
BRANCH  69  70
ATOM     70  S   UNL A   1      45.394  36.262  36.092  1.00  0.00     0.124 S 
ATOM     71  O   UNL A   1      44.682  35.601  37.179  1.00  0.00    -0.237 OA
ATOM     72  O   UNL A   1      46.842  36.363  36.255  1.00  0.00    -0.237 OA
ATOM     73  O   UNL A   1      44.751  37.450  35.540  1.00  0.00    -0.744 OA
ENDBRANCH  69  70
ENDBRANCH  48  62
BRANCH  49  74
ATOM     74  C   UNL A   1      42.322  24.464  27.361  1.00  0.00     0.058 A 
ATOM     75  C   UNL A   1      42.344  24.511  25.964  1.00  0.00     0.135 A 
ATOM     76  C   UNL A   1      42.728  23.204  27.904  1.00  0.00     0.135 A 
ATOM     77  F   UNL A   1      41.849  25.566  25.306  1.00  0.00    -0.206 F 
ATOM     78  C   UNL A   1      42.917  23.477  25.190  1.00  0.00     0.059 A 
ATOM     79  C   UNL A   1      43.367  22.207  27.174  1.00  0.00     0.059 A 
ATOM     80  F   UNL A   1      42.583  22.919  29.207  1.00  0.00    -0.206 F 
ATOM     81  C   UNL A   1      43.500  22.371  25.811  1.00  0.00     0.060 A 
BRANCH  81  82
ATOM     82  S   UNL A   1      44.565  21.232  24.892  1.00  0.00     0.124 S 
ATOM     83  O   UNL A   1      45.816  21.311  25.638  1.00  0.00    -0.237 OA
ATOM     84  O   UNL A   1      43.837  19.971  24.998  1.00  0.00    -0.237 OA
ATOM     85  O   UNL A   1      44.596  21.809  23.550  1.00  0.00    -0.744 OA
ENDBRANCH  81  82
ENDBRANCH  49  74
BRANCH  61  86
ATOM     86  C   UNL A   1      43.780  27.530  32.497  1.00  0.00     0.058 A 
ATOM     87  C   UNL A   1      44.242  26.478  33.310  1.00  0.00     0.135 A 
ATOM     88  C   UNL A   1      42.564  28.108  32.899  1.00  0.00     0.135 A 
ATOM     89  F   UNL A   1      45.403  25.869  33.018  1.00  0.00    -0.206 F 
ATOM     90  C   UNL A   1      43.549  26.034  34.442  1.00  0.00     0.059 A 
ATOM     91  C   UNL A   1      41.849  27.689  34.031  1.00  0.00     0.059 A 
ATOM     92  F   UNL A   1      42.028  29.110  32.204  1.00  0.00    -0.206 F 
ATOM     93  C   UNL A   1      42.356  26.652  34.803  1.00  0.00     0.060 A 
BRANCH  93  94
ATOM     94  S   UNL A   1      41.519  26.124  36.317  1.00  0.00     0.124 S 
ATOM     95  O   UNL A   1      41.050  27.388  36.875  1.00  0.00    -0.237 OA
ATOM     96  O   UNL A   1      40.480  25.239  35.797  1.00  0.00    -0.237 OA
ATOM     97  O   UNL A   1      42.573  25.461  37.082  1.00  0.00    -0.744 OA
ENDBRANCH  93  94
ENDBRANCH  61  86
ENDBRANCH  35  36
ENDBRANCH  27  30
ENDBRANCH  25  26
ENDBRANCH  24  25
ENDBRANCH  23  24
ENDBRANCH   1  23
TORSDOF 19
ENDMDL
