MODEL 1
REMARK VINA RESULT:     -10.8      0.000      0.000
REMARK SMILES O=C(NCCCCCCNC(=O)[C@H]1CN(C(=O)c2cccs2)CC[NH2+]1)c1ccc(-c2c3nc(c(-c4c(F)cc(S(=O)(=O)[O-])cc4F)c4ccc([nH]4)c(-c4c(F)cc(S(=O)(=O)[O-])cc4F)c4nc(c(-c5c(F)cc(S(=O)(=O)[O-])cc5F)c5ccc2[nH]5)C=C4)C=C3)cc1
REMARK SMILES IDX 6 1 5 2 4 3 3 4 1 5 2 6 26 8 27 9 91 10 28 11 90 12 29 13
REMARK SMILES IDX 30 14 31 15 84 16 32 17 89 18 83 19 85 20 33 21 88 22 82 23
REMARK SMILES IDX 81 24 34 26 68 27 47 28 67 29 48 30 51 31 66 32 86 33 49 34
REMARK SMILES IDX 50 35 65 37 87 38 52 39 35 40 36 41 45 42 37 43 38 44 44 45
REMARK SMILES IDX 46 46 39 47 40 48 41 49 42 50 43 51 69 52 70 53 79 54 71 55
REMARK SMILES IDX 72 56 78 57 80 58 73 59 74 60 75 61 76 62 77 63 53 64 54 65
REMARK SMILES IDX 63 66 55 67 56 68 62 69 64 70 57 71 58 72 59 73 60 74 61 75
REMARK SMILES IDX 7 76 8 77 9 78 10 79 11 80 12 82 13 83 14 84 25 85 15 86
REMARK SMILES IDX 24 87 23 90 16 91 17 92 18 93 19 94 22 95 20 96 21 97
REMARK H PARENT 3 7 85 25 51 36 10 81 25 88 25 89
REMARK Flexibility Score: inf
ROOT
ATOM      1  C   UNL A   1      36.223  32.820  28.024  1.00  0.00     0.002 C 
ENDROOT
BRANCH   1   2
ATOM      2  C   UNL A   1      36.651  33.807  29.107  1.00  0.00     0.021 C 
BRANCH   2   3
ATOM      3  C   UNL A   1      37.403  33.192  30.278  1.00  0.00     0.116 C 
BRANCH   3   4
ATOM      4  N   UNL A   1      36.645  32.154  30.956  1.00  0.00    -0.352 N 
ATOM      5  O   UNL A   1      36.087  30.044  31.534  1.00  0.00    -0.269 OA
ATOM      6  C   UNL A   1      36.908  30.806  31.031  1.00  0.00     0.251 C 
ATOM      7  H   UNL A   1      35.832  32.457  31.424  1.00  0.00     0.163 HD
BRANCH   6   8
ATOM      8  C   UNL A   1      38.171  30.278  30.468  1.00  0.00     0.039 A 
ATOM      9  C   UNL A   1      39.251  29.980  31.302  1.00  0.00     0.014 A 
ATOM     10  C   UNL A   1      38.286  30.111  29.086  1.00  0.00     0.014 A 
ATOM     11  C   UNL A   1      40.487  29.671  30.745  1.00  0.00     0.010 A 
ATOM     12  C   UNL A   1      39.508  29.715  28.533  1.00  0.00     0.010 A 
ATOM     13  C   UNL A   1      40.631  29.534  29.354  1.00  0.00    -0.014 A 
BRANCH  13  14
ATOM     14  C   UNL A   1      41.961  29.173  28.797  1.00  0.00     0.031 A 
ATOM     15  C   UNL A   1      43.093  30.166  28.772  1.00  0.00     0.074 A 
ATOM     16  C   UNL A   1      42.157  27.916  28.353  1.00  0.00     0.049 A 
ATOM     17  N   UNL A   1      44.329  29.993  28.375  1.00  0.00    -0.248 NA
ATOM     18  C   UNL A   1      42.802  31.528  29.242  1.00  0.00     0.031 C 
ATOM     19  C   UNL A   1      41.131  26.869  28.310  1.00  0.00     0.029 A 
ATOM     20  N   UNL A   1      43.284  27.293  27.882  1.00  0.00    -0.354 N 
ATOM     21  C   UNL A   1      44.955  31.226  28.521  1.00  0.00     0.074 A 
ATOM     22  C   UNL A   1      43.957  32.144  29.026  1.00  0.00     0.031 C 
ATOM     23  C   UNL A   1      41.689  25.723  27.896  1.00  0.00     0.029 A 
ATOM     24  C   UNL A   1      43.096  25.962  27.594  1.00  0.00     0.049 A 
ATOM     25  H   UNL A   1      44.145  27.755  27.762  1.00  0.00     0.167 HD
ATOM     26  C   UNL A   1      46.244  31.559  28.262  1.00  0.00     0.037 A 
ATOM     27  C   UNL A   1      43.958  25.035  27.137  1.00  0.00     0.037 A 
ATOM     28  C   UNL A   1      47.241  30.633  27.788  1.00  0.00     0.049 A 
ATOM     29  C   UNL A   1      45.384  25.425  26.880  1.00  0.00     0.074 A 
ATOM     30  C   UNL A   1      48.584  30.865  27.539  1.00  0.00     0.029 A 
ATOM     31  N   UNL A   1      47.007  29.298  27.492  1.00  0.00    -0.354 N 
ATOM     32  N   UNL A   1      45.962  26.589  27.053  1.00  0.00    -0.248 NA
ATOM     33  C   UNL A   1      46.273  24.377  26.362  1.00  0.00     0.031 C 
ATOM     34  C   UNL A   1      49.153  29.679  27.062  1.00  0.00     0.029 A 
ATOM     35  C   UNL A   1      48.176  28.698  27.051  1.00  0.00     0.049 A 
ATOM     36  H   UNL A   1      46.138  28.843  27.583  1.00  0.00     0.167 HD
ATOM     37  C   UNL A   1      47.289  26.410  26.681  1.00  0.00     0.074 A 
ATOM     38  C   UNL A   1      47.429  25.022  26.288  1.00  0.00     0.031 C 
ATOM     39  C   UNL A   1      48.299  27.315  26.665  1.00  0.00     0.037 A 
BRANCH  26  40
ATOM     40  C   UNL A   1      46.650  32.992  28.470  1.00  0.00     0.058 A 
ATOM     41  C   UNL A   1      46.617  33.931  27.427  1.00  0.00     0.135 A 
ATOM     42  C   UNL A   1      47.042  33.442  29.742  1.00  0.00     0.135 A 
ATOM     43  F   UNL A   1      46.263  33.552  26.188  1.00  0.00    -0.206 F 
ATOM     44  C   UNL A   1      46.983  35.258  27.630  1.00  0.00     0.059 A 
ATOM     45  C   UNL A   1      47.391  34.770  29.973  1.00  0.00     0.059 A 
ATOM     46  F   UNL A   1      47.089  32.587  30.776  1.00  0.00    -0.206 F 
ATOM     47  C   UNL A   1      47.374  35.667  28.907  1.00  0.00     0.060 A 
BRANCH  47  48
ATOM     48  S   UNL A   1      47.852  37.391  29.155  1.00  0.00     0.124 S 
ATOM     49  O   UNL A   1      49.296  37.268  29.328  1.00  0.00    -0.237 OA
ATOM     50  O   UNL A   1      47.415  38.021  27.914  1.00  0.00    -0.237 OA
ATOM     51  O   UNL A   1      47.108  37.781  30.348  1.00  0.00    -0.744 OA
ENDBRANCH  47  48
ENDBRANCH  26  40
BRANCH  27  52
ATOM     52  C   UNL A   1      43.491  23.643  26.916  1.00  0.00     0.058 A 
ATOM     53  C   UNL A   1      43.331  22.757  27.991  1.00  0.00     0.135 A 
ATOM     54  C   UNL A   1      43.160  23.183  25.632  1.00  0.00     0.135 A 
ATOM     55  F   UNL A   1      43.637  23.153  29.237  1.00  0.00    -0.206 F 
ATOM     56  C   UNL A   1      42.868  21.460  27.803  1.00  0.00     0.059 A 
ATOM     57  C   UNL A   1      42.672  21.898  25.421  1.00  0.00     0.059 A 
ATOM     58  F   UNL A   1      43.277  24.000  24.573  1.00  0.00    -0.206 F 
ATOM     59  C   UNL A   1      42.538  21.040  26.513  1.00  0.00     0.060 A 
BRANCH  59  60
ATOM     60  S   UNL A   1      41.877  19.376  26.282  1.00  0.00     0.124 S 
ATOM     61  O   UNL A   1      42.570  18.952  25.071  1.00  0.00    -0.237 OA
ATOM     62  O   UNL A   1      42.280  18.709  27.516  1.00  0.00    -0.237 OA
ATOM     63  O   UNL A   1      40.442  19.604  26.143  1.00  0.00    -0.744 OA
ENDBRANCH  59  60
ENDBRANCH  27  52
BRANCH  39  64
ATOM     64  C   UNL A   1      49.650  26.819  26.235  1.00  0.00     0.058 A 
ATOM     65  C   UNL A   1      50.497  26.133  27.118  1.00  0.00     0.135 A 
ATOM     66  C   UNL A   1      50.091  27.018  24.918  1.00  0.00     0.135 A 
ATOM     67  F   UNL A   1      50.122  25.926  28.390  1.00  0.00    -0.206 F 
ATOM     68  C   UNL A   1      51.753  25.687  26.718  1.00  0.00     0.059 A 
ATOM     69  C   UNL A   1      51.334  26.560  24.490  1.00  0.00     0.059 A 
ATOM     70  F   UNL A   1      49.314  27.661  24.032  1.00  0.00    -0.206 F 
ATOM     71  C   UNL A   1      52.164  25.910  25.403  1.00  0.00     0.060 A 
BRANCH  71  72
ATOM     72  S   UNL A   1      53.789  25.318  24.887  1.00  0.00     0.124 S 
ATOM     73  O   UNL A   1      54.644  25.854  25.941  1.00  0.00    -0.237 OA
ATOM     74  O   UNL A   1      53.614  23.869  24.888  1.00  0.00    -0.237 OA
ATOM     75  O   UNL A   1      53.965  25.920  23.568  1.00  0.00    -0.744 OA
ENDBRANCH  71  72
ENDBRANCH  39  64
ENDBRANCH  13  14
ENDBRANCH   6   8
ENDBRANCH   3   4
ENDBRANCH   2   3
ENDBRANCH   1   2
BRANCH   1  76
ATOM     76  C   UNL A   1      34.745  32.419  28.045  1.00  0.00     0.002 C 
BRANCH  76  77
ATOM     77  C   UNL A   1      34.444  30.933  27.792  1.00  0.00     0.021 C 
BRANCH  77  78
ATOM     78  C   UNL A   1      33.102  30.647  27.118  1.00  0.00     0.116 C 
BRANCH  78  79
ATOM     79  N   UNL A   1      32.505  29.446  27.657  1.00  0.00    -0.351 N 
ATOM     80  C   UNL A   1      32.212  28.274  27.035  1.00  0.00     0.280 C 
ATOM     81  H   UNL A   1      32.276  29.483  28.613  1.00  0.00     0.163 HD
ATOM     82  O   UNL A   1      31.456  27.505  27.632  1.00  0.00    -0.268 OA
BRANCH  80  83
ATOM     83  C   UNL A   1      32.826  27.956  25.658  1.00  0.00     0.292 C 
ATOM     84  C   UNL A   1      33.392  26.517  25.644  1.00  0.00     0.195 C 
ATOM     85  N   UNL A   1      31.835  28.207  24.571  1.00  0.00    -0.333 N 
ATOM     86  N   UNL A   1      32.344  25.495  25.580  1.00  0.00    -0.326 N 
ATOM     87  C   UNL A   1      30.787  27.164  24.584  1.00  0.00     0.283 C 
ATOM     88  H   UNL A   1      32.314  28.193  23.670  1.00  0.00     0.347 HD
ATOM     89  H   UNL A   1      31.400  29.118  24.722  1.00  0.00     0.347 HD
ATOM     90  C   UNL A   1      31.337  25.723  24.544  1.00  0.00     0.181 C 
BRANCH  86  91
ATOM     91  C   UNL A   1      32.282  24.330  26.355  1.00  0.00     0.264 C 
ATOM     92  O   UNL A   1      31.469  24.241  27.277  1.00  0.00    -0.268 OA
BRANCH  91  93
ATOM     93  C   UNL A   1      33.169  23.222  26.022  1.00  0.00     0.092 A 
ATOM     94  C   UNL A   1      33.503  22.682  24.793  1.00  0.00     0.025 A 
ATOM     95  S   UNL A   1      34.047  22.460  27.284  1.00  0.00    -0.139 S 
ATOM     96  C   UNL A   1      34.424  21.599  24.896  1.00  0.00     0.012 A 
ATOM     97  C   UNL A   1      34.806  21.378  26.198  1.00  0.00     0.065 A 
ENDBRANCH  91  93
ENDBRANCH  86  91
ENDBRANCH  80  83
ENDBRANCH  78  79
ENDBRANCH  77  78
ENDBRANCH  76  77
ENDBRANCH   1  76
TORSDOF 18
ENDMDL
MODEL 2
REMARK VINA RESULT:     -10.8      6.355     12.283
REMARK SMILES O=C(NCCCCCCNC(=O)[C@H]1CN(C(=O)c2cccs2)CC[NH2+]1)c1ccc(-c2c3nc(c(-c4c(F)cc(S(=O)(=O)[O-])cc4F)c4ccc([nH]4)c(-c4c(F)cc(S(=O)(=O)[O-])cc4F)c4nc(c(-c5c(F)cc(S(=O)(=O)[O-])cc5F)c5ccc2[nH]5)C=C4)C=C3)cc1
REMARK SMILES IDX 6 1 5 2 4 3 3 4 1 5 2 6 26 8 27 9 91 10 28 11 90 12 29 13
REMARK SMILES IDX 30 14 31 15 84 16 32 17 89 18 83 19 85 20 33 21 88 22 82 23
REMARK SMILES IDX 81 24 34 26 68 27 47 28 67 29 48 30 51 31 66 32 86 33 49 34
REMARK SMILES IDX 50 35 65 37 87 38 52 39 35 40 36 41 45 42 37 43 38 44 44 45
REMARK SMILES IDX 46 46 39 47 40 48 41 49 42 50 43 51 69 52 70 53 79 54 71 55
REMARK SMILES IDX 72 56 78 57 80 58 73 59 74 60 75 61 76 62 77 63 53 64 54 65
REMARK SMILES IDX 63 66 55 67 56 68 62 69 64 70 57 71 58 72 59 73 60 74 61 75
REMARK SMILES IDX 7 76 8 77 9 78 10 79 11 80 12 82 13 83 14 84 25 85 15 86
REMARK SMILES IDX 24 87 23 90 16 91 17 92 18 93 19 94 22 95 20 96 21 97
REMARK H PARENT 3 7 85 25 51 36 10 81 25 88 25 89
REMARK Flexibility Score: inf
ROOT
ATOM      1  C   UNL A   1      42.293  21.665  27.551  1.00  0.00     0.002 C 
ENDROOT
BRANCH   1   2
ATOM      2  C   UNL A   1      42.787  22.839  28.395  1.00  0.00     0.021 C 
BRANCH   2   3
ATOM      3  C   UNL A   1      43.670  23.834  27.658  1.00  0.00     0.116 C 
BRANCH   3   4
ATOM      4  N   UNL A   1      43.112  24.252  26.383  1.00  0.00    -0.352 N 
ATOM      5  O   UNL A   1      41.750  25.408  25.003  1.00  0.00    -0.269 OA
ATOM      6  C   UNL A   1      42.228  25.274  26.125  1.00  0.00     0.251 C 
ATOM      7  H   UNL A   1      43.405  23.734  25.599  1.00  0.00     0.163 HD
BRANCH   6   8
ATOM      8  C   UNL A   1      41.831  26.188  27.220  1.00  0.00     0.039 A 
ATOM      9  C   UNL A   1      42.532  27.374  27.445  1.00  0.00     0.014 A 
ATOM     10  C   UNL A   1      40.764  25.836  28.051  1.00  0.00     0.014 A 
ATOM     11  C   UNL A   1      42.273  28.122  28.589  1.00  0.00     0.010 A 
ATOM     12  C   UNL A   1      40.448  26.637  29.153  1.00  0.00     0.010 A 
ATOM     13  C   UNL A   1      41.228  27.764  29.456  1.00  0.00    -0.014 A 
BRANCH  13  14
ATOM     14  C   UNL A   1      40.960  28.605  30.653  1.00  0.00     0.031 A 
ATOM     15  C   UNL A   1      41.829  28.516  31.879  1.00  0.00     0.074 A 
ATOM     16  C   UNL A   1      39.947  29.492  30.607  1.00  0.00     0.049 A 
ATOM     17  N   UNL A   1      41.768  29.219  32.982  1.00  0.00    -0.248 NA
ATOM     18  C   UNL A   1      42.897  27.505  31.875  1.00  0.00     0.031 C 
ATOM     19  C   UNL A   1      39.024  29.657  29.479  1.00  0.00     0.029 A 
ATOM     20  N   UNL A   1      39.538  30.439  31.510  1.00  0.00    -0.354 N 
ATOM     21  C   UNL A   1      42.765  28.721  33.812  1.00  0.00     0.074 A 
ATOM     22  C   UNL A   1      43.407  27.642  33.091  1.00  0.00     0.031 C 
ATOM     23  C   UNL A   1      38.198  30.682  29.733  1.00  0.00     0.029 A 
ATOM     24  C   UNL A   1      38.495  31.213  31.060  1.00  0.00     0.049 A 
ATOM     25  H   UNL A   1      39.951  30.553  32.396  1.00  0.00     0.167 HD
ATOM     26  C   UNL A   1      43.117  29.129  35.056  1.00  0.00     0.037 A 
ATOM     27  C   UNL A   1      37.847  32.236  31.646  1.00  0.00     0.037 A 
ATOM     28  C   UNL A   1      42.494  30.224  35.756  1.00  0.00     0.049 A 
ATOM     29  C   UNL A   1      38.270  32.682  33.015  1.00  0.00     0.074 A 
ATOM     30  C   UNL A   1      42.810  30.741  37.002  1.00  0.00     0.029 A 
ATOM     31  N   UNL A   1      41.430  30.971  35.274  1.00  0.00    -0.354 N 
ATOM     32  N   UNL A   1      39.237  32.216  33.769  1.00  0.00    -0.248 NA
ATOM     33  C   UNL A   1      37.514  33.789  33.614  1.00  0.00     0.031 C 
ATOM     34  C   UNL A   1      41.916  31.780  37.285  1.00  0.00     0.029 A 
ATOM     35  C   UNL A   1      41.069  31.936  36.201  1.00  0.00     0.049 A 
ATOM     36  H   UNL A   1      40.996  30.838  34.400  1.00  0.00     0.167 HD
ATOM     37  C   UNL A   1      39.216  32.985  34.926  1.00  0.00     0.074 A 
ATOM     38  C   UNL A   1      38.151  33.955  34.764  1.00  0.00     0.031 C 
ATOM     39  C   UNL A   1      40.007  32.895  36.024  1.00  0.00     0.037 A 
BRANCH  26  40
ATOM     40  C   UNL A   1      44.218  28.377  35.752  1.00  0.00     0.058 A 
ATOM     41  C   UNL A   1      43.953  27.283  36.591  1.00  0.00     0.135 A 
ATOM     42  C   UNL A   1      45.561  28.734  35.548  1.00  0.00     0.135 A 
ATOM     43  F   UNL A   1      42.686  26.908  36.832  1.00  0.00    -0.206 F 
ATOM     44  C   UNL A   1      44.979  26.585  37.223  1.00  0.00     0.059 A 
ATOM     45  C   UNL A   1      46.604  28.036  36.152  1.00  0.00     0.059 A 
ATOM     46  F   UNL A   1      45.871  29.771  34.754  1.00  0.00    -0.206 F 
ATOM     47  C   UNL A   1      46.302  26.973  37.001  1.00  0.00     0.060 A 
BRANCH  47  48
ATOM     48  S   UNL A   1      47.621  26.062  37.832  1.00  0.00     0.124 S 
ATOM     49  O   UNL A   1      48.522  25.779  36.719  1.00  0.00    -0.237 OA
ATOM     50  O   UNL A   1      48.106  27.032  38.808  1.00  0.00    -0.237 OA
ATOM     51  O   UNL A   1      46.932  24.904  38.392  1.00  0.00    -0.744 OA
ENDBRANCH  47  48
ENDBRANCH  26  40
BRANCH  27  52
ATOM     52  C   UNL A   1      36.743  32.918  30.924  1.00  0.00     0.058 A 
ATOM     53  C   UNL A   1      35.403  32.620  31.209  1.00  0.00     0.135 A 
ATOM     54  C   UNL A   1      37.006  33.906  29.962  1.00  0.00     0.135 A 
ATOM     55  F   UNL A   1      35.104  31.681  32.120  1.00  0.00    -0.206 F 
ATOM     56  C   UNL A   1      34.360  33.271  30.560  1.00  0.00     0.059 A 
ATOM     57  C   UNL A   1      35.980  34.588  29.318  1.00  0.00     0.059 A 
ATOM     58  F   UNL A   1      38.273  34.240  29.669  1.00  0.00    -0.206 F 
ATOM     59  C   UNL A   1      34.659  34.256  29.617  1.00  0.00     0.060 A 
BRANCH  59  60
ATOM     60  S   UNL A   1      33.300  35.142  28.825  1.00  0.00     0.124 S 
ATOM     61  O   UNL A   1      32.528  35.587  29.979  1.00  0.00    -0.237 OA
ATOM     62  O   UNL A   1      34.002  36.186  28.084  1.00  0.00    -0.237 OA
ATOM     63  O   UNL A   1      32.670  34.116  27.998  1.00  0.00    -0.744 OA
ENDBRANCH  59  60
ENDBRANCH  27  52
BRANCH  39  64
ATOM     64  C   UNL A   1      39.765  33.891  37.121  1.00  0.00     0.058 A 
ATOM     65  C   UNL A   1      38.906  33.608  38.194  1.00  0.00     0.135 A 
ATOM     66  C   UNL A   1      40.413  35.135  37.106  1.00  0.00     0.135 A 
ATOM     67  F   UNL A   1      38.256  32.434  38.249  1.00  0.00    -0.206 F 
ATOM     68  C   UNL A   1      38.674  34.539  39.202  1.00  0.00     0.059 A 
ATOM     69  C   UNL A   1      40.213  36.072  38.116  1.00  0.00     0.059 A 
ATOM     70  F   UNL A   1      41.251  35.450  36.105  1.00  0.00    -0.206 F 
ATOM     71  C   UNL A   1      39.330  35.770  39.151  1.00  0.00     0.060 A 
BRANCH  71  72
ATOM     72  S   UNL A   1      39.034  36.969  40.468  1.00  0.00     0.124 S 
ATOM     73  O   UNL A   1      38.203  37.955  39.785  1.00  0.00    -0.237 OA
ATOM     74  O   UNL A   1      38.359  36.165  41.482  1.00  0.00    -0.237 OA
ATOM     75  O   UNL A   1      40.377  37.417  40.824  1.00  0.00    -0.744 OA
ENDBRANCH  71  72
ENDBRANCH  39  64
ENDBRANCH  13  14
ENDBRANCH   6   8
ENDBRANCH   3   4
ENDBRANCH   2   3
ENDBRANCH   1   2
BRANCH   1  76
ATOM     76  C   UNL A   1      40.780  21.425  27.578  1.00  0.00     0.002 C 
BRANCH  76  77
ATOM     77  C   UNL A   1      39.934  22.353  26.692  1.00  0.00     0.021 C 
BRANCH  77  78
ATOM     78  C   UNL A   1      38.746  21.686  26.000  1.00  0.00     0.116 C 
BRANCH  78  79
ATOM     79  N   UNL A   1      38.021  22.642  25.193  1.00  0.00    -0.351 N 
ATOM     80  C   UNL A   1      36.681  22.840  25.086  1.00  0.00     0.280 C 
ATOM     81  H   UNL A   1      38.579  23.235  24.641  1.00  0.00     0.163 HD
ATOM     82  O   UNL A   1      36.297  23.518  24.131  1.00  0.00    -0.268 OA
BRANCH  80  83
ATOM     83  C   UNL A   1      35.725  22.238  26.134  1.00  0.00     0.292 C 
ATOM     84  C   UNL A   1      34.516  23.177  26.355  1.00  0.00     0.195 C 
ATOM     85  N   UNL A   1      35.330  20.853  25.751  1.00  0.00    -0.333 N 
ATOM     86  N   UNL A   1      33.560  23.142  25.245  1.00  0.00    -0.326 N 
ATOM     87  C   UNL A   1      34.396  20.886  24.604  1.00  0.00     0.283 C 
ATOM     88  H   UNL A   1      34.874  20.401  26.544  1.00  0.00     0.347 HD
ATOM     89  H   UNL A   1      36.166  20.330  25.485  1.00  0.00     0.347 HD
ATOM     90  C   UNL A   1      33.170  21.798  24.821  1.00  0.00     0.181 C 
BRANCH  86  91
ATOM     91  C   UNL A   1      32.964  24.254  24.637  1.00  0.00     0.264 C 
ATOM     92  O   UNL A   1      32.571  24.188  23.471  1.00  0.00    -0.268 OA
BRANCH  91  93
ATOM     93  C   UNL A   1      32.788  25.469  25.424  1.00  0.00     0.092 A 
ATOM     94  C   UNL A   1      33.673  26.500  25.688  1.00  0.00     0.025 A 
ATOM     95  S   UNL A   1      31.245  25.800  26.098  1.00  0.00    -0.139 S 
ATOM     96  C   UNL A   1      33.105  27.523  26.500  1.00  0.00     0.012 A 
ATOM     97  C   UNL A   1      31.785  27.269  26.791  1.00  0.00     0.065 A 
ENDBRANCH  91  93
ENDBRANCH  86  91
ENDBRANCH  80  83
ENDBRANCH  78  79
ENDBRANCH  77  78
ENDBRANCH  76  77
ENDBRANCH   1  76
TORSDOF 18
ENDMDL
MODEL 3
REMARK VINA RESULT:     -10.8      0.839      1.757
REMARK SMILES O=C(NCCCCCCNC(=O)[C@H]1CN(C(=O)c2cccs2)CC[NH2+]1)c1ccc(-c2c3nc(c(-c4c(F)cc(S(=O)(=O)[O-])cc4F)c4ccc([nH]4)c(-c4c(F)cc(S(=O)(=O)[O-])cc4F)c4nc(c(-c5c(F)cc(S(=O)(=O)[O-])cc5F)c5ccc2[nH]5)C=C4)C=C3)cc1
REMARK SMILES IDX 6 1 5 2 4 3 3 4 1 5 2 6 26 8 27 9 91 10 28 11 90 12 29 13
REMARK SMILES IDX 30 14 31 15 84 16 32 17 89 18 83 19 85 20 33 21 88 22 82 23
REMARK SMILES IDX 81 24 34 26 68 27 47 28 67 29 48 30 51 31 66 32 86 33 49 34
REMARK SMILES IDX 50 35 65 37 87 38 52 39 35 40 36 41 45 42 37 43 38 44 44 45
REMARK SMILES IDX 46 46 39 47 40 48 41 49 42 50 43 51 69 52 70 53 79 54 71 55
REMARK SMILES IDX 72 56 78 57 80 58 73 59 74 60 75 61 76 62 77 63 53 64 54 65
REMARK SMILES IDX 63 66 55 67 56 68 62 69 64 70 57 71 58 72 59 73 60 74 61 75
REMARK SMILES IDX 7 76 8 77 9 78 10 79 11 80 12 82 13 83 14 84 25 85 15 86
REMARK SMILES IDX 24 87 23 90 16 91 17 92 18 93 19 94 22 95 20 96 21 97
REMARK H PARENT 3 7 85 25 51 36 10 81 25 88 25 89
REMARK Flexibility Score: inf
ROOT
ATOM      1  C   UNL A   1      35.411  34.345  28.759  1.00  0.00     0.002 C 
ENDROOT
BRANCH   1   2
ATOM      2  C   UNL A   1      35.599  34.188  30.266  1.00  0.00     0.021 C 
BRANCH   2   3
ATOM      3  C   UNL A   1      36.657  33.178  30.682  1.00  0.00     0.116 C 
BRANCH   3   4
ATOM      4  N   UNL A   1      36.089  31.943  31.198  1.00  0.00    -0.352 N 
ATOM      5  O   UNL A   1      35.927  29.712  31.505  1.00  0.00    -0.269 OA
ATOM      6  C   UNL A   1      36.602  30.668  31.134  1.00  0.00     0.251 C 
ATOM      7  H   UNL A   1      35.221  32.031  31.655  1.00  0.00     0.163 HD
BRANCH   6   8
ATOM      8  C   UNL A   1      37.959  30.455  30.582  1.00  0.00     0.039 A 
ATOM      9  C   UNL A   1      38.170  30.445  29.202  1.00  0.00     0.014 A 
ATOM     10  C   UNL A   1      39.025  30.229  31.456  1.00  0.00     0.014 A 
ATOM     11  C   UNL A   1      39.405  30.053  28.696  1.00  0.00     0.010 A 
ATOM     12  C   UNL A   1      40.289  29.920  30.945  1.00  0.00     0.010 A 
ATOM     13  C   UNL A   1      40.480  29.786  29.561  1.00  0.00    -0.014 A 
BRANCH  13  14
ATOM     14  C   UNL A   1      41.795  29.400  28.984  1.00  0.00     0.031 A 
ATOM     15  C   UNL A   1      42.947  30.368  28.951  1.00  0.00     0.074 A 
ATOM     16  C   UNL A   1      41.958  28.142  28.531  1.00  0.00     0.049 A 
ATOM     17  N   UNL A   1      44.174  30.172  28.538  1.00  0.00    -0.248 NA
ATOM     18  C   UNL A   1      42.692  31.734  29.433  1.00  0.00     0.031 C 
ATOM     19  C   UNL A   1      40.908  27.118  28.494  1.00  0.00     0.029 A 
ATOM     20  N   UNL A   1      43.065  27.497  28.042  1.00  0.00    -0.354 N 
ATOM     21  C   UNL A   1      44.829  31.389  28.683  1.00  0.00     0.074 A 
ATOM     22  C   UNL A   1      43.857  32.326  29.207  1.00  0.00     0.031 C 
ATOM     23  C   UNL A   1      41.436  25.962  28.066  1.00  0.00     0.029 A 
ATOM     24  C   UNL A   1      42.844  26.173  27.748  1.00  0.00     0.049 A 
ATOM     25  H   UNL A   1      43.934  27.941  27.913  1.00  0.00     0.167 HD
ATOM     26  C   UNL A   1      46.121  31.696  28.410  1.00  0.00     0.037 A 
ATOM     27  C   UNL A   1      43.679  25.230  27.274  1.00  0.00     0.037 A 
ATOM     28  C   UNL A   1      47.092  30.752  27.918  1.00  0.00     0.049 A 
ATOM     29  C   UNL A   1      45.110  25.591  27.001  1.00  0.00     0.074 A 
ATOM     30  C   UNL A   1      48.436  30.956  27.653  1.00  0.00     0.029 A 
ATOM     31  N   UNL A   1      46.825  29.424  27.617  1.00  0.00    -0.354 N 
ATOM     32  N   UNL A   1      45.716  26.741  27.175  1.00  0.00    -0.248 NA
ATOM     33  C   UNL A   1      45.970  24.528  26.466  1.00  0.00     0.031 C 
ATOM     34  C   UNL A   1      48.974  29.761  27.162  1.00  0.00     0.029 A 
ATOM     35  C   UNL A   1      47.975  28.801  27.157  1.00  0.00     0.049 A 
ATOM     36  H   UNL A   1      45.948  28.988  27.716  1.00  0.00     0.167 HD
ATOM     37  C   UNL A   1      47.034  26.536  26.785  1.00  0.00     0.074 A 
ATOM     38  C   UNL A   1      47.139  25.147  26.381  1.00  0.00     0.031 C 
ATOM     39  C   UNL A   1      48.063  27.418  26.762  1.00  0.00     0.037 A 
BRANCH  26  40
ATOM     40  C   UNL A   1      46.561  33.119  28.622  1.00  0.00     0.058 A 
ATOM     41  C   UNL A   1      46.485  34.077  27.599  1.00  0.00     0.135 A 
ATOM     42  C   UNL A   1      47.030  33.538  29.878  1.00  0.00     0.135 A 
ATOM     43  F   UNL A   1      46.057  33.728  26.376  1.00  0.00    -0.206 F 
ATOM     44  C   UNL A   1      46.883  35.395  27.807  1.00  0.00     0.059 A 
ATOM     45  C   UNL A   1      47.413  34.856  30.114  1.00  0.00     0.059 A 
ATOM     46  F   UNL A   1      47.121  32.662  30.892  1.00  0.00    -0.206 F 
ATOM     47  C   UNL A   1      47.350  35.774  29.067  1.00  0.00     0.060 A 
BRANCH  47  48
ATOM     48  S   UNL A   1      47.869  37.485  29.320  1.00  0.00     0.124 S 
ATOM     49  O   UNL A   1      46.635  38.091  29.809  1.00  0.00    -0.237 OA
ATOM     50  O   UNL A   1      48.940  37.348  30.301  1.00  0.00    -0.237 OA
ATOM     51  O   UNL A   1      48.293  37.910  27.989  1.00  0.00    -0.744 OA
ENDBRANCH  47  48
ENDBRANCH  26  40
BRANCH  27  52
ATOM     52  C   UNL A   1      43.179  23.850  27.051  1.00  0.00     0.058 A 
ATOM     53  C   UNL A   1      42.880  23.392  25.760  1.00  0.00     0.135 A 
ATOM     54  C   UNL A   1      43.028  22.951  28.119  1.00  0.00     0.135 A 
ATOM     55  F   UNL A   1      43.008  24.216  24.710  1.00  0.00    -0.206 F 
ATOM     56  C   UNL A   1      42.437  22.094  25.534  1.00  0.00     0.059 A 
ATOM     57  C   UNL A   1      42.611  21.641  27.915  1.00  0.00     0.059 A 
ATOM     58  F   UNL A   1      43.321  23.337  29.370  1.00  0.00    -0.206 F 
ATOM     59  C   UNL A   1      42.309  21.224  26.618  1.00  0.00     0.060 A 
BRANCH  59  60
ATOM     60  S   UNL A   1      41.795  19.521  26.311  1.00  0.00     0.124 S 
ATOM     61  O   UNL A   1      42.230  18.859  27.535  1.00  0.00    -0.237 OA
ATOM     62  O   UNL A   1      40.352  19.659  26.138  1.00  0.00    -0.237 OA
ATOM     63  O   UNL A   1      42.531  19.163  25.102  1.00  0.00    -0.744 OA
ENDBRANCH  59  60
ENDBRANCH  27  52
BRANCH  39  64
ATOM     64  C   UNL A   1      49.397  26.896  26.311  1.00  0.00     0.058 A 
ATOM     65  C   UNL A   1      49.817  27.007  24.977  1.00  0.00     0.135 A 
ATOM     66  C   UNL A   1      50.271  26.295  27.230  1.00  0.00     0.135 A 
ATOM     67  F   UNL A   1      49.013  27.566  24.059  1.00  0.00    -0.206 F 
ATOM     68  C   UNL A   1      51.049  26.510  24.561  1.00  0.00     0.059 A 
ATOM     69  C   UNL A   1      51.516  25.812  26.840  1.00  0.00     0.059 A 
ATOM     70  F   UNL A   1      49.919  26.173  28.520  1.00  0.00    -0.206 F 
ATOM     71  C   UNL A   1      51.889  25.910  25.500  1.00  0.00     0.060 A 
BRANCH  71  72
ATOM     72  S   UNL A   1      53.490  25.278  24.956  1.00  0.00     0.124 S 
ATOM     73  O   UNL A   1      54.408  26.066  25.772  1.00  0.00    -0.237 OA
ATOM     74  O   UNL A   1      53.402  23.860  25.292  1.00  0.00    -0.237 OA
ATOM     75  O   UNL A   1      53.503  25.576  23.527  1.00  0.00    -0.744 OA
ENDBRANCH  71  72
ENDBRANCH  39  64
ENDBRANCH  13  14
ENDBRANCH   6   8
ENDBRANCH   3   4
ENDBRANCH   2   3
ENDBRANCH   1   2
BRANCH   1  76
ATOM     76  C   UNL A   1      35.442  33.042  27.953  1.00  0.00     0.002 C 
BRANCH  76  77
ATOM     77  C   UNL A   1      34.296  32.054  28.220  1.00  0.00     0.021 C 
BRANCH  77  78
ATOM     78  C   UNL A   1      34.296  30.804  27.341  1.00  0.00     0.116 C 
BRANCH  78  79
ATOM     79  N   UNL A   1      33.223  29.912  27.720  1.00  0.00    -0.351 N 
ATOM     80  C   UNL A   1      32.497  29.060  26.951  1.00  0.00     0.280 C 
ATOM     81  H   UNL A   1      32.984  29.924  28.674  1.00  0.00     0.163 HD
ATOM     82  O   UNL A   1      31.458  28.616  27.445  1.00  0.00    -0.268 OA
BRANCH  80  83
ATOM     83  C   UNL A   1      32.988  28.685  25.539  1.00  0.00     0.292 C 
ATOM     84  C   UNL A   1      32.862  27.159  25.317  1.00  0.00     0.195 C 
ATOM     85  N   UNL A   1      32.276  29.488  24.504  1.00  0.00    -0.333 N 
ATOM     86  N   UNL A   1      31.477  26.727  25.112  1.00  0.00    -0.326 N 
ATOM     87  C   UNL A   1      30.877  29.027  24.372  1.00  0.00     0.283 C 
ATOM     88  H   UNL A   1      32.752  29.381  23.608  1.00  0.00     0.347 HD
ATOM     89  H   UNL A   1      32.279  30.469  24.785  1.00  0.00     0.347 HD
ATOM     90  C   UNL A   1      30.737  27.511  24.124  1.00  0.00     0.181 C 
BRANCH  86  91
ATOM     91  C   UNL A   1      30.862  25.622  25.713  1.00  0.00     0.264 C 
ATOM     92  O   UNL A   1      29.993  25.785  26.571  1.00  0.00    -0.268 OA
BRANCH  91  93
ATOM     93  C   UNL A   1      31.248  24.285  25.277  1.00  0.00     0.092 A 
ATOM     94  C   UNL A   1      31.592  23.819  24.020  1.00  0.00     0.025 A 
ATOM     95  S   UNL A   1      31.411  23.047  26.453  1.00  0.00    -0.139 S 
ATOM     96  C   UNL A   1      31.919  22.433  24.013  1.00  0.00     0.012 A 
ATOM     97  C   UNL A   1      31.866  21.891  25.276  1.00  0.00     0.065 A 
ENDBRANCH  91  93
ENDBRANCH  86  91
ENDBRANCH  80  83
ENDBRANCH  78  79
ENDBRANCH  77  78
ENDBRANCH  76  77
ENDBRANCH   1  76
TORSDOF 18
ENDMDL
