MODEL 1
REMARK VINA RESULT:     -11.3      0.000      0.000
REMARK SMILES COc1ccccc1[C@@H]1CN(C(=O)Cc2csc(C)n2)C[C@H]1C(=O)NCCCCCCNC(=O)c1ccc(-c2c3nc(c(-c4c(F)cc(S(=O)(=O)[O-])cc4F)c4ccc([nH]4)c(-c4c(F)cc(S(=O)(=O)[O-])cc4F)c4nc(c(-c5c(F)cc(S(=O)(=O)[O-])cc5F)c5ccc2[nH]5)C=C4)C=C3)cc1
REMARK SMILES IDX 28 1 27 2 26 3 25 4 23 5 24 6 22 8 9 9 10 10 11 11 21 12
REMARK SMILES IDX 8 13 3 14 4 15 5 16 7 17 6 18 2 19 1 20 12 21 13 22 14 23
REMARK SMILES IDX 15 24 16 25 20 26 17 27 18 28 19 29 29 30 30 31 31 32 32 33
REMARK SMILES IDX 33 34 34 36 35 37 36 38 100 39 37 40 99 41 38 42 39 43 40 44
REMARK SMILES IDX 93 45 41 46 98 47 92 48 94 49 42 50 97 51 91 52 90 53 43 55
REMARK SMILES IDX 77 56 56 57 76 58 57 59 60 60 75 61 95 62 58 63 59 64 74 66
REMARK SMILES IDX 96 67 61 68 44 69 45 70 54 71 46 72 47 73 53 74 55 75 48 76
REMARK SMILES IDX 49 77 50 78 51 79 52 80 78 81 79 82 88 83 80 84 81 85 87 86
REMARK SMILES IDX 89 87 82 88 83 89 84 90 85 91 86 92 62 93 63 94 72 95 64 96
REMARK SMILES IDX 65 97 71 98 73 99 66 100 67 101 68 102 69 103 70 104
REMARK H PARENT 25 7 32 35 94 54 60 65
REMARK Flexibility Score: inf
ROOT
ATOM      1  C   UNL A   1      37.603  22.352  26.103  1.00  0.00     0.002 C 
ENDROOT
BRANCH   1   2
ATOM      2  C   UNL A   1      37.424  22.045  24.613  1.00  0.00     0.021 C 
BRANCH   2   3
ATOM      3  C   UNL A   1      36.387  22.927  23.924  1.00  0.00     0.116 C 
BRANCH   3   4
ATOM      4  N   UNL A   1      35.895  23.939  24.838  1.00  0.00    -0.356 N 
ATOM      5  C   UNL A   1      34.820  24.760  24.762  1.00  0.00     0.225 C 
ATOM      6  O   UNL A   1      34.667  25.579  25.674  1.00  0.00    -0.275 OA
ATOM      7  H   UNL A   1      36.435  24.049  25.654  1.00  0.00     0.163 HD
BRANCH   5   8
ATOM      8  C   UNL A   1      33.815  24.683  23.631  1.00  0.00     0.107 C 
ATOM      9  C   UNL A   1      32.451  24.063  23.997  1.00  0.00     0.057 C 
ATOM     10  C   UNL A   1      31.428  24.869  23.197  1.00  0.00     0.128 C 
ATOM     11  N   UNL A   1      32.059  26.164  23.005  1.00  0.00    -0.341 N 
ATOM     12  C   UNL A   1      33.507  26.060  23.048  1.00  0.00     0.133 C 
BRANCH   9  13
ATOM     13  C   UNL A   1      32.364  22.556  23.871  1.00  0.00    -0.000 A 
ATOM     14  C   UNL A   1      32.432  21.641  24.934  1.00  0.00     0.122 A 
ATOM     15  C   UNL A   1      32.336  20.263  24.695  1.00  0.00     0.047 A 
ATOM     16  C   UNL A   1      32.195  19.774  23.396  1.00  0.00     0.004 A 
ATOM     17  C   UNL A   1      32.226  22.034  22.566  1.00  0.00     0.008 A 
ATOM     18  C   UNL A   1      32.158  20.661  22.328  1.00  0.00     0.001 A 
BRANCH  14  19
ATOM     19  O   UNL A   1      32.804  21.995  26.203  1.00  0.00    -0.496 OA
ATOM     20  C   UNL A   1      34.015  21.399  26.651  1.00  0.00     0.278 C 
ENDBRANCH  14  19
ENDBRANCH   9  13
BRANCH  11  21
ATOM     21  C   UNL A   1      31.448  27.358  22.680  1.00  0.00     0.228 C 
ATOM     22  O   UNL A   1      30.528  27.390  21.857  1.00  0.00    -0.274 OA
BRANCH  21  23
ATOM     23  C   UNL A   1      32.010  28.642  23.268  1.00  0.00     0.157 C 
BRANCH  23  24
ATOM     24  C   UNL A   1      32.265  28.562  24.738  1.00  0.00     0.061 A 
ATOM     25  C   UNL A   1      31.367  28.131  25.697  1.00  0.00     0.091 A 
ATOM     26  N   UNL A   1      33.497  28.949  25.242  1.00  0.00    -0.246 NA
ATOM     27  S   UNL A   1      32.068  28.232  27.257  1.00  0.00    -0.127 S 
ATOM     28  C   UNL A   1      33.517  28.820  26.550  1.00  0.00     0.090 A 
ATOM     29  C   UNL A   1      34.690  29.149  27.403  1.00  0.00     0.079 C 
ENDBRANCH  23  24
ENDBRANCH  21  23
ENDBRANCH  11  21
ENDBRANCH   5   8
ENDBRANCH   3   4
ENDBRANCH   2   3
ENDBRANCH   1   2
BRANCH   1  30
ATOM     30  C   UNL A   1      38.849  23.178  26.443  1.00  0.00     0.002 C 
BRANCH  30  31
ATOM     31  C   UNL A   1      40.024  22.368  26.996  1.00  0.00     0.021 C 
BRANCH  31  32
ATOM     32  C   UNL A   1      41.291  23.181  27.222  1.00  0.00     0.116 C 
BRANCH  32  33
ATOM     33  N   UNL A   1      41.579  24.058  26.100  1.00  0.00    -0.352 N 
ATOM     34  C   UNL A   1      41.559  25.429  26.067  1.00  0.00     0.251 C 
ATOM     35  H   UNL A   1      41.821  23.612  25.257  1.00  0.00     0.163 HD
ATOM     36  O   UNL A   1      41.625  26.029  24.998  1.00  0.00    -0.269 OA
BRANCH  34  37
ATOM     37  C   UNL A   1      41.435  26.170  27.338  1.00  0.00     0.039 A 
ATOM     38  C   UNL A   1      42.478  27.004  27.749  1.00  0.00     0.014 A 
ATOM     39  C   UNL A   1      40.268  26.063  28.098  1.00  0.00     0.014 A 
ATOM     40  C   UNL A   1      42.327  27.773  28.903  1.00  0.00     0.010 A 
ATOM     41  C   UNL A   1      40.091  26.885  29.204  1.00  0.00     0.010 A 
ATOM     42  C   UNL A   1      41.122  27.741  29.623  1.00  0.00    -0.014 A 
BRANCH  42  43
ATOM     43  C   UNL A   1      40.914  28.571  30.835  1.00  0.00     0.031 A 
ATOM     44  C   UNL A   1      39.841  29.623  30.838  1.00  0.00     0.074 A 
ATOM     45  C   UNL A   1      41.748  28.447  31.885  1.00  0.00     0.049 A 
ATOM     46  N   UNL A   1      39.584  30.540  31.733  1.00  0.00    -0.248 NA
ATOM     47  C   UNL A   1      38.964  29.670  29.657  1.00  0.00     0.031 C 
ATOM     48  C   UNL A   1      42.857  27.495  31.978  1.00  0.00     0.029 A 
ATOM     49  N   UNL A   1      41.810  29.145  33.065  1.00  0.00    -0.354 N 
ATOM     50  C   UNL A   1      38.533  31.288  31.213  1.00  0.00     0.074 A 
ATOM     51  C   UNL A   1      38.242  30.752  29.902  1.00  0.00     0.031 C 
ATOM     52  C   UNL A   1      43.488  27.670  33.150  1.00  0.00     0.029 A 
ATOM     53  C   UNL A   1      42.857  28.770  33.872  1.00  0.00     0.049 A 
ATOM     54  H   UNL A   1      41.165  29.848  33.309  1.00  0.00     0.167 HD
ATOM     55  C   UNL A   1      37.861  32.313  31.787  1.00  0.00     0.037 A 
ATOM     56  C   UNL A   1      43.276  29.270  35.053  1.00  0.00     0.037 A 
ATOM     57  C   UNL A   1      38.149  32.825  33.101  1.00  0.00     0.049 A 
ATOM     58  C   UNL A   1      42.514  30.404  35.679  1.00  0.00     0.074 A 
ATOM     59  C   UNL A   1      37.491  33.820  33.800  1.00  0.00     0.029 A 
ATOM     60  N   UNL A   1      39.186  32.383  33.910  1.00  0.00    -0.354 N 
ATOM     61  N   UNL A   1      41.480  31.061  35.207  1.00  0.00    -0.248 NA
ATOM     62  C   UNL A   1      42.964  30.863  37.000  1.00  0.00     0.031 C 
ATOM     63  C   UNL A   1      38.161  34.014  35.013  1.00  0.00     0.029 A 
ATOM     64  C   UNL A   1      39.201  33.101  35.094  1.00  0.00     0.049 A 
ATOM     65  H   UNL A   1      39.819  31.666  33.677  1.00  0.00     0.167 HD
ATOM     66  C   UNL A   1      41.139  31.990  36.183  1.00  0.00     0.074 A 
ATOM     67  C   UNL A   1      42.077  31.812  37.273  1.00  0.00     0.031 C 
ATOM     68  C   UNL A   1      40.137  32.904  36.176  1.00  0.00     0.037 A 
BRANCH  55  69
ATOM     69  C   UNL A   1      36.759  32.950  30.982  1.00  0.00     0.058 A 
ATOM     70  C   UNL A   1      37.024  33.934  30.014  1.00  0.00     0.135 A 
ATOM     71  C   UNL A   1      35.420  32.590  31.195  1.00  0.00     0.135 A 
ATOM     72  F   UNL A   1      38.285  34.328  29.777  1.00  0.00    -0.206 F 
ATOM     73  C   UNL A   1      35.998  34.580  29.332  1.00  0.00     0.059 A 
ATOM     74  C   UNL A   1      34.378  33.197  30.498  1.00  0.00     0.059 A 
ATOM     75  F   UNL A   1      35.107  31.651  32.102  1.00  0.00    -0.206 F 
ATOM     76  C   UNL A   1      34.677  34.211  29.589  1.00  0.00     0.060 A 
BRANCH  76  77
ATOM     77  S   UNL A   1      33.353  35.091  28.735  1.00  0.00     0.124 S 
ATOM     78  O   UNL A   1      32.792  34.032  27.903  1.00  0.00    -0.237 OA
ATOM     79  O   UNL A   1      32.511  35.542  29.840  1.00  0.00    -0.237 OA
ATOM     80  O   UNL A   1      34.057  36.148  28.016  1.00  0.00    -0.744 OA
ENDBRANCH  76  77
ENDBRANCH  55  69
BRANCH  56  81
ATOM     81  C   UNL A   1      44.469  28.676  35.710  1.00  0.00     0.058 A 
ATOM     82  C   UNL A   1      44.344  27.592  36.592  1.00  0.00     0.135 A 
ATOM     83  C   UNL A   1      45.763  29.131  35.411  1.00  0.00     0.135 A 
ATOM     84  F   UNL A   1      43.128  27.126  36.913  1.00  0.00    -0.206 F 
ATOM     85  C   UNL A   1      45.460  26.977  37.150  1.00  0.00     0.059 A 
ATOM     86  C   UNL A   1      46.895  28.518  35.939  1.00  0.00     0.059 A 
ATOM     87  F   UNL A   1      45.934  30.154  34.559  1.00  0.00    -0.206 F 
ATOM     88  C   UNL A   1      46.732  27.440  36.809  1.00  0.00     0.060 A 
BRANCH  88  89
ATOM     89  S   UNL A   1      48.174  26.573  37.467  1.00  0.00     0.124 S 
ATOM     90  O   UNL A   1      47.558  25.404  38.082  1.00  0.00    -0.237 OA
ATOM     91  O   UNL A   1      48.954  26.323  36.258  1.00  0.00    -0.237 OA
ATOM     92  O   UNL A   1      48.756  27.542  38.389  1.00  0.00    -0.744 OA
ENDBRANCH  88  89
ENDBRANCH  56  81
BRANCH  68  93
ATOM     93  C   UNL A   1      39.963  33.764  37.397  1.00  0.00     0.058 A 
ATOM     94  C   UNL A   1      40.663  34.970  37.556  1.00  0.00     0.135 A 
ATOM     95  C   UNL A   1      39.007  33.426  38.368  1.00  0.00     0.135 A 
ATOM     96  F   UNL A   1      41.594  35.335  36.661  1.00  0.00    -0.206 F 
ATOM     97  C   UNL A   1      40.420  35.811  38.637  1.00  0.00     0.059 A 
ATOM     98  C   UNL A   1      38.730  34.264  39.443  1.00  0.00     0.059 A 
ATOM     99  F   UNL A   1      38.305  32.286  38.257  1.00  0.00    -0.206 F 
ATOM    100  C   UNL A   1      39.443  35.455  39.571  1.00  0.00     0.060 A 
BRANCH 100 101
ATOM    101  S   UNL A   1      39.082  36.593  40.924  1.00  0.00     0.124 S 
ATOM    102  O   UNL A   1      38.288  35.750  41.813  1.00  0.00    -0.237 OA
ATOM    103  O   UNL A   1      40.416  36.940  41.404  1.00  0.00    -0.237 OA
ATOM    104  O   UNL A   1      38.355  37.678  40.272  1.00  0.00    -0.744 OA
ENDBRANCH 100 101
ENDBRANCH  68  93
ENDBRANCH  42  43
ENDBRANCH  34  37
ENDBRANCH  32  33
ENDBRANCH  31  32
ENDBRANCH  30  31
ENDBRANCH   1  30
TORSDOF 21
ENDMDL
MODEL 2
REMARK VINA RESULT:     -11.2      1.784      8.753
REMARK SMILES COc1ccccc1[C@@H]1CN(C(=O)Cc2csc(C)n2)C[C@H]1C(=O)NCCCCCCNC(=O)c1ccc(-c2c3nc(c(-c4c(F)cc(S(=O)(=O)[O-])cc4F)c4ccc([nH]4)c(-c4c(F)cc(S(=O)(=O)[O-])cc4F)c4nc(c(-c5c(F)cc(S(=O)(=O)[O-])cc5F)c5ccc2[nH]5)C=C4)C=C3)cc1
REMARK SMILES IDX 28 1 27 2 26 3 25 4 23 5 24 6 22 8 9 9 10 10 11 11 21 12
REMARK SMILES IDX 8 13 3 14 4 15 5 16 7 17 6 18 2 19 1 20 12 21 13 22 14 23
REMARK SMILES IDX 15 24 16 25 20 26 17 27 18 28 19 29 29 30 30 31 31 32 32 33
REMARK SMILES IDX 33 34 34 36 35 37 36 38 100 39 37 40 99 41 38 42 39 43 40 44
REMARK SMILES IDX 93 45 41 46 98 47 92 48 94 49 42 50 97 51 91 52 90 53 43 55
REMARK SMILES IDX 77 56 56 57 76 58 57 59 60 60 75 61 95 62 58 63 59 64 74 66
REMARK SMILES IDX 96 67 61 68 44 69 45 70 54 71 46 72 47 73 53 74 55 75 48 76
REMARK SMILES IDX 49 77 50 78 51 79 52 80 78 81 79 82 88 83 80 84 81 85 87 86
REMARK SMILES IDX 89 87 82 88 83 89 84 90 85 91 86 92 62 93 63 94 72 95 64 96
REMARK SMILES IDX 65 97 71 98 73 99 66 100 67 101 68 102 69 103 70 104
REMARK H PARENT 25 7 32 35 94 54 60 65
REMARK Flexibility Score: inf
ROOT
ATOM      1  C   UNL A   1      35.100  24.287  25.507  1.00  0.00     0.002 C 
ENDROOT
BRANCH   1   2
ATOM      2  C   UNL A   1      33.842  24.326  26.380  1.00  0.00     0.021 C 
BRANCH   2   3
ATOM      3  C   UNL A   1      33.046  25.621  26.254  1.00  0.00     0.116 C 
BRANCH   3   4
ATOM      4  N   UNL A   1      31.701  25.441  26.763  1.00  0.00    -0.356 N 
ATOM      5  C   UNL A   1      30.547  25.114  26.132  1.00  0.00     0.225 C 
ATOM      6  O   UNL A   1      29.518  25.083  26.815  1.00  0.00    -0.275 OA
ATOM      7  H   UNL A   1      31.610  25.582  27.733  1.00  0.00     0.163 HD
BRANCH   5   8
ATOM      8  C   UNL A   1      30.494  24.768  24.658  1.00  0.00     0.107 C 
ATOM      9  C   UNL A   1      31.450  25.569  23.753  1.00  0.00     0.057 C 
ATOM     10  C   UNL A   1      31.926  24.565  22.702  1.00  0.00     0.128 C 
ATOM     11  N   UNL A   1      31.819  23.276  23.361  1.00  0.00    -0.341 N 
ATOM     12  C   UNL A   1      30.813  23.296  24.408  1.00  0.00     0.133 C 
BRANCH   9  13
ATOM     13  C   UNL A   1      30.907  26.882  23.229  1.00  0.00    -0.000 A 
ATOM     14  C   UNL A   1      31.658  27.878  22.582  1.00  0.00     0.122 A 
ATOM     15  C   UNL A   1      31.042  29.056  22.136  1.00  0.00     0.047 A 
ATOM     16  C   UNL A   1      29.680  29.272  22.347  1.00  0.00     0.004 A 
ATOM     17  C   UNL A   1      29.532  27.128  23.434  1.00  0.00     0.008 A 
ATOM     18  C   UNL A   1      28.928  28.314  23.013  1.00  0.00     0.001 A 
BRANCH  14  19
ATOM     19  O   UNL A   1      33.026  27.874  22.539  1.00  0.00    -0.496 OA
ATOM     20  C   UNL A   1      33.649  28.744  23.475  1.00  0.00     0.278 C 
ENDBRANCH  14  19
ENDBRANCH   9  13
BRANCH  11  21
ATOM     21  C   UNL A   1      32.448  22.098  23.012  1.00  0.00     0.228 C 
ATOM     22  O   UNL A   1      32.079  21.457  22.023  1.00  0.00    -0.274 OA
BRANCH  21  23
ATOM     23  C   UNL A   1      33.523  21.549  23.936  1.00  0.00     0.157 C 
BRANCH  23  24
ATOM     24  C   UNL A   1      33.284  20.134  24.352  1.00  0.00     0.061 A 
ATOM     25  C   UNL A   1      32.602  19.723  25.483  1.00  0.00     0.091 A 
ATOM     26  N   UNL A   1      33.775  19.098  23.573  1.00  0.00    -0.246 NA
ATOM     27  S   UNL A   1      32.595  18.012  25.583  1.00  0.00    -0.127 S 
ATOM     28  C   UNL A   1      33.477  17.938  24.113  1.00  0.00     0.090 A 
ATOM     29  C   UNL A   1      33.856  16.624  23.529  1.00  0.00     0.079 C 
ENDBRANCH  23  24
ENDBRANCH  21  23
ENDBRANCH  11  21
ENDBRANCH   5   8
ENDBRANCH   3   4
ENDBRANCH   2   3
ENDBRANCH   1   2
BRANCH   1  30
ATOM     30  C   UNL A   1      36.287  23.540  26.124  1.00  0.00     0.002 C 
BRANCH  30  31
ATOM     31  C   UNL A   1      37.654  23.932  25.559  1.00  0.00     0.021 C 
BRANCH  31  32
ATOM     32  C   UNL A   1      38.687  24.294  26.618  1.00  0.00     0.116 C 
BRANCH  32  33
ATOM     33  N   UNL A   1      40.043  24.031  26.164  1.00  0.00    -0.352 N 
ATOM     34  C   UNL A   1      41.196  24.692  26.506  1.00  0.00     0.251 C 
ATOM     35  H   UNL A   1      40.147  23.285  25.531  1.00  0.00     0.163 HD
ATOM     36  O   UNL A   1      42.237  24.490  25.888  1.00  0.00    -0.269 OA
BRANCH  34  37
ATOM     37  C   UNL A   1      41.157  25.662  27.617  1.00  0.00     0.039 A 
ATOM     38  C   UNL A   1      42.113  26.679  27.671  1.00  0.00     0.014 A 
ATOM     39  C   UNL A   1      40.148  25.582  28.581  1.00  0.00     0.014 A 
ATOM     40  C   UNL A   1      42.026  27.651  28.669  1.00  0.00     0.010 A 
ATOM     41  C   UNL A   1      40.021  26.590  29.526  1.00  0.00     0.010 A 
ATOM     42  C   UNL A   1      40.963  27.629  29.587  1.00  0.00    -0.014 A 
BRANCH  42  43
ATOM     43  C   UNL A   1      40.820  28.665  30.639  1.00  0.00     0.031 A 
ATOM     44  C   UNL A   1      41.655  28.576  31.885  1.00  0.00     0.074 A 
ATOM     45  C   UNL A   1      39.878  29.619  30.519  1.00  0.00     0.049 A 
ATOM     46  N   UNL A   1      41.591  29.292  32.978  1.00  0.00    -0.248 NA
ATOM     47  C   UNL A   1      42.674  27.515  31.920  1.00  0.00     0.031 C 
ATOM     48  C   UNL A   1      38.974  29.777  29.378  1.00  0.00     0.029 A 
ATOM     49  N   UNL A   1      39.504  30.620  31.380  1.00  0.00    -0.354 N 
ATOM     50  C   UNL A   1      42.543  28.752  33.836  1.00  0.00     0.074 A 
ATOM     51  C   UNL A   1      43.127  27.616  33.159  1.00  0.00     0.031 C 
ATOM     52  C   UNL A   1      38.152  30.813  29.609  1.00  0.00     0.029 A 
ATOM     53  C   UNL A   1      38.440  31.365  30.930  1.00  0.00     0.049 A 
ATOM     54  H   UNL A   1      39.955  30.788  32.239  1.00  0.00     0.167 HD
ATOM     55  C   UNL A   1      42.908  29.179  35.068  1.00  0.00     0.037 A 
ATOM     56  C   UNL A   1      37.759  32.367  31.522  1.00  0.00     0.037 A 
ATOM     57  C   UNL A   1      42.331  30.323  35.724  1.00  0.00     0.049 A 
ATOM     58  C   UNL A   1      38.182  32.834  32.887  1.00  0.00     0.074 A 
ATOM     59  C   UNL A   1      42.669  30.877  36.944  1.00  0.00     0.029 A 
ATOM     60  N   UNL A   1      41.289  31.084  35.212  1.00  0.00    -0.354 N 
ATOM     61  N   UNL A   1      39.128  32.357  33.662  1.00  0.00    -0.248 NA
ATOM     62  C   UNL A   1      37.457  33.977  33.456  1.00  0.00     0.031 C 
ATOM     63  C   UNL A   1      41.799  31.944  37.193  1.00  0.00     0.029 A 
ATOM     64  C   UNL A   1      40.957  32.091  36.103  1.00  0.00     0.049 A 
ATOM     65  H   UNL A   1      40.851  30.931  34.344  1.00  0.00     0.167 HD
ATOM     66  C   UNL A   1      39.130  33.158  34.798  1.00  0.00     0.074 A 
ATOM     67  C   UNL A   1      38.092  34.151  34.610  1.00  0.00     0.031 C 
ATOM     68  C   UNL A   1      39.925  33.080  35.895  1.00  0.00     0.037 A 
BRANCH  55  69
ATOM     69  C   UNL A   1      43.973  28.390  35.782  1.00  0.00     0.058 A 
ATOM     70  C   UNL A   1      45.341  28.646  35.586  1.00  0.00     0.135 A 
ATOM     71  C   UNL A   1      43.624  27.350  36.657  1.00  0.00     0.135 A 
ATOM     72  F   UNL A   1      45.734  29.621  34.751  1.00  0.00    -0.206 F 
ATOM     73  C   UNL A   1      46.322  27.862  36.183  1.00  0.00     0.059 A 
ATOM     74  C   UNL A   1      44.589  26.574  37.294  1.00  0.00     0.059 A 
ATOM     75  F   UNL A   1      42.333  27.064  36.888  1.00  0.00    -0.206 F 
ATOM     76  C   UNL A   1      45.935  26.819  37.027  1.00  0.00     0.060 A 
BRANCH  76  77
ATOM     77  S   UNL A   1      47.216  25.777  37.755  1.00  0.00     0.124 S 
ATOM     78  O   UNL A   1      47.546  26.526  38.963  1.00  0.00    -0.237 OA
ATOM     79  O   UNL A   1      46.512  24.515  37.964  1.00  0.00    -0.237 OA
ATOM     80  O   UNL A   1      48.254  25.750  36.730  1.00  0.00    -0.744 OA
ENDBRANCH  76  77
ENDBRANCH  55  69
BRANCH  56  81
ATOM     81  C   UNL A   1      36.619  32.993  30.803  1.00  0.00     0.058 A 
ATOM     82  C   UNL A   1      35.294  32.721  31.173  1.00  0.00     0.135 A 
ATOM     83  C   UNL A   1      36.834  33.932  29.782  1.00  0.00     0.135 A 
ATOM     84  F   UNL A   1      35.038  31.826  32.139  1.00  0.00    -0.206 F 
ATOM     85  C   UNL A   1      34.221  33.362  30.560  1.00  0.00     0.059 A 
ATOM     86  C   UNL A   1      35.779  34.603  29.171  1.00  0.00     0.059 A 
ATOM     87  F   UNL A   1      38.085  34.240  29.405  1.00  0.00    -0.206 F 
ATOM     88  C   UNL A   1      34.475  34.310  29.568  1.00  0.00     0.060 A 
BRANCH  88  89
ATOM     89  S   UNL A   1      33.079  35.202  28.848  1.00  0.00     0.124 S 
ATOM     90  O   UNL A   1      32.257  35.461  30.024  1.00  0.00    -0.237 OA
ATOM     91  O   UNL A   1      33.735  36.366  28.259  1.00  0.00    -0.237 OA
ATOM     92  O   UNL A   1      32.531  34.250  27.888  1.00  0.00    -0.744 OA
ENDBRANCH  88  89
ENDBRANCH  56  81
BRANCH  68  93
ATOM     93  C   UNL A   1      39.741  34.114  36.970  1.00  0.00     0.058 A 
ATOM     94  C   UNL A   1      38.980  33.857  38.120  1.00  0.00     0.135 A 
ATOM     95  C   UNL A   1      40.423  35.339  36.894  1.00  0.00     0.135 A 
ATOM     96  F   UNL A   1      38.301  32.705  38.239  1.00  0.00    -0.206 F 
ATOM     97  C   UNL A   1      38.901  34.780  39.158  1.00  0.00     0.059 A 
ATOM     98  C   UNL A   1      40.379  36.266  37.930  1.00  0.00     0.059 A 
ATOM     99  F   UNL A   1      41.172  35.630  35.818  1.00  0.00    -0.206 F 
ATOM    100  C   UNL A   1      39.613  35.978  39.059  1.00  0.00     0.060 A 
BRANCH 100 101
ATOM    101  S   UNL A   1      39.565  37.131  40.446  1.00  0.00     0.124 S 
ATOM    102  O   UNL A   1      39.013  38.327  39.817  1.00  0.00    -0.237 OA
ATOM    103  O   UNL A   1      38.685  36.448  41.390  1.00  0.00    -0.237 OA
ATOM    104  O   UNL A   1      40.963  37.227  40.858  1.00  0.00    -0.744 OA
ENDBRANCH 100 101
ENDBRANCH  68  93
ENDBRANCH  42  43
ENDBRANCH  34  37
ENDBRANCH  32  33
ENDBRANCH  31  32
ENDBRANCH  30  31
ENDBRANCH   1  30
TORSDOF 21
ENDMDL
MODEL 3
REMARK VINA RESULT:     -11.0      3.016      3.774
REMARK SMILES COc1ccccc1[C@@H]1CN(C(=O)Cc2csc(C)n2)C[C@H]1C(=O)NCCCCCCNC(=O)c1ccc(-c2c3nc(c(-c4c(F)cc(S(=O)(=O)[O-])cc4F)c4ccc([nH]4)c(-c4c(F)cc(S(=O)(=O)[O-])cc4F)c4nc(c(-c5c(F)cc(S(=O)(=O)[O-])cc5F)c5ccc2[nH]5)C=C4)C=C3)cc1
REMARK SMILES IDX 28 1 27 2 26 3 25 4 23 5 24 6 22 8 9 9 10 10 11 11 21 12
REMARK SMILES IDX 8 13 3 14 4 15 5 16 7 17 6 18 2 19 1 20 12 21 13 22 14 23
REMARK SMILES IDX 15 24 16 25 20 26 17 27 18 28 19 29 29 30 30 31 31 32 32 33
REMARK SMILES IDX 33 34 34 36 35 37 36 38 100 39 37 40 99 41 38 42 39 43 40 44
REMARK SMILES IDX 93 45 41 46 98 47 92 48 94 49 42 50 97 51 91 52 90 53 43 55
REMARK SMILES IDX 77 56 56 57 76 58 57 59 60 60 75 61 95 62 58 63 59 64 74 66
REMARK SMILES IDX 96 67 61 68 44 69 45 70 54 71 46 72 47 73 53 74 55 75 48 76
REMARK SMILES IDX 49 77 50 78 51 79 52 80 78 81 79 82 88 83 80 84 81 85 87 86
REMARK SMILES IDX 89 87 82 88 83 89 84 90 85 91 86 92 62 93 63 94 72 95 64 96
REMARK SMILES IDX 65 97 71 98 73 99 66 100 67 101 68 102 69 103 70 104
REMARK H PARENT 25 7 32 35 94 54 60 65
REMARK Flexibility Score: inf
ROOT
ATOM      1  C   UNL A   1      38.568  20.018  24.845  1.00  0.00     0.002 C 
ENDROOT
BRANCH   1   2
ATOM      2  C   UNL A   1      37.125  19.534  25.021  1.00  0.00     0.021 C 
BRANCH   2   3
ATOM      3  C   UNL A   1      36.080  20.620  24.788  1.00  0.00     0.116 C 
BRANCH   3   4
ATOM      4  N   UNL A   1      35.553  21.095  26.052  1.00  0.00    -0.356 N 
ATOM      5  C   UNL A   1      34.577  21.993  26.328  1.00  0.00     0.225 C 
ATOM      6  O   UNL A   1      34.367  22.254  27.517  1.00  0.00    -0.275 OA
ATOM      7  H   UNL A   1      35.977  20.697  26.847  1.00  0.00     0.163 HD
BRANCH   5   8
ATOM      8  C   UNL A   1      33.741  22.646  25.246  1.00  0.00     0.107 C 
ATOM      9  C   UNL A   1      32.350  22.024  25.015  1.00  0.00     0.057 C 
ATOM     10  C   UNL A   1      31.437  23.210  24.707  1.00  0.00     0.128 C 
ATOM     11  N   UNL A   1      32.067  24.334  25.378  1.00  0.00    -0.341 N 
ATOM     12  C   UNL A   1      33.496  24.126  25.532  1.00  0.00     0.133 C 
BRANCH   9  13
ATOM     13  C   UNL A   1      32.305  20.871  24.033  1.00  0.00    -0.000 A 
ATOM     14  C   UNL A   1      32.512  19.518  24.349  1.00  0.00     0.122 A 
ATOM     15  C   UNL A   1      32.443  18.536  23.351  1.00  0.00     0.047 A 
ATOM     16  C   UNL A   1      32.191  18.884  22.024  1.00  0.00     0.004 A 
ATOM     17  C   UNL A   1      32.057  21.197  22.681  1.00  0.00     0.008 A 
ATOM     18  C   UNL A   1      32.016  20.220  21.686  1.00  0.00     0.001 A 
BRANCH  14  19
ATOM     19  O   UNL A   1      32.996  19.098  25.558  1.00  0.00    -0.496 OA
ATOM     20  C   UNL A   1      32.762  17.725  25.843  1.00  0.00     0.278 C 
ENDBRANCH  14  19
ENDBRANCH   9  13
BRANCH  11  21
ATOM     21  C   UNL A   1      31.489  25.537  25.729  1.00  0.00     0.228 C 
ATOM     22  O   UNL A   1      30.715  25.606  26.688  1.00  0.00    -0.274 OA
BRANCH  21  23
ATOM     23  C   UNL A   1      31.734  26.745  24.839  1.00  0.00     0.157 C 
BRANCH  23  24
ATOM     24  C   UNL A   1      32.224  27.943  25.585  1.00  0.00     0.061 A 
ATOM     25  C   UNL A   1      31.570  29.156  25.696  1.00  0.00     0.091 A 
ATOM     26  N   UNL A   1      33.446  27.891  26.239  1.00  0.00    -0.246 NA
ATOM     27  S   UNL A   1      32.508  30.255  26.616  1.00  0.00    -0.127 S 
ATOM     28  C   UNL A   1      33.705  29.042  26.818  1.00  0.00     0.090 A 
ATOM     29  C   UNL A   1      34.935  29.322  27.604  1.00  0.00     0.079 C 
ENDBRANCH  23  24
ENDBRANCH  21  23
ENDBRANCH  11  21
ENDBRANCH   5   8
ENDBRANCH   3   4
ENDBRANCH   2   3
ENDBRANCH   1   2
BRANCH   1  30
ATOM     30  C   UNL A   1      39.543  19.537  25.924  1.00  0.00     0.002 C 
BRANCH  30  31
ATOM     31  C   UNL A   1      40.714  20.484  26.199  1.00  0.00     0.021 C 
BRANCH  31  32
ATOM     32  C   UNL A   1      40.298  21.874  26.660  1.00  0.00     0.116 C 
BRANCH  32  33
ATOM     33  N   UNL A   1      39.175  22.386  25.891  1.00  0.00    -0.352 N 
ATOM     34  C   UNL A   1      38.535  23.592  26.024  1.00  0.00     0.251 C 
ATOM     35  H   UNL A   1      38.832  21.792  25.185  1.00  0.00     0.163 HD
ATOM     36  O   UNL A   1      37.474  23.803  25.442  1.00  0.00    -0.269 OA
BRANCH  34  37
ATOM     37  C   UNL A   1      39.132  24.623  26.895  1.00  0.00     0.039 A 
ATOM     38  C   UNL A   1      40.038  25.536  26.352  1.00  0.00     0.014 A 
ATOM     39  C   UNL A   1      38.760  24.703  28.240  1.00  0.00     0.014 A 
ATOM     40  C   UNL A   1      40.536  26.566  27.151  1.00  0.00     0.010 A 
ATOM     41  C   UNL A   1      39.198  25.771  29.011  1.00  0.00     0.010 A 
ATOM     42  C   UNL A   1      40.098  26.708  28.478  1.00  0.00    -0.014 A 
BRANCH  42  43
ATOM     43  C   UNL A   1      40.580  27.811  29.345  1.00  0.00     0.031 A 
ATOM     44  C   UNL A   1      39.711  29.018  29.561  1.00  0.00     0.074 A 
ATOM     45  C   UNL A   1      41.827  27.771  29.853  1.00  0.00     0.049 A 
ATOM     46  N   UNL A   1      39.992  30.143  30.164  1.00  0.00    -0.248 NA
ATOM     47  C   UNL A   1      38.357  28.964  28.987  1.00  0.00     0.031 C 
ATOM     48  C   UNL A   1      42.779  26.675  29.671  1.00  0.00     0.029 A 
ATOM     49  N   UNL A   1      42.516  28.690  30.602  1.00  0.00    -0.354 N 
ATOM     50  C   UNL A   1      38.860  30.939  30.022  1.00  0.00     0.074 A 
ATOM     51  C   UNL A   1      37.914  30.188  29.227  1.00  0.00     0.031 C 
ATOM     52  C   UNL A   1      43.929  26.985  30.291  1.00  0.00     0.029 A 
ATOM     53  C   UNL A   1      43.810  28.317  30.878  1.00  0.00     0.049 A 
ATOM     54  H   UNL A   1      42.122  29.538  30.912  1.00  0.00     0.167 HD
ATOM     55  C   UNL A   1      38.626  32.173  30.526  1.00  0.00     0.037 A 
ATOM     56  C   UNL A   1      44.797  28.980  31.514  1.00  0.00     0.037 A 
ATOM     57  C   UNL A   1      39.570  32.902  31.332  1.00  0.00     0.049 A 
ATOM     58  C   UNL A   1      44.518  30.347  32.074  1.00  0.00     0.074 A 
ATOM     59  C   UNL A   1      39.412  34.132  31.942  1.00  0.00     0.029 A 
ATOM     60  N   UNL A   1      40.853  32.466  31.633  1.00  0.00    -0.354 N 
ATOM     61  N   UNL A   1      43.421  31.062  31.990  1.00  0.00    -0.248 NA
ATOM     62  C   UNL A   1      45.602  30.996  32.823  1.00  0.00     0.031 C 
ATOM     63  C   UNL A   1      40.616  34.463  32.572  1.00  0.00     0.029 A 
ATOM     64  C   UNL A   1      41.506  33.414  32.403  1.00  0.00     0.049 A 
ATOM     65  H   UNL A   1      41.242  31.610  31.342  1.00  0.00     0.167 HD
ATOM     66  C   UNL A   1      43.673  32.232  32.696  1.00  0.00     0.074 A 
ATOM     67  C   UNL A   1      45.026  32.130  33.203  1.00  0.00     0.031 C 
ATOM     68  C   UNL A   1      42.853  33.292  32.909  1.00  0.00     0.037 A 
BRANCH  55  69
ATOM     69  C   UNL A   1      37.300  32.808  30.203  1.00  0.00     0.058 A 
ATOM     70  C   UNL A   1      37.129  33.633  29.079  1.00  0.00     0.135 A 
ATOM     71  C   UNL A   1      36.191  32.609  31.040  1.00  0.00     0.135 A 
ATOM     72  F   UNL A   1      38.158  33.870  28.250  1.00  0.00    -0.206 F 
ATOM     73  C   UNL A   1      35.926  34.285  28.829  1.00  0.00     0.059 A 
ATOM     74  C   UNL A   1      34.966  33.222  30.790  1.00  0.00     0.059 A 
ATOM     75  F   UNL A   1      36.294  31.826  32.125  1.00  0.00    -0.206 F 
ATOM     76  C   UNL A   1      34.852  34.081  29.699  1.00  0.00     0.060 A 
BRANCH  76  77
ATOM     77  S   UNL A   1      33.313  34.972  29.393  1.00  0.00     0.124 S 
ATOM     78  O   UNL A   1      32.714  34.979  30.724  1.00  0.00    -0.237 OA
ATOM     79  O   UNL A   1      33.789  36.264  28.905  1.00  0.00    -0.237 OA
ATOM     80  O   UNL A   1      32.632  34.144  28.403  1.00  0.00    -0.744 OA
ENDBRANCH  76  77
ENDBRANCH  55  69
BRANCH  56  81
ATOM     81  C   UNL A   1      46.128  28.335  31.658  1.00  0.00     0.058 A 
ATOM     82  C   UNL A   1      47.166  28.610  30.755  1.00  0.00     0.135 A 
ATOM     83  C   UNL A   1      46.411  27.490  32.743  1.00  0.00     0.135 A 
ATOM     84  F   UNL A   1      46.942  29.406  29.699  1.00  0.00    -0.206 F 
ATOM     85  C   UNL A   1      48.439  28.075  30.925  1.00  0.00     0.059 A 
ATOM     86  C   UNL A   1      47.682  26.962  32.947  1.00  0.00     0.059 A 
ATOM     87  F   UNL A   1      45.456  27.211  33.643  1.00  0.00    -0.206 F 
ATOM     88  C   UNL A   1      48.690  27.262  32.031  1.00  0.00     0.060 A 
BRANCH  88  89
ATOM     89  S   UNL A   1      50.370  26.651  32.292  1.00  0.00     0.124 S 
ATOM     90  O   UNL A   1      50.905  27.646  33.213  1.00  0.00    -0.237 OA
ATOM     91  O   UNL A   1      50.127  25.325  32.853  1.00  0.00    -0.237 OA
ATOM     92  O   UNL A   1      50.942  26.659  30.949  1.00  0.00    -0.744 OA
ENDBRANCH  88  89
ENDBRANCH  56  81
BRANCH  68  93
ATOM     93  C   UNL A   1      43.370  34.420  33.759  1.00  0.00     0.058 A 
ATOM     94  C   UNL A   1      44.091  35.489  33.207  1.00  0.00     0.135 A 
ATOM     95  C   UNL A   1      43.047  34.479  35.124  1.00  0.00     0.135 A 
ATOM     96  F   UNL A   1      44.433  35.477  31.910  1.00  0.00    -0.206 F 
ATOM     97  C   UNL A   1      44.476  36.579  33.982  1.00  0.00     0.059 A 
ATOM     98  C   UNL A   1      43.399  35.570  35.911  1.00  0.00     0.059 A 
ATOM     99  F   UNL A   1      42.351  33.484  35.698  1.00  0.00    -0.206 F 
ATOM    100  C   UNL A   1      44.115  36.616  35.331  1.00  0.00     0.060 A 
BRANCH 100 101
ATOM    101  S   UNL A   1      44.551  38.072  36.304  1.00  0.00     0.124 S 
ATOM    102  O   UNL A   1      44.175  39.154  35.400  1.00  0.00    -0.237 OA
ATOM    103  O   UNL A   1      43.713  37.917  37.490  1.00  0.00    -0.237 OA
ATOM    104  O   UNL A   1      45.984  37.914  36.533  1.00  0.00    -0.744 OA
ENDBRANCH 100 101
ENDBRANCH  68  93
ENDBRANCH  42  43
ENDBRANCH  34  37
ENDBRANCH  32  33
ENDBRANCH  31  32
ENDBRANCH  30  31
ENDBRANCH   1  30
TORSDOF 21
ENDMDL
