MODEL 1
REMARK VINA RESULT:     -11.3      0.000      0.000
REMARK SMILES CC(C)[C@H](NC(=O)[C@H](C)NC(=O)CNC(=O)OCc1ccccc1)C(=O)NCCCCCCNC(=O)c1ccc(-c2c3nc(c(-c4c(F)cc(S(=O)(=O)[O-])cc4F)c4ccc([nH]4)c(-c4c(F)cc(S(=O)(=O)[O-])cc4F)c4nc(c(-c5c(F)cc(S(=O)(=O)[O-])cc5F)c5ccc2[nH]5)C=C4)C=C3)cc1
REMARK SMILES IDX 28 1 27 2 25 3 26 4 4 6 2 7 1 8 3 9 5 10 6 11 7 13 8 14 9 15
REMARK SMILES IDX 10 16 11 17 12 19 13 20 14 21 15 22 16 24 17 25 18 26 19 27
REMARK SMILES IDX 20 28 24 29 21 30 23 31 22 32 29 33 30 34 31 35 32 36 33 37
REMARK SMILES IDX 34 38 35 39 36 41 37 42 38 43 102 44 39 45 101 46 40 47
REMARK SMILES IDX 41 48 42 49 95 50 43 51 100 52 94 53 96 54 44 55 99 56 93 57
REMARK SMILES IDX 92 58 45 60 79 61 58 62 78 63 59 64 62 65 77 66 97 67 60 68
REMARK SMILES IDX 61 69 76 71 98 72 63 73 46 74 47 75 56 76 48 77 49 78 55 79
REMARK SMILES IDX 57 80 50 81 51 82 52 83 53 84 54 85 80 86 81 87 90 88 82 89
REMARK SMILES IDX 83 90 89 91 91 92 84 93 85 94 86 95 87 96 88 97 64 98 65 99
REMARK SMILES IDX 74 100 66 101 67 102 73 103 75 104 68 105 69 106 70 107
REMARK SMILES IDX 71 108 72 109
REMARK H PARENT 27 5 5 12 10 18 14 23 34 40 96 59 62 70
REMARK Flexibility Score: inf
ROOT
ATOM      1  C   UNL A   1      31.977  30.576  26.437  1.00  0.00     0.116 C 
ENDROOT
BRANCH   1   2
ATOM      2  N   UNL A   1      31.605  28.982  26.635  1.00  0.00    -0.354 N 
ATOM      3  C   UNL A   1      31.773  27.629  26.118  1.00  0.00     0.242 C 
ATOM      4  O   UNL A   1      31.463  26.780  26.986  1.00  0.00    -0.273 OA
ATOM      5  H   UNL A   1      31.030  28.916  27.432  1.00  0.00     0.163 HD
BRANCH   3   6
ATOM      6  C   UNL A   1      32.083  26.885  24.505  1.00  0.00     0.173 C 
BRANCH   6   7
ATOM      7  C   UNL A   1      33.197  26.564  23.296  1.00  0.00     0.015 C 
ATOM      8  C   UNL A   1      33.963  25.210  23.586  1.00  0.00     0.010 C 
ATOM      9  C   UNL A   1      32.959  26.400  21.777  1.00  0.00     0.010 C 
ENDBRANCH   6   7
BRANCH   6  10
ATOM     10  N   UNL A   1      30.853  27.158  23.801  1.00  0.00    -0.342 N 
ATOM     11  C   UNL A   1      29.838  26.255  23.958  1.00  0.00     0.242 C 
ATOM     12  H   UNL A   1      30.750  27.956  23.236  1.00  0.00     0.164 HD
ATOM     13  O   UNL A   1      28.699  26.528  23.606  1.00  0.00    -0.273 OA
BRANCH  11  14
ATOM     14  C   UNL A   1      30.386  24.851  24.262  1.00  0.00     0.168 C 
ATOM     15  C   UNL A   1      30.449  23.951  23.020  1.00  0.00     0.041 C 
BRANCH  14  16
ATOM     16  N   UNL A   1      30.290  24.139  25.819  1.00  0.00    -0.343 N 
ATOM     17  C   UNL A   1      30.920  23.400  26.893  1.00  0.00     0.240 C 
ATOM     18  H   UNL A   1      29.374  24.317  26.130  1.00  0.00     0.164 HD
ATOM     19  O   UNL A   1      30.072  22.938  27.688  1.00  0.00    -0.273 OA
BRANCH  17  20
ATOM     20  C   UNL A   1      32.551  22.863  27.273  1.00  0.00     0.219 C 
BRANCH  20  21
ATOM     21  N   UNL A   1      33.834  23.450  26.696  1.00  0.00    -0.312 N 
ATOM     22  C   UNL A   1      35.132  22.982  26.513  1.00  0.00     0.407 C 
ATOM     23  H   UNL A   1      33.718  24.375  26.382  1.00  0.00     0.167 HD
ATOM     24  O   UNL A   1      36.047  23.778  26.364  1.00  0.00    -0.225 OA
BRANCH  22  25
ATOM     25  O   UNL A   1      35.328  21.637  26.612  1.00  0.00    -0.445 OA
BRANCH  25  26
ATOM     26  C   UNL A   1      35.467  20.864  25.373  1.00  0.00     0.270 C 
BRANCH  26  27
ATOM     27  C   UNL A   1      34.245  20.422  24.614  1.00  0.00    -0.011 A 
ATOM     28  C   UNL A   1      33.514  21.299  23.816  1.00  0.00     0.007 A 
ATOM     29  C   UNL A   1      33.817  19.082  24.723  1.00  0.00     0.007 A 
ATOM     30  C   UNL A   1      32.415  20.839  23.092  1.00  0.00     0.000 A 
ATOM     31  C   UNL A   1      32.713  18.624  24.003  1.00  0.00     0.000 A 
ATOM     32  C   UNL A   1      32.020  19.504  23.175  1.00  0.00     0.000 A 
ENDBRANCH  26  27
ENDBRANCH  25  26
ENDBRANCH  22  25
ENDBRANCH  20  21
ENDBRANCH  17  20
ENDBRANCH  14  16
ENDBRANCH  11  14
ENDBRANCH   6  10
ENDBRANCH   3   6
ENDBRANCH   1   2
BRANCH   1  33
ATOM     33  C   UNL A   1      32.766  31.437  27.419  1.00  0.00     0.021 C 
BRANCH  33  34
ATOM     34  C   UNL A   1      34.305  31.228  27.303  1.00  0.00     0.002 C 
BRANCH  34  35
ATOM     35  C   UNL A   1      35.299  31.962  28.243  1.00  0.00     0.002 C 
BRANCH  35  36
ATOM     36  C   UNL A   1      36.147  31.168  29.244  1.00  0.00     0.021 C 
BRANCH  36  37
ATOM     37  C   UNL A   1      36.355  31.794  30.616  1.00  0.00     0.116 C 
BRANCH  37  38
ATOM     38  N   UNL A   1      36.249  30.837  31.707  1.00  0.00    -0.352 N 
ATOM     39  C   UNL A   1      37.163  29.913  32.148  1.00  0.00     0.251 C 
ATOM     40  H   UNL A   1      35.398  30.855  32.202  1.00  0.00     0.163 HD
ATOM     41  O   UNL A   1      36.877  29.140  33.056  1.00  0.00    -0.269 OA
BRANCH  39  42
ATOM     42  C   UNL A   1      38.476  29.830  31.486  1.00  0.00     0.039 A 
ATOM     43  C   UNL A   1      39.609  29.644  32.279  1.00  0.00     0.014 A 
ATOM     44  C   UNL A   1      38.573  29.878  30.092  1.00  0.00     0.014 A 
ATOM     45  C   UNL A   1      40.844  29.436  31.666  1.00  0.00     0.010 A 
ATOM     46  C   UNL A   1      39.795  29.611  29.485  1.00  0.00     0.010 A 
ATOM     47  C   UNL A   1      40.937  29.379  30.266  1.00  0.00    -0.014 A 
BRANCH  47  48
ATOM     48  C   UNL A   1      42.223  29.046  29.608  1.00  0.00     0.031 A 
ATOM     49  C   UNL A   1      43.287  30.095  29.463  1.00  0.00     0.074 A 
ATOM     50  C   UNL A   1      42.398  27.811  29.097  1.00  0.00     0.049 A 
ATOM     51  N   UNL A   1      44.456  30.005  28.884  1.00  0.00    -0.248 NA
ATOM     52  C   UNL A   1      42.990  31.424  30.019  1.00  0.00     0.031 C 
ATOM     53  C   UNL A   1      41.408  26.732  29.141  1.00  0.00     0.029 A 
ATOM     54  N   UNL A   1      43.462  27.257  28.433  1.00  0.00    -0.354 N 
ATOM     55  C   UNL A   1      45.031  31.264  29.003  1.00  0.00     0.074 A 
ATOM     56  C   UNL A   1      44.062  32.114  29.659  1.00  0.00     0.031 C 
ATOM     57  C   UNL A   1      41.919  25.641  28.551  1.00  0.00     0.029 A 
ATOM     58  C   UNL A   1      43.255  25.952  28.051  1.00  0.00     0.049 A 
ATOM     59  H   UNL A   1      44.296  27.746  28.249  1.00  0.00     0.167 HD
ATOM     60  C   UNL A   1      46.266  31.664  28.617  1.00  0.00     0.037 A 
ATOM     61  C   UNL A   1      44.048  25.107  27.364  1.00  0.00     0.037 A 
ATOM     62  C   UNL A   1      47.224  30.800  27.977  1.00  0.00     0.049 A 
ATOM     63  C   UNL A   1      45.405  25.583  26.925  1.00  0.00     0.074 A 
ATOM     64  C   UNL A   1      48.526  31.084  27.608  1.00  0.00     0.029 A 
ATOM     65  N   UNL A   1      46.978  29.487  27.601  1.00  0.00    -0.354 N 
ATOM     66  N   UNL A   1      45.970  26.752  27.121  1.00  0.00    -0.248 NA
ATOM     67  C   UNL A   1      46.234  24.633  26.172  1.00  0.00     0.031 C 
ATOM     68  C   UNL A   1      49.049  29.961  26.959  1.00  0.00     0.029 A 
ATOM     69  C   UNL A   1      48.091  28.959  26.968  1.00  0.00     0.049 A 
ATOM     70  H   UNL A   1      46.137  29.001  27.761  1.00  0.00     0.167 HD
ATOM     71  C   UNL A   1      47.222  26.674  26.524  1.00  0.00     0.074 A 
ATOM     72  C   UNL A   1      47.342  25.335  25.983  1.00  0.00     0.031 C 
ATOM     73  C   UNL A   1      48.185  27.625  26.427  1.00  0.00     0.037 A 
BRANCH  60  74
ATOM     74  C   UNL A   1      46.650  33.096  28.875  1.00  0.00     0.058 A 
ATOM     75  C   UNL A   1      46.458  34.097  27.909  1.00  0.00     0.135 A 
ATOM     76  C   UNL A   1      47.186  33.479  30.114  1.00  0.00     0.135 A 
ATOM     77  F   UNL A   1      45.963  33.785  26.700  1.00  0.00    -0.206 F 
ATOM     78  C   UNL A   1      46.810  35.420  28.151  1.00  0.00     0.059 A 
ATOM     79  C   UNL A   1      47.519  34.802  30.390  1.00  0.00     0.059 A 
ATOM     80  F   UNL A   1      47.395  32.563  31.074  1.00  0.00    -0.206 F 
ATOM     81  C   UNL A   1      47.340  35.764  29.397  1.00  0.00     0.060 A 
BRANCH  81  82
ATOM     82  S   UNL A   1      47.783  37.487  29.697  1.00  0.00     0.124 S 
ATOM     83  O   UNL A   1      49.225  37.460  29.472  1.00  0.00    -0.237 OA
ATOM     84  O   UNL A   1      46.998  38.191  28.688  1.00  0.00    -0.237 OA
ATOM     85  O   UNL A   1      47.369  37.711  31.078  1.00  0.00    -0.744 OA
ENDBRANCH  81  82
ENDBRANCH  60  74
BRANCH  61  86
ATOM     86  C   UNL A   1      43.576  23.731  27.056  1.00  0.00     0.058 A 
ATOM     87  C   UNL A   1      43.548  22.737  28.045  1.00  0.00     0.135 A 
ATOM     88  C   UNL A   1      43.122  23.387  25.773  1.00  0.00     0.135 A 
ATOM     89  F   UNL A   1      43.978  23.013  29.286  1.00  0.00    -0.206 F 
ATOM     90  C   UNL A   1      43.096  21.449  27.773  1.00  0.00     0.059 A 
ATOM     91  C   UNL A   1      42.641  22.114  25.482  1.00  0.00     0.059 A 
ATOM     92  F   UNL A   1      43.113  24.305  24.793  1.00  0.00    -0.206 F 
ATOM     93  C   UNL A   1      42.640  21.149  26.488  1.00  0.00     0.060 A 
BRANCH  93  94
ATOM     94  S   UNL A   1      42.005  19.490  26.159  1.00  0.00     0.124 S 
ATOM     95  O   UNL A   1      42.442  18.768  27.348  1.00  0.00    -0.237 OA
ATOM     96  O   UNL A   1      40.570  19.729  26.048  1.00  0.00    -0.237 OA
ATOM     97  O   UNL A   1      42.669  19.117  24.914  1.00  0.00    -0.744 OA
ENDBRANCH  93  94
ENDBRANCH  61  86
BRANCH  73  98
ATOM     98  C   UNL A   1      49.451  27.255  25.707  1.00  0.00     0.058 A 
ATOM     99  C   UNL A   1      49.577  27.426  24.320  1.00  0.00     0.135 A 
ATOM    100  C   UNL A   1      50.571  26.794  26.417  1.00  0.00     0.135 A 
ATOM    101  F   UNL A   1      48.533  27.854  23.593  1.00  0.00    -0.206 F 
ATOM    102  C   UNL A   1      50.768  27.142  23.658  1.00  0.00     0.059 A 
ATOM    103  C   UNL A   1      51.780  26.531  25.781  1.00  0.00     0.059 A 
ATOM    104  F   UNL A   1      50.504  26.621  27.747  1.00  0.00    -0.206 F 
ATOM    105  C   UNL A   1      51.866  26.702  24.400  1.00  0.00     0.060 A 
BRANCH 105 106
ATOM    106  S   UNL A   1      53.419  26.391  23.535  1.00  0.00     0.124 S 
ATOM    107  O   UNL A   1      54.084  25.466  24.448  1.00  0.00    -0.237 OA
ATOM    108  O   UNL A   1      52.964  25.819  22.273  1.00  0.00    -0.237 OA
ATOM    109  O   UNL A   1      54.024  27.716  23.435  1.00  0.00    -0.744 OA
ENDBRANCH 105 106
ENDBRANCH  73  98
ENDBRANCH  47  48
ENDBRANCH  39  42
ENDBRANCH  37  38
ENDBRANCH  36  37
ENDBRANCH  35  36
ENDBRANCH  34  35
ENDBRANCH  33  34
ENDBRANCH   1  33
TORSDOF 25
ENDMDL
MODEL 2
REMARK VINA RESULT:     -10.8      3.137      8.904
REMARK SMILES CC(C)[C@H](NC(=O)[C@H](C)NC(=O)CNC(=O)OCc1ccccc1)C(=O)NCCCCCCNC(=O)c1ccc(-c2c3nc(c(-c4c(F)cc(S(=O)(=O)[O-])cc4F)c4ccc([nH]4)c(-c4c(F)cc(S(=O)(=O)[O-])cc4F)c4nc(c(-c5c(F)cc(S(=O)(=O)[O-])cc5F)c5ccc2[nH]5)C=C4)C=C3)cc1
REMARK SMILES IDX 28 1 27 2 25 3 26 4 4 6 2 7 1 8 3 9 5 10 6 11 7 13 8 14 9 15
REMARK SMILES IDX 10 16 11 17 12 19 13 20 14 21 15 22 16 24 17 25 18 26 19 27
REMARK SMILES IDX 20 28 24 29 21 30 23 31 22 32 29 33 30 34 31 35 32 36 33 37
REMARK SMILES IDX 34 38 35 39 36 41 37 42 38 43 102 44 39 45 101 46 40 47
REMARK SMILES IDX 41 48 42 49 95 50 43 51 100 52 94 53 96 54 44 55 99 56 93 57
REMARK SMILES IDX 92 58 45 60 79 61 58 62 78 63 59 64 62 65 77 66 97 67 60 68
REMARK SMILES IDX 61 69 76 71 98 72 63 73 46 74 47 75 56 76 48 77 49 78 55 79
REMARK SMILES IDX 57 80 50 81 51 82 52 83 53 84 54 85 80 86 81 87 90 88 82 89
REMARK SMILES IDX 83 90 89 91 91 92 84 93 85 94 86 95 87 96 88 97 64 98 65 99
REMARK SMILES IDX 74 100 66 101 67 102 73 103 75 104 68 105 69 106 70 107
REMARK SMILES IDX 71 108 72 109
REMARK H PARENT 27 5 5 12 10 18 14 23 34 40 96 59 62 70
REMARK Flexibility Score: inf
ROOT
ATOM      1  C   UNL A   1      30.758  23.396  26.167  1.00  0.00     0.116 C 
ENDROOT
BRANCH   1   2
ATOM      2  N   UNL A   1      29.853  24.669  25.636  1.00  0.00    -0.354 N 
ATOM      3  C   UNL A   1      29.873  26.013  25.073  1.00  0.00     0.242 C 
ATOM      4  O   UNL A   1      28.758  26.305  24.579  1.00  0.00    -0.273 OA
ATOM      5  H   UNL A   1      28.907  24.416  25.747  1.00  0.00     0.163 HD
BRANCH   3   6
ATOM      6  C   UNL A   1      30.998  27.422  25.114  1.00  0.00     0.173 C 
BRANCH   6   7
ATOM      7  C   UNL A   1      31.750  28.592  26.047  1.00  0.00     0.015 C 
ATOM      8  C   UNL A   1      31.678  28.216  27.582  1.00  0.00     0.010 C 
ATOM      9  C   UNL A   1      33.211  29.096  25.977  1.00  0.00     0.010 C 
ENDBRANCH   6   7
BRANCH   6  10
ATOM     10  N   UNL A   1      30.703  28.085  23.867  1.00  0.00    -0.342 N 
ATOM     11  C   UNL A   1      31.108  27.459  22.722  1.00  0.00     0.242 C 
ATOM     12  H   UNL A   1      30.230  28.949  23.843  1.00  0.00     0.164 HD
ATOM     13  O   UNL A   1      30.690  27.818  21.631  1.00  0.00    -0.273 OA
BRANCH  11  14
ATOM     14  C   UNL A   1      32.341  26.577  22.980  1.00  0.00     0.168 C 
ATOM     15  C   UNL A   1      33.666  27.319  22.755  1.00  0.00     0.041 C 
BRANCH  14  16
ATOM     16  N   UNL A   1      32.297  24.868  22.852  1.00  0.00    -0.343 N 
ATOM     17  C   UNL A   1      33.000  23.606  22.753  1.00  0.00     0.240 C 
ATOM     18  H   UNL A   1      31.341  24.633  22.841  1.00  0.00     0.164 HD
ATOM     19  O   UNL A   1      32.244  22.691  22.360  1.00  0.00    -0.273 OA
BRANCH  17  20
ATOM     20  C   UNL A   1      34.671  23.074  22.897  1.00  0.00     0.219 C 
BRANCH  20  21
ATOM     21  N   UNL A   1      35.140  21.804  23.597  1.00  0.00    -0.312 N 
ATOM     22  C   UNL A   1      34.605  20.966  24.572  1.00  0.00     0.407 C 
ATOM     23  H   UNL A   1      36.027  21.508  23.289  1.00  0.00     0.167 HD
ATOM     24  O   UNL A   1      35.344  20.230  25.209  1.00  0.00    -0.225 OA
BRANCH  22  25
ATOM     25  O   UNL A   1      33.275  21.090  24.836  1.00  0.00    -0.445 OA
BRANCH  25  26
ATOM     26  C   UNL A   1      32.380  20.006  24.416  1.00  0.00     0.270 C 
BRANCH  26  27
ATOM     27  C   UNL A   1      32.860  18.579  24.430  1.00  0.00    -0.011 A 
ATOM     28  C   UNL A   1      33.387  17.966  23.297  1.00  0.00     0.007 A 
ATOM     29  C   UNL A   1      32.759  17.835  25.625  1.00  0.00     0.007 A 
ATOM     30  C   UNL A   1      33.863  16.656  23.365  1.00  0.00     0.000 A 
ATOM     31  C   UNL A   1      33.230  16.523  25.690  1.00  0.00     0.000 A 
ATOM     32  C   UNL A   1      33.795  15.939  24.559  1.00  0.00     0.000 A 
ENDBRANCH  26  27
ENDBRANCH  25  26
ENDBRANCH  22  25
ENDBRANCH  20  21
ENDBRANCH  17  20
ENDBRANCH  14  16
ENDBRANCH  11  14
ENDBRANCH   6  10
ENDBRANCH   3   6
ENDBRANCH   1   2
BRANCH   1  33
ATOM     33  C   UNL A   1      31.735  23.423  27.338  1.00  0.00     0.021 C 
BRANCH  33  34
ATOM     34  C   UNL A   1      33.213  23.213  26.897  1.00  0.00     0.002 C 
BRANCH  34  35
ATOM     35  C   UNL A   1      34.011  24.326  26.165  1.00  0.00     0.002 C 
BRANCH  35  36
ATOM     36  C   UNL A   1      35.515  24.164  25.917  1.00  0.00     0.021 C 
BRANCH  36  37
ATOM     37  C   UNL A   1      36.305  23.397  26.970  1.00  0.00     0.116 C 
BRANCH  37  38
ATOM     38  N   UNL A   1      37.380  22.593  26.407  1.00  0.00    -0.352 N 
ATOM     39  C   UNL A   1      38.708  22.901  26.250  1.00  0.00     0.251 C 
ATOM     40  H   UNL A   1      37.117  21.697  26.095  1.00  0.00     0.163 HD
ATOM     41  O   UNL A   1      39.467  22.113  25.698  1.00  0.00    -0.269 OA
BRANCH  39  42
ATOM     42  C   UNL A   1      39.201  24.210  26.711  1.00  0.00     0.039 A 
ATOM     43  C   UNL A   1      39.169  24.487  28.079  1.00  0.00     0.014 A 
ATOM     44  C   UNL A   1      39.740  25.126  25.804  1.00  0.00     0.014 A 
ATOM     45  C   UNL A   1      39.745  25.666  28.550  1.00  0.00     0.010 A 
ATOM     46  C   UNL A   1      40.367  26.271  26.284  1.00  0.00     0.010 A 
ATOM     47  C   UNL A   1      40.382  26.545  27.659  1.00  0.00    -0.014 A 
BRANCH  47  48
ATOM     48  C   UNL A   1      41.097  27.742  28.162  1.00  0.00     0.031 A 
ATOM     49  C   UNL A   1      42.595  27.805  28.104  1.00  0.00     0.074 A 
ATOM     50  C   UNL A   1      40.387  28.745  28.719  1.00  0.00     0.049 A 
ATOM     51  N   UNL A   1      43.397  28.745  28.528  1.00  0.00    -0.248 NA
ATOM     52  C   UNL A   1      43.285  26.647  27.512  1.00  0.00     0.031 C 
ATOM     53  C   UNL A   1      38.930  28.763  28.869  1.00  0.00     0.029 A 
ATOM     54  N   UNL A   1      40.792  29.933  29.269  1.00  0.00    -0.354 N 
ATOM     55  C   UNL A   1      44.683  28.294  28.260  1.00  0.00     0.074 A 
ATOM     56  C   UNL A   1      44.558  26.972  27.687  1.00  0.00     0.031 C 
ATOM     57  C   UNL A   1      38.562  29.915  29.452  1.00  0.00     0.029 A 
ATOM     58  C   UNL A   1      39.756  30.698  29.753  1.00  0.00     0.049 A 
ATOM     59  H   UNL A   1      41.735  30.213  29.314  1.00  0.00     0.167 HD
ATOM     60  C   UNL A   1      45.858  28.936  28.456  1.00  0.00     0.037 A 
ATOM     61  C   UNL A   1      39.770  31.890  30.379  1.00  0.00     0.037 A 
ATOM     62  C   UNL A   1      45.963  30.259  29.016  1.00  0.00     0.049 A 
ATOM     63  C   UNL A   1      41.091  32.573  30.608  1.00  0.00     0.074 A 
ATOM     64  C   UNL A   1      47.098  31.029  29.194  1.00  0.00     0.029 A 
ATOM     65  N   UNL A   1      44.894  31.001  29.499  1.00  0.00    -0.354 N 
ATOM     66  N   UNL A   1      42.294  32.171  30.270  1.00  0.00    -0.248 NA
ATOM     67  C   UNL A   1      41.061  33.868  31.302  1.00  0.00     0.031 C 
ATOM     68  C   UNL A   1      46.723  32.214  29.836  1.00  0.00     0.029 A 
ATOM     69  C   UNL A   1      45.347  32.206  30.012  1.00  0.00     0.049 A 
ATOM     70  H   UNL A   1      43.953  30.715  29.480  1.00  0.00     0.167 HD
ATOM     71  C   UNL A   1      43.162  33.166  30.701  1.00  0.00     0.074 A 
ATOM     72  C   UNL A   1      42.344  34.201  31.301  1.00  0.00     0.031 C 
ATOM     73  C   UNL A   1      44.515  33.218  30.614  1.00  0.00     0.037 A 
BRANCH  60  74
ATOM     74  C   UNL A   1      47.121  28.219  28.065  1.00  0.00     0.058 A 
ATOM     75  C   UNL A   1      47.760  27.320  28.935  1.00  0.00     0.135 A 
ATOM     76  C   UNL A   1      47.685  28.408  26.794  1.00  0.00     0.135 A 
ATOM     77  F   UNL A   1      47.273  27.113  30.170  1.00  0.00    -0.206 F 
ATOM     78  C   UNL A   1      48.926  26.656  28.569  1.00  0.00     0.059 A 
ATOM     79  C   UNL A   1      48.834  27.732  26.395  1.00  0.00     0.059 A 
ATOM     80  F   UNL A   1      47.119  29.258  25.922  1.00  0.00    -0.206 F 
ATOM     81  C   UNL A   1      49.455  26.868  27.295  1.00  0.00     0.060 A 
BRANCH  81  82
ATOM     82  S   UNL A   1      50.964  25.991  26.834  1.00  0.00     0.124 S 
ATOM     83  O   UNL A   1      50.978  26.176  25.387  1.00  0.00    -0.237 OA
ATOM     84  O   UNL A   1      51.987  26.721  27.576  1.00  0.00    -0.237 OA
ATOM     85  O   UNL A   1      50.718  24.626  27.290  1.00  0.00    -0.744 OA
ENDBRANCH  81  82
ENDBRANCH  60  74
BRANCH  61  86
ATOM     86  C   UNL A   1      38.495  32.509  30.828  1.00  0.00     0.058 A 
ATOM     87  C   UNL A   1      37.710  33.269  29.949  1.00  0.00     0.135 A 
ATOM     88  C   UNL A   1      38.022  32.332  32.139  1.00  0.00     0.135 A 
ATOM     89  F   UNL A   1      38.120  33.472  28.688  1.00  0.00    -0.206 F 
ATOM     90  C   UNL A   1      36.507  33.840  30.354  1.00  0.00     0.059 A 
ATOM     91  C   UNL A   1      36.810  32.872  32.560  1.00  0.00     0.059 A 
ATOM     92  F   UNL A   1      38.726  31.601  33.017  1.00  0.00    -0.206 F 
ATOM     93  C   UNL A   1      36.064  33.633  31.661  1.00  0.00     0.060 A 
BRANCH  93  94
ATOM     94  S   UNL A   1      34.475  34.335  32.159  1.00  0.00     0.124 S 
ATOM     95  O   UNL A   1      34.859  35.141  33.312  1.00  0.00    -0.237 OA
ATOM     96  O   UNL A   1      34.080  35.074  30.965  1.00  0.00    -0.237 OA
ATOM     97  O   UNL A   1      33.666  33.156  32.454  1.00  0.00    -0.744 OA
ENDBRANCH  93  94
ENDBRANCH  61  86
BRANCH  73  98
ATOM     98  C   UNL A   1      45.198  34.430  31.184  1.00  0.00     0.058 A 
ATOM     99  C   UNL A   1      45.404  35.583  30.411  1.00  0.00     0.135 A 
ATOM    100  C   UNL A   1      45.586  34.465  32.533  1.00  0.00     0.135 A 
ATOM    101  F   UNL A   1      45.061  35.597  29.113  1.00  0.00    -0.206 F 
ATOM    102  C   UNL A   1      45.981  36.726  30.952  1.00  0.00     0.059 A 
ATOM    103  C   UNL A   1      46.139  35.607  33.103  1.00  0.00     0.059 A 
ATOM    104  F   UNL A   1      45.404  33.390  33.318  1.00  0.00    -0.206 F 
ATOM    105  C   UNL A   1      46.339  36.731  32.302  1.00  0.00     0.060 A 
BRANCH 105 106
ATOM    106  S   UNL A   1      47.035  38.241  33.003  1.00  0.00     0.124 S 
ATOM    107  O   UNL A   1      46.051  39.237  32.594  1.00  0.00    -0.237 OA
ATOM    108  O   UNL A   1      47.071  37.934  34.429  1.00  0.00    -0.237 OA
ATOM    109  O   UNL A   1      48.340  38.346  32.357  1.00  0.00    -0.744 OA
ENDBRANCH 105 106
ENDBRANCH  73  98
ENDBRANCH  47  48
ENDBRANCH  39  42
ENDBRANCH  37  38
ENDBRANCH  36  37
ENDBRANCH  35  36
ENDBRANCH  34  35
ENDBRANCH  33  34
ENDBRANCH   1  33
TORSDOF 25
ENDMDL
MODEL 3
REMARK VINA RESULT:     -10.7      7.804     12.113
REMARK SMILES CC(C)[C@H](NC(=O)[C@H](C)NC(=O)CNC(=O)OCc1ccccc1)C(=O)NCCCCCCNC(=O)c1ccc(-c2c3nc(c(-c4c(F)cc(S(=O)(=O)[O-])cc4F)c4ccc([nH]4)c(-c4c(F)cc(S(=O)(=O)[O-])cc4F)c4nc(c(-c5c(F)cc(S(=O)(=O)[O-])cc5F)c5ccc2[nH]5)C=C4)C=C3)cc1
REMARK SMILES IDX 28 1 27 2 25 3 26 4 4 6 2 7 1 8 3 9 5 10 6 11 7 13 8 14 9 15
REMARK SMILES IDX 10 16 11 17 12 19 13 20 14 21 15 22 16 24 17 25 18 26 19 27
REMARK SMILES IDX 20 28 24 29 21 30 23 31 22 32 29 33 30 34 31 35 32 36 33 37
REMARK SMILES IDX 34 38 35 39 36 41 37 42 38 43 102 44 39 45 101 46 40 47
REMARK SMILES IDX 41 48 42 49 95 50 43 51 100 52 94 53 96 54 44 55 99 56 93 57
REMARK SMILES IDX 92 58 45 60 79 61 58 62 78 63 59 64 62 65 77 66 97 67 60 68
REMARK SMILES IDX 61 69 76 71 98 72 63 73 46 74 47 75 56 76 48 77 49 78 55 79
REMARK SMILES IDX 57 80 50 81 51 82 52 83 53 84 54 85 80 86 81 87 90 88 82 89
REMARK SMILES IDX 83 90 89 91 91 92 84 93 85 94 86 95 87 96 88 97 64 98 65 99
REMARK SMILES IDX 74 100 66 101 67 102 73 103 75 104 68 105 69 106 70 107
REMARK SMILES IDX 71 108 72 109
REMARK H PARENT 27 5 5 12 10 18 14 23 34 40 96 59 62 70
REMARK Flexibility Score: inf
ROOT
ATOM      1  C   UNL A   1      32.291  30.717  26.682  1.00  0.00     0.116 C 
ENDROOT
BRANCH   1   2
ATOM      2  N   UNL A   1      31.777  29.155  26.821  1.00  0.00    -0.354 N 
ATOM      3  C   UNL A   1      31.837  27.811  26.263  1.00  0.00     0.242 C 
ATOM      4  O   UNL A   1      31.437  26.965  27.097  1.00  0.00    -0.273 OA
ATOM      5  H   UNL A   1      31.184  29.116  27.606  1.00  0.00     0.163 HD
BRANCH   3   6
ATOM      6  C   UNL A   1      32.111  27.093  24.631  1.00  0.00     0.173 C 
BRANCH   6   7
ATOM      7  C   UNL A   1      33.204  26.774  23.402  1.00  0.00     0.015 C 
ATOM      8  C   UNL A   1      33.953  25.404  23.660  1.00  0.00     0.010 C 
ATOM      9  C   UNL A   1      32.943  26.637  21.884  1.00  0.00     0.010 C 
ENDBRANCH   6   7
BRANCH   6  10
ATOM     10  N   UNL A   1      30.879  27.406  23.949  1.00  0.00    -0.342 N 
ATOM     11  C   UNL A   1      29.859  26.503  24.069  1.00  0.00     0.242 C 
ATOM     12  H   UNL A   1      30.777  28.231  23.422  1.00  0.00     0.164 HD
ATOM     13  O   UNL A   1      28.721  26.799  23.737  1.00  0.00    -0.273 OA
BRANCH  11  14
ATOM     14  C   UNL A   1      30.401  25.083  24.303  1.00  0.00     0.168 C 
ATOM     15  C   UNL A   1      30.431  24.235  23.023  1.00  0.00     0.041 C 
BRANCH  14  16
ATOM     16  N   UNL A   1      30.330  24.308  25.830  1.00  0.00    -0.343 N 
ATOM     17  C   UNL A   1      30.947  23.459  26.828  1.00  0.00     0.240 C 
ATOM     18  H   UNL A   1      29.456  24.558  26.208  1.00  0.00     0.164 HD
ATOM     19  O   UNL A   1      30.107  23.043  27.656  1.00  0.00    -0.273 OA
BRANCH  17  20
ATOM     20  C   UNL A   1      32.537  22.747  27.075  1.00  0.00     0.219 C 
BRANCH  20  21
ATOM     21  N   UNL A   1      33.842  23.268  26.486  1.00  0.00    -0.312 N 
ATOM     22  C   UNL A   1      35.130  22.757  26.347  1.00  0.00     0.407 C 
ATOM     23  H   UNL A   1      33.755  24.177  26.118  1.00  0.00     0.167 HD
ATOM     24  O   UNL A   1      36.067  23.519  26.168  1.00  0.00    -0.225 OA
BRANCH  22  25
ATOM     25  O   UNL A   1      35.288  21.415  26.524  1.00  0.00    -0.445 OA
BRANCH  25  26
ATOM     26  C   UNL A   1      35.656  20.601  25.360  1.00  0.00     0.270 C 
BRANCH  26  27
ATOM     27  C   UNL A   1      34.658  19.651  24.754  1.00  0.00    -0.011 A 
ATOM     28  C   UNL A   1      34.996  18.344  24.413  1.00  0.00     0.007 A 
ATOM     29  C   UNL A   1      33.343  20.102  24.511  1.00  0.00     0.007 A 
ATOM     30  C   UNL A   1      34.029  17.481  23.897  1.00  0.00     0.000 A 
ATOM     31  C   UNL A   1      32.379  19.239  23.988  1.00  0.00     0.000 A 
ATOM     32  C   UNL A   1      32.722  17.922  23.695  1.00  0.00     0.000 A 
ENDBRANCH  26  27
ENDBRANCH  25  26
ENDBRANCH  22  25
ENDBRANCH  20  21
ENDBRANCH  17  20
ENDBRANCH  14  16
ENDBRANCH  11  14
ENDBRANCH   6  10
ENDBRANCH   3   6
ENDBRANCH   1   2
BRANCH   1  33
ATOM     33  C   UNL A   1      33.307  31.406  27.588  1.00  0.00     0.021 C 
BRANCH  33  34
ATOM     34  C   UNL A   1      34.646  30.619  27.702  1.00  0.00     0.002 C 
BRANCH  34  35
ATOM     35  C   UNL A   1      35.980  31.329  28.058  1.00  0.00     0.002 C 
BRANCH  35  36
ATOM     36  C   UNL A   1      36.006  32.840  28.318  1.00  0.00     0.021 C 
BRANCH  36  37
ATOM     37  C   UNL A   1      36.246  33.284  29.756  1.00  0.00     0.116 C 
BRANCH  37  38
ATOM     38  N   UNL A   1      35.017  33.471  30.512  1.00  0.00    -0.352 N 
ATOM     39  C   UNL A   1      34.821  33.481  31.870  1.00  0.00     0.251 C 
ATOM     40  H   UNL A   1      34.207  33.613  29.970  1.00  0.00     0.163 HD
ATOM     41  O   UNL A   1      33.693  33.598  32.334  1.00  0.00    -0.269 OA
BRANCH  39  42
ATOM     42  C   UNL A   1      35.979  33.303  32.763  1.00  0.00     0.039 A 
ATOM     43  C   UNL A   1      36.610  34.441  33.267  1.00  0.00     0.014 A 
ATOM     44  C   UNL A   1      36.396  32.023  33.139  1.00  0.00     0.014 A 
ATOM     45  C   UNL A   1      37.625  34.297  34.211  1.00  0.00     0.010 A 
ATOM     46  C   UNL A   1      37.366  31.886  34.125  1.00  0.00     0.010 A 
ATOM     47  C   UNL A   1      37.982  33.020  34.675  1.00  0.00    -0.014 A 
BRANCH  47  48
ATOM     48  C   UNL A   1      38.979  32.862  35.760  1.00  0.00     0.031 A 
ATOM     49  C   UNL A   1      40.429  32.669  35.427  1.00  0.00     0.074 A 
ATOM     50  C   UNL A   1      38.557  32.841  37.041  1.00  0.00     0.049 A 
ATOM     51  N   UNL A   1      41.440  32.475  36.233  1.00  0.00    -0.248 NA
ATOM     52  C   UNL A   1      40.789  32.670  34.000  1.00  0.00     0.031 C 
ATOM     53  C   UNL A   1      37.163  32.971  37.472  1.00  0.00     0.029 A 
ATOM     54  N   UNL A   1      39.253  32.692  38.212  1.00  0.00    -0.354 N 
ATOM     55  C   UNL A   1      42.551  32.327  35.414  1.00  0.00     0.074 A 
ATOM     56  C   UNL A   1      42.085  32.398  34.047  1.00  0.00     0.031 C 
ATOM     57  C   UNL A   1      37.109  32.918  38.812  1.00  0.00     0.029 A 
ATOM     58  C   UNL A   1      38.457  32.710  39.334  1.00  0.00     0.049 A 
ATOM     59  H   UNL A   1      40.231  32.583  38.248  1.00  0.00     0.167 HD
ATOM     60  C   UNL A   1      43.847  32.167  35.774  1.00  0.00     0.037 A 
ATOM     61  C   UNL A   1      38.776  32.564  40.634  1.00  0.00     0.037 A 
ATOM     62  C   UNL A   1      44.296  32.113  37.141  1.00  0.00     0.049 A 
ATOM     63  C   UNL A   1      40.219  32.363  41.007  1.00  0.00     0.074 A 
ATOM     64  C   UNL A   1      45.591  32.023  37.617  1.00  0.00     0.029 A 
ATOM     65  N   UNL A   1      43.461  32.130  38.250  1.00  0.00    -0.354 N 
ATOM     66  N   UNL A   1      41.272  32.312  40.224  1.00  0.00    -0.248 NA
ATOM     67  C   UNL A   1      40.522  32.200  42.435  1.00  0.00     0.031 C 
ATOM     68  C   UNL A   1      45.537  31.930  39.012  1.00  0.00     0.029 A 
ATOM     69  C   UNL A   1      44.211  32.012  39.409  1.00  0.00     0.049 A 
ATOM     70  H   UNL A   1      42.481  32.213  38.219  1.00  0.00     0.167 HD
ATOM     71  C   UNL A   1      42.361  32.119  41.065  1.00  0.00     0.074 A 
ATOM     72  C   UNL A   1      41.843  32.089  42.417  1.00  0.00     0.031 C 
ATOM     73  C   UNL A   1      43.672  31.975  40.747  1.00  0.00     0.037 A 
BRANCH  60  74
ATOM     74  C   UNL A   1      44.868  32.041  34.677  1.00  0.00     0.058 A 
ATOM     75  C   UNL A   1      45.527  33.163  34.149  1.00  0.00     0.135 A 
ATOM     76  C   UNL A   1      45.217  30.780  34.169  1.00  0.00     0.135 A 
ATOM     77  F   UNL A   1      45.222  34.395  34.587  1.00  0.00    -0.206 F 
ATOM     78  C   UNL A   1      46.475  33.042  33.138  1.00  0.00     0.059 A 
ATOM     79  C   UNL A   1      46.183  30.632  33.177  1.00  0.00     0.059 A 
ATOM     80  F   UNL A   1      44.617  29.673  34.634  1.00  0.00    -0.206 F 
ATOM     81  C   UNL A   1      46.797  31.771  32.659  1.00  0.00     0.060 A 
BRANCH  81  82
ATOM     82  S   UNL A   1      48.035  31.633  31.352  1.00  0.00     0.124 S 
ATOM     83  O   UNL A   1      48.250  33.034  31.006  1.00  0.00    -0.237 OA
ATOM     84  O   UNL A   1      49.140  30.973  32.039  1.00  0.00    -0.237 OA
ATOM     85  O   UNL A   1      47.366  30.830  30.333  1.00  0.00    -0.744 OA
ENDBRANCH  81  82
ENDBRANCH  60  74
BRANCH  61  86
ATOM     86  C   UNL A   1      37.710  32.604  41.670  1.00  0.00     0.058 A 
ATOM     87  C   UNL A   1      37.137  31.424  42.166  1.00  0.00     0.135 A 
ATOM     88  C   UNL A   1      37.259  33.823  42.202  1.00  0.00     0.135 A 
ATOM     89  F   UNL A   1      37.531  30.235  41.686  1.00  0.00    -0.206 F 
ATOM     90  C   UNL A   1      36.150  31.449  43.146  1.00  0.00     0.059 A 
ATOM     91  C   UNL A   1      36.290  33.873  43.200  1.00  0.00     0.059 A 
ATOM     92  F   UNL A   1      37.784  34.982  41.773  1.00  0.00    -0.206 F 
ATOM     93  C   UNL A   1      35.735  32.679  43.660  1.00  0.00     0.060 A 
BRANCH  93  94
ATOM     94  S   UNL A   1      34.491  32.696  44.969  1.00  0.00     0.124 S 
ATOM     95  O   UNL A   1      34.057  31.304  44.980  1.00  0.00    -0.237 OA
ATOM     96  O   UNL A   1      35.269  33.133  46.124  1.00  0.00    -0.237 OA
ATOM     97  O   UNL A   1      33.508  33.661  44.485  1.00  0.00    -0.744 OA
ENDBRANCH  93  94
ENDBRANCH  61  86
BRANCH  73  98
ATOM     98  C   UNL A   1      44.639  31.767  41.879  1.00  0.00     0.058 A 
ATOM     99  C   UNL A   1      44.979  30.479  42.320  1.00  0.00     0.135 A 
ATOM    100  C   UNL A   1      45.285  32.860  42.479  1.00  0.00     0.135 A 
ATOM    101  F   UNL A   1      44.382  29.401  41.787  1.00  0.00    -0.206 F 
ATOM    102  C   UNL A   1      45.918  30.281  43.327  1.00  0.00     0.059 A 
ATOM    103  C   UNL A   1      46.248  32.684  43.467  1.00  0.00     0.059 A 
ATOM    104  F   UNL A   1      45.000  34.112  42.087  1.00  0.00    -0.206 F 
ATOM    105  C   UNL A   1      46.552  31.390  43.889  1.00  0.00     0.060 A 
BRANCH 105 106
ATOM    106  S   UNL A   1      47.809  31.114  45.155  1.00  0.00     0.124 S 
ATOM    107  O   UNL A   1      46.989  30.905  46.343  1.00  0.00    -0.237 OA
ATOM    108  O   UNL A   1      48.506  29.936  44.649  1.00  0.00    -0.237 OA
ATOM    109  O   UNL A   1      48.586  32.350  45.138  1.00  0.00    -0.744 OA
ENDBRANCH 105 106
ENDBRANCH  73  98
ENDBRANCH  47  48
ENDBRANCH  39  42
ENDBRANCH  37  38
ENDBRANCH  36  37
ENDBRANCH  35  36
ENDBRANCH  34  35
ENDBRANCH  33  34
ENDBRANCH   1  33
TORSDOF 25
ENDMDL
