MODEL 1
REMARK VINA RESULT:     -12.3      0.000      0.000
REMARK SMILES Cc1ncccc1NC(=O)Nc1ccc(C(=O)NCCCCCCNC(=O)c2ccc(-c3c4nc(c(-c5c(F)cc(S(=O)(=O)[O-])cc5F)c5ccc([nH]5)c(-c5c(F)cc(S(=O)(=O)[O-])cc5F)c5nc(c(-c6c(F)cc(S(=O)(=O)[O-])cc6F)c6ccc3[nH]6)C=C5)C=C4)cc2)c(O)c1
REMARK SMILES IDX 22 1 21 2 20 3 19 4 18 5 16 6 17 7 15 9 12 10 13 11 96 12
REMARK SMILES IDX 14 13 94 14 11 15 8 16 9 17 10 19 7 21 1 22 2 23 3 24 4 25
REMARK SMILES IDX 6 26 5 27 95 28 23 30 24 31 25 32 26 33 27 35 28 36 29 37
REMARK SMILES IDX 93 38 30 39 92 40 31 41 32 42 33 43 86 44 34 45 91 46 85 47
REMARK SMILES IDX 87 48 35 49 90 50 84 51 83 52 36 54 70 55 49 56 69 57 50 58
REMARK SMILES IDX 53 59 68 60 88 61 51 62 52 63 67 65 89 66 54 67 37 68 38 69
REMARK SMILES IDX 47 70 39 71 40 72 46 73 48 74 41 75 42 76 43 77 44 78 45 79
REMARK SMILES IDX 71 80 72 81 81 82 73 83 74 84 80 85 82 86 75 87 76 88 77 89
REMARK SMILES IDX 78 90 79 91 55 92 56 93 65 94 57 95 58 96 64 97 66 98 59 99
REMARK SMILES IDX 60 100 61 101 62 102 63 103
REMARK H PARENT 18 8 8 18 11 20 95 29 25 34 87 53 53 64
REMARK Flexibility Score: inf
ROOT
ATOM      1  C   UNL A   1      35.248  31.740  27.651  1.00  0.00     0.002 C 
ENDROOT
BRANCH   1   2
ATOM      2  C   UNL A   1      33.751  31.418  27.680  1.00  0.00     0.002 C 
BRANCH   2   3
ATOM      3  C   UNL A   1      33.315  30.057  27.121  1.00  0.00     0.021 C 
BRANCH   3   4
ATOM      4  C   UNL A   1      32.492  30.065  25.832  1.00  0.00     0.116 C 
BRANCH   4   5
ATOM      5  N   UNL A   1      33.230  29.701  24.633  1.00  0.00    -0.352 N 
ATOM      6  C   UNL A   1      33.300  28.512  23.940  1.00  0.00     0.255 C 
ATOM      7  O   UNL A   1      33.980  28.476  22.914  1.00  0.00    -0.269 OA
ATOM      8  H   UNL A   1      33.771  30.428  24.250  1.00  0.00     0.163 HD
BRANCH   6   9
ATOM      9  C   UNL A   1      32.679  27.254  24.437  1.00  0.00     0.081 A 
ATOM     10  C   UNL A   1      31.476  25.244  25.969  1.00  0.00     0.046 A 
ATOM     11  C   UNL A   1      32.836  25.502  26.119  1.00  0.00     0.027 A 
ATOM     12  C   UNL A   1      30.794  25.797  24.882  1.00  0.00     0.073 A 
ATOM     13  C   UNL A   1      33.431  26.522  25.369  1.00  0.00     0.020 A 
ATOM     14  C   UNL A   1      31.405  26.788  24.110  1.00  0.00     0.130 A 
BRANCH  10  15
ATOM     15  N   UNL A   1      30.724  24.522  26.908  1.00  0.00    -0.308 N 
ATOM     16  N   UNL A   1      30.848  22.221  26.237  1.00  0.00    -0.306 N 
ATOM     17  C   UNL A   1      30.288  23.241  26.932  1.00  0.00     0.323 C 
ATOM     18  H   UNL A   1      30.242  21.452  26.133  1.00  0.00     0.171 HD
ATOM     19  O   UNL A   1      29.316  22.972  27.647  1.00  0.00    -0.248 OA
ATOM     20  H   UNL A   1      30.465  25.047  27.700  1.00  0.00     0.171 HD
BRANCH  16  21
ATOM     21  C   UNL A   1      32.106  22.014  25.627  1.00  0.00     0.064 A 
ATOM     22  C   UNL A   1      33.356  22.092  27.868  1.00  0.00     0.069 C 
ATOM     23  C   UNL A   1      33.260  21.796  26.400  1.00  0.00     0.061 A 
ATOM     24  N   UNL A   1      34.429  21.346  25.863  1.00  0.00    -0.259 NA
ATOM     25  C   UNL A   1      34.486  21.177  24.528  1.00  0.00     0.111 A 
ATOM     26  C   UNL A   1      32.273  21.993  24.241  1.00  0.00     0.030 A 
ATOM     27  C   UNL A   1      33.463  21.534  23.678  1.00  0.00     0.022 A 
ENDBRANCH  16  21
ENDBRANCH  10  15
BRANCH  14  28
ATOM     28  O   UNL A   1      30.670  27.254  23.057  1.00  0.00    -0.507 OA
ATOM     29  H   UNL A   1      29.983  26.729  22.697  1.00  0.00     0.293 HD
ENDBRANCH  14  28
ENDBRANCH   6   9
ENDBRANCH   4   5
ENDBRANCH   3   4
ENDBRANCH   2   3
ENDBRANCH   1   2
BRANCH   1  30
ATOM     30  C   UNL A   1      35.691  33.028  28.345  1.00  0.00     0.021 C 
BRANCH  30  31
ATOM     31  C   UNL A   1      36.621  32.864  29.542  1.00  0.00     0.116 C 
BRANCH  31  32
ATOM     32  N   UNL A   1      36.162  31.862  30.485  1.00  0.00    -0.352 N 
ATOM     33  C   UNL A   1      36.720  30.659  30.844  1.00  0.00     0.251 C 
ATOM     34  H   UNL A   1      35.315  32.078  30.939  1.00  0.00     0.163 HD
ATOM     35  O   UNL A   1      36.082  29.900  31.568  1.00  0.00    -0.269 OA
BRANCH  33  36
ATOM     36  C   UNL A   1      38.064  30.259  30.358  1.00  0.00     0.039 A 
ATOM     37  C   UNL A   1      38.234  30.030  28.989  1.00  0.00     0.014 A 
ATOM     38  C   UNL A   1      39.138  30.053  31.229  1.00  0.00     0.014 A 
ATOM     39  C   UNL A   1      39.479  29.631  28.494  1.00  0.00     0.010 A 
ATOM     40  C   UNL A   1      40.400  29.734  30.725  1.00  0.00     0.010 A 
ATOM     41  C   UNL A   1      40.580  29.495  29.355  1.00  0.00    -0.014 A 
BRANCH  41  42
ATOM     42  C   UNL A   1      41.907  29.074  28.830  1.00  0.00     0.031 A 
ATOM     43  C   UNL A   1      43.033  30.068  28.716  1.00  0.00     0.074 A 
ATOM     44  C   UNL A   1      42.094  27.801  28.429  1.00  0.00     0.049 A 
ATOM     45  N   UNL A   1      44.262  29.883  28.302  1.00  0.00    -0.248 NA
ATOM     46  C   UNL A   1      42.734  31.459  29.088  1.00  0.00     0.031 C 
ATOM     47  C   UNL A   1      41.068  26.757  28.427  1.00  0.00     0.029 A 
ATOM     48  N   UNL A   1      43.212  27.167  27.946  1.00  0.00    -0.354 N 
ATOM     49  C   UNL A   1      44.874  31.131  28.351  1.00  0.00     0.074 A 
ATOM     50  C   UNL A   1      43.864  32.076  28.776  1.00  0.00     0.031 C 
ATOM     51  C   UNL A   1      41.609  25.608  27.993  1.00  0.00     0.029 A 
ATOM     52  C   UNL A   1      43.012  25.837  27.659  1.00  0.00     0.049 A 
ATOM     53  H   UNL A   1      44.076  27.622  27.816  1.00  0.00     0.167 HD
ATOM     54  C   UNL A   1      46.163  31.458  28.091  1.00  0.00     0.037 A 
ATOM     55  C   UNL A   1      43.863  24.905  27.187  1.00  0.00     0.037 A 
ATOM     56  C   UNL A   1      47.169  30.510  27.687  1.00  0.00     0.049 A 
ATOM     57  C   UNL A   1      45.298  25.279  26.941  1.00  0.00     0.074 A 
ATOM     58  C   UNL A   1      48.518  30.726  27.463  1.00  0.00     0.029 A 
ATOM     59  N   UNL A   1      46.936  29.164  27.439  1.00  0.00    -0.354 N 
ATOM     60  N   UNL A   1      45.879  26.448  27.069  1.00  0.00    -0.248 NA
ATOM     61  C   UNL A   1      46.198  24.202  26.509  1.00  0.00     0.031 C 
ATOM     62  C   UNL A   1      49.089  29.523  27.031  1.00  0.00     0.029 A 
ATOM     63  C   UNL A   1      48.110  28.542  27.046  1.00  0.00     0.049 A 
ATOM     64  H   UNL A   1      46.064  28.716  27.532  1.00  0.00     0.167 HD
ATOM     65  C   UNL A   1      47.220  26.243  26.758  1.00  0.00     0.074 A 
ATOM     66  C   UNL A   1      47.363  24.834  26.453  1.00  0.00     0.031 C 
ATOM     67  C   UNL A   1      48.240  27.139  26.734  1.00  0.00     0.037 A 
BRANCH  54  68
ATOM     68  C   UNL A   1      46.552  32.909  28.228  1.00  0.00     0.058 A 
ATOM     69  C   UNL A   1      46.434  33.814  27.159  1.00  0.00     0.135 A 
ATOM     70  C   UNL A   1      47.042  33.404  29.447  1.00  0.00     0.135 A 
ATOM     71  F   UNL A   1      45.982  33.397  25.965  1.00  0.00    -0.206 F 
ATOM     72  C   UNL A   1      46.838  35.141  27.278  1.00  0.00     0.059 A 
ATOM     73  C   UNL A   1      47.420  34.736  29.599  1.00  0.00     0.059 A 
ATOM     74  F   UNL A   1      47.172  32.589  30.506  1.00  0.00    -0.206 F 
ATOM     75  C   UNL A   1      47.335  35.591  28.502  1.00  0.00     0.060 A 
BRANCH  75  76
ATOM     76  S   UNL A   1      47.878  37.308  28.634  1.00  0.00     0.124 S 
ATOM     77  O   UNL A   1      46.809  38.004  27.923  1.00  0.00    -0.237 OA
ATOM     78  O   UNL A   1      47.915  37.514  30.078  1.00  0.00    -0.237 OA
ATOM     79  O   UNL A   1      49.177  37.306  27.969  1.00  0.00    -0.744 OA
ENDBRANCH  75  76
ENDBRANCH  54  68
BRANCH  55  80
ATOM     80  C   UNL A   1      43.376  23.517  26.962  1.00  0.00     0.058 A 
ATOM     81  C   UNL A   1      43.083  23.051  25.672  1.00  0.00     0.135 A 
ATOM     82  C   UNL A   1      43.239  22.616  28.030  1.00  0.00     0.135 A 
ATOM     83  F   UNL A   1      43.192  23.876  24.620  1.00  0.00    -0.206 F 
ATOM     84  C   UNL A   1      42.666  21.742  25.448  1.00  0.00     0.059 A 
ATOM     85  C   UNL A   1      42.849  21.297  27.828  1.00  0.00     0.059 A 
ATOM     86  F   UNL A   1      43.524  23.009  29.282  1.00  0.00    -0.206 F 
ATOM     87  C   UNL A   1      42.560  20.870  26.532  1.00  0.00     0.060 A 
BRANCH  87  88
ATOM     88  S   UNL A   1      42.097  19.152  26.219  1.00  0.00     0.124 S 
ATOM     89  O   UNL A   1      40.699  19.288  25.833  1.00  0.00    -0.237 OA
ATOM     90  O   UNL A   1      43.022  18.776  25.154  1.00  0.00    -0.237 OA
ATOM     91  O   UNL A   1      42.338  18.501  27.504  1.00  0.00    -0.744 OA
ENDBRANCH  87  88
ENDBRANCH  55  80
BRANCH  67  92
ATOM     92  C   UNL A   1      49.610  26.611  26.400  1.00  0.00     0.058 A 
ATOM     93  C   UNL A   1      50.128  26.654  25.096  1.00  0.00     0.135 A 
ATOM     94  C   UNL A   1      50.421  26.060  27.406  1.00  0.00     0.135 A 
ATOM     95  F   UNL A   1      49.395  27.170  24.095  1.00  0.00    -0.206 F 
ATOM     96  C   UNL A   1      51.378  26.127  24.792  1.00  0.00     0.059 A 
ATOM     97  C   UNL A   1      51.688  25.556  27.131  1.00  0.00     0.059 A 
ATOM     98  F   UNL A   1      49.984  26.008  28.674  1.00  0.00    -0.206 F 
ATOM     99  C   UNL A   1      52.148  25.572  25.816  1.00  0.00     0.060 A 
BRANCH  99 100
ATOM    100  S   UNL A   1      53.762  24.874  25.407  1.00  0.00     0.124 S 
ATOM    101  O   UNL A   1      54.166  25.710  24.282  1.00  0.00    -0.237 OA
ATOM    102  O   UNL A   1      54.512  25.069  26.645  1.00  0.00    -0.237 OA
ATOM    103  O   UNL A   1      53.457  23.485  25.080  1.00  0.00    -0.744 OA
ENDBRANCH  99 100
ENDBRANCH  67  92
ENDBRANCH  41  42
ENDBRANCH  33  36
ENDBRANCH  31  32
ENDBRANCH  30  31
ENDBRANCH   1  30
TORSDOF 19
ENDMDL
MODEL 2
REMARK VINA RESULT:     -12.2      6.371     11.947
REMARK SMILES Cc1ncccc1NC(=O)Nc1ccc(C(=O)NCCCCCCNC(=O)c2ccc(-c3c4nc(c(-c5c(F)cc(S(=O)(=O)[O-])cc5F)c5ccc([nH]5)c(-c5c(F)cc(S(=O)(=O)[O-])cc5F)c5nc(c(-c6c(F)cc(S(=O)(=O)[O-])cc6F)c6ccc3[nH]6)C=C5)C=C4)cc2)c(O)c1
REMARK SMILES IDX 22 1 21 2 20 3 19 4 18 5 16 6 17 7 15 9 12 10 13 11 96 12
REMARK SMILES IDX 14 13 94 14 11 15 8 16 9 17 10 19 7 21 1 22 2 23 3 24 4 25
REMARK SMILES IDX 6 26 5 27 95 28 23 30 24 31 25 32 26 33 27 35 28 36 29 37
REMARK SMILES IDX 93 38 30 39 92 40 31 41 32 42 33 43 86 44 34 45 91 46 85 47
REMARK SMILES IDX 87 48 35 49 90 50 84 51 83 52 36 54 70 55 49 56 69 57 50 58
REMARK SMILES IDX 53 59 68 60 88 61 51 62 52 63 67 65 89 66 54 67 37 68 38 69
REMARK SMILES IDX 47 70 39 71 40 72 46 73 48 74 41 75 42 76 43 77 44 78 45 79
REMARK SMILES IDX 71 80 72 81 81 82 73 83 74 84 80 85 82 86 75 87 76 88 77 89
REMARK SMILES IDX 78 90 79 91 55 92 56 93 65 94 57 95 58 96 64 97 66 98 59 99
REMARK SMILES IDX 60 100 61 101 62 102 63 103
REMARK H PARENT 18 8 8 18 11 20 95 29 25 34 87 53 53 64
REMARK Flexibility Score: inf
ROOT
ATOM      1  C   UNL A   1      41.014  21.336  27.447  1.00  0.00     0.002 C 
ENDROOT
BRANCH   1   2
ATOM      2  C   UNL A   1      40.015  22.051  26.534  1.00  0.00     0.002 C 
BRANCH   2   3
ATOM      3  C   UNL A   1      39.163  23.162  27.159  1.00  0.00     0.021 C 
BRANCH   3   4
ATOM      4  C   UNL A   1      38.431  24.101  26.199  1.00  0.00     0.116 C 
BRANCH   4   5
ATOM      5  N   UNL A   1      37.869  23.457  25.022  1.00  0.00    -0.352 N 
ATOM      6  C   UNL A   1      36.561  23.253  24.639  1.00  0.00     0.255 C 
ATOM      7  O   UNL A   1      36.350  22.704  23.557  1.00  0.00    -0.269 OA
ATOM      8  H   UNL A   1      38.538  23.107  24.391  1.00  0.00     0.163 HD
BRANCH   6   9
ATOM      9  C   UNL A   1      35.406  23.570  25.523  1.00  0.00     0.081 A 
ATOM     10  C   UNL A   1      32.887  24.176  26.583  1.00  0.00     0.046 A 
ATOM     11  C   UNL A   1      33.625  25.173  25.948  1.00  0.00     0.027 A 
ATOM     12  C   UNL A   1      33.515  22.973  26.916  1.00  0.00     0.073 A 
ATOM     13  C   UNL A   1      34.873  24.863  25.401  1.00  0.00     0.020 A 
ATOM     14  C   UNL A   1      34.779  22.682  26.398  1.00  0.00     0.130 A 
BRANCH  10  15
ATOM     15  N   UNL A   1      31.510  24.281  26.830  1.00  0.00    -0.308 N 
ATOM     16  N   UNL A   1      30.486  24.762  24.714  1.00  0.00    -0.306 N 
ATOM     17  C   UNL A   1      30.481  24.718  26.069  1.00  0.00     0.323 C 
ATOM     18  H   UNL A   1      29.803  25.371  24.349  1.00  0.00     0.171 HD
ATOM     19  O   UNL A   1      29.453  25.097  26.643  1.00  0.00    -0.248 OA
ATOM     20  H   UNL A   1      31.243  23.978  27.729  1.00  0.00     0.171 HD
BRANCH  16  21
ATOM     21  C   UNL A   1      31.251  24.130  23.708  1.00  0.00     0.064 A 
ATOM     22  C   UNL A   1      31.634  26.326  22.435  1.00  0.00     0.069 C 
ATOM     23  C   UNL A   1      31.921  24.882  22.727  1.00  0.00     0.061 A 
ATOM     24  N   UNL A   1      32.862  24.342  21.903  1.00  0.00    -0.259 NA
ATOM     25  C   UNL A   1      33.097  23.018  21.996  1.00  0.00     0.111 A 
ATOM     26  C   UNL A   1      31.404  22.744  23.640  1.00  0.00     0.030 A 
ATOM     27  C   UNL A   1      32.362  22.178  22.803  1.00  0.00     0.022 A 
ENDBRANCH  16  21
ENDBRANCH  10  15
BRANCH  14  28
ATOM     28  O   UNL A   1      35.322  21.493  26.795  1.00  0.00    -0.507 OA
ATOM     29  H   UNL A   1      34.996  20.689  26.443  1.00  0.00     0.293 HD
ENDBRANCH  14  28
ENDBRANCH   6   9
ENDBRANCH   4   5
ENDBRANCH   3   4
ENDBRANCH   2   3
ENDBRANCH   1   2
BRANCH   1  30
ATOM     30  C   UNL A   1      42.473  21.787  27.363  1.00  0.00     0.021 C 
BRANCH  30  31
ATOM     31  C   UNL A   1      42.733  23.275  27.576  1.00  0.00     0.116 C 
BRANCH  31  32
ATOM     32  N   UNL A   1      42.613  24.052  26.357  1.00  0.00    -0.352 N 
ATOM     33  C   UNL A   1      42.222  25.356  26.172  1.00  0.00     0.251 C 
ATOM     34  H   UNL A   1      42.847  23.568  25.532  1.00  0.00     0.163 HD
ATOM     35  O   UNL A   1      42.059  25.772  25.028  1.00  0.00    -0.269 OA
BRANCH  33  36
ATOM     36  C   UNL A   1      41.977  26.258  27.325  1.00  0.00     0.039 A 
ATOM     37  C   UNL A   1      40.895  25.980  28.167  1.00  0.00     0.014 A 
ATOM     38  C   UNL A   1      42.756  27.395  27.558  1.00  0.00     0.014 A 
ATOM     39  C   UNL A   1      40.618  26.818  29.252  1.00  0.00     0.010 A 
ATOM     40  C   UNL A   1      42.529  28.183  28.687  1.00  0.00     0.010 A 
ATOM     41  C   UNL A   1      41.443  27.919  29.533  1.00  0.00    -0.014 A 
BRANCH  41  42
ATOM     42  C   UNL A   1      41.153  28.809  30.690  1.00  0.00     0.031 A 
ATOM     43  C   UNL A   1      41.965  28.708  31.954  1.00  0.00     0.074 A 
ATOM     44  C   UNL A   1      40.139  29.694  30.614  1.00  0.00     0.049 A 
ATOM     45  N   UNL A   1      41.873  29.410  33.056  1.00  0.00    -0.248 NA
ATOM     46  C   UNL A   1      42.997  27.660  32.000  1.00  0.00     0.031 C 
ATOM     47  C   UNL A   1      39.236  29.848  29.472  1.00  0.00     0.029 A 
ATOM     48  N   UNL A   1      39.696  30.631  31.514  1.00  0.00    -0.354 N 
ATOM     49  C   UNL A   1      42.821  28.882  33.926  1.00  0.00     0.074 A 
ATOM     50  C   UNL A   1      43.435  27.762  33.247  1.00  0.00     0.031 C 
ATOM     51  C   UNL A   1      38.367  30.839  29.728  1.00  0.00     0.029 A 
ATOM     52  C   UNL A   1      38.631  31.373  31.061  1.00  0.00     0.049 A 
ATOM     53  H   UNL A   1      40.103  30.760  32.402  1.00  0.00     0.167 HD
ATOM     54  C   UNL A   1      43.168  29.305  35.166  1.00  0.00     0.037 A 
ATOM     55  C   UNL A   1      37.946  32.373  31.648  1.00  0.00     0.037 A 
ATOM     56  C   UNL A   1      42.567  30.434  35.830  1.00  0.00     0.049 A 
ATOM     57  C   UNL A   1      38.371  32.853  33.008  1.00  0.00     0.074 A 
ATOM     58  C   UNL A   1      42.890  30.985  37.057  1.00  0.00     0.029 A 
ATOM     59  N   UNL A   1      41.512  31.181  35.324  1.00  0.00    -0.354 N 
ATOM     60  N   UNL A   1      39.323  32.393  33.785  1.00  0.00    -0.248 NA
ATOM     61  C   UNL A   1      37.643  34.002  33.562  1.00  0.00     0.031 C 
ATOM     62  C   UNL A   1      41.998  32.033  37.316  1.00  0.00     0.029 A 
ATOM     63  C   UNL A   1      41.160  32.175  36.223  1.00  0.00     0.049 A 
ATOM     64  H   UNL A   1      41.079  31.029  34.453  1.00  0.00     0.167 HD
ATOM     65  C   UNL A   1      39.327  33.213  34.909  1.00  0.00     0.074 A 
ATOM     66  C   UNL A   1      38.292  34.206  34.700  1.00  0.00     0.031 C 
ATOM     67  C   UNL A   1      40.120  33.153  36.009  1.00  0.00     0.037 A 
BRANCH  54  68
ATOM     68  C   UNL A   1      44.244  28.532  35.887  1.00  0.00     0.058 A 
ATOM     69  C   UNL A   1      45.608  28.827  35.722  1.00  0.00     0.135 A 
ATOM     70  C   UNL A   1      43.906  27.486  36.760  1.00  0.00     0.135 A 
ATOM     71  F   UNL A   1      45.993  29.809  34.891  1.00  0.00    -0.206 F 
ATOM     72  C   UNL A   1      46.598  28.080  36.354  1.00  0.00     0.059 A 
ATOM     73  C   UNL A   1      44.879  26.747  37.430  1.00  0.00     0.059 A 
ATOM     74  F   UNL A   1      42.619  27.161  36.963  1.00  0.00    -0.206 F 
ATOM     75  C   UNL A   1      46.223  27.037  37.202  1.00  0.00     0.060 A 
BRANCH  75  76
ATOM     76  S   UNL A   1      47.518  26.061  37.996  1.00  0.00     0.124 S 
ATOM     77  O   UNL A   1      47.936  25.191  36.900  1.00  0.00    -0.237 OA
ATOM     78  O   UNL A   1      48.480  27.082  38.395  1.00  0.00    -0.237 OA
ATOM     79  O   UNL A   1      46.819  25.397  39.092  1.00  0.00    -0.744 OA
ENDBRANCH  75  76
ENDBRANCH  54  68
BRANCH  55  80
ATOM     80  C   UNL A   1      36.815  33.011  30.923  1.00  0.00     0.058 A 
ATOM     81  C   UNL A   1      35.483  32.744  31.275  1.00  0.00     0.135 A 
ATOM     82  C   UNL A   1      37.045  33.934  29.891  1.00  0.00     0.135 A 
ATOM     83  F   UNL A   1      35.211  31.863  32.249  1.00  0.00    -0.206 F 
ATOM     84  C   UNL A   1      34.420  33.367  30.628  1.00  0.00     0.059 A 
ATOM     85  C   UNL A   1      36.000  34.589  29.248  1.00  0.00     0.059 A 
ATOM     86  F   UNL A   1      38.302  34.237  29.528  1.00  0.00    -0.206 F 
ATOM     87  C   UNL A   1      34.689  34.295  29.621  1.00  0.00     0.060 A 
BRANCH  87  88
ATOM     88  S   UNL A   1      33.305  35.157  28.845  1.00  0.00     0.124 S 
ATOM     89  O   UNL A   1      32.716  34.100  28.032  1.00  0.00    -0.237 OA
ATOM     90  O   UNL A   1      32.525  35.584  30.002  1.00  0.00    -0.237 OA
ATOM     91  O   UNL A   1      33.954  36.236  28.106  1.00  0.00    -0.744 OA
ENDBRANCH  87  88
ENDBRANCH  55  80
BRANCH  67  92
ATOM     92  C   UNL A   1      39.921  34.216  37.058  1.00  0.00     0.058 A 
ATOM     93  C   UNL A   1      39.108  34.009  38.184  1.00  0.00     0.135 A 
ATOM     94  C   UNL A   1      40.563  35.459  36.936  1.00  0.00     0.135 A 
ATOM     95  F   UNL A   1      38.471  32.839  38.351  1.00  0.00    -0.206 F 
ATOM     96  C   UNL A   1      38.900  35.012  39.125  1.00  0.00     0.059 A 
ATOM     97  C   UNL A   1      40.395  36.466  37.882  1.00  0.00     0.059 A 
ATOM     98  F   UNL A   1      41.365  35.707  35.889  1.00  0.00    -0.206 F 
ATOM     99  C   UNL A   1      39.542  36.241  38.960  1.00  0.00     0.060 A 
BRANCH  99 100
ATOM    100  S   UNL A   1      39.251  37.542  40.178  1.00  0.00     0.124 S 
ATOM    101  O   UNL A   1      40.564  38.174  40.251  1.00  0.00    -0.237 OA
ATOM    102  O   UNL A   1      38.200  38.334  39.547  1.00  0.00    -0.237 OA
ATOM    103  O   UNL A   1      38.842  36.805  41.369  1.00  0.00    -0.744 OA
ENDBRANCH  99 100
ENDBRANCH  67  92
ENDBRANCH  41  42
ENDBRANCH  33  36
ENDBRANCH  31  32
ENDBRANCH  30  31
ENDBRANCH   1  30
TORSDOF 19
ENDMDL
MODEL 3
REMARK VINA RESULT:     -12.0      6.356     12.108
REMARK SMILES Cc1ncccc1NC(=O)Nc1ccc(C(=O)NCCCCCCNC(=O)c2ccc(-c3c4nc(c(-c5c(F)cc(S(=O)(=O)[O-])cc5F)c5ccc([nH]5)c(-c5c(F)cc(S(=O)(=O)[O-])cc5F)c5nc(c(-c6c(F)cc(S(=O)(=O)[O-])cc6F)c6ccc3[nH]6)C=C5)C=C4)cc2)c(O)c1
REMARK SMILES IDX 22 1 21 2 20 3 19 4 18 5 16 6 17 7 15 9 12 10 13 11 96 12
REMARK SMILES IDX 14 13 94 14 11 15 8 16 9 17 10 19 7 21 1 22 2 23 3 24 4 25
REMARK SMILES IDX 6 26 5 27 95 28 23 30 24 31 25 32 26 33 27 35 28 36 29 37
REMARK SMILES IDX 93 38 30 39 92 40 31 41 32 42 33 43 86 44 34 45 91 46 85 47
REMARK SMILES IDX 87 48 35 49 90 50 84 51 83 52 36 54 70 55 49 56 69 57 50 58
REMARK SMILES IDX 53 59 68 60 88 61 51 62 52 63 67 65 89 66 54 67 37 68 38 69
REMARK SMILES IDX 47 70 39 71 40 72 46 73 48 74 41 75 42 76 43 77 44 78 45 79
REMARK SMILES IDX 71 80 72 81 81 82 73 83 74 84 80 85 82 86 75 87 76 88 77 89
REMARK SMILES IDX 78 90 79 91 55 92 56 93 65 94 57 95 58 96 64 97 66 98 59 99
REMARK SMILES IDX 60 100 61 101 62 102 63 103
REMARK H PARENT 18 8 8 18 11 20 95 29 25 34 87 53 53 64
REMARK Flexibility Score: inf
ROOT
ATOM      1  C   UNL A   1      39.659  22.551  27.141  1.00  0.00     0.002 C 
ENDROOT
BRANCH   1   2
ATOM      2  C   UNL A   1      38.960  21.814  25.994  1.00  0.00     0.002 C 
BRANCH   2   3
ATOM      3  C   UNL A   1      37.588  22.342  25.555  1.00  0.00     0.021 C 
BRANCH   3   4
ATOM      4  C   UNL A   1      36.394  21.401  25.725  1.00  0.00     0.116 C 
BRANCH   4   5
ATOM      5  N   UNL A   1      35.515  21.724  26.838  1.00  0.00    -0.352 N 
ATOM      6  C   UNL A   1      34.358  22.470  26.891  1.00  0.00     0.255 C 
ATOM      7  O   UNL A   1      33.772  22.560  27.970  1.00  0.00    -0.269 OA
ATOM      8  H   UNL A   1      35.794  21.343  27.701  1.00  0.00     0.163 HD
BRANCH   6   9
ATOM      9  C   UNL A   1      33.853  23.253  25.730  1.00  0.00     0.081 A 
ATOM     10  C   UNL A   1      33.537  24.591  23.292  1.00  0.00     0.046 A 
ATOM     11  C   UNL A   1      34.283  25.182  24.309  1.00  0.00     0.027 A 
ATOM     12  C   UNL A   1      32.744  23.479  23.587  1.00  0.00     0.073 A 
ATOM     13  C   UNL A   1      34.458  24.502  25.518  1.00  0.00     0.020 A 
ATOM     14  C   UNL A   1      32.894  22.824  24.811  1.00  0.00     0.130 A 
BRANCH  10  15
ATOM     15  N   UNL A   1      33.607  25.002  21.952  1.00  0.00    -0.308 N 
ATOM     16  N   UNL A   1      31.967  26.737  21.700  1.00  0.00    -0.306 N 
ATOM     17  C   UNL A   1      32.807  25.797  21.203  1.00  0.00     0.323 C 
ATOM     18  H   UNL A   1      31.264  26.997  21.061  1.00  0.00     0.171 HD
ATOM     19  O   UNL A   1      32.848  25.669  19.973  1.00  0.00    -0.248 OA
ATOM     20  H   UNL A   1      34.384  24.645  21.465  1.00  0.00     0.171 HD
BRANCH  16  21
ATOM     21  C   UNL A   1      31.874  27.428  22.930  1.00  0.00     0.064 A 
ATOM     22  C   UNL A   1      29.903  25.996  23.738  1.00  0.00     0.069 C 
ATOM     23  C   UNL A   1      31.014  26.982  23.948  1.00  0.00     0.061 A 
ATOM     24  N   UNL A   1      31.078  27.459  25.223  1.00  0.00    -0.259 NA
ATOM     25  C   UNL A   1      31.955  28.448  25.485  1.00  0.00     0.111 A 
ATOM     26  C   UNL A   1      32.634  28.565  23.210  1.00  0.00     0.030 A 
ATOM     27  C   UNL A   1      32.708  29.063  24.510  1.00  0.00     0.022 A 
ENDBRANCH  16  21
ENDBRANCH  10  15
BRANCH  14  28
ATOM     28  O   UNL A   1      32.062  21.761  25.018  1.00  0.00    -0.507 OA
ATOM     29  H   UNL A   1      32.365  20.890  24.853  1.00  0.00     0.293 HD
ENDBRANCH  14  28
ENDBRANCH   6   9
ENDBRANCH   4   5
ENDBRANCH   3   4
ENDBRANCH   2   3
ENDBRANCH   1   2
BRANCH   1  30
ATOM     30  C   UNL A   1      41.050  22.055  27.534  1.00  0.00     0.021 C 
BRANCH  30  31
ATOM     31  C   UNL A   1      42.164  23.097  27.535  1.00  0.00     0.116 C 
BRANCH  31  32
ATOM     32  N   UNL A   1      42.189  23.901  26.328  1.00  0.00    -0.352 N 
ATOM     33  C   UNL A   1      41.883  25.228  26.138  1.00  0.00     0.251 C 
ATOM     34  H   UNL A   1      42.470  23.421  25.516  1.00  0.00     0.163 HD
ATOM     35  O   UNL A   1      41.842  25.671  24.994  1.00  0.00    -0.269 OA
BRANCH  33  36
ATOM     36  C   UNL A   1      41.584  26.120  27.286  1.00  0.00     0.039 A 
ATOM     37  C   UNL A   1      42.469  27.168  27.560  1.00  0.00     0.014 A 
ATOM     38  C   UNL A   1      40.486  25.910  28.125  1.00  0.00     0.014 A 
ATOM     39  C   UNL A   1      42.236  28.017  28.646  1.00  0.00     0.010 A 
ATOM     40  C   UNL A   1      40.209  26.807  29.157  1.00  0.00     0.010 A 
ATOM     41  C   UNL A   1      41.093  27.856  29.446  1.00  0.00    -0.014 A 
BRANCH  41  42
ATOM     42  C   UNL A   1      40.839  28.762  30.599  1.00  0.00     0.031 A 
ATOM     43  C   UNL A   1      41.658  28.643  31.858  1.00  0.00     0.074 A 
ATOM     44  C   UNL A   1      39.854  29.678  30.525  1.00  0.00     0.049 A 
ATOM     45  N   UNL A   1      41.597  29.355  32.956  1.00  0.00    -0.248 NA
ATOM     46  C   UNL A   1      42.658  27.565  31.903  1.00  0.00     0.031 C 
ATOM     47  C   UNL A   1      38.947  29.852  29.389  1.00  0.00     0.029 A 
ATOM     48  N   UNL A   1      39.446  30.633  31.423  1.00  0.00    -0.354 N 
ATOM     49  C   UNL A   1      42.535  28.803  33.821  1.00  0.00     0.074 A 
ATOM     50  C   UNL A   1      43.108  27.661  33.145  1.00  0.00     0.031 C 
ATOM     51  C   UNL A   1      38.110  30.871  29.645  1.00  0.00     0.029 A 
ATOM     52  C   UNL A   1      38.401  31.405  30.973  1.00  0.00     0.049 A 
ATOM     53  H   UNL A   1      39.865  30.755  32.306  1.00  0.00     0.167 HD
ATOM     54  C   UNL A   1      42.905  29.224  35.056  1.00  0.00     0.037 A 
ATOM     55  C   UNL A   1      37.752  32.429  31.559  1.00  0.00     0.037 A 
ATOM     56  C   UNL A   1      42.344  30.374  35.717  1.00  0.00     0.049 A 
ATOM     57  C   UNL A   1      38.202  32.904  32.913  1.00  0.00     0.074 A 
ATOM     58  C   UNL A   1      42.694  30.923  36.938  1.00  0.00     0.029 A 
ATOM     59  N   UNL A   1      41.309  31.151  35.215  1.00  0.00    -0.354 N 
ATOM     60  N   UNL A   1      39.146  32.421  33.685  1.00  0.00    -0.248 NA
ATOM     61  C   UNL A   1      37.515  34.078  33.465  1.00  0.00     0.031 C 
ATOM     62  C   UNL A   1      41.837  31.999  37.198  1.00  0.00     0.029 A 
ATOM     63  C   UNL A   1      40.994  32.161  36.110  1.00  0.00     0.049 A 
ATOM     64  H   UNL A   1      40.865  31.006  34.348  1.00  0.00     0.167 HD
ATOM     65  C   UNL A   1      39.185  33.247  34.803  1.00  0.00     0.074 A 
ATOM     66  C   UNL A   1      38.179  34.270  34.597  1.00  0.00     0.031 C 
ATOM     67  C   UNL A   1      39.983  33.169  35.898  1.00  0.00     0.037 A 
BRANCH  54  68
ATOM     68  C   UNL A   1      43.962  28.422  35.773  1.00  0.00     0.058 A 
ATOM     69  C   UNL A   1      43.638  27.315  36.577  1.00  0.00     0.135 A 
ATOM     70  C   UNL A   1      45.319  28.762  35.651  1.00  0.00     0.135 A 
ATOM     71  F   UNL A   1      42.356  26.950  36.741  1.00  0.00    -0.206 F 
ATOM     72  C   UNL A   1      44.614  26.608  37.273  1.00  0.00     0.059 A 
ATOM     73  C   UNL A   1      46.315  28.047  36.311  1.00  0.00     0.059 A 
ATOM     74  F   UNL A   1      45.691  29.806  34.893  1.00  0.00    -0.206 F 
ATOM     75  C   UNL A   1      45.951  26.986  37.138  1.00  0.00     0.060 A 
BRANCH  75  76
ATOM     76  S   UNL A   1      47.203  26.075  38.067  1.00  0.00     0.124 S 
ATOM     77  O   UNL A   1      46.415  25.554  39.180  1.00  0.00    -0.237 OA
ATOM     78  O   UNL A   1      47.656  25.086  37.095  1.00  0.00    -0.237 OA
ATOM     79  O   UNL A   1      48.180  27.102  38.416  1.00  0.00    -0.744 OA
ENDBRANCH  75  76
ENDBRANCH  54  68
BRANCH  55  80
ATOM     80  C   UNL A   1      36.635  33.097  30.838  1.00  0.00     0.058 A 
ATOM     81  C   UNL A   1      35.303  32.920  31.239  1.00  0.00     0.135 A 
ATOM     82  C   UNL A   1      36.884  33.963  29.761  1.00  0.00     0.135 A 
ATOM     83  F   UNL A   1      35.013  32.097  32.258  1.00  0.00    -0.206 F 
ATOM     84  C   UNL A   1      34.256  33.572  30.595  1.00  0.00     0.059 A 
ATOM     85  C   UNL A   1      35.857  34.646  29.120  1.00  0.00     0.059 A 
ATOM     86  F   UNL A   1      38.144  34.180  29.351  1.00  0.00    -0.206 F 
ATOM     87  C   UNL A   1      34.543  34.440  29.541  1.00  0.00     0.060 A 
BRANCH  87  88
ATOM     88  S   UNL A   1      33.185  35.344  28.767  1.00  0.00     0.124 S 
ATOM     89  O   UNL A   1      32.515  34.288  28.019  1.00  0.00    -0.237 OA
ATOM     90  O   UNL A   1      32.464  35.863  29.926  1.00  0.00    -0.237 OA
ATOM     91  O   UNL A   1      33.868  36.353  27.963  1.00  0.00    -0.744 OA
ENDBRANCH  87  88
ENDBRANCH  55  80
BRANCH  67  92
ATOM     92  C   UNL A   1      39.826  34.244  36.941  1.00  0.00     0.058 A 
ATOM     93  C   UNL A   1      40.448  35.497  36.820  1.00  0.00     0.135 A 
ATOM     94  C   UNL A   1      39.032  34.017  38.078  1.00  0.00     0.135 A 
ATOM     95  F   UNL A   1      41.219  35.768  35.754  1.00  0.00    -0.206 F 
ATOM     96  C   UNL A   1      40.329  36.467  37.809  1.00  0.00     0.059 A 
ATOM     97  C   UNL A   1      38.872  34.985  39.064  1.00  0.00     0.059 A 
ATOM     98  F   UNL A   1      38.400  32.844  38.238  1.00  0.00    -0.206 F 
ATOM     99  C   UNL A   1      39.544  36.198  38.933  1.00  0.00     0.060 A 
BRANCH  99 100
ATOM    100  S   UNL A   1      39.410  37.458  40.219  1.00  0.00     0.124 S 
ATOM    101  O   UNL A   1      38.454  38.384  39.623  1.00  0.00    -0.237 OA
ATOM    102  O   UNL A   1      38.924  36.690  41.361  1.00  0.00    -0.237 OA
ATOM    103  O   UNL A   1      40.775  37.959  40.345  1.00  0.00    -0.744 OA
ENDBRANCH  99 100
ENDBRANCH  67  92
ENDBRANCH  41  42
ENDBRANCH  33  36
ENDBRANCH  31  32
ENDBRANCH  30  31
ENDBRANCH   1  30
TORSDOF 19
ENDMDL
