MODEL 1
REMARK VINA RESULT:     -12.8      0.000      0.000
REMARK SMILES O=C(NCCCCCCNC(=O)c1ccccc1NC(=O)c1cc2cc(Cl)cc(Cl)c2oc1=O)c1ccc(-c2c3nc(c(-c4c(F)cc(S(=O)(=O)[O-])cc4F)c4ccc([nH]4)c(-c4c(F)cc(S(=O)(=O)[O-])cc4F)c4nc(c(-c5c(F)cc(S(=O)(=O)[O-])cc5F)c5ccc2[nH]5)C=C4)C=C3)cc1
REMARK SMILES IDX 6 1 5 2 4 3 3 4 1 5 2 6 35 8 36 9 100 10 37 11 99 12 38 13
REMARK SMILES IDX 39 14 40 15 93 16 41 17 98 18 92 19 94 20 42 21 97 22 91 23
REMARK SMILES IDX 90 24 43 26 77 27 56 28 76 29 57 30 60 31 75 32 95 33 58 34
REMARK SMILES IDX 59 35 74 37 96 38 61 39 44 40 45 41 54 42 46 43 47 44 53 45
REMARK SMILES IDX 55 46 48 47 49 48 50 49 51 50 52 51 78 52 79 53 88 54 80 55
REMARK SMILES IDX 81 56 87 57 89 58 82 59 83 60 84 61 85 62 86 63 62 64 63 65
REMARK SMILES IDX 72 66 64 67 65 68 71 69 73 70 66 71 67 72 68 73 69 74 70 75
REMARK SMILES IDX 7 76 8 77 9 78 10 79 11 80 12 82 13 83 14 84 18 85 15 86
REMARK SMILES IDX 17 87 16 88 19 89 20 90 21 92 22 93 23 94 33 95 24 96 32 97
REMARK SMILES IDX 34 98 25 99 31 100 26 101 29 102 27 103 28 104 30 105
REMARK H PARENT 3 7 94 25 60 36 10 81 19 91
REMARK Flexibility Score: inf
ROOT
ATOM      1  C   UNL A   1      34.372  32.828  28.065  1.00  0.00     0.002 C 
ENDROOT
BRANCH   1   2
ATOM      2  C   UNL A   1      35.883  33.077  28.057  1.00  0.00     0.021 C 
BRANCH   2   3
ATOM      3  C   UNL A   1      36.577  33.112  29.415  1.00  0.00     0.116 C 
BRANCH   3   4
ATOM      4  N   UNL A   1      36.055  32.138  30.353  1.00  0.00    -0.352 N 
ATOM      5  O   UNL A   1      35.919  30.199  31.476  1.00  0.00    -0.269 OA
ATOM      6  C   UNL A   1      36.575  30.923  30.729  1.00  0.00     0.251 C 
ATOM      7  H   UNL A   1      35.205  32.383  30.784  1.00  0.00     0.163 HD
BRANCH   6   8
ATOM      8  C   UNL A   1      37.893  30.458  30.227  1.00  0.00     0.039 A 
ATOM      9  C   UNL A   1      38.155  30.289  28.863  1.00  0.00     0.014 A 
ATOM     10  C   UNL A   1      38.919  30.246  31.157  1.00  0.00     0.014 A 
ATOM     11  C   UNL A   1      39.407  29.834  28.440  1.00  0.00     0.010 A 
ATOM     12  C   UNL A   1      40.184  29.828  30.730  1.00  0.00     0.010 A 
ATOM     13  C   UNL A   1      40.433  29.601  29.370  1.00  0.00    -0.014 A 
BRANCH  13  14
ATOM     14  C   UNL A   1      41.776  29.182  28.901  1.00  0.00     0.031 A 
ATOM     15  C   UNL A   1      42.929  30.146  28.893  1.00  0.00     0.074 A 
ATOM     16  C   UNL A   1      41.958  27.917  28.478  1.00  0.00     0.049 A 
ATOM     17  N   UNL A   1      44.174  29.934  28.547  1.00  0.00    -0.248 NA
ATOM     18  C   UNL A   1      42.651  31.523  29.325  1.00  0.00     0.031 C 
ATOM     19  C   UNL A   1      40.912  26.893  28.406  1.00  0.00     0.029 A 
ATOM     20  N   UNL A   1      43.085  27.274  28.035  1.00  0.00    -0.354 N 
ATOM     21  C   UNL A   1      44.825  31.150  28.702  1.00  0.00     0.074 A 
ATOM     22  C   UNL A   1      43.836  32.100  29.169  1.00  0.00     0.031 C 
ATOM     23  C   UNL A   1      41.454  25.745  27.968  1.00  0.00     0.029 A 
ATOM     24  C   UNL A   1      42.876  25.956  27.713  1.00  0.00     0.049 A 
ATOM     25  H   UNL A   1      43.962  27.716  27.956  1.00  0.00     0.167 HD
ATOM     26  C   UNL A   1      46.128  31.447  28.482  1.00  0.00     0.037 A 
ATOM     27  C   UNL A   1      43.731  25.019  27.264  1.00  0.00     0.037 A 
ATOM     28  C   UNL A   1      47.123  30.503  28.044  1.00  0.00     0.049 A 
ATOM     29  C   UNL A   1      45.173  25.367  27.047  1.00  0.00     0.074 A 
ATOM     30  C   UNL A   1      48.481  30.703  27.862  1.00  0.00     0.029 A 
ATOM     31  N   UNL A   1      46.868  29.181  27.715  1.00  0.00    -0.354 N 
ATOM     32  N   UNL A   1      45.779  26.511  27.247  1.00  0.00    -0.248 NA
ATOM     33  C   UNL A   1      46.045  24.299  26.540  1.00  0.00     0.031 C 
ATOM     34  C   UNL A   1      49.046  29.504  27.406  1.00  0.00     0.029 A 
ATOM     35  C   UNL A   1      48.040  28.558  27.316  1.00  0.00     0.049 A 
ATOM     36  H   UNL A   1      45.985  28.748  27.758  1.00  0.00     0.167 HD
ATOM     37  C   UNL A   1      47.103  26.305  26.883  1.00  0.00     0.074 A 
ATOM     38  C   UNL A   1      47.215  24.921  26.467  1.00  0.00     0.031 C 
ATOM     39  C   UNL A   1      48.133  27.186  26.890  1.00  0.00     0.037 A 
BRANCH  26  40
ATOM     40  C   UNL A   1      46.559  32.863  28.716  1.00  0.00     0.058 A 
ATOM     41  C   UNL A   1      46.523  33.813  27.684  1.00  0.00     0.135 A 
ATOM     42  C   UNL A   1      46.968  33.285  29.990  1.00  0.00     0.135 A 
ATOM     43  F   UNL A   1      46.150  33.452  26.447  1.00  0.00    -0.206 F 
ATOM     44  C   UNL A   1      46.889  35.137  27.906  1.00  0.00     0.059 A 
ATOM     45  C   UNL A   1      47.330  34.605  30.236  1.00  0.00     0.059 A 
ATOM     46  F   UNL A   1      47.024  32.410  31.006  1.00  0.00    -0.206 F 
ATOM     47  C   UNL A   1      47.295  35.522  29.184  1.00  0.00     0.060 A 
BRANCH  47  48
ATOM     48  S   UNL A   1      47.751  37.245  29.477  1.00  0.00     0.124 S 
ATOM     49  O   UNL A   1      47.543  37.359  30.919  1.00  0.00    -0.237 OA
ATOM     50  O   UNL A   1      49.141  37.291  29.035  1.00  0.00    -0.237 OA
ATOM     51  O   UNL A   1      46.809  37.986  28.644  1.00  0.00    -0.744 OA
ENDBRANCH  47  48
ENDBRANCH  26  40
BRANCH  27  52
ATOM     52  C   UNL A   1      43.234  23.649  27.003  1.00  0.00     0.058 A 
ATOM     53  C   UNL A   1      43.000  23.211  25.693  1.00  0.00     0.135 A 
ATOM     54  C   UNL A   1      43.034  22.741  28.052  1.00  0.00     0.135 A 
ATOM     55  F   UNL A   1      43.179  24.051  24.662  1.00  0.00    -0.206 F 
ATOM     56  C   UNL A   1      42.587  21.911  25.427  1.00  0.00     0.059 A 
ATOM     57  C   UNL A   1      42.631  21.433  27.810  1.00  0.00     0.059 A 
ATOM     58  F   UNL A   1      43.258  23.119  29.320  1.00  0.00    -0.206 F 
ATOM     59  C   UNL A   1      42.408  21.028  26.493  1.00  0.00     0.060 A 
BRANCH  59  60
ATOM     60  S   UNL A   1      41.960  19.309  26.160  1.00  0.00     0.124 S 
ATOM     61  O   UNL A   1      42.794  19.010  25.003  1.00  0.00    -0.237 OA
ATOM     62  O   UNL A   1      42.327  18.634  27.401  1.00  0.00    -0.237 OA
ATOM     63  O   UNL A   1      40.525  19.395  25.908  1.00  0.00    -0.744 OA
ENDBRANCH  59  60
ENDBRANCH  27  52
BRANCH  39  64
ATOM     64  C   UNL A   1      49.460  26.678  26.418  1.00  0.00     0.058 A 
ATOM     65  C   UNL A   1      49.913  26.949  25.117  1.00  0.00     0.135 A 
ATOM     66  C   UNL A   1      50.290  25.929  27.265  1.00  0.00     0.135 A 
ATOM     67  F   UNL A   1      49.149  27.656  24.270  1.00  0.00    -0.206 F 
ATOM     68  C   UNL A   1      51.141  26.478  24.665  1.00  0.00     0.059 A 
ATOM     69  C   UNL A   1      51.525  25.455  26.836  1.00  0.00     0.059 A 
ATOM     70  F   UNL A   1      49.898  25.646  28.517  1.00  0.00    -0.206 F 
ATOM     71  C   UNL A   1      51.936  25.724  25.529  1.00  0.00     0.060 A 
BRANCH  71  72
ATOM     72  S   UNL A   1      53.538  25.117  24.955  1.00  0.00     0.124 S 
ATOM     73  O   UNL A   1      53.455  25.385  23.524  1.00  0.00    -0.237 OA
ATOM     74  O   UNL A   1      54.485  25.942  25.699  1.00  0.00    -0.237 OA
ATOM     75  O   UNL A   1      53.513  23.709  25.337  1.00  0.00    -0.744 OA
ENDBRANCH  71  72
ENDBRANCH  39  64
ENDBRANCH  13  14
ENDBRANCH   6   8
ENDBRANCH   3   4
ENDBRANCH   2   3
ENDBRANCH   1   2
BRANCH   1  76
ATOM     76  C   UNL A   1      33.889  31.425  27.690  1.00  0.00     0.002 C 
BRANCH  76  77
ATOM     77  C   UNL A   1      34.950  30.378  27.331  1.00  0.00     0.021 C 
BRANCH  77  78
ATOM     78  C   UNL A   1      34.452  28.978  26.979  1.00  0.00     0.116 C 
BRANCH  78  79
ATOM     79  N   UNL A   1      33.302  28.555  27.760  1.00  0.00    -0.352 N 
ATOM     80  C   UNL A   1      32.060  28.158  27.332  1.00  0.00     0.253 C 
ATOM     81  H   UNL A   1      33.433  28.552  28.736  1.00  0.00     0.163 HD
ATOM     82  O   UNL A   1      31.182  27.899  28.149  1.00  0.00    -0.269 OA
BRANCH  80  83
ATOM     83  C   UNL A   1      31.759  28.060  25.885  1.00  0.00     0.063 A 
ATOM     84  C   UNL A   1      31.297  29.243  25.286  1.00  0.00     0.016 A 
ATOM     85  C   UNL A   1      31.855  26.857  25.148  1.00  0.00     0.054 A 
ATOM     86  C   UNL A   1      30.974  29.260  23.934  1.00  0.00     0.001 A 
ATOM     87  C   UNL A   1      31.546  26.906  23.786  1.00  0.00     0.027 A 
ATOM     88  C   UNL A   1      31.109  28.096  23.185  1.00  0.00     0.002 A 
BRANCH  85  89
ATOM     89  N   UNL A   1      32.257  25.684  25.824  1.00  0.00    -0.321 N 
ATOM     90  C   UNL A   1      33.019  24.597  25.514  1.00  0.00     0.263 C 
ATOM     91  H   UNL A   1      31.901  25.640  26.740  1.00  0.00     0.170 HD
ATOM     92  O   UNL A   1      33.264  23.792  26.412  1.00  0.00    -0.269 OA
BRANCH  90  93
ATOM     93  C   UNL A   1      33.503  24.375  24.127  1.00  0.00     0.126 A 
ATOM     94  C   UNL A   1      34.832  24.490  23.910  1.00  0.00     0.033 A 
ATOM     95  C   UNL A   1      32.953  23.141  23.507  1.00  0.00     0.349 A 
ATOM     96  C   UNL A   1      35.592  23.328  24.417  1.00  0.00     0.021 A 
ATOM     97  O   UNL A   1      33.688  21.979  23.755  1.00  0.00    -0.421 OA
ATOM     98  O   UNL A   1      31.917  23.153  22.855  1.00  0.00    -0.245 OA
ATOM     99  C   UNL A   1      36.864  23.446  24.967  1.00  0.00     0.032 A 
ATOM    100  C   UNL A   1      34.968  22.074  24.355  1.00  0.00     0.157 A 
ATOM    101  C   UNL A   1      37.488  22.305  25.478  1.00  0.00     0.043 A 
ATOM    102  C   UNL A   1      35.594  20.937  24.862  1.00  0.00     0.085 A 
ATOM    103  Cl  UNL A   1      39.043  22.449  26.198  1.00  0.00    -0.084 Cl
ATOM    104  C   UNL A   1      36.861  21.056  25.432  1.00  0.00     0.045 A 
ATOM    105  Cl  UNL A   1      34.826  19.396  24.819  1.00  0.00    -0.080 Cl
ENDBRANCH  90  93
ENDBRANCH  85  89
ENDBRANCH  80  83
ENDBRANCH  78  79
ENDBRANCH  77  78
ENDBRANCH  76  77
ENDBRANCH   1  76
TORSDOF 18
ENDMDL
MODEL 2
REMARK VINA RESULT:     -12.7      6.244     11.742
REMARK SMILES O=C(NCCCCCCNC(=O)c1ccccc1NC(=O)c1cc2cc(Cl)cc(Cl)c2oc1=O)c1ccc(-c2c3nc(c(-c4c(F)cc(S(=O)(=O)[O-])cc4F)c4ccc([nH]4)c(-c4c(F)cc(S(=O)(=O)[O-])cc4F)c4nc(c(-c5c(F)cc(S(=O)(=O)[O-])cc5F)c5ccc2[nH]5)C=C4)C=C3)cc1
REMARK SMILES IDX 6 1 5 2 4 3 3 4 1 5 2 6 35 8 36 9 100 10 37 11 99 12 38 13
REMARK SMILES IDX 39 14 40 15 93 16 41 17 98 18 92 19 94 20 42 21 97 22 91 23
REMARK SMILES IDX 90 24 43 26 77 27 56 28 76 29 57 30 60 31 75 32 95 33 58 34
REMARK SMILES IDX 59 35 74 37 96 38 61 39 44 40 45 41 54 42 46 43 47 44 53 45
REMARK SMILES IDX 55 46 48 47 49 48 50 49 51 50 52 51 78 52 79 53 88 54 80 55
REMARK SMILES IDX 81 56 87 57 89 58 82 59 83 60 84 61 85 62 86 63 62 64 63 65
REMARK SMILES IDX 72 66 64 67 65 68 71 69 73 70 66 71 67 72 68 73 69 74 70 75
REMARK SMILES IDX 7 76 8 77 9 78 10 79 11 80 12 82 13 83 14 84 18 85 15 86
REMARK SMILES IDX 17 87 16 88 19 89 20 90 21 92 22 93 23 94 33 95 24 96 32 97
REMARK SMILES IDX 34 98 25 99 31 100 26 101 29 102 27 103 28 104 30 105
REMARK H PARENT 3 7 94 25 60 36 10 81 19 91
REMARK Flexibility Score: inf
ROOT
ATOM      1  C   UNL A   1      38.294  23.643  26.476  1.00  0.00     0.002 C 
ENDROOT
BRANCH   1   2
ATOM      2  C   UNL A   1      39.396  22.581  26.505  1.00  0.00     0.021 C 
BRANCH   2   3
ATOM      3  C   UNL A   1      40.770  23.035  26.985  1.00  0.00     0.116 C 
BRANCH   3   4
ATOM      4  N   UNL A   1      41.519  23.763  25.981  1.00  0.00    -0.352 N 
ATOM      5  O   UNL A   1      42.451  25.532  24.960  1.00  0.00    -0.269 OA
ATOM      6  C   UNL A   1      41.896  25.084  25.961  1.00  0.00     0.251 C 
ATOM      7  H   UNL A   1      41.798  23.235  25.199  1.00  0.00     0.163 HD
BRANCH   6   8
ATOM      8  C   UNL A   1      41.619  25.983  27.111  1.00  0.00     0.039 A 
ATOM      9  C   UNL A   1      40.658  25.681  28.081  1.00  0.00     0.014 A 
ATOM     10  C   UNL A   1      42.398  27.139  27.252  1.00  0.00     0.014 A 
ATOM     11  C   UNL A   1      40.422  26.566  29.136  1.00  0.00     0.010 A 
ATOM     12  C   UNL A   1      42.189  28.006  28.329  1.00  0.00     0.010 A 
ATOM     13  C   UNL A   1      41.187  27.736  29.270  1.00  0.00    -0.014 A 
BRANCH  13  14
ATOM     14  C   UNL A   1      40.970  28.632  30.432  1.00  0.00     0.031 A 
ATOM     15  C   UNL A   1      41.843  28.544  31.651  1.00  0.00     0.074 A 
ATOM     16  C   UNL A   1      39.975  29.539  30.383  1.00  0.00     0.049 A 
ATOM     17  N   UNL A   1      41.811  29.273  32.738  1.00  0.00    -0.248 NA
ATOM     18  C   UNL A   1      42.880  27.503  31.656  1.00  0.00     0.031 C 
ATOM     19  C   UNL A   1      39.038  29.704  29.270  1.00  0.00     0.029 A 
ATOM     20  N   UNL A   1      39.590  30.494  31.289  1.00  0.00    -0.354 N 
ATOM     21  C   UNL A   1      42.809  28.773  33.563  1.00  0.00     0.074 A 
ATOM     22  C   UNL A   1      43.428  27.671  32.853  1.00  0.00     0.031 C 
ATOM     23  C   UNL A   1      38.201  30.717  29.550  1.00  0.00     0.029 A 
ATOM     24  C   UNL A   1      38.531  31.258  30.865  1.00  0.00     0.049 A 
ATOM     25  H   UNL A   1      40.032  30.620  32.161  1.00  0.00     0.167 HD
ATOM     26  C   UNL A   1      43.182  29.195  34.795  1.00  0.00     0.037 A 
ATOM     27  C   UNL A   1      37.896  32.282  31.465  1.00  0.00     0.037 A 
ATOM     28  C   UNL A   1      42.590  30.305  35.495  1.00  0.00     0.049 A 
ATOM     29  C   UNL A   1      38.339  32.743  32.820  1.00  0.00     0.074 A 
ATOM     30  C   UNL A   1      42.952  30.845  36.718  1.00  0.00     0.029 A 
ATOM     31  N   UNL A   1      41.511  31.045  35.038  1.00  0.00    -0.354 N 
ATOM     32  N   UNL A   1      39.318  32.288  33.562  1.00  0.00    -0.248 NA
ATOM     33  C   UNL A   1      37.589  33.855  33.421  1.00  0.00     0.031 C 
ATOM     34  C   UNL A   1      42.080  31.902  37.009  1.00  0.00     0.029 A 
ATOM     35  C   UNL A   1      41.183  32.025  35.961  1.00  0.00     0.049 A 
ATOM     36  H   UNL A   1      41.045  30.896  34.184  1.00  0.00     0.167 HD
ATOM     37  C   UNL A   1      39.298  33.051  34.722  1.00  0.00     0.074 A 
ATOM     38  C   UNL A   1      38.221  34.010  34.577  1.00  0.00     0.031 C 
ATOM     39  C   UNL A   1      40.099  32.961  35.812  1.00  0.00     0.037 A 
BRANCH  26  40
ATOM     40  C   UNL A   1      44.292  28.449  35.471  1.00  0.00     0.058 A 
ATOM     41  C   UNL A   1      45.628  28.854  35.332  1.00  0.00     0.135 A 
ATOM     42  C   UNL A   1      44.015  27.350  36.297  1.00  0.00     0.135 A 
ATOM     43  F   UNL A   1      45.941  29.892  34.541  1.00  0.00    -0.206 F 
ATOM     44  C   UNL A   1      46.658  28.185  35.986  1.00  0.00     0.059 A 
ATOM     45  C   UNL A   1      45.029  26.672  36.967  1.00  0.00     0.059 A 
ATOM     46  F   UNL A   1      42.752  26.924  36.455  1.00  0.00    -0.206 F 
ATOM     47  C   UNL A   1      46.349  27.092  36.797  1.00  0.00     0.060 A 
BRANCH  47  48
ATOM     48  S   UNL A   1      47.684  26.236  37.662  1.00  0.00     0.124 S 
ATOM     49  O   UNL A   1      48.272  27.325  38.438  1.00  0.00    -0.237 OA
ATOM     50  O   UNL A   1      46.971  25.225  38.435  1.00  0.00    -0.237 OA
ATOM     51  O   UNL A   1      48.509  25.720  36.574  1.00  0.00    -0.744 OA
ENDBRANCH  47  48
ENDBRANCH  26  40
BRANCH  27  52
ATOM     52  C   UNL A   1      36.772  32.946  30.767  1.00  0.00     0.058 A 
ATOM     53  C   UNL A   1      35.446  32.673  31.125  1.00  0.00     0.135 A 
ATOM     54  C   UNL A   1      37.007  33.901  29.767  1.00  0.00     0.135 A 
ATOM     55  F   UNL A   1      35.181  31.765  32.077  1.00  0.00    -0.206 F 
ATOM     56  C   UNL A   1      34.382  33.330  30.519  1.00  0.00     0.059 A 
ATOM     57  C   UNL A   1      35.959  34.578  29.153  1.00  0.00     0.059 A 
ATOM     58  F   UNL A   1      38.263  34.198  29.403  1.00  0.00    -0.206 F 
ATOM     59  C   UNL A   1      34.649  34.283  29.534  1.00  0.00     0.060 A 
BRANCH  59  60
ATOM     60  S   UNL A   1      33.284  35.212  28.800  1.00  0.00     0.124 S 
ATOM     61  O   UNL A   1      33.998  36.258  28.079  1.00  0.00    -0.237 OA
ATOM     62  O   UNL A   1      32.619  34.208  27.974  1.00  0.00    -0.237 OA
ATOM     63  O   UNL A   1      32.526  35.646  29.970  1.00  0.00    -0.744 OA
ENDBRANCH  59  60
ENDBRANCH  27  52
BRANCH  39  64
ATOM     64  C   UNL A   1      39.826  33.915  36.933  1.00  0.00     0.058 A 
ATOM     65  C   UNL A   1      38.961  33.563  37.981  1.00  0.00     0.135 A 
ATOM     66  C   UNL A   1      40.433  35.178  36.971  1.00  0.00     0.135 A 
ATOM     67  F   UNL A   1      38.352  32.368  37.981  1.00  0.00    -0.206 F 
ATOM     68  C   UNL A   1      38.694  34.443  39.025  1.00  0.00     0.059 A 
ATOM     69  C   UNL A   1      40.187  36.070  38.009  1.00  0.00     0.059 A 
ATOM     70  F   UNL A   1      41.268  35.556  35.990  1.00  0.00    -0.206 F 
ATOM     71  C   UNL A   1      39.305  35.698  39.025  1.00  0.00     0.060 A 
BRANCH  71  72
ATOM     72  S   UNL A   1      38.974  36.843  40.383  1.00  0.00     0.124 S 
ATOM     73  O   UNL A   1      40.325  37.138  40.851  1.00  0.00    -0.237 OA
ATOM     74  O   UNL A   1      38.281  37.943  39.721  1.00  0.00    -0.237 OA
ATOM     75  O   UNL A   1      38.151  36.049  41.290  1.00  0.00    -0.744 OA
ENDBRANCH  71  72
ENDBRANCH  39  64
ENDBRANCH  13  14
ENDBRANCH   6   8
ENDBRANCH   3   4
ENDBRANCH   2   3
ENDBRANCH   1   2
BRANCH   1  76
ATOM     76  C   UNL A   1      37.245  23.539  25.366  1.00  0.00     0.002 C 
BRANCH  76  77
ATOM     77  C   UNL A   1      37.120  22.200  24.628  1.00  0.00     0.021 C 
BRANCH  77  78
ATOM     78  C   UNL A   1      36.460  21.050  25.385  1.00  0.00     0.116 C 
BRANCH  78  79
ATOM     79  N   UNL A   1      35.501  21.485  26.386  1.00  0.00    -0.352 N 
ATOM     80  C   UNL A   1      34.142  21.647  26.275  1.00  0.00     0.253 C 
ATOM     81  H   UNL A   1      35.880  21.694  27.271  1.00  0.00     0.163 HD
ATOM     82  O   UNL A   1      33.498  22.095  27.218  1.00  0.00    -0.269 OA
BRANCH  80  83
ATOM     83  C   UNL A   1      33.445  21.306  25.013  1.00  0.00     0.063 A 
ATOM     84  C   UNL A   1      33.094  19.954  24.868  1.00  0.00     0.016 A 
ATOM     85  C   UNL A   1      33.198  22.241  23.982  1.00  0.00     0.054 A 
ATOM     86  C   UNL A   1      32.446  19.522  23.717  1.00  0.00     0.001 A 
ATOM     87  C   UNL A   1      32.526  21.786  22.844  1.00  0.00     0.027 A 
ATOM     88  C   UNL A   1      32.154  20.439  22.713  1.00  0.00     0.002 A 
BRANCH  85  89
ATOM     89  N   UNL A   1      33.639  23.570  24.158  1.00  0.00    -0.321 N 
ATOM     90  C   UNL A   1      33.099  24.714  24.664  1.00  0.00     0.263 C 
ATOM     91  H   UNL A   1      34.560  23.704  23.838  1.00  0.00     0.170 HD
ATOM     92  O   UNL A   1      33.831  25.698  24.773  1.00  0.00    -0.269 OA
BRANCH  90  93
ATOM     93  C   UNL A   1      31.661  24.779  25.035  1.00  0.00     0.126 A 
ATOM     94  C   UNL A   1      31.326  25.579  26.072  1.00  0.00     0.033 A 
ATOM     95  C   UNL A   1      30.766  24.994  23.869  1.00  0.00     0.349 A 
ATOM     96  C   UNL A   1      31.353  27.013  25.714  1.00  0.00     0.021 A 
ATOM     97  O   UNL A   1      30.551  26.332  23.529  1.00  0.00    -0.421 OA
ATOM     98  O   UNL A   1      30.284  24.058  23.244  1.00  0.00    -0.245 OA
ATOM     99  C   UNL A   1      31.749  28.002  26.609  1.00  0.00     0.032 A 
ATOM    100  C   UNL A   1      30.986  27.356  24.405  1.00  0.00     0.157 A 
ATOM    101  C   UNL A   1      31.802  29.328  26.170  1.00  0.00     0.043 A 
ATOM    102  C   UNL A   1      31.037  28.680  23.972  1.00  0.00     0.085 A 
ATOM    103  Cl  UNL A   1      32.331  30.551  27.257  1.00  0.00    -0.084 Cl
ATOM    104  C   UNL A   1      31.453  29.671  24.860  1.00  0.00     0.045 A 
ATOM    105  Cl  UNL A   1      30.618  29.111  22.358  1.00  0.00    -0.080 Cl
ENDBRANCH  90  93
ENDBRANCH  85  89
ENDBRANCH  80  83
ENDBRANCH  78  79
ENDBRANCH  77  78
ENDBRANCH  76  77
ENDBRANCH   1  76
TORSDOF 18
ENDMDL
MODEL 3
REMARK VINA RESULT:     -12.4      0.451      7.836
REMARK SMILES O=C(NCCCCCCNC(=O)c1ccccc1NC(=O)c1cc2cc(Cl)cc(Cl)c2oc1=O)c1ccc(-c2c3nc(c(-c4c(F)cc(S(=O)(=O)[O-])cc4F)c4ccc([nH]4)c(-c4c(F)cc(S(=O)(=O)[O-])cc4F)c4nc(c(-c5c(F)cc(S(=O)(=O)[O-])cc5F)c5ccc2[nH]5)C=C4)C=C3)cc1
REMARK SMILES IDX 6 1 5 2 4 3 3 4 1 5 2 6 35 8 36 9 100 10 37 11 99 12 38 13
REMARK SMILES IDX 39 14 40 15 93 16 41 17 98 18 92 19 94 20 42 21 97 22 91 23
REMARK SMILES IDX 90 24 43 26 77 27 56 28 76 29 57 30 60 31 75 32 95 33 58 34
REMARK SMILES IDX 59 35 74 37 96 38 61 39 44 40 45 41 54 42 46 43 47 44 53 45
REMARK SMILES IDX 55 46 48 47 49 48 50 49 51 50 52 51 78 52 79 53 88 54 80 55
REMARK SMILES IDX 81 56 87 57 89 58 82 59 83 60 84 61 85 62 86 63 62 64 63 65
REMARK SMILES IDX 72 66 64 67 65 68 71 69 73 70 66 71 67 72 68 73 69 74 70 75
REMARK SMILES IDX 7 76 8 77 9 78 10 79 11 80 12 82 13 83 14 84 18 85 15 86
REMARK SMILES IDX 17 87 16 88 19 89 20 90 21 92 22 93 23 94 33 95 24 96 32 97
REMARK SMILES IDX 34 98 25 99 31 100 26 101 29 102 27 103 28 104 30 105
REMARK H PARENT 3 7 94 25 60 36 10 81 19 91
REMARK Flexibility Score: inf
ROOT
ATOM      1  C   UNL A   1      34.440  32.787  28.119  1.00  0.00     0.002 C 
ENDROOT
BRANCH   1   2
ATOM      2  C   UNL A   1      35.957  32.993  28.113  1.00  0.00     0.021 C 
BRANCH   2   3
ATOM      3  C   UNL A   1      36.648  33.014  29.473  1.00  0.00     0.116 C 
BRANCH   3   4
ATOM      4  N   UNL A   1      36.165  31.993  30.380  1.00  0.00    -0.352 N 
ATOM      5  O   UNL A   1      36.130  30.035  31.477  1.00  0.00    -0.269 OA
ATOM      6  C   UNL A   1      36.757  30.814  30.763  1.00  0.00     0.251 C 
ATOM      7  H   UNL A   1      35.283  32.170  30.781  1.00  0.00     0.163 HD
BRANCH   6   8
ATOM      8  C   UNL A   1      38.124  30.453  30.306  1.00  0.00     0.039 A 
ATOM      9  C   UNL A   1      39.219  30.424  31.176  1.00  0.00     0.014 A 
ATOM     10  C   UNL A   1      38.297  30.071  28.969  1.00  0.00     0.014 A 
ATOM     11  C   UNL A   1      40.489  30.095  30.695  1.00  0.00     0.010 A 
ATOM     12  C   UNL A   1      39.561  29.703  28.497  1.00  0.00     0.010 A 
ATOM     13  C   UNL A   1      40.671  29.730  29.352  1.00  0.00    -0.014 A 
BRANCH  13  14
ATOM     14  C   UNL A   1      42.013  29.318  28.871  1.00  0.00     0.031 A 
ATOM     15  C   UNL A   1      42.267  27.918  28.390  1.00  0.00     0.074 A 
ATOM     16  C   UNL A   1      43.012  30.220  28.868  1.00  0.00     0.049 A 
ATOM     17  N   UNL A   1      43.369  27.403  27.908  1.00  0.00    -0.248 NA
ATOM     18  C   UNL A   1      41.144  26.972  28.464  1.00  0.00     0.031 C 
ATOM     19  C   UNL A   1      42.903  31.603  29.339  1.00  0.00     0.029 A 
ATOM     20  N   UNL A   1      44.314  30.112  28.449  1.00  0.00    -0.354 N 
ATOM     21  C   UNL A   1      43.082  26.073  27.634  1.00  0.00     0.074 A 
ATOM     22  C   UNL A   1      41.700  25.855  28.010  1.00  0.00     0.031 C 
ATOM     23  C   UNL A   1      44.083  32.220  29.161  1.00  0.00     0.029 A 
ATOM     24  C   UNL A   1      45.033  31.274  28.582  1.00  0.00     0.049 A 
ATOM     25  H   UNL A   1      44.697  29.279  28.088  1.00  0.00     0.167 HD
ATOM     26  C   UNL A   1      43.892  25.121  27.111  1.00  0.00     0.037 A 
ATOM     27  C   UNL A   1      46.312  31.552  28.270  1.00  0.00     0.037 A 
ATOM     28  C   UNL A   1      45.257  25.336  26.710  1.00  0.00     0.049 A 
ATOM     29  C   UNL A   1      47.183  30.487  27.675  1.00  0.00     0.074 A 
ATOM     30  C   UNL A   1      46.129  24.444  26.108  1.00  0.00     0.029 A 
ATOM     31  N   UNL A   1      45.953  26.523  26.873  1.00  0.00    -0.354 N 
ATOM     32  N   UNL A   1      46.877  29.248  27.379  1.00  0.00    -0.248 NA
ATOM     33  C   UNL A   1      48.573  30.856  27.376  1.00  0.00     0.031 C 
ATOM     34  C   UNL A   1      47.360  25.088  25.921  1.00  0.00     0.029 A 
ATOM     35  C   UNL A   1      47.247  26.384  26.398  1.00  0.00     0.049 A 
ATOM     36  H   UNL A   1      45.583  27.345  27.268  1.00  0.00     0.167 HD
ATOM     37  C   UNL A   1      48.038  28.685  26.865  1.00  0.00     0.074 A 
ATOM     38  C   UNL A   1      49.049  29.724  26.874  1.00  0.00     0.031 C 
ATOM     39  C   UNL A   1      48.247  27.419  26.429  1.00  0.00     0.037 A 
BRANCH  26  40
ATOM     40  C   UNL A   1      43.316  23.748  26.939  1.00  0.00     0.058 A 
ATOM     41  C   UNL A   1      42.929  23.276  25.676  1.00  0.00     0.135 A 
ATOM     42  C   UNL A   1      43.192  22.883  28.036  1.00  0.00     0.135 A 
ATOM     43  F   UNL A   1      43.019  24.074  24.600  1.00  0.00    -0.206 F 
ATOM     44  C   UNL A   1      42.427  21.990  25.507  1.00  0.00     0.059 A 
ATOM     45  C   UNL A   1      42.700  21.590  27.888  1.00  0.00     0.059 A 
ATOM     46  F   UNL A   1      43.544  23.293  29.264  1.00  0.00    -0.206 F 
ATOM     47  C   UNL A   1      42.312  21.155  26.620  1.00  0.00     0.060 A 
BRANCH  47  48
ATOM     48  S   UNL A   1      41.679  19.478  26.398  1.00  0.00     0.124 S 
ATOM     49  O   UNL A   1      41.989  18.878  27.693  1.00  0.00    -0.237 OA
ATOM     50  O   UNL A   1      40.263  19.701  26.128  1.00  0.00    -0.237 OA
ATOM     51  O   UNL A   1      42.456  18.975  25.268  1.00  0.00    -0.744 OA
ENDBRANCH  47  48
ENDBRANCH  26  40
BRANCH  27  52
ATOM     52  C   UNL A   1      46.838  32.914  28.511  1.00  0.00     0.058 A 
ATOM     53  C   UNL A   1      46.743  33.903  27.523  1.00  0.00     0.135 A 
ATOM     54  C   UNL A   1      47.397  33.265  29.748  1.00  0.00     0.135 A 
ATOM     55  F   UNL A   1      46.215  33.606  26.325  1.00  0.00    -0.206 F 
ATOM     56  C   UNL A   1      47.180  35.202  27.753  1.00  0.00     0.059 A 
ATOM     57  C   UNL A   1      47.832  34.560  30.005  1.00  0.00     0.059 A 
ATOM     58  F   UNL A   1      47.495  32.349  30.724  1.00  0.00    -0.206 F 
ATOM     59  C   UNL A   1      47.721  35.521  28.999  1.00  0.00     0.060 A 
BRANCH  59  60
ATOM     60  S   UNL A   1      48.211  37.225  29.347  1.00  0.00     0.124 S 
ATOM     61  O   UNL A   1      49.623  37.203  28.984  1.00  0.00    -0.237 OA
ATOM     62  O   UNL A   1      47.339  37.997  28.466  1.00  0.00    -0.237 OA
ATOM     63  O   UNL A   1      47.920  37.358  30.771  1.00  0.00    -0.744 OA
ENDBRANCH  59  60
ENDBRANCH  27  52
BRANCH  39  64
ATOM     64  C   UNL A   1      49.625  27.091  25.944  1.00  0.00     0.058 A 
ATOM     65  C   UNL A   1      49.973  27.266  24.595  1.00  0.00     0.135 A 
ATOM     66  C   UNL A   1      50.606  26.612  26.824  1.00  0.00     0.135 A 
ATOM     67  F   UNL A   1      49.064  27.714  23.716  1.00  0.00    -0.206 F 
ATOM     68  C   UNL A   1      51.248  26.958  24.130  1.00  0.00     0.059 A 
ATOM     69  C   UNL A   1      51.889  26.306  26.383  1.00  0.00     0.059 A 
ATOM     70  F   UNL A   1      50.317  26.431  28.122  1.00  0.00    -0.206 F 
ATOM     71  C   UNL A   1      52.196  26.470  25.031  1.00  0.00     0.060 A 
BRANCH  71  72
ATOM     72  S   UNL A   1      53.858  26.080  24.440  1.00  0.00     0.124 S 
ATOM     73  O   UNL A   1      53.958  24.661  24.768  1.00  0.00    -0.237 OA
ATOM     74  O   UNL A   1      53.782  26.396  23.018  1.00  0.00    -0.237 OA
ATOM     75  O   UNL A   1      54.705  26.971  25.227  1.00  0.00    -0.744 OA
ENDBRANCH  71  72
ENDBRANCH  39  64
ENDBRANCH  13  14
ENDBRANCH   6   8
ENDBRANCH   3   4
ENDBRANCH   2   3
ENDBRANCH   1   2
BRANCH   1  76
ATOM     76  C   UNL A   1      33.915  31.414  27.690  1.00  0.00     0.002 C 
BRANCH  76  77
ATOM     77  C   UNL A   1      34.946  30.317  27.398  1.00  0.00     0.021 C 
BRANCH  77  78
ATOM     78  C   UNL A   1      34.406  28.953  26.973  1.00  0.00     0.116 C 
BRANCH  78  79
ATOM     79  N   UNL A   1      33.278  28.499  27.768  1.00  0.00    -0.352 N 
ATOM     80  C   UNL A   1      32.022  28.125  27.360  1.00  0.00     0.253 C 
ATOM     81  H   UNL A   1      33.438  28.453  28.739  1.00  0.00     0.163 HD
ATOM     82  O   UNL A   1      31.168  27.832  28.191  1.00  0.00    -0.269 OA
BRANCH  80  83
ATOM     83  C   UNL A   1      31.678  28.091  25.920  1.00  0.00     0.063 A 
ATOM     84  C   UNL A   1      31.314  29.327  25.360  1.00  0.00     0.016 A 
ATOM     85  C   UNL A   1      31.644  26.903  25.154  1.00  0.00     0.054 A 
ATOM     86  C   UNL A   1      30.961  29.407  24.019  1.00  0.00     0.001 A 
ATOM     87  C   UNL A   1      31.307  27.014  23.802  1.00  0.00     0.027 A 
ATOM     88  C   UNL A   1      30.969  28.255  23.240  1.00  0.00     0.002 A 
BRANCH  85  89
ATOM     89  N   UNL A   1      31.950  25.681  25.792  1.00  0.00    -0.321 N 
ATOM     90  C   UNL A   1      32.667  24.569  25.466  1.00  0.00     0.263 C 
ATOM     91  H   UNL A   1      31.550  25.617  26.689  1.00  0.00     0.170 HD
ATOM     92  O   UNL A   1      32.827  23.712  26.336  1.00  0.00    -0.269 OA
BRANCH  90  93
ATOM     93  C   UNL A   1      33.202  24.381  24.093  1.00  0.00     0.126 A 
ATOM     94  C   UNL A   1      34.520  24.609  23.907  1.00  0.00     0.033 A 
ATOM     95  C   UNL A   1      32.777  23.100  23.471  1.00  0.00     0.349 A 
ATOM     96  C   UNL A   1      35.366  23.521  24.442  1.00  0.00     0.021 A 
ATOM     97  O   UNL A   1      33.604  22.007  23.746  1.00  0.00    -0.421 OA
ATOM     98  O   UNL A   1      31.760  23.017  22.795  1.00  0.00    -0.245 OA
ATOM     99  C   UNL A   1      36.610  23.753  25.020  1.00  0.00     0.032 A 
ATOM    100  C   UNL A   1      34.855  22.217  24.375  1.00  0.00     0.157 A 
ATOM    101  C   UNL A   1      37.318  22.674  25.556  1.00  0.00     0.043 A 
ATOM    102  C   UNL A   1      35.565  21.142  24.906  1.00  0.00     0.085 A 
ATOM    103  Cl  UNL A   1      38.837  22.958  26.311  1.00  0.00    -0.084 Cl
ATOM    104  C   UNL A   1      36.803  21.375  25.506  1.00  0.00     0.045 A 
ATOM    105  Cl  UNL A   1      34.936  19.540  24.859  1.00  0.00    -0.080 Cl
ENDBRANCH  90  93
ENDBRANCH  85  89
ENDBRANCH  80  83
ENDBRANCH  78  79
ENDBRANCH  77  78
ENDBRANCH  76  77
ENDBRANCH   1  76
TORSDOF 18
ENDMDL
