MODEL 1
REMARK VINA RESULT:     -12.8      0.000      0.000
REMARK SMILES O=C(NCCCCCCNC(=O)c1cc(F)c(F)cc1NS(=O)(=O)c1ccc2c(c1)CCC2)c1ccc(-c2c3nc(c(-c4c(F)cc(S(=O)(=O)[O-])cc4F)c4ccc([nH]4)c(-c4c(F)cc(S(=O)(=O)[O-])cc4F)c4nc(c(-c5c(F)cc(S(=O)(=O)[O-])cc5F)c5ccc2[nH]5)C=C4)C=C3)cc1
REMARK SMILES IDX 6 1 5 2 4 3 3 4 1 5 2 6 34 8 35 9 99 10 36 11 98 12 37 13
REMARK SMILES IDX 38 14 39 15 92 16 40 17 97 18 91 19 93 20 41 21 96 22 90 23
REMARK SMILES IDX 89 24 42 26 76 27 55 28 75 29 56 30 59 31 74 32 94 33 57 34
REMARK SMILES IDX 58 35 73 37 95 38 60 39 43 40 44 41 53 42 45 43 46 44 52 45
REMARK SMILES IDX 54 46 47 47 48 48 49 49 50 50 51 51 77 52 78 53 87 54 79 55
REMARK SMILES IDX 80 56 86 57 88 58 81 59 82 60 83 61 84 62 85 63 61 64 62 65
REMARK SMILES IDX 71 66 63 67 64 68 70 69 72 70 65 71 66 72 67 73 68 74 69 75
REMARK SMILES IDX 7 76 8 77 9 78 10 79 11 80 12 82 13 83 14 84 20 85 15 86
REMARK SMILES IDX 19 87 16 88 17 89 18 90 21 91 22 93 23 94 24 95 25 96 26 97
REMARK SMILES IDX 30 98 27 99 29 100 28 101 31 102 33 103 32 104
REMARK H PARENT 3 7 93 25 59 36 10 81 21 92
REMARK Flexibility Score: inf
ROOT
ATOM      1  C   UNL A   1      38.064  23.813  26.484  1.00  0.00     0.002 C 
ENDROOT
BRANCH   1   2
ATOM      2  C   UNL A   1      39.212  22.804  26.478  1.00  0.00     0.021 C 
BRANCH   2   3
ATOM      3  C   UNL A   1      40.559  23.358  26.924  1.00  0.00     0.116 C 
BRANCH   3   4
ATOM      4  N   UNL A   1      41.206  24.166  25.903  1.00  0.00    -0.352 N 
ATOM      5  O   UNL A   1      41.996  26.046  24.937  1.00  0.00    -0.269 OA
ATOM      6  C   UNL A   1      41.588  25.487  25.951  1.00  0.00     0.251 C 
ATOM      7  H   UNL A   1      41.398  23.703  25.056  1.00  0.00     0.163 HD
BRANCH   6   8
ATOM      8  C   UNL A   1      41.474  26.238  27.222  1.00  0.00     0.039 A 
ATOM      9  C   UNL A   1      40.407  26.007  28.090  1.00  0.00     0.014 A 
ATOM     10  C   UNL A   1      42.436  27.204  27.536  1.00  0.00     0.014 A 
ATOM     11  C   UNL A   1      40.204  26.854  29.173  1.00  0.00     0.010 A 
ATOM     12  C   UNL A   1      42.282  27.989  28.683  1.00  0.00     0.010 A 
ATOM     13  C   UNL A   1      41.141  27.853  29.488  1.00  0.00    -0.014 A 
BRANCH  13  14
ATOM     14  C   UNL A   1      40.911  28.709  30.682  1.00  0.00     0.031 A 
ATOM     15  C   UNL A   1      41.802  28.619  31.894  1.00  0.00     0.074 A 
ATOM     16  C   UNL A   1      39.910  29.612  30.648  1.00  0.00     0.049 A 
ATOM     17  N   UNL A   1      41.772  29.330  32.993  1.00  0.00    -0.248 NA
ATOM     18  C   UNL A   1      42.857  27.593  31.878  1.00  0.00     0.031 C 
ATOM     19  C   UNL A   1      38.970  29.784  29.536  1.00  0.00     0.029 A 
ATOM     20  N   UNL A   1      39.529  30.570  31.553  1.00  0.00    -0.354 N 
ATOM     21  C   UNL A   1      42.780  28.825  33.807  1.00  0.00     0.074 A 
ATOM     22  C   UNL A   1      43.390  27.729  33.084  1.00  0.00     0.031 C 
ATOM     23  C   UNL A   1      38.164  30.822  29.797  1.00  0.00     0.029 A 
ATOM     24  C   UNL A   1      38.484  31.350  31.118  1.00  0.00     0.049 A 
ATOM     25  H   UNL A   1      39.963  30.687  32.429  1.00  0.00     0.167 HD
ATOM     26  C   UNL A   1      43.164  29.241  35.039  1.00  0.00     0.037 A 
ATOM     27  C   UNL A   1      37.845  32.371  31.717  1.00  0.00     0.037 A 
ATOM     28  C   UNL A   1      42.565  30.348  35.742  1.00  0.00     0.049 A 
ATOM     29  C   UNL A   1      38.288  32.809  33.083  1.00  0.00     0.074 A 
ATOM     30  C   UNL A   1      42.914  30.877  36.973  1.00  0.00     0.029 A 
ATOM     31  N   UNL A   1      41.489  31.095  35.282  1.00  0.00    -0.354 N 
ATOM     32  N   UNL A   1      39.269  32.344  33.819  1.00  0.00    -0.248 NA
ATOM     33  C   UNL A   1      37.536  33.907  33.702  1.00  0.00     0.031 C 
ATOM     34  C   UNL A   1      42.020  31.910  37.278  1.00  0.00     0.029 A 
ATOM     35  C   UNL A   1      41.147  32.062  36.214  1.00  0.00     0.049 A 
ATOM     36  H   UNL A   1      41.034  30.956  34.419  1.00  0.00     0.167 HD
ATOM     37  C   UNL A   1      39.268  33.110  34.978  1.00  0.00     0.074 A 
ATOM     38  C   UNL A   1      38.198  34.077  34.838  1.00  0.00     0.031 C 
ATOM     39  C   UNL A   1      40.081  33.021  36.060  1.00  0.00     0.037 A 
BRANCH  26  40
ATOM     40  C   UNL A   1      44.270  28.483  35.724  1.00  0.00     0.058 A 
ATOM     41  C   UNL A   1      44.014  27.398  36.578  1.00  0.00     0.135 A 
ATOM     42  C   UNL A   1      45.613  28.823  35.489  1.00  0.00     0.135 A 
ATOM     43  F   UNL A   1      42.750  27.036  36.849  1.00  0.00    -0.206 F 
ATOM     44  C   UNL A   1      45.045  26.697  37.197  1.00  0.00     0.059 A 
ATOM     45  C   UNL A   1      46.662  28.120  36.077  1.00  0.00     0.059 A 
ATOM     46  F   UNL A   1      45.919  29.849  34.680  1.00  0.00    -0.206 F 
ATOM     47  C   UNL A   1      46.367  27.068  36.942  1.00  0.00     0.060 A 
BRANCH  47  48
ATOM     48  S   UNL A   1      47.694  26.155  37.759  1.00  0.00     0.124 S 
ATOM     49  O   UNL A   1      48.619  25.935  36.651  1.00  0.00    -0.237 OA
ATOM     50  O   UNL A   1      48.141  27.098  38.778  1.00  0.00    -0.237 OA
ATOM     51  O   UNL A   1      47.026  24.960  38.263  1.00  0.00    -0.744 OA
ENDBRANCH  47  48
ENDBRANCH  26  40
BRANCH  27  52
ATOM     52  C   UNL A   1      36.726  33.056  31.015  1.00  0.00     0.058 A 
ATOM     53  C   UNL A   1      35.392  32.801  31.364  1.00  0.00     0.135 A 
ATOM     54  C   UNL A   1      36.971  33.996  30.003  1.00  0.00     0.135 A 
ATOM     55  F   UNL A   1      35.109  31.908  32.325  1.00  0.00    -0.206 F 
ATOM     56  C   UNL A   1      34.338  33.444  30.725  1.00  0.00     0.059 A 
ATOM     57  C   UNL A   1      35.935  34.673  29.369  1.00  0.00     0.059 A 
ATOM     58  F   UNL A   1      38.231  34.288  29.646  1.00  0.00    -0.206 F 
ATOM     59  C   UNL A   1      34.621  34.382  29.731  1.00  0.00     0.060 A 
BRANCH  59  60
ATOM     60  S   UNL A   1      33.248  35.251  28.944  1.00  0.00     0.124 S 
ATOM     61  O   UNL A   1      32.670  34.198  28.117  1.00  0.00    -0.237 OA
ATOM     62  O   UNL A   1      32.452  35.672  30.093  1.00  0.00    -0.237 OA
ATOM     63  O   UNL A   1      33.907  36.333  28.219  1.00  0.00    -0.744 OA
ENDBRANCH  59  60
ENDBRANCH  27  52
BRANCH  39  64
ATOM     64  C   UNL A   1      39.867  34.023  37.161  1.00  0.00     0.058 A 
ATOM     65  C   UNL A   1      40.509  35.271  37.163  1.00  0.00     0.135 A 
ATOM     66  C   UNL A   1      38.990  33.734  38.219  1.00  0.00     0.135 A 
ATOM     67  F   UNL A   1      41.364  35.593  36.179  1.00  0.00    -0.206 F 
ATOM     68  C   UNL A   1      40.315  36.185  38.194  1.00  0.00     0.059 A 
ATOM     69  C   UNL A   1      38.759  34.645  39.245  1.00  0.00     0.059 A 
ATOM     70  F   UNL A   1      38.343  32.559  38.261  1.00  0.00    -0.206 F 
ATOM     71  C   UNL A   1      39.440  35.862  39.232  1.00  0.00     0.060 A 
BRANCH  71  72
ATOM     72  S   UNL A   1      39.186  37.060  40.558  1.00  0.00     0.124 S 
ATOM     73  O   UNL A   1      38.642  36.215  41.616  1.00  0.00    -0.237 OA
ATOM     74  O   UNL A   1      40.535  37.569  40.784  1.00  0.00    -0.237 OA
ATOM     75  O   UNL A   1      38.251  38.016  39.975  1.00  0.00    -0.744 OA
ENDBRANCH  71  72
ENDBRANCH  39  64
ENDBRANCH  13  14
ENDBRANCH   6   8
ENDBRANCH   3   4
ENDBRANCH   2   3
ENDBRANCH   1   2
BRANCH   1  76
ATOM     76  C   UNL A   1      36.876  23.463  25.584  1.00  0.00     0.002 C 
BRANCH  76  77
ATOM     77  C   UNL A   1      37.036  22.192  24.742  1.00  0.00     0.021 C 
BRANCH  77  78
ATOM     78  C   UNL A   1      36.310  20.965  25.289  1.00  0.00     0.116 C 
BRANCH  78  79
ATOM     79  N   UNL A   1      35.406  21.322  26.375  1.00  0.00    -0.352 N 
ATOM     80  C   UNL A   1      34.038  21.246  26.403  1.00  0.00     0.253 C 
ATOM     81  H   UNL A   1      35.834  21.662  27.194  1.00  0.00     0.163 HD
ATOM     82  O   UNL A   1      33.387  21.856  27.242  1.00  0.00    -0.269 OA
BRANCH  80  83
ATOM     83  C   UNL A   1      33.342  20.458  25.373  1.00  0.00     0.067 A 
ATOM     84  C   UNL A   1      33.335  19.058  25.515  1.00  0.00     0.058 A 
ATOM     85  C   UNL A   1      32.760  21.088  24.255  1.00  0.00     0.065 A 
ATOM     86  C   UNL A   1      32.821  18.274  24.496  1.00  0.00     0.159 A 
ATOM     87  C   UNL A   1      32.317  20.258  23.221  1.00  0.00     0.070 A 
ATOM     88  F   UNL A   1      32.858  16.940  24.603  1.00  0.00    -0.204 F 
ATOM     89  C   UNL A   1      32.330  18.871  23.349  1.00  0.00     0.160 A 
ATOM     90  F   UNL A   1      31.894  18.120  22.328  1.00  0.00    -0.204 F 
BRANCH  85  91
ATOM     91  N   UNL A   1      32.827  22.527  24.071  1.00  0.00    -0.279 N 
ATOM     92  H   UNL A   1      33.656  22.934  23.728  1.00  0.00     0.180 HD
BRANCH  91  93
ATOM     93  S   UNL A   1      31.484  23.525  24.441  1.00  0.00     0.261 S 
ATOM     94  O   UNL A   1      30.752  23.732  23.202  1.00  0.00    -0.201 OA
ATOM     95  O   UNL A   1      30.837  22.942  25.589  1.00  0.00    -0.201 OA
BRANCH  93  96
ATOM     96  C   UNL A   1      32.156  25.087  24.944  1.00  0.00     0.088 A 
ATOM     97  C   UNL A   1      33.511  25.360  24.673  1.00  0.00     0.022 A 
ATOM     98  C   UNL A   1      31.368  25.957  25.711  1.00  0.00     0.026 A 
ATOM     99  C   UNL A   1      34.130  26.464  25.256  1.00  0.00     0.005 A 
ATOM    100  C   UNL A   1      32.004  27.044  26.290  1.00  0.00    -0.043 A 
ATOM    101  C   UNL A   1      33.372  27.277  26.082  1.00  0.00    -0.045 A 
ATOM    102  C   UNL A   1      31.451  28.009  27.293  1.00  0.00     0.036 C 
ATOM    103  C   UNL A   1      33.859  28.401  26.945  1.00  0.00     0.036 C 
ATOM    104  C   UNL A   1      32.541  29.092  27.309  1.00  0.00     0.010 C 
ENDBRANCH  93  96
ENDBRANCH  91  93
ENDBRANCH  85  91
ENDBRANCH  80  83
ENDBRANCH  78  79
ENDBRANCH  77  78
ENDBRANCH  76  77
ENDBRANCH   1  76
TORSDOF 19
ENDMDL
MODEL 2
REMARK VINA RESULT:     -12.5      6.152      8.859
REMARK SMILES O=C(NCCCCCCNC(=O)c1cc(F)c(F)cc1NS(=O)(=O)c1ccc2c(c1)CCC2)c1ccc(-c2c3nc(c(-c4c(F)cc(S(=O)(=O)[O-])cc4F)c4ccc([nH]4)c(-c4c(F)cc(S(=O)(=O)[O-])cc4F)c4nc(c(-c5c(F)cc(S(=O)(=O)[O-])cc5F)c5ccc2[nH]5)C=C4)C=C3)cc1
REMARK SMILES IDX 6 1 5 2 4 3 3 4 1 5 2 6 34 8 35 9 99 10 36 11 98 12 37 13
REMARK SMILES IDX 38 14 39 15 92 16 40 17 97 18 91 19 93 20 41 21 96 22 90 23
REMARK SMILES IDX 89 24 42 26 76 27 55 28 75 29 56 30 59 31 74 32 94 33 57 34
REMARK SMILES IDX 58 35 73 37 95 38 60 39 43 40 44 41 53 42 45 43 46 44 52 45
REMARK SMILES IDX 54 46 47 47 48 48 49 49 50 50 51 51 77 52 78 53 87 54 79 55
REMARK SMILES IDX 80 56 86 57 88 58 81 59 82 60 83 61 84 62 85 63 61 64 62 65
REMARK SMILES IDX 71 66 63 67 64 68 70 69 72 70 65 71 66 72 67 73 68 74 69 75
REMARK SMILES IDX 7 76 8 77 9 78 10 79 11 80 12 82 13 83 14 84 20 85 15 86
REMARK SMILES IDX 19 87 16 88 17 89 18 90 21 91 22 93 23 94 24 95 25 96 26 97
REMARK SMILES IDX 30 98 27 99 29 100 28 101 31 102 33 103 32 104
REMARK H PARENT 3 7 93 25 59 36 10 81 21 92
REMARK Flexibility Score: inf
ROOT
ATOM      1  C   UNL A   1      37.388  21.320  24.521  1.00  0.00     0.002 C 
ENDROOT
BRANCH   1   2
ATOM      2  C   UNL A   1      38.135  20.125  25.114  1.00  0.00     0.021 C 
BRANCH   2   3
ATOM      3  C   UNL A   1      39.383  20.479  25.914  1.00  0.00     0.116 C 
BRANCH   3   4
ATOM      4  N   UNL A   1      40.338  19.385  25.988  1.00  0.00    -0.352 N 
ATOM      5  O   UNL A   1      42.371  18.407  26.046  1.00  0.00    -0.269 OA
ATOM      6  C   UNL A   1      41.704  19.433  26.150  1.00  0.00     0.251 C 
ATOM      7  H   UNL A   1      39.954  18.482  25.909  1.00  0.00     0.163 HD
BRANCH   6   8
ATOM      8  C   UNL A   1      42.366  20.729  26.418  1.00  0.00     0.039 A 
ATOM      9  C   UNL A   1      42.564  21.170  27.726  1.00  0.00     0.014 A 
ATOM     10  C   UNL A   1      42.773  21.526  25.342  1.00  0.00     0.014 A 
ATOM     11  C   UNL A   1      43.000  22.470  27.958  1.00  0.00     0.010 A 
ATOM     12  C   UNL A   1      43.307  22.796  25.581  1.00  0.00     0.010 A 
ATOM     13  C   UNL A   1      43.383  23.298  26.889  1.00  0.00    -0.014 A 
BRANCH  13  14
ATOM     14  C   UNL A   1      43.889  24.666  27.181  1.00  0.00     0.031 A 
ATOM     15  C   UNL A   1      45.328  25.038  26.938  1.00  0.00     0.074 A 
ATOM     16  C   UNL A   1      43.020  25.595  27.628  1.00  0.00     0.049 A 
ATOM     17  N   UNL A   1      45.915  26.198  27.086  1.00  0.00    -0.248 NA
ATOM     18  C   UNL A   1      46.229  23.969  26.477  1.00  0.00     0.031 C 
ATOM     19  C   UNL A   1      41.603  25.352  27.917  1.00  0.00     0.029 A 
ATOM     20  N   UNL A   1      43.185  26.930  27.894  1.00  0.00    -0.354 N 
ATOM     21  C   UNL A   1      47.254  25.997  26.765  1.00  0.00     0.074 A 
ATOM     22  C   UNL A   1      47.397  24.595  26.434  1.00  0.00     0.031 C 
ATOM     23  C   UNL A   1      41.018  26.508  28.258  1.00  0.00     0.029 A 
ATOM     24  C   UNL A   1      42.025  27.561  28.277  1.00  0.00     0.049 A 
ATOM     25  H   UNL A   1      44.052  27.392  27.818  1.00  0.00     0.167 HD
ATOM     26  C   UNL A   1      48.266  26.900  26.743  1.00  0.00     0.037 A 
ATOM     27  C   UNL A   1      41.797  28.844  28.615  1.00  0.00     0.037 A 
ATOM     28  C   UNL A   1      48.108  28.299  27.051  1.00  0.00     0.049 A 
ATOM     29  C   UNL A   1      42.936  29.821  28.585  1.00  0.00     0.074 A 
ATOM     30  C   UNL A   1      49.061  29.303  27.011  1.00  0.00     0.029 A 
ATOM     31  N   UNL A   1      46.924  28.895  27.464  1.00  0.00    -0.354 N 
ATOM     32  N   UNL A   1      44.185  29.620  28.240  1.00  0.00    -0.248 NA
ATOM     33  C   UNL A   1      42.636  31.200  28.993  1.00  0.00     0.031 C 
ATOM     34  C   UNL A   1      48.466  30.493  27.444  1.00  0.00     0.029 A 
ATOM     35  C   UNL A   1      47.128  30.245  27.704  1.00  0.00     0.049 A 
ATOM     36  H   UNL A   1      46.065  28.427  27.572  1.00  0.00     0.167 HD
ATOM     37  C   UNL A   1      44.816  30.851  28.366  1.00  0.00     0.074 A 
ATOM     38  C   UNL A   1      43.806  31.794  28.804  1.00  0.00     0.031 C 
ATOM     39  C   UNL A   1      46.113  31.173  28.137  1.00  0.00     0.037 A 
BRANCH  26  40
ATOM     40  C   UNL A   1      49.644  26.402  26.395  1.00  0.00     0.058 A 
ATOM     41  C   UNL A   1      50.442  25.709  27.318  1.00  0.00     0.135 A 
ATOM     42  C   UNL A   1      50.158  26.588  25.100  1.00  0.00     0.135 A 
ATOM     43  F   UNL A   1      50.007  25.513  28.574  1.00  0.00    -0.206 F 
ATOM     44  C   UNL A   1      51.710  25.243  26.983  1.00  0.00     0.059 A 
ATOM     45  C   UNL A   1      51.413  26.108  24.734  1.00  0.00     0.059 A 
ATOM     46  F   UNL A   1      49.439  27.240  24.175  1.00  0.00    -0.206 F 
ATOM     47  C   UNL A   1      52.188  25.451  25.687  1.00  0.00     0.060 A 
BRANCH  47  48
ATOM     48  S   UNL A   1      53.839  24.848  25.268  1.00  0.00     0.124 S 
ATOM     49  O   UNL A   1      54.105  25.572  24.029  1.00  0.00    -0.237 OA
ATOM     50  O   UNL A   1      54.626  25.263  26.425  1.00  0.00    -0.237 OA
ATOM     51  O   UNL A   1      53.650  23.408  25.125  1.00  0.00    -0.744 OA
ENDBRANCH  47  48
ENDBRANCH  26  40
BRANCH  27  52
ATOM     52  C   UNL A   1      40.425  29.273  28.997  1.00  0.00     0.058 A 
ATOM     53  C   UNL A   1      40.072  29.449  30.342  1.00  0.00     0.135 A 
ATOM     54  C   UNL A   1      39.450  29.542  28.023  1.00  0.00     0.135 A 
ATOM     55  F   UNL A   1      40.970  29.203  31.309  1.00  0.00    -0.206 F 
ATOM     56  C   UNL A   1      38.798  29.863  30.712  1.00  0.00     0.059 A 
ATOM     57  C   UNL A   1      38.178  29.984  28.367  1.00  0.00     0.059 A 
ATOM     58  F   UNL A   1      39.745  29.406  26.721  1.00  0.00    -0.206 F 
ATOM     59  C   UNL A   1      37.858  30.132  29.715  1.00  0.00     0.060 A 
BRANCH  59  60
ATOM     60  S   UNL A   1      36.222  30.720  30.202  1.00  0.00     0.124 S 
ATOM     61  O   UNL A   1      35.438  30.427  29.007  1.00  0.00    -0.237 OA
ATOM     62  O   UNL A   1      35.935  29.896  31.372  1.00  0.00    -0.237 OA
ATOM     63  O   UNL A   1      36.444  32.135  30.480  1.00  0.00    -0.744 OA
ENDBRANCH  59  60
ENDBRANCH  27  52
BRANCH  39  64
ATOM     64  C   UNL A   1      46.504  32.613  28.320  1.00  0.00     0.058 A 
ATOM     65  C   UNL A   1      47.022  33.093  29.533  1.00  0.00     0.135 A 
ATOM     66  C   UNL A   1      46.376  33.522  27.257  1.00  0.00     0.135 A 
ATOM     67  F   UNL A   1      47.158  32.267  30.583  1.00  0.00    -0.206 F 
ATOM     68  C   UNL A   1      47.367  34.430  29.697  1.00  0.00     0.059 A 
ATOM     69  C   UNL A   1      46.742  34.857  27.390  1.00  0.00     0.059 A 
ATOM     70  F   UNL A   1      45.895  33.113  26.072  1.00  0.00    -0.206 F 
ATOM     71  C   UNL A   1      47.221  35.306  28.619  1.00  0.00     0.060 A 
BRANCH  71  72
ATOM     72  S   UNL A   1      47.683  37.037  28.839  1.00  0.00     0.124 S 
ATOM     73  O   UNL A   1      48.563  37.252  27.694  1.00  0.00    -0.237 OA
ATOM     74  O   UNL A   1      46.394  37.717  28.784  1.00  0.00    -0.237 OA
ATOM     75  O   UNL A   1      48.337  37.050  30.144  1.00  0.00    -0.744 OA
ENDBRANCH  71  72
ENDBRANCH  39  64
ENDBRANCH  13  14
ENDBRANCH   6   8
ENDBRANCH   3   4
ENDBRANCH   2   3
ENDBRANCH   1   2
BRANCH   1  76
ATOM     76  C   UNL A   1      36.209  21.835  25.351  1.00  0.00     0.002 C 
BRANCH  76  77
ATOM     77  C   UNL A   1      36.432  23.178  26.054  1.00  0.00     0.021 C 
BRANCH  77  78
ATOM     78  C   UNL A   1      35.268  24.161  25.943  1.00  0.00     0.116 C 
BRANCH  78  79
ATOM     79  N   UNL A   1      34.971  24.479  24.553  1.00  0.00    -0.352 N 
ATOM     80  C   UNL A   1      33.920  25.202  24.051  1.00  0.00     0.253 C 
ATOM     81  H   UNL A   1      35.606  24.127  23.888  1.00  0.00     0.163 HD
ATOM     82  O   UNL A   1      33.615  25.138  22.867  1.00  0.00    -0.269 OA
BRANCH  80  83
ATOM     83  C   UNL A   1      33.117  26.031  24.966  1.00  0.00     0.067 A 
ATOM     84  C   UNL A   1      33.694  27.221  25.446  1.00  0.00     0.058 A 
ATOM     85  C   UNL A   1      31.842  25.606  25.390  1.00  0.00     0.065 A 
ATOM     86  C   UNL A   1      33.034  27.951  26.420  1.00  0.00     0.159 A 
ATOM     87  C   UNL A   1      31.245  26.334  26.423  1.00  0.00     0.070 A 
ATOM     88  F   UNL A   1      33.601  29.057  26.916  1.00  0.00    -0.204 F 
ATOM     89  C   UNL A   1      31.824  27.501  26.917  1.00  0.00     0.160 A 
ATOM     90  F   UNL A   1      31.211  28.162  27.908  1.00  0.00    -0.204 F 
BRANCH  85  91
ATOM     91  N   UNL A   1      31.275  24.343  24.951  1.00  0.00    -0.279 N 
ATOM     92  H   UNL A   1      30.783  24.302  24.100  1.00  0.00     0.180 HD
BRANCH  91  93
ATOM     93  S   UNL A   1      31.454  22.923  25.893  1.00  0.00     0.261 S 
ATOM     94  O   UNL A   1      32.525  23.172  26.844  1.00  0.00    -0.201 OA
ATOM     95  O   UNL A   1      30.137  22.558  26.349  1.00  0.00    -0.201 OA
BRANCH  93  96
ATOM     96  C   UNL A   1      32.001  21.658  24.777  1.00  0.00     0.088 A 
ATOM     97  C   UNL A   1      31.913  21.894  23.391  1.00  0.00     0.022 A 
ATOM     98  C   UNL A   1      32.383  20.409  25.288  1.00  0.00     0.026 A 
ATOM     99  C   UNL A   1      32.106  20.847  22.491  1.00  0.00     0.005 A 
ATOM    100  C   UNL A   1      32.561  19.379  24.379  1.00  0.00    -0.043 A 
ATOM    101  C   UNL A   1      32.401  19.593  23.002  1.00  0.00    -0.045 A 
ATOM    102  C   UNL A   1      32.781  17.926  24.664  1.00  0.00     0.036 C 
ATOM    103  C   UNL A   1      32.475  18.301  22.248  1.00  0.00     0.036 C 
ATOM    104  C   UNL A   1      33.164  17.395  23.274  1.00  0.00     0.010 C 
ENDBRANCH  93  96
ENDBRANCH  91  93
ENDBRANCH  85  91
ENDBRANCH  80  83
ENDBRANCH  78  79
ENDBRANCH  77  78
ENDBRANCH  76  77
ENDBRANCH   1  76
TORSDOF 19
ENDMDL
MODEL 3
REMARK VINA RESULT:     -12.5      6.298     11.974
REMARK SMILES O=C(NCCCCCCNC(=O)c1cc(F)c(F)cc1NS(=O)(=O)c1ccc2c(c1)CCC2)c1ccc(-c2c3nc(c(-c4c(F)cc(S(=O)(=O)[O-])cc4F)c4ccc([nH]4)c(-c4c(F)cc(S(=O)(=O)[O-])cc4F)c4nc(c(-c5c(F)cc(S(=O)(=O)[O-])cc5F)c5ccc2[nH]5)C=C4)C=C3)cc1
REMARK SMILES IDX 6 1 5 2 4 3 3 4 1 5 2 6 34 8 35 9 99 10 36 11 98 12 37 13
REMARK SMILES IDX 38 14 39 15 92 16 40 17 97 18 91 19 93 20 41 21 96 22 90 23
REMARK SMILES IDX 89 24 42 26 76 27 55 28 75 29 56 30 59 31 74 32 94 33 57 34
REMARK SMILES IDX 58 35 73 37 95 38 60 39 43 40 44 41 53 42 45 43 46 44 52 45
REMARK SMILES IDX 54 46 47 47 48 48 49 49 50 50 51 51 77 52 78 53 87 54 79 55
REMARK SMILES IDX 80 56 86 57 88 58 81 59 82 60 83 61 84 62 85 63 61 64 62 65
REMARK SMILES IDX 71 66 63 67 64 68 70 69 72 70 65 71 66 72 67 73 68 74 69 75
REMARK SMILES IDX 7 76 8 77 9 78 10 79 11 80 12 82 13 83 14 84 20 85 15 86
REMARK SMILES IDX 19 87 16 88 17 89 18 90 21 91 22 93 23 94 24 95 25 96 26 97
REMARK SMILES IDX 30 98 27 99 29 100 28 101 31 102 33 103 32 104
REMARK H PARENT 3 7 93 25 59 36 10 81 21 92
REMARK Flexibility Score: inf
ROOT
ATOM      1  C   UNL A   1      34.450  32.867  28.242  1.00  0.00     0.002 C 
ENDROOT
BRANCH   1   2
ATOM      2  C   UNL A   1      35.968  32.907  28.063  1.00  0.00     0.021 C 
BRANCH   2   3
ATOM      3  C   UNL A   1      36.770  32.908  29.358  1.00  0.00     0.116 C 
BRANCH   3   4
ATOM      4  N   UNL A   1      36.211  32.029  30.372  1.00  0.00    -0.352 N 
ATOM      5  O   UNL A   1      35.969  30.129  31.564  1.00  0.00    -0.269 OA
ATOM      6  C   UNL A   1      36.651  30.794  30.792  1.00  0.00     0.251 C 
ATOM      7  H   UNL A   1      35.403  32.364  30.823  1.00  0.00     0.163 HD
BRANCH   6   8
ATOM      8  C   UNL A   1      37.934  30.260  30.280  1.00  0.00     0.039 A 
ATOM      9  C   UNL A   1      38.983  29.973  31.154  1.00  0.00     0.014 A 
ATOM     10  C   UNL A   1      38.097  30.067  28.905  1.00  0.00     0.014 A 
ATOM     11  C   UNL A   1      40.240  29.667  30.645  1.00  0.00     0.010 A 
ATOM     12  C   UNL A   1      39.337  29.661  28.402  1.00  0.00     0.010 A 
ATOM     13  C   UNL A   1      40.433  29.501  29.263  1.00  0.00    -0.014 A 
BRANCH  13  14
ATOM     14  C   UNL A   1      41.782  29.127  28.762  1.00  0.00     0.031 A 
ATOM     15  C   UNL A   1      42.921  30.113  28.767  1.00  0.00     0.074 A 
ATOM     16  C   UNL A   1      41.988  27.863  28.339  1.00  0.00     0.049 A 
ATOM     17  N   UNL A   1      44.170  29.931  28.418  1.00  0.00    -0.248 NA
ATOM     18  C   UNL A   1      42.622  31.483  29.214  1.00  0.00     0.031 C 
ATOM     19  C   UNL A   1      40.959  26.821  28.272  1.00  0.00     0.029 A 
ATOM     20  N   UNL A   1      43.127  27.230  27.912  1.00  0.00    -0.354 N 
ATOM     21  C   UNL A   1      44.797  31.162  28.575  1.00  0.00     0.074 A 
ATOM     22  C   UNL A   1      43.786  32.091  29.031  1.00  0.00     0.031 C 
ATOM     23  C   UNL A   1      41.524  25.667  27.890  1.00  0.00     0.029 A 
ATOM     24  C   UNL A   1      42.939  25.899  27.624  1.00  0.00     0.049 A 
ATOM     25  H   UNL A   1      43.995  27.685  27.821  1.00  0.00     0.167 HD
ATOM     26  C   UNL A   1      46.098  31.484  28.364  1.00  0.00     0.037 A 
ATOM     27  C   UNL A   1      43.805  24.967  27.184  1.00  0.00     0.037 A 
ATOM     28  C   UNL A   1      47.104  30.546  27.932  1.00  0.00     0.049 A 
ATOM     29  C   UNL A   1      45.238  25.352  26.955  1.00  0.00     0.074 A 
ATOM     30  C   UNL A   1      48.457  30.764  27.737  1.00  0.00     0.029 A 
ATOM     31  N   UNL A   1      46.869  29.214  27.621  1.00  0.00    -0.354 N 
ATOM     32  N   UNL A   1      45.820  26.511  27.149  1.00  0.00    -0.248 NA
ATOM     33  C   UNL A   1      46.131  24.304  26.447  1.00  0.00     0.031 C 
ATOM     34  C   UNL A   1      49.030  29.578  27.263  1.00  0.00     0.029 A 
ATOM     35  C   UNL A   1      48.045  28.605  27.213  1.00  0.00     0.049 A 
ATOM     36  H   UNL A   1      45.993  28.767  27.681  1.00  0.00     0.167 HD
ATOM     37  C   UNL A   1      47.154  26.325  26.808  1.00  0.00     0.074 A 
ATOM     38  C   UNL A   1      47.294  24.939  26.412  1.00  0.00     0.031 C 
ATOM     39  C   UNL A   1      48.171  27.223  26.825  1.00  0.00     0.037 A 
BRANCH  26  40
ATOM     40  C   UNL A   1      46.510  32.918  28.575  1.00  0.00     0.058 A 
ATOM     41  C   UNL A   1      46.460  33.868  27.542  1.00  0.00     0.135 A 
ATOM     42  C   UNL A   1      46.924  33.357  29.843  1.00  0.00     0.135 A 
ATOM     43  F   UNL A   1      46.083  33.502  26.306  1.00  0.00    -0.206 F 
ATOM     44  C   UNL A   1      46.832  35.192  27.750  1.00  0.00     0.059 A 
ATOM     45  C   UNL A   1      47.276  34.683  30.082  1.00  0.00     0.059 A 
ATOM     46  F   UNL A   1      46.988  32.495  30.869  1.00  0.00    -0.206 F 
ATOM     47  C   UNL A   1      47.242  35.590  29.024  1.00  0.00     0.060 A 
BRANCH  47  48
ATOM     48  S   UNL A   1      47.730  37.311  29.278  1.00  0.00     0.124 S 
ATOM     49  O   UNL A   1      48.760  37.172  30.304  1.00  0.00    -0.237 OA
ATOM     50  O   UNL A   1      48.205  37.699  27.954  1.00  0.00    -0.237 OA
ATOM     51  O   UNL A   1      46.495  37.955  29.712  1.00  0.00    -0.744 OA
ENDBRANCH  47  48
ENDBRANCH  26  40
BRANCH  27  52
ATOM     52  C   UNL A   1      43.335  23.576  26.947  1.00  0.00     0.058 A 
ATOM     53  C   UNL A   1      43.149  23.089  25.646  1.00  0.00     0.135 A 
ATOM     54  C   UNL A   1      43.090  22.700  28.016  1.00  0.00     0.135 A 
ATOM     55  F   UNL A   1      43.368  23.890  24.592  1.00  0.00    -0.206 F 
ATOM     56  C   UNL A   1      42.723  21.787  25.410  1.00  0.00     0.059 A 
ATOM     57  C   UNL A   1      42.691  21.384  27.805  1.00  0.00     0.059 A 
ATOM     58  F   UNL A   1      43.271  23.113  29.280  1.00  0.00    -0.206 F 
ATOM     59  C   UNL A   1      42.500  20.941  26.498  1.00  0.00     0.060 A 
BRANCH  59  60
ATOM     60  S   UNL A   1      41.999  19.235  26.181  1.00  0.00     0.124 S 
ATOM     61  O   UNL A   1      42.312  18.597  27.454  1.00  0.00    -0.237 OA
ATOM     62  O   UNL A   1      40.580  19.385  25.872  1.00  0.00    -0.237 OA
ATOM     63  O   UNL A   1      42.840  18.843  25.054  1.00  0.00    -0.744 OA
ENDBRANCH  59  60
ENDBRANCH  27  52
BRANCH  39  64
ATOM     64  C   UNL A   1      49.535  26.719  26.437  1.00  0.00     0.058 A 
ATOM     65  C   UNL A   1      50.370  26.061  27.353  1.00  0.00     0.135 A 
ATOM     66  C   UNL A   1      50.001  26.881  25.122  1.00  0.00     0.135 A 
ATOM     67  F   UNL A   1      49.974  25.887  28.625  1.00  0.00    -0.206 F 
ATOM     68  C   UNL A   1      51.635  25.611  26.989  1.00  0.00     0.059 A 
ATOM     69  C   UNL A   1      51.251  26.413  24.729  1.00  0.00     0.059 A 
ATOM     70  F   UNL A   1      49.238  27.494  24.205  1.00  0.00    -0.206 F 
ATOM     71  C   UNL A   1      52.068  25.794  25.674  1.00  0.00     0.060 A 
BRANCH  71  72
ATOM     72  S   UNL A   1      53.706  25.196  25.209  1.00  0.00     0.124 S 
ATOM     73  O   UNL A   1      54.550  25.847  26.206  1.00  0.00    -0.237 OA
ATOM     74  O   UNL A   1      53.563  23.750  25.345  1.00  0.00    -0.237 OA
ATOM     75  O   UNL A   1      53.866  25.678  23.840  1.00  0.00    -0.744 OA
ENDBRANCH  71  72
ENDBRANCH  39  64
ENDBRANCH  13  14
ENDBRANCH   6   8
ENDBRANCH   3   4
ENDBRANCH   2   3
ENDBRANCH   1   2
BRANCH   1  76
ATOM     76  C   UNL A   1      33.764  31.591  27.746  1.00  0.00     0.002 C 
BRANCH  76  77
ATOM     77  C   UNL A   1      34.664  30.357  27.631  1.00  0.00     0.021 C 
BRANCH  77  78
ATOM     78  C   UNL A   1      34.099  29.229  26.771  1.00  0.00     0.116 C 
BRANCH  78  79
ATOM     79  N   UNL A   1      33.085  28.468  27.489  1.00  0.00    -0.352 N 
ATOM     80  C   UNL A   1      31.973  27.845  26.985  1.00  0.00     0.253 C 
ATOM     81  H   UNL A   1      33.215  28.393  28.462  1.00  0.00     0.163 HD
ATOM     82  O   UNL A   1      31.049  27.509  27.716  1.00  0.00    -0.269 OA
BRANCH  80  83
ATOM     83  C   UNL A   1      31.870  27.624  25.533  1.00  0.00     0.067 A 
ATOM     84  C   UNL A   1      31.382  28.681  24.744  1.00  0.00     0.058 A 
ATOM     85  C   UNL A   1      32.193  26.373  24.971  1.00  0.00     0.065 A 
ATOM     86  C   UNL A   1      31.131  28.466  23.399  1.00  0.00     0.159 A 
ATOM     87  C   UNL A   1      31.860  26.179  23.627  1.00  0.00     0.070 A 
ATOM     88  F   UNL A   1      30.619  29.454  22.655  1.00  0.00    -0.204 F 
ATOM     89  C   UNL A   1      31.354  27.217  22.848  1.00  0.00     0.160 A 
ATOM     90  F   UNL A   1      31.050  26.979  21.565  1.00  0.00    -0.204 F 
BRANCH  85  91
ATOM     91  N   UNL A   1      32.630  25.258  25.793  1.00  0.00    -0.279 N 
ATOM     92  H   UNL A   1      33.556  25.236  26.128  1.00  0.00     0.180 HD
BRANCH  91  93
ATOM     93  S   UNL A   1      31.557  23.983  26.190  1.00  0.00     0.261 S 
ATOM     94  O   UNL A   1      31.793  23.643  27.583  1.00  0.00    -0.201 OA
ATOM     95  O   UNL A   1      30.247  24.388  25.744  1.00  0.00    -0.201 OA
BRANCH  93  96
ATOM     96  C   UNL A   1      32.051  22.598  25.200  1.00  0.00     0.088 A 
ATOM     97  C   UNL A   1      31.901  22.677  23.801  1.00  0.00     0.022 A 
ATOM     98  C   UNL A   1      32.455  21.412  25.830  1.00  0.00     0.026 A 
ATOM     99  C   UNL A   1      32.052  21.535  23.017  1.00  0.00     0.005 A 
ATOM    100  C   UNL A   1      32.591  20.286  25.035  1.00  0.00    -0.043 A 
ATOM    101  C   UNL A   1      32.369  20.345  23.652  1.00  0.00    -0.045 A 
ATOM    102  C   UNL A   1      32.824  18.872  25.472  1.00  0.00     0.036 C 
ATOM    103  C   UNL A   1      32.409  18.976  23.045  1.00  0.00     0.036 C 
ATOM    104  C   UNL A   1      33.143  18.186  24.134  1.00  0.00     0.010 C 
ENDBRANCH  93  96
ENDBRANCH  91  93
ENDBRANCH  85  91
ENDBRANCH  80  83
ENDBRANCH  78  79
ENDBRANCH  77  78
ENDBRANCH  76  77
ENDBRANCH   1  76
TORSDOF 19
ENDMDL
