MODEL 1
REMARK VINA RESULT:     -13.4      0.000      0.000
REMARK SMILES O=C(NCCCCCCNC(=O)c1ccc([C@@H]2CC(O)=Nc3c2ncn3-c2cccc(Cl)c2)cc1)c1ccc(-c2c3nc(c(-c4c(F)cc(S(=O)(=O)[O-])cc4F)c4ccc([nH]4)c(-c4c(F)cc(S(=O)(=O)[O-])cc4F)c4nc(c(-c5c(F)cc(S(=O)(=O)[O-])cc5F)c5ccc2[nH]5)C=C4)C=C3)cc1
REMARK SMILES IDX 6 1 5 2 4 3 3 4 1 5 2 6 36 8 37 9 101 10 38 11 100 12 39 13
REMARK SMILES IDX 40 14 41 15 94 16 42 17 99 18 93 19 95 20 43 21 98 22 92 23
REMARK SMILES IDX 91 24 44 26 78 27 57 28 77 29 58 30 61 31 76 32 96 33 59 34
REMARK SMILES IDX 60 35 75 37 97 38 62 39 45 40 46 41 55 42 47 43 48 44 54 45
REMARK SMILES IDX 56 46 49 47 50 48 51 49 52 50 53 51 79 52 80 53 89 54 81 55
REMARK SMILES IDX 82 56 88 57 90 58 83 59 84 60 85 61 86 62 87 63 63 64 64 65
REMARK SMILES IDX 73 66 65 67 66 68 72 69 74 70 67 71 68 72 69 73 70 74 71 75
REMARK SMILES IDX 7 76 8 77 9 78 10 79 11 80 12 82 13 83 14 84 35 85 15 86
REMARK SMILES IDX 34 87 16 88 17 89 18 90 23 91 19 92 22 93 24 94 21 95 26 96
REMARK SMILES IDX 25 97 20 98 27 100 28 101 33 102 29 103 31 104 30 105 32 106
REMARK H PARENT 3 7 95 25 61 36 10 81 20 99
REMARK Flexibility Score: inf
ROOT
ATOM      1  C   UNL A   1      35.445  24.005  25.543  1.00  0.00     0.002 C 
ENDROOT
BRANCH   1   2
ATOM      2  C   UNL A   1      36.045  22.981  24.569  1.00  0.00     0.021 C 
BRANCH   2   3
ATOM      3  C   UNL A   1      37.560  23.069  24.390  1.00  0.00     0.116 C 
BRANCH   3   4
ATOM      4  N   UNL A   1      38.302  22.208  25.287  1.00  0.00    -0.352 N 
ATOM      5  O   UNL A   1      39.486  21.361  26.937  1.00  0.00    -0.269 OA
ATOM      6  C   UNL A   1      39.072  22.395  26.402  1.00  0.00     0.251 C 
ATOM      7  H   UNL A   1      38.238  21.259  25.032  1.00  0.00     0.163 HD
BRANCH   6   8
ATOM      8  C   UNL A   1      39.457  23.710  26.991  1.00  0.00     0.039 A 
ATOM      9  C   UNL A   1      38.676  24.866  27.007  1.00  0.00     0.014 A 
ATOM     10  C   UNL A   1      40.737  23.768  27.582  1.00  0.00     0.014 A 
ATOM     11  C   UNL A   1      39.167  26.048  27.570  1.00  0.00     0.010 A 
ATOM     12  C   UNL A   1      41.228  24.943  28.151  1.00  0.00     0.010 A 
ATOM     13  C   UNL A   1      40.447  26.095  28.131  1.00  0.00    -0.014 A 
BRANCH  13  14
ATOM     14  C   UNL A   1      40.876  27.341  28.772  1.00  0.00     0.031 A 
ATOM     15  C   UNL A   1      42.100  27.988  28.204  1.00  0.00     0.074 A 
ATOM     16  C   UNL A   1      40.172  28.003  29.713  1.00  0.00     0.049 A 
ATOM     17  N   UNL A   1      43.226  28.251  28.788  1.00  0.00    -0.248 NA
ATOM     18  C   UNL A   1      42.071  28.347  26.777  1.00  0.00     0.031 C 
ATOM     19  C   UNL A   1      38.805  27.748  30.171  1.00  0.00     0.029 A 
ATOM     20  N   UNL A   1      40.525  29.130  30.399  1.00  0.00    -0.354 N 
ATOM     21  C   UNL A   1      43.992  28.961  27.860  1.00  0.00     0.074 A 
ATOM     22  C   UNL A   1      43.273  28.899  26.612  1.00  0.00     0.031 C 
ATOM     23  C   UNL A   1      38.376  28.805  30.899  1.00  0.00     0.029 A 
ATOM     24  C   UNL A   1      39.477  29.737  31.077  1.00  0.00     0.049 A 
ATOM     25  H   UNL A   1      41.444  29.482  30.412  1.00  0.00     0.167 HD
ATOM     26  C   UNL A   1      45.092  29.687  28.206  1.00  0.00     0.037 A 
ATOM     27  C   UNL A   1      39.500  30.945  31.691  1.00  0.00     0.037 A 
ATOM     28  C   UNL A   1      45.593  29.324  29.504  1.00  0.00     0.049 A 
ATOM     29  C   UNL A   1      40.917  31.292  31.963  1.00  0.00     0.074 A 
ATOM     30  C   UNL A   1      46.083  28.161  30.067  1.00  0.00     0.029 A 
ATOM     31  N   UNL A   1      45.354  30.168  30.558  1.00  0.00    -0.354 N 
ATOM     32  N   UNL A   1      41.682  30.670  32.817  1.00  0.00    -0.248 NA
ATOM     33  C   UNL A   1      41.612  32.131  30.999  1.00  0.00     0.031 C 
ATOM     34  C   UNL A   1      45.639  28.190  31.421  1.00  0.00     0.029 A 
ATOM     35  C   UNL A   1      44.936  29.382  31.601  1.00  0.00     0.049 A 
ATOM     36  H   UNL A   1      45.462  31.146  30.565  1.00  0.00     0.167 HD
ATOM     37  C   UNL A   1      42.949  30.711  32.256  1.00  0.00     0.074 A 
ATOM     38  C   UNL A   1      42.863  31.714  31.199  1.00  0.00     0.031 C 
ATOM     39  C   UNL A   1      43.878  29.746  32.519  1.00  0.00     0.037 A 
BRANCH  26  40
ATOM     40  C   UNL A   1      45.568  30.922  27.480  1.00  0.00     0.058 A 
ATOM     41  C   UNL A   1      46.895  31.003  27.010  1.00  0.00     0.135 A 
ATOM     42  C   UNL A   1      44.841  32.132  27.463  1.00  0.00     0.135 A 
ATOM     43  F   UNL A   1      47.686  29.918  27.000  1.00  0.00    -0.206 F 
ATOM     44  C   UNL A   1      47.473  32.208  26.601  1.00  0.00     0.059 A 
ATOM     45  C   UNL A   1      45.379  33.333  27.011  1.00  0.00     0.059 A 
ATOM     46  F   UNL A   1      43.605  32.218  27.972  1.00  0.00    -0.206 F 
ATOM     47  C   UNL A   1      46.709  33.371  26.622  1.00  0.00     0.060 A 
BRANCH  47  48
ATOM     48  S   UNL A   1      47.482  34.946  26.204  1.00  0.00     0.124 S 
ATOM     49  O   UNL A   1      46.320  35.761  25.874  1.00  0.00    -0.237 OA
ATOM     50  O   UNL A   1      48.171  35.288  27.444  1.00  0.00    -0.237 OA
ATOM     51  O   UNL A   1      48.354  34.604  25.085  1.00  0.00    -0.744 OA
ENDBRANCH  47  48
ENDBRANCH  26  40
BRANCH  27  52
ATOM     52  C   UNL A   1      38.407  31.949  31.779  1.00  0.00     0.058 A 
ATOM     53  C   UNL A   1      37.852  32.526  30.623  1.00  0.00     0.135 A 
ATOM     54  C   UNL A   1      37.694  32.144  32.979  1.00  0.00     0.135 A 
ATOM     55  F   UNL A   1      38.451  32.367  29.434  1.00  0.00    -0.206 F 
ATOM     56  C   UNL A   1      36.637  33.219  30.648  1.00  0.00     0.059 A 
ATOM     57  C   UNL A   1      36.488  32.840  33.029  1.00  0.00     0.059 A 
ATOM     58  F   UNL A   1      38.103  31.580  34.125  1.00  0.00    -0.206 F 
ATOM     59  C   UNL A   1      35.951  33.353  31.855  1.00  0.00     0.060 A 
BRANCH  59  60
ATOM     60  S   UNL A   1      34.299  34.087  31.862  1.00  0.00     0.124 S 
ATOM     61  O   UNL A   1      33.614  33.277  32.863  1.00  0.00    -0.237 OA
ATOM     62  O   UNL A   1      34.576  35.468  32.240  1.00  0.00    -0.237 OA
ATOM     63  O   UNL A   1      33.840  33.901  30.487  1.00  0.00    -0.744 OA
ENDBRANCH  59  60
ENDBRANCH  27  52
BRANCH  39  64
ATOM     64  C   UNL A   1      43.640  28.812  33.677  1.00  0.00     0.058 A 
ATOM     65  C   UNL A   1      44.062  29.066  34.994  1.00  0.00     0.135 A 
ATOM     66  C   UNL A   1      42.800  27.705  33.477  1.00  0.00     0.135 A 
ATOM     67  F   UNL A   1      44.779  30.159  35.290  1.00  0.00    -0.206 F 
ATOM     68  C   UNL A   1      43.690  28.241  36.058  1.00  0.00     0.059 A 
ATOM     69  C   UNL A   1      42.391  26.886  34.527  1.00  0.00     0.059 A 
ATOM     70  F   UNL A   1      42.314  27.443  32.252  1.00  0.00    -0.206 F 
ATOM     71  C   UNL A   1      42.847  27.157  35.815  1.00  0.00     0.060 A 
BRANCH  71  72
ATOM     72  S   UNL A   1      42.266  26.167  37.212  1.00  0.00     0.124 S 
ATOM     73  O   UNL A   1      40.918  26.688  37.417  1.00  0.00    -0.237 OA
ATOM     74  O   UNL A   1      42.346  24.805  36.692  1.00  0.00    -0.237 OA
ATOM     75  O   UNL A   1      43.224  26.476  38.270  1.00  0.00    -0.744 OA
ENDBRANCH  71  72
ENDBRANCH  39  64
ENDBRANCH  13  14
ENDBRANCH   6   8
ENDBRANCH   3   4
ENDBRANCH   2   3
ENDBRANCH   1   2
BRANCH   1  76
ATOM     76  C   UNL A   1      34.571  23.437  26.667  1.00  0.00     0.002 C 
BRANCH  76  77
ATOM     77  C   UNL A   1      34.806  21.964  27.015  1.00  0.00     0.021 C 
BRANCH  77  78
ATOM     78  C   UNL A   1      33.553  21.174  27.390  1.00  0.00     0.116 C 
BRANCH  78  79
ATOM     79  N   UNL A   1      33.231  20.151  26.406  1.00  0.00    -0.352 N 
ATOM     80  C   UNL A   1      32.538  20.276  25.230  1.00  0.00     0.251 C 
ATOM     81  H   UNL A   1      33.555  19.244  26.613  1.00  0.00     0.163 HD
ATOM     82  O   UNL A   1      32.207  19.274  24.589  1.00  0.00    -0.269 OA
BRANCH  80  83
ATOM     83  C   UNL A   1      32.153  21.611  24.735  1.00  0.00     0.039 A 
ATOM     84  C   UNL A   1      31.218  22.351  25.460  1.00  0.00     0.014 A 
ATOM     85  C   UNL A   1      32.705  22.132  23.561  1.00  0.00     0.014 A 
ATOM     86  C   UNL A   1      30.891  23.644  25.051  1.00  0.00     0.005 A 
ATOM     87  C   UNL A   1      32.384  23.429  23.157  1.00  0.00     0.005 A 
ATOM     88  C   UNL A   1      31.485  24.209  23.907  1.00  0.00    -0.038 A 
BRANCH  88  89
ATOM     89  C   UNL A   1      31.135  25.637  23.518  1.00  0.00     0.081 C 
ATOM     90  C   UNL A   1      31.955  26.143  22.312  1.00  0.00     0.111 C 
ATOM     91  C   UNL A   1      31.368  26.467  24.727  1.00  0.00     0.093 A 
ATOM     92  C   UNL A   1      32.948  27.252  22.622  1.00  0.00     0.188 C 
ATOM     93  C   UNL A   1      32.251  27.523  24.716  1.00  0.00     0.164 A 
ATOM     94  N   UNL A   1      30.827  26.272  25.970  1.00  0.00    -0.238 NA
ATOM     95  N   UNL A   1      33.058  27.939  23.712  1.00  0.00    -0.198 NA
ATOM     96  N   UNL A   1      32.293  27.976  26.022  1.00  0.00    -0.283 N 
ATOM     97  C   UNL A   1      31.440  27.154  26.733  1.00  0.00     0.206 A 
BRANCH  92  98
ATOM     98  O   UNL A   1      33.767  27.554  21.595  1.00  0.00    -0.496 OA
ATOM     99  H   UNL A   1      33.412  27.887  20.794  1.00  0.00     0.294 HD
ENDBRANCH  92  98
BRANCH  96 100
ATOM    100  C   UNL A   1      33.074  29.035  26.538  1.00  0.00     0.050 A 
ATOM    101  C   UNL A   1      32.501  30.298  26.730  1.00  0.00     0.027 A 
ATOM    102  C   UNL A   1      34.412  28.804  26.883  1.00  0.00     0.047 A 
ATOM    103  C   UNL A   1      33.261  31.316  27.311  1.00  0.00     0.004 A 
ATOM    104  C   UNL A   1      35.172  29.843  27.413  1.00  0.00     0.043 A 
ATOM    105  C   UNL A   1      34.598  31.091  27.645  1.00  0.00     0.020 A 
ATOM    106  Cl  UNL A   1      36.837  29.587  27.769  1.00  0.00    -0.084 Cl
ENDBRANCH  96 100
ENDBRANCH  88  89
ENDBRANCH  80  83
ENDBRANCH  78  79
ENDBRANCH  77  78
ENDBRANCH  76  77
ENDBRANCH   1  76
TORSDOF 19
ENDMDL
MODEL 2
REMARK VINA RESULT:     -13.2      1.084      1.592
REMARK SMILES O=C(NCCCCCCNC(=O)c1ccc([C@@H]2CC(O)=Nc3c2ncn3-c2cccc(Cl)c2)cc1)c1ccc(-c2c3nc(c(-c4c(F)cc(S(=O)(=O)[O-])cc4F)c4ccc([nH]4)c(-c4c(F)cc(S(=O)(=O)[O-])cc4F)c4nc(c(-c5c(F)cc(S(=O)(=O)[O-])cc5F)c5ccc2[nH]5)C=C4)C=C3)cc1
REMARK SMILES IDX 6 1 5 2 4 3 3 4 1 5 2 6 36 8 37 9 101 10 38 11 100 12 39 13
REMARK SMILES IDX 40 14 41 15 94 16 42 17 99 18 93 19 95 20 43 21 98 22 92 23
REMARK SMILES IDX 91 24 44 26 78 27 57 28 77 29 58 30 61 31 76 32 96 33 59 34
REMARK SMILES IDX 60 35 75 37 97 38 62 39 45 40 46 41 55 42 47 43 48 44 54 45
REMARK SMILES IDX 56 46 49 47 50 48 51 49 52 50 53 51 79 52 80 53 89 54 81 55
REMARK SMILES IDX 82 56 88 57 90 58 83 59 84 60 85 61 86 62 87 63 63 64 64 65
REMARK SMILES IDX 73 66 65 67 66 68 72 69 74 70 67 71 68 72 69 73 70 74 71 75
REMARK SMILES IDX 7 76 8 77 9 78 10 79 11 80 12 82 13 83 14 84 35 85 15 86
REMARK SMILES IDX 34 87 16 88 17 89 18 90 23 91 19 92 22 93 24 94 21 95 26 96
REMARK SMILES IDX 25 97 20 98 27 100 28 101 33 102 29 103 31 104 30 105 32 106
REMARK H PARENT 3 7 95 25 61 36 10 81 20 99
REMARK Flexibility Score: inf
ROOT
ATOM      1  C   UNL A   1      35.699  22.825  24.272  1.00  0.00     0.002 C 
ENDROOT
BRANCH   1   2
ATOM      2  C   UNL A   1      37.117  22.239  24.327  1.00  0.00     0.021 C 
BRANCH   2   3
ATOM      3  C   UNL A   1      37.770  22.253  25.708  1.00  0.00     0.116 C 
BRANCH   3   4
ATOM      4  N   UNL A   1      39.170  21.886  25.693  1.00  0.00    -0.352 N 
ATOM      5  O   UNL A   1      41.345  21.758  26.005  1.00  0.00    -0.269 OA
ATOM      6  C   UNL A   1      40.328  22.442  26.164  1.00  0.00     0.251 C 
ATOM      7  H   UNL A   1      39.328  21.030  25.232  1.00  0.00     0.163 HD
BRANCH   6   8
ATOM      8  C   UNL A   1      40.458  23.779  26.813  1.00  0.00     0.039 A 
ATOM      9  C   UNL A   1      39.653  24.893  26.571  1.00  0.00     0.014 A 
ATOM     10  C   UNL A   1      41.498  23.906  27.757  1.00  0.00     0.014 A 
ATOM     11  C   UNL A   1      39.897  26.101  27.230  1.00  0.00     0.010 A 
ATOM     12  C   UNL A   1      41.740  25.108  28.421  1.00  0.00     0.010 A 
ATOM     13  C   UNL A   1      40.948  26.218  28.146  1.00  0.00    -0.014 A 
BRANCH  13  14
ATOM     14  C   UNL A   1      41.106  27.488  28.859  1.00  0.00     0.031 A 
ATOM     15  C   UNL A   1      42.220  28.373  28.393  1.00  0.00     0.074 A 
ATOM     16  C   UNL A   1      40.243  27.965  29.779  1.00  0.00     0.049 A 
ATOM     17  N   UNL A   1      43.246  28.805  29.055  1.00  0.00    -0.248 NA
ATOM     18  C   UNL A   1      42.203  28.789  26.982  1.00  0.00     0.031 C 
ATOM     19  C   UNL A   1      38.923  27.446  30.141  1.00  0.00     0.029 A 
ATOM     20  N   UNL A   1      40.346  29.103  30.528  1.00  0.00    -0.354 N 
ATOM     21  C   UNL A   1      43.918  29.686  28.205  1.00  0.00     0.074 A 
ATOM     22  C   UNL A   1      43.291  29.556  26.913  1.00  0.00     0.031 C 
ATOM     23  C   UNL A   1      38.269  28.371  30.881  1.00  0.00     0.029 A 
ATOM     24  C   UNL A   1      39.170  29.477  31.163  1.00  0.00     0.049 A 
ATOM     25  H   UNL A   1      41.184  29.613  30.612  1.00  0.00     0.167 HD
ATOM     26  C   UNL A   1      44.846  30.580  28.646  1.00  0.00     0.037 A 
ATOM     27  C   UNL A   1      38.938  30.638  31.823  1.00  0.00     0.037 A 
ATOM     28  C   UNL A   1      45.335  30.251  29.957  1.00  0.00     0.049 A 
ATOM     29  C   UNL A   1      40.251  31.222  32.195  1.00  0.00     0.074 A 
ATOM     30  C   UNL A   1      45.997  29.169  30.505  1.00  0.00     0.029 A 
ATOM     31  N   UNL A   1      44.889  30.986  31.026  1.00  0.00    -0.354 N 
ATOM     32  N   UNL A   1      41.070  30.706  33.070  1.00  0.00    -0.248 NA
ATOM     33  C   UNL A   1      40.832  32.218  31.309  1.00  0.00     0.031 C 
ATOM     34  C   UNL A   1      45.483  29.052  31.829  1.00  0.00     0.029 A 
ATOM     35  C   UNL A   1      44.566  30.087  32.010  1.00  0.00     0.049 A 
ATOM     36  H   UNL A   1      44.815  31.966  31.076  1.00  0.00     0.167 HD
ATOM     37  C   UNL A   1      42.336  31.003  32.591  1.00  0.00     0.074 A 
ATOM     38  C   UNL A   1      42.126  32.024  31.570  1.00  0.00     0.031 C 
ATOM     39  C   UNL A   1      43.410  30.209  32.874  1.00  0.00     0.037 A 
BRANCH  26  40
ATOM     40  C   UNL A   1      45.127  31.915  27.998  1.00  0.00     0.058 A 
ATOM     41  C   UNL A   1      46.409  32.199  27.481  1.00  0.00     0.135 A 
ATOM     42  C   UNL A   1      44.254  33.020  28.104  1.00  0.00     0.135 A 
ATOM     43  F   UNL A   1      47.327  31.228  27.356  1.00  0.00    -0.206 F 
ATOM     44  C   UNL A   1      46.810  33.494  27.144  1.00  0.00     0.059 A 
ATOM     45  C   UNL A   1      44.615  34.309  27.725  1.00  0.00     0.059 A 
ATOM     46  F   UNL A   1      43.045  32.910  28.668  1.00  0.00    -0.206 F 
ATOM     47  C   UNL A   1      45.908  34.545  27.285  1.00  0.00     0.060 A 
BRANCH  47  48
ATOM     48  S   UNL A   1      46.456  36.232  26.959  1.00  0.00     0.124 S 
ATOM     49  O   UNL A   1      45.184  36.939  26.875  1.00  0.00    -0.237 OA
ATOM     50  O   UNL A   1      47.273  36.522  28.133  1.00  0.00    -0.237 OA
ATOM     51  O   UNL A   1      47.195  36.107  25.706  1.00  0.00    -0.744 OA
ENDBRANCH  47  48
ENDBRANCH  26  40
BRANCH  27  52
ATOM     52  C   UNL A   1      37.678  31.423  31.881  1.00  0.00     0.058 A 
ATOM     53  C   UNL A   1      36.979  31.593  33.090  1.00  0.00     0.135 A 
ATOM     54  C   UNL A   1      37.291  32.258  30.815  1.00  0.00     0.135 A 
ATOM     55  F   UNL A   1      37.300  30.858  34.165  1.00  0.00    -0.206 F 
ATOM     56  C   UNL A   1      35.986  32.566  33.245  1.00  0.00     0.059 A 
ATOM     57  C   UNL A   1      36.297  33.226  30.942  1.00  0.00     0.059 A 
ATOM     58  F   UNL A   1      37.937  32.222  29.640  1.00  0.00    -0.206 F 
ATOM     59  C   UNL A   1      35.665  33.392  32.168  1.00  0.00     0.060 A 
BRANCH  59  60
ATOM     60  S   UNL A   1      34.515  34.766  32.413  1.00  0.00     0.124 S 
ATOM     61  O   UNL A   1      33.408  34.111  33.100  1.00  0.00    -0.237 OA
ATOM     62  O   UNL A   1      35.306  35.691  33.218  1.00  0.00    -0.237 OA
ATOM     63  O   UNL A   1      34.229  35.216  31.053  1.00  0.00    -0.744 OA
ENDBRANCH  59  60
ENDBRANCH  27  52
BRANCH  39  64
ATOM     64  C   UNL A   1      43.285  29.193  33.979  1.00  0.00     0.058 A 
ATOM     65  C   UNL A   1      43.550  29.463  35.333  1.00  0.00     0.135 A 
ATOM     66  C   UNL A   1      42.706  27.950  33.676  1.00  0.00     0.135 A 
ATOM     67  F   UNL A   1      44.006  30.663  35.721  1.00  0.00    -0.206 F 
ATOM     68  C   UNL A   1      43.278  28.530  36.336  1.00  0.00     0.059 A 
ATOM     69  C   UNL A   1      42.398  27.017  34.663  1.00  0.00     0.059 A 
ATOM     70  F   UNL A   1      42.373  27.654  32.408  1.00  0.00    -0.206 F 
ATOM     71  C   UNL A   1      42.694  27.312  35.992  1.00  0.00     0.060 A 
BRANCH  71  72
ATOM     72  S   UNL A   1      42.228  26.160  37.305  1.00  0.00     0.124 S 
ATOM     73  O   UNL A   1      43.145  26.531  38.378  1.00  0.00    -0.237 OA
ATOM     74  O   UNL A   1      40.823  26.485  37.530  1.00  0.00    -0.237 OA
ATOM     75  O   UNL A   1      42.465  24.849  36.707  1.00  0.00    -0.744 OA
ENDBRANCH  71  72
ENDBRANCH  39  64
ENDBRANCH  13  14
ENDBRANCH   6   8
ENDBRANCH   3   4
ENDBRANCH   2   3
ENDBRANCH   1   2
BRANCH   1  76
ATOM     76  C   UNL A   1      34.835  22.622  25.521  1.00  0.00     0.002 C 
BRANCH  76  77
ATOM     77  C   UNL A   1      34.406  21.180  25.808  1.00  0.00     0.021 C 
BRANCH  77  78
ATOM     78  C   UNL A   1      32.967  20.838  25.424  1.00  0.00     0.116 C 
BRANCH  78  79
ATOM     79  N   UNL A   1      32.815  20.620  23.992  1.00  0.00    -0.352 N 
ATOM     80  C   UNL A   1      32.230  21.432  23.056  1.00  0.00     0.251 C 
ATOM     81  H   UNL A   1      33.183  19.774  23.649  1.00  0.00     0.163 HD
ATOM     82  O   UNL A   1      32.035  21.023  21.907  1.00  0.00    -0.269 OA
BRANCH  80  83
ATOM     83  C   UNL A   1      31.798  22.794  23.422  1.00  0.00     0.039 A 
ATOM     84  C   UNL A   1      32.397  23.881  22.784  1.00  0.00     0.014 A 
ATOM     85  C   UNL A   1      30.815  23.003  24.394  1.00  0.00     0.014 A 
ATOM     86  C   UNL A   1      31.957  25.176  23.062  1.00  0.00     0.005 A 
ATOM     87  C   UNL A   1      30.370  24.297  24.665  1.00  0.00     0.005 A 
ATOM     88  C   UNL A   1      30.923  25.401  23.990  1.00  0.00    -0.038 A 
BRANCH  88  89
ATOM     89  C   UNL A   1      30.442  26.822  24.235  1.00  0.00     0.081 C 
ATOM     90  C   UNL A   1      30.629  27.734  23.004  1.00  0.00     0.111 C 
ATOM     91  C   UNL A   1      31.202  27.322  25.409  1.00  0.00     0.093 A 
ATOM     92  C   UNL A   1      31.661  28.839  23.165  1.00  0.00     0.188 C 
ATOM     93  C   UNL A   1      31.990  28.448  25.330  1.00  0.00     0.164 A 
ATOM     94  N   UNL A   1      31.282  26.733  26.643  1.00  0.00    -0.238 NA
ATOM     95  N   UNL A   1      32.256  29.218  24.249  1.00  0.00    -0.198 NA
ATOM     96  N   UNL A   1      32.621  28.537  26.557  1.00  0.00    -0.283 N 
ATOM     97  C   UNL A   1      32.178  27.452  27.288  1.00  0.00     0.206 A 
BRANCH  92  98
ATOM     98  O   UNL A   1      31.927  29.509  22.027  1.00  0.00    -0.496 OA
ATOM     99  H   UNL A   1      31.559  30.359  21.886  1.00  0.00     0.294 HD
ENDBRANCH  92  98
BRANCH  96 100
ATOM    100  C   UNL A   1      33.557  29.512  26.972  1.00  0.00     0.050 A 
ATOM    101  C   UNL A   1      33.129  30.813  27.263  1.00  0.00     0.027 A 
ATOM    102  C   UNL A   1      34.905  29.160  27.116  1.00  0.00     0.047 A 
ATOM    103  C   UNL A   1      34.049  31.747  27.745  1.00  0.00     0.004 A 
ATOM    104  C   UNL A   1      35.821  30.116  27.548  1.00  0.00     0.043 A 
ATOM    105  C   UNL A   1      35.396  31.402  27.879  1.00  0.00     0.020 A 
ATOM    106  Cl  UNL A   1      37.490  29.712  27.656  1.00  0.00    -0.084 Cl
ENDBRANCH  96 100
ENDBRANCH  88  89
ENDBRANCH  80  83
ENDBRANCH  78  79
ENDBRANCH  77  78
ENDBRANCH  76  77
ENDBRANCH   1  76
TORSDOF 19
ENDMDL
MODEL 3
REMARK VINA RESULT:     -12.5      2.827      9.364
REMARK SMILES O=C(NCCCCCCNC(=O)c1ccc([C@@H]2CC(O)=Nc3c2ncn3-c2cccc(Cl)c2)cc1)c1ccc(-c2c3nc(c(-c4c(F)cc(S(=O)(=O)[O-])cc4F)c4ccc([nH]4)c(-c4c(F)cc(S(=O)(=O)[O-])cc4F)c4nc(c(-c5c(F)cc(S(=O)(=O)[O-])cc5F)c5ccc2[nH]5)C=C4)C=C3)cc1
REMARK SMILES IDX 6 1 5 2 4 3 3 4 1 5 2 6 36 8 37 9 101 10 38 11 100 12 39 13
REMARK SMILES IDX 40 14 41 15 94 16 42 17 99 18 93 19 95 20 43 21 98 22 92 23
REMARK SMILES IDX 91 24 44 26 78 27 57 28 77 29 58 30 61 31 76 32 96 33 59 34
REMARK SMILES IDX 60 35 75 37 97 38 62 39 45 40 46 41 55 42 47 43 48 44 54 45
REMARK SMILES IDX 56 46 49 47 50 48 51 49 52 50 53 51 79 52 80 53 89 54 81 55
REMARK SMILES IDX 82 56 88 57 90 58 83 59 84 60 85 61 86 62 87 63 63 64 64 65
REMARK SMILES IDX 73 66 65 67 66 68 72 69 74 70 67 71 68 72 69 73 70 74 71 75
REMARK SMILES IDX 7 76 8 77 9 78 10 79 11 80 12 82 13 83 14 84 35 85 15 86
REMARK SMILES IDX 34 87 16 88 17 89 18 90 23 91 19 92 22 93 24 94 21 95 26 96
REMARK SMILES IDX 25 97 20 98 27 100 28 101 33 102 29 103 31 104 30 105 32 106
REMARK H PARENT 3 7 95 25 61 36 10 81 20 99
REMARK Flexibility Score: inf
ROOT
ATOM      1  C   UNL A   1      36.338  33.088  28.428  1.00  0.00     0.002 C 
ENDROOT
BRANCH   1   2
ATOM      2  C   UNL A   1      35.537  33.891  29.461  1.00  0.00     0.021 C 
BRANCH   2   3
ATOM      3  C   UNL A   1      34.385  33.133  30.118  1.00  0.00     0.116 C 
BRANCH   3   4
ATOM      4  N   UNL A   1      34.467  33.088  31.563  1.00  0.00    -0.352 N 
ATOM      5  O   UNL A   1      35.081  32.796  33.656  1.00  0.00    -0.269 OA
ATOM      6  C   UNL A   1      35.330  32.541  32.473  1.00  0.00     0.251 C 
ATOM      7  H   UNL A   1      33.723  33.566  31.995  1.00  0.00     0.163 HD
BRANCH   6   8
ATOM      8  C   UNL A   1      36.498  31.667  32.158  1.00  0.00     0.039 A 
ATOM      9  C   UNL A   1      36.476  30.278  32.030  1.00  0.00     0.014 A 
ATOM     10  C   UNL A   1      37.729  32.330  31.976  1.00  0.00     0.014 A 
ATOM     11  C   UNL A   1      37.651  29.572  31.757  1.00  0.00     0.010 A 
ATOM     12  C   UNL A   1      38.903  31.630  31.697  1.00  0.00     0.010 A 
ATOM     13  C   UNL A   1      38.870  30.242  31.603  1.00  0.00    -0.014 A 
BRANCH  13  14
ATOM     14  C   UNL A   1      40.052  29.454  31.245  1.00  0.00     0.031 A 
ATOM     15  C   UNL A   1      41.056  29.237  32.333  1.00  0.00     0.074 A 
ATOM     16  C   UNL A   1      40.214  28.802  30.075  1.00  0.00     0.049 A 
ATOM     17  N   UNL A   1      42.302  29.588  32.371  1.00  0.00    -0.248 NA
ATOM     18  C   UNL A   1      40.584  28.580  33.562  1.00  0.00     0.031 C 
ATOM     19  C   UNL A   1      39.233  28.588  29.010  1.00  0.00     0.029 A 
ATOM     20  N   UNL A   1      41.303  28.100  29.640  1.00  0.00    -0.354 N 
ATOM     21  C   UNL A   1      42.824  29.049  33.549  1.00  0.00     0.074 A 
ATOM     22  C   UNL A   1      41.700  28.531  34.289  1.00  0.00     0.031 C 
ATOM     23  C   UNL A   1      39.699  27.646  28.158  1.00  0.00     0.029 A 
ATOM     24  C   UNL A   1      41.060  27.299  28.534  1.00  0.00     0.049 A 
ATOM     25  H   UNL A   1      42.184  28.157  30.075  1.00  0.00     0.167 HD
ATOM     26  C   UNL A   1      44.162  28.923  33.779  1.00  0.00     0.037 A 
ATOM     27  C   UNL A   1      41.898  26.376  28.000  1.00  0.00     0.037 A 
ATOM     28  C   UNL A   1      44.942  29.744  32.893  1.00  0.00     0.049 A 
ATOM     29  C   UNL A   1      43.275  26.696  28.451  1.00  0.00     0.074 A 
ATOM     30  C   UNL A   1      45.029  31.100  32.648  1.00  0.00     0.029 A 
ATOM     31  N   UNL A   1      45.599  29.141  31.851  1.00  0.00    -0.354 N 
ATOM     32  N   UNL A   1      43.950  27.750  28.084  1.00  0.00    -0.248 NA
ATOM     33  C   UNL A   1      43.786  26.007  29.626  1.00  0.00     0.031 C 
ATOM     34  C   UNL A   1      45.281  31.209  31.249  1.00  0.00     0.029 A 
ATOM     35  C   UNL A   1      45.361  29.912  30.741  1.00  0.00     0.049 A 
ATOM     36  H   UNL A   1      46.136  28.317  31.890  1.00  0.00     0.167 HD
ATOM     37  C   UNL A   1      44.712  28.089  29.191  1.00  0.00     0.074 A 
ATOM     38  C   UNL A   1      44.652  26.922  30.065  1.00  0.00     0.031 C 
ATOM     39  C   UNL A   1      45.102  29.377  29.421  1.00  0.00     0.037 A 
BRANCH  26  40
ATOM     40  C   UNL A   1      44.787  27.850  34.636  1.00  0.00     0.058 A 
ATOM     41  C   UNL A   1      44.604  26.488  34.317  1.00  0.00     0.135 A 
ATOM     42  C   UNL A   1      45.339  28.108  35.910  1.00  0.00     0.135 A 
ATOM     43  F   UNL A   1      44.067  26.127  33.141  1.00  0.00    -0.206 F 
ATOM     44  C   UNL A   1      44.900  25.461  35.218  1.00  0.00     0.059 A 
ATOM     45  C   UNL A   1      45.690  27.099  36.802  1.00  0.00     0.059 A 
ATOM     46  F   UNL A   1      45.475  29.355  36.379  1.00  0.00    -0.206 F 
ATOM     47  C   UNL A   1      45.428  25.780  36.465  1.00  0.00     0.060 A 
BRANCH  47  48
ATOM     48  S   UNL A   1      45.706  24.469  37.671  1.00  0.00     0.124 S 
ATOM     49  O   UNL A   1      45.299  23.290  36.916  1.00  0.00    -0.237 OA
ATOM     50  O   UNL A   1      47.135  24.595  37.939  1.00  0.00    -0.237 OA
ATOM     51  O   UNL A   1      44.833  24.843  38.779  1.00  0.00    -0.744 OA
ENDBRANCH  47  48
ENDBRANCH  26  40
BRANCH  27  52
ATOM     52  C   UNL A   1      41.550  25.070  27.383  1.00  0.00     0.058 A 
ATOM     53  C   UNL A   1      42.417  24.437  26.474  1.00  0.00     0.135 A 
ATOM     54  C   UNL A   1      40.498  24.283  27.893  1.00  0.00     0.135 A 
ATOM     55  F   UNL A   1      43.461  25.105  25.960  1.00  0.00    -0.206 F 
ATOM     56  C   UNL A   1      42.276  23.090  26.125  1.00  0.00     0.059 A 
ATOM     57  C   UNL A   1      40.330  22.942  27.551  1.00  0.00     0.059 A 
ATOM     58  F   UNL A   1      39.655  24.770  28.816  1.00  0.00    -0.206 F 
ATOM     59  C   UNL A   1      41.238  22.345  26.686  1.00  0.00     0.060 A 
BRANCH  59  60
ATOM     60  S   UNL A   1      41.158  20.564  26.381  1.00  0.00     0.124 S 
ATOM     61  O   UNL A   1      39.822  20.415  25.817  1.00  0.00    -0.237 OA
ATOM     62  O   UNL A   1      42.267  20.360  25.455  1.00  0.00    -0.237 OA
ATOM     63  O   UNL A   1      41.345  19.984  27.708  1.00  0.00    -0.744 OA
ENDBRANCH  59  60
ENDBRANCH  27  52
BRANCH  39  64
ATOM     64  C   UNL A   1      44.986  30.377  28.300  1.00  0.00     0.058 A 
ATOM     65  C   UNL A   1      43.847  31.167  28.063  1.00  0.00     0.135 A 
ATOM     66  C   UNL A   1      46.136  30.671  27.549  1.00  0.00     0.135 A 
ATOM     67  F   UNL A   1      42.741  31.023  28.806  1.00  0.00    -0.206 F 
ATOM     68  C   UNL A   1      43.843  32.182  27.104  1.00  0.00     0.059 A 
ATOM     69  C   UNL A   1      46.164  31.698  26.610  1.00  0.00     0.059 A 
ATOM     70  F   UNL A   1      47.274  29.993  27.770  1.00  0.00    -0.206 F 
ATOM     71  C   UNL A   1      45.009  32.446  26.387  1.00  0.00     0.060 A 
BRANCH  71  72
ATOM     72  S   UNL A   1      45.037  33.841  25.238  1.00  0.00     0.124 S 
ATOM     73  O   UNL A   1      44.129  34.786  25.881  1.00  0.00    -0.237 OA
ATOM     74  O   UNL A   1      46.447  34.222  25.233  1.00  0.00    -0.237 OA
ATOM     75  O   UNL A   1      44.554  33.262  23.988  1.00  0.00    -0.744 OA
ENDBRANCH  71  72
ENDBRANCH  39  64
ENDBRANCH  13  14
ENDBRANCH   6   8
ENDBRANCH   3   4
ENDBRANCH   2   3
ENDBRANCH   1   2
BRANCH   1  76
ATOM     76  C   UNL A   1      36.413  31.574  28.658  1.00  0.00     0.002 C 
BRANCH  76  77
ATOM     77  C   UNL A   1      35.934  30.699  27.497  1.00  0.00     0.021 C 
BRANCH  77  78
ATOM     78  C   UNL A   1      34.538  30.099  27.663  1.00  0.00     0.116 C 
BRANCH  78  79
ATOM     79  N   UNL A   1      33.487  31.089  27.481  1.00  0.00    -0.352 N 
ATOM     80  C   UNL A   1      32.267  30.947  26.870  1.00  0.00     0.251 C 
ATOM     81  H   UNL A   1      33.676  31.983  27.847  1.00  0.00     0.163 HD
ATOM     82  O   UNL A   1      31.558  31.934  26.653  1.00  0.00    -0.269 OA
BRANCH  80  83
ATOM     83  C   UNL A   1      31.806  29.614  26.439  1.00  0.00     0.039 A 
ATOM     84  C   UNL A   1      31.423  29.435  25.109  1.00  0.00     0.014 A 
ATOM     85  C   UNL A   1      31.742  28.546  27.339  1.00  0.00     0.014 A 
ATOM     86  C   UNL A   1      31.050  28.168  24.660  1.00  0.00     0.005 A 
ATOM     87  C   UNL A   1      31.376  27.277  26.887  1.00  0.00     0.005 A 
ATOM     88  C   UNL A   1      31.042  27.067  25.537  1.00  0.00    -0.038 A 
BRANCH  88  89
ATOM     89  C   UNL A   1      30.670  25.694  25.000  1.00  0.00     0.081 C 
ATOM     90  C   UNL A   1      29.980  24.808  26.060  1.00  0.00     0.111 C 
ATOM     91  C   UNL A   1      31.933  25.083  24.512  1.00  0.00     0.093 A 
ATOM     92  C   UNL A   1      30.782  23.600  26.518  1.00  0.00     0.188 C 
ATOM     93  C   UNL A   1      32.394  23.886  25.013  1.00  0.00     0.164 A 
ATOM     94  N   UNL A   1      32.804  25.620  23.602  1.00  0.00    -0.238 NA
ATOM     95  N   UNL A   1      31.871  23.128  26.006  1.00  0.00    -0.198 NA
ATOM     96  N   UNL A   1      33.628  23.694  24.419  1.00  0.00    -0.283 N 
ATOM     97  C   UNL A   1      33.831  24.794  23.609  1.00  0.00     0.206 A 
BRANCH  92  98
ATOM     98  O   UNL A   1      30.234  22.945  27.560  1.00  0.00    -0.496 OA
ATOM     99  H   UNL A   1      30.141  23.375  28.388  1.00  0.00     0.294 HD
ENDBRANCH  92  98
BRANCH  96 100
ATOM    100  C   UNL A   1      34.520  22.617  24.623  1.00  0.00     0.050 A 
ATOM    101  C   UNL A   1      35.861  22.869  24.939  1.00  0.00     0.027 A 
ATOM    102  C   UNL A   1      34.048  21.301  24.537  1.00  0.00     0.047 A 
ATOM    103  C   UNL A   1      36.715  21.799  25.214  1.00  0.00     0.004 A 
ATOM    104  C   UNL A   1      34.924  20.243  24.763  1.00  0.00     0.043 A 
ATOM    105  C   UNL A   1      36.250  20.486  25.118  1.00  0.00     0.020 A 
ATOM    106  Cl  UNL A   1      34.369  18.623  24.585  1.00  0.00    -0.084 Cl
ENDBRANCH  96 100
ENDBRANCH  88  89
ENDBRANCH  80  83
ENDBRANCH  78  79
ENDBRANCH  77  78
ENDBRANCH  76  77
ENDBRANCH   1  76
TORSDOF 19
ENDMDL
