MODEL 1
REMARK VINA RESULT:     -11.8      0.000      0.000
REMARK SMILES CCC(CC)(NC(=O)NC1CCC(C)(C)CC1)C(=O)NCCCCCCNC(=O)c1ccc(-c2c3nc(c(-c4c(F)cc(S(=O)(=O)[O-])cc4F)c4ccc([nH]4)c(-c4c(F)cc(S(=O)(=O)[O-])cc4F)c4nc(c(-c5c(F)cc(S(=O)(=O)[O-])cc5F)c5ccc2[nH]5)C=C4)C=C3)cc1
REMARK SMILES IDX 24 1 23 2 22 3 21 4 20 5 18 6 19 7 3 9 2 10 1 11 4 12 5 13
REMARK SMILES IDX 6 14 7 15 8 17 9 18 10 20 11 21 17 22 12 23 16 24 13 25
REMARK SMILES IDX 14 26 15 27 25 28 26 29 27 30 28 31 29 33 30 34 31 35 95 36
REMARK SMILES IDX 32 37 94 38 33 39 34 40 35 41 88 42 36 43 93 44 87 45 89 46
REMARK SMILES IDX 37 47 92 48 86 49 85 50 38 52 72 53 51 54 71 55 52 56 55 57
REMARK SMILES IDX 70 58 90 59 53 60 54 61 69 63 91 64 56 65 39 66 40 67 49 68
REMARK SMILES IDX 41 69 42 70 48 71 50 72 43 73 44 74 45 75 46 76 47 77 73 78
REMARK SMILES IDX 74 79 83 80 75 81 76 82 82 83 84 84 77 85 78 86 79 87 80 88
REMARK SMILES IDX 81 89 57 90 58 91 67 92 59 93 60 94 66 95 68 96 61 97 62 98
REMARK SMILES IDX 63 99 64 100 65 101
REMARK H PARENT 20 8 6 16 9 19 27 32 89 51 55 62
REMARK Flexibility Score: inf
ROOT
ATOM      1  C   UNL A   1      39.216  21.826  26.114  1.00  0.00     0.002 C 
ENDROOT
BRANCH   1   2
ATOM      2  C   UNL A   1      37.895  22.160  25.424  1.00  0.00     0.002 C 
BRANCH   2   3
ATOM      3  C   UNL A   1      37.070  21.027  24.811  1.00  0.00     0.021 C 
BRANCH   3   4
ATOM      4  C   UNL A   1      35.571  20.879  25.113  1.00  0.00     0.116 C 
BRANCH   4   5
ATOM      5  N   UNL A   1      35.049  21.348  26.392  1.00  0.00    -0.354 N 
ATOM      6  C   UNL A   1      33.863  21.934  26.798  1.00  0.00     0.245 C 
ATOM      7  O   UNL A   1      33.375  21.655  27.893  1.00  0.00    -0.272 OA
ATOM      8  H   UNL A   1      35.684  21.218  27.134  1.00  0.00     0.163 HD
BRANCH   6   9
ATOM      9  C   UNL A   1      33.058  22.811  25.879  1.00  0.00     0.120 C 
BRANCH   9  10
ATOM     10  C   UNL A   1      32.984  22.494  24.359  1.00  0.00     0.035 C 
ATOM     11  C   UNL A   1      31.747  22.912  23.580  1.00  0.00     0.007 C 
ENDBRANCH   9  10
BRANCH   9  12
ATOM     12  C   UNL A   1      33.735  24.205  26.173  1.00  0.00     0.035 C 
ATOM     13  C   UNL A   1      35.063  24.609  25.542  1.00  0.00     0.007 C 
ENDBRANCH   9  12
BRANCH   9  14
ATOM     14  N   UNL A   1      31.736  22.499  26.438  1.00  0.00    -0.324 N 
ATOM     15  C   UNL A   1      30.761  23.318  26.892  1.00  0.00     0.315 C 
ATOM     16  H   UNL A   1      31.527  21.538  26.492  1.00  0.00     0.166 HD
ATOM     17  O   UNL A   1      29.945  22.781  27.657  1.00  0.00    -0.249 OA
ATOM     18  N   UNL A   1      30.501  24.609  26.621  1.00  0.00    -0.335 N 
ATOM     19  H   UNL A   1      29.752  24.801  27.231  1.00  0.00     0.165 HD
BRANCH  18  20
ATOM     20  C   UNL A   1      30.696  25.969  25.906  1.00  0.00     0.083 C 
ATOM     21  C   UNL A   1      31.810  26.972  26.216  1.00  0.00     0.025 C 
ATOM     22  C   UNL A   1      30.121  26.198  24.494  1.00  0.00     0.025 C 
ATOM     23  C   UNL A   1      32.675  27.553  25.057  1.00  0.00     0.008 C 
ATOM     24  C   UNL A   1      31.062  26.485  23.316  1.00  0.00     0.008 C 
ATOM     25  C   UNL A   1      32.404  27.191  23.565  1.00  0.00    -0.035 C 
ATOM     26  C   UNL A   1      33.567  26.377  22.900  1.00  0.00     0.011 C 
ATOM     27  C   UNL A   1      32.415  28.494  22.726  1.00  0.00     0.011 C 
ENDBRANCH  18  20
ENDBRANCH   9  14
ENDBRANCH   6   9
ENDBRANCH   4   5
ENDBRANCH   3   4
ENDBRANCH   2   3
ENDBRANCH   1   2
BRANCH   1  28
ATOM     28  C   UNL A   1      39.669  22.722  27.252  1.00  0.00     0.021 C 
BRANCH  28  29
ATOM     29  C   UNL A   1      41.132  23.098  27.190  1.00  0.00     0.116 C 
BRANCH  29  30
ATOM     30  N   UNL A   1      41.463  23.922  26.033  1.00  0.00    -0.352 N 
ATOM     31  C   UNL A   1      41.586  25.293  25.985  1.00  0.00     0.251 C 
ATOM     32  H   UNL A   1      41.615  23.442  25.188  1.00  0.00     0.163 HD
ATOM     33  O   UNL A   1      41.746  25.874  24.917  1.00  0.00    -0.269 OA
BRANCH  31  34
ATOM     34  C   UNL A   1      41.477  26.050  27.249  1.00  0.00     0.039 A 
ATOM     35  C   UNL A   1      42.582  26.762  27.719  1.00  0.00     0.014 A 
ATOM     36  C   UNL A   1      40.246  26.133  27.904  1.00  0.00     0.014 A 
ATOM     37  C   UNL A   1      42.429  27.618  28.811  1.00  0.00     0.010 A 
ATOM     38  C   UNL A   1      40.071  27.064  28.916  1.00  0.00     0.010 A 
ATOM     39  C   UNL A   1      41.162  27.805  29.391  1.00  0.00    -0.014 A 
BRANCH  39  40
ATOM     40  C   UNL A   1      40.955  28.747  30.517  1.00  0.00     0.031 A 
ATOM     41  C   UNL A   1      41.802  28.615  31.756  1.00  0.00     0.074 A 
ATOM     42  C   UNL A   1      39.965  29.659  30.459  1.00  0.00     0.049 A 
ATOM     43  N   UNL A   1      41.731  29.279  32.880  1.00  0.00    -0.248 NA
ATOM     44  C   UNL A   1      42.839  27.569  31.744  1.00  0.00     0.031 C 
ATOM     45  C   UNL A   1      39.036  29.832  29.339  1.00  0.00     0.029 A 
ATOM     46  N   UNL A   1      39.567  30.608  31.366  1.00  0.00    -0.354 N 
ATOM     47  C   UNL A   1      42.692  28.716  33.710  1.00  0.00     0.074 A 
ATOM     48  C   UNL A   1      43.289  27.616  32.988  1.00  0.00     0.031 C 
ATOM     49  C   UNL A   1      38.198  30.845  29.614  1.00  0.00     0.029 A 
ATOM     50  C   UNL A   1      38.505  31.370  30.941  1.00  0.00     0.049 A 
ATOM     51  H   UNL A   1      40.002  30.732  32.241  1.00  0.00     0.167 HD
ATOM     52  C   UNL A   1      43.066  29.101  34.952  1.00  0.00     0.037 A 
ATOM     53  C   UNL A   1      37.853  32.377  31.553  1.00  0.00     0.037 A 
ATOM     54  C   UNL A   1      42.497  30.228  35.641  1.00  0.00     0.049 A 
ATOM     55  C   UNL A   1      38.312  32.815  32.918  1.00  0.00     0.074 A 
ATOM     56  C   UNL A   1      42.855  30.755  36.870  1.00  0.00     0.029 A 
ATOM     57  N   UNL A   1      41.452  31.004  35.159  1.00  0.00    -0.354 N 
ATOM     58  N   UNL A   1      39.273  32.319  33.662  1.00  0.00    -0.248 NA
ATOM     59  C   UNL A   1      37.608  33.953  33.523  1.00  0.00     0.031 C 
ATOM     60  C   UNL A   1      41.998  31.825  37.148  1.00  0.00     0.029 A 
ATOM     61  C   UNL A   1      41.141  31.996  36.072  1.00  0.00     0.049 A 
ATOM     62  H   UNL A   1      41.001  30.869  34.295  1.00  0.00     0.167 HD
ATOM     63  C   UNL A   1      39.307  33.100  34.811  1.00  0.00     0.074 A 
ATOM     64  C   UNL A   1      38.278  34.108  34.658  1.00  0.00     0.031 C 
ATOM     65  C   UNL A   1      40.116  32.994  35.895  1.00  0.00     0.037 A 
BRANCH  52  66
ATOM     66  C   UNL A   1      44.146  28.307  35.635  1.00  0.00     0.058 A 
ATOM     67  C   UNL A   1      43.846  27.264  36.526  1.00  0.00     0.135 A 
ATOM     68  C   UNL A   1      45.500  28.575  35.375  1.00  0.00     0.135 A 
ATOM     69  F   UNL A   1      42.568  26.978  36.826  1.00  0.00    -0.206 F 
ATOM     70  C   UNL A   1      44.847  26.534  37.157  1.00  0.00     0.059 A 
ATOM     71  C   UNL A   1      46.518  27.838  35.972  1.00  0.00     0.059 A 
ATOM     72  F   UNL A   1      45.844  29.564  34.535  1.00  0.00    -0.206 F 
ATOM     73  C   UNL A   1      46.181  26.829  36.873  1.00  0.00     0.060 A 
BRANCH  73  74
ATOM     74  S   UNL A   1      47.468  25.862  37.691  1.00  0.00     0.124 S 
ATOM     75  O   UNL A   1      47.037  24.498  37.398  1.00  0.00    -0.237 OA
ATOM     76  O   UNL A   1      48.676  26.306  37.003  1.00  0.00    -0.237 OA
ATOM     77  O   UNL A   1      47.361  26.267  39.088  1.00  0.00    -0.744 OA
ENDBRANCH  73  74
ENDBRANCH  52  66
BRANCH  53  78
ATOM     78  C   UNL A   1      36.725  33.061  30.864  1.00  0.00     0.058 A 
ATOM     79  C   UNL A   1      35.397  32.836  31.259  1.00  0.00     0.135 A 
ATOM     80  C   UNL A   1      36.950  33.970  29.820  1.00  0.00     0.135 A 
ATOM     81  F   UNL A   1      35.129  31.972  32.250  1.00  0.00    -0.206 F 
ATOM     82  C   UNL A   1      34.332  33.477  30.635  1.00  0.00     0.059 A 
ATOM     83  C   UNL A   1      35.903  34.642  29.196  1.00  0.00     0.059 A 
ATOM     84  F   UNL A   1      38.203  34.235  29.417  1.00  0.00    -0.206 F 
ATOM     85  C   UNL A   1      34.596  34.383  29.605  1.00  0.00     0.060 A 
BRANCH  85  86
ATOM     86  S   UNL A   1      33.210  35.254  28.841  1.00  0.00     0.124 S 
ATOM     87  O   UNL A   1      32.643  34.213  27.991  1.00  0.00    -0.237 OA
ATOM     88  O   UNL A   1      32.412  35.637  30.001  1.00  0.00    -0.237 OA
ATOM     89  O   UNL A   1      33.855  36.360  28.140  1.00  0.00    -0.744 OA
ENDBRANCH  85  86
ENDBRANCH  53  78
BRANCH  65  90
ATOM     90  C   UNL A   1      39.943  34.012  36.987  1.00  0.00     0.058 A 
ATOM     91  C   UNL A   1      40.535  35.281  36.911  1.00  0.00     0.135 A 
ATOM     92  C   UNL A   1      39.126  33.730  38.094  1.00  0.00     0.135 A 
ATOM     93  F   UNL A   1      41.329  35.597  35.875  1.00  0.00    -0.206 F 
ATOM     94  C   UNL A   1      40.342  36.230  37.909  1.00  0.00     0.059 A 
ATOM     95  C   UNL A   1      38.896  34.674  39.089  1.00  0.00     0.059 A 
ATOM     96  F   UNL A   1      38.526  32.535  38.206  1.00  0.00    -0.206 F 
ATOM     97  C   UNL A   1      39.520  35.918  38.994  1.00  0.00     0.060 A 
BRANCH  97  98
ATOM     98  S   UNL A   1      39.251  37.170  40.265  1.00  0.00     0.124 S 
ATOM     99  O   UNL A   1      38.469  36.427  41.248  1.00  0.00    -0.237 OA
ATOM    100  O   UNL A   1      40.614  37.509  40.664  1.00  0.00    -0.237 OA
ATOM    101  O   UNL A   1      38.532  38.225  39.556  1.00  0.00    -0.744 OA
ENDBRANCH  97  98
ENDBRANCH  65  90
ENDBRANCH  39  40
ENDBRANCH  31  34
ENDBRANCH  29  30
ENDBRANCH  28  29
ENDBRANCH   1  28
TORSDOF 20
ENDMDL
MODEL 2
REMARK VINA RESULT:     -11.6      0.579      8.072
REMARK SMILES CCC(CC)(NC(=O)NC1CCC(C)(C)CC1)C(=O)NCCCCCCNC(=O)c1ccc(-c2c3nc(c(-c4c(F)cc(S(=O)(=O)[O-])cc4F)c4ccc([nH]4)c(-c4c(F)cc(S(=O)(=O)[O-])cc4F)c4nc(c(-c5c(F)cc(S(=O)(=O)[O-])cc5F)c5ccc2[nH]5)C=C4)C=C3)cc1
REMARK SMILES IDX 24 1 23 2 22 3 21 4 20 5 18 6 19 7 3 9 2 10 1 11 4 12 5 13
REMARK SMILES IDX 6 14 7 15 8 17 9 18 10 20 11 21 17 22 12 23 16 24 13 25
REMARK SMILES IDX 14 26 15 27 25 28 26 29 27 30 28 31 29 33 30 34 31 35 95 36
REMARK SMILES IDX 32 37 94 38 33 39 34 40 35 41 88 42 36 43 93 44 87 45 89 46
REMARK SMILES IDX 37 47 92 48 86 49 85 50 38 52 72 53 51 54 71 55 52 56 55 57
REMARK SMILES IDX 70 58 90 59 53 60 54 61 69 63 91 64 56 65 39 66 40 67 49 68
REMARK SMILES IDX 41 69 42 70 48 71 50 72 43 73 44 74 45 75 46 76 47 77 73 78
REMARK SMILES IDX 74 79 83 80 75 81 76 82 82 83 84 84 77 85 78 86 79 87 80 88
REMARK SMILES IDX 81 89 57 90 58 91 67 92 59 93 60 94 66 95 68 96 61 97 62 98
REMARK SMILES IDX 63 99 64 100 65 101
REMARK H PARENT 20 8 6 16 9 19 27 32 89 51 55 62
REMARK Flexibility Score: inf
ROOT
ATOM      1  C   UNL A   1      39.631  21.858  26.185  1.00  0.00     0.002 C 
ENDROOT
BRANCH   1   2
ATOM      2  C   UNL A   1      38.199  22.294  25.883  1.00  0.00     0.002 C 
BRANCH   2   3
ATOM      3  C   UNL A   1      37.401  21.540  24.818  1.00  0.00     0.021 C 
BRANCH   3   4
ATOM      4  C   UNL A   1      36.007  20.969  25.121  1.00  0.00     0.116 C 
BRANCH   4   5
ATOM      5  N   UNL A   1      35.365  21.287  26.392  1.00  0.00    -0.354 N 
ATOM      6  C   UNL A   1      34.126  21.786  26.754  1.00  0.00     0.245 C 
ATOM      7  O   UNL A   1      33.565  21.380  27.771  1.00  0.00    -0.272 OA
ATOM      8  H   UNL A   1      35.944  21.105  27.168  1.00  0.00     0.163 HD
BRANCH   6   9
ATOM      9  C   UNL A   1      33.359  22.724  25.861  1.00  0.00     0.120 C 
BRANCH   9  10
ATOM     10  C   UNL A   1      33.246  22.438  24.338  1.00  0.00     0.035 C 
ATOM     11  C   UNL A   1      32.064  23.007  23.568  1.00  0.00     0.007 C 
ENDBRANCH   9  10
BRANCH   9  12
ATOM     12  C   UNL A   1      34.120  24.072  26.168  1.00  0.00     0.035 C 
ATOM     13  C   UNL A   1      35.319  24.529  25.347  1.00  0.00     0.007 C 
ENDBRANCH   9  12
BRANCH   9  14
ATOM     14  N   UNL A   1      32.030  22.478  26.435  1.00  0.00    -0.324 N 
ATOM     15  C   UNL A   1      31.108  23.343  26.913  1.00  0.00     0.315 C 
ATOM     16  H   UNL A   1      31.768  21.529  26.480  1.00  0.00     0.166 HD
ATOM     17  O   UNL A   1      30.274  22.841  27.682  1.00  0.00    -0.249 OA
ATOM     18  N   UNL A   1      30.916  24.650  26.663  1.00  0.00    -0.335 N 
ATOM     19  H   UNL A   1      30.188  24.875  27.286  1.00  0.00     0.165 HD
BRANCH  18  20
ATOM     20  C   UNL A   1      31.177  26.007  25.963  1.00  0.00     0.083 C 
ATOM     21  C   UNL A   1      32.429  26.866  26.153  1.00  0.00     0.025 C 
ATOM     22  C   UNL A   1      30.462  26.354  24.642  1.00  0.00     0.025 C 
ATOM     23  C   UNL A   1      33.205  27.392  24.908  1.00  0.00     0.008 C 
ATOM     24  C   UNL A   1      31.276  26.581  23.362  1.00  0.00     0.008 C 
ATOM     25  C   UNL A   1      32.711  27.122  23.455  1.00  0.00    -0.035 C 
ATOM     26  C   UNL A   1      33.681  26.211  22.626  1.00  0.00     0.011 C 
ATOM     27  C   UNL A   1      32.768  28.448  22.654  1.00  0.00     0.011 C 
ENDBRANCH  18  20
ENDBRANCH   9  14
ENDBRANCH   6   9
ENDBRANCH   4   5
ENDBRANCH   3   4
ENDBRANCH   2   3
ENDBRANCH   1   2
BRANCH   1  28
ATOM     28  C   UNL A   1      40.248  22.304  27.497  1.00  0.00     0.021 C 
BRANCH  28  29
ATOM     29  C   UNL A   1      41.501  23.135  27.333  1.00  0.00     0.116 C 
BRANCH  29  30
ATOM     30  N   UNL A   1      41.443  24.038  26.190  1.00  0.00    -0.352 N 
ATOM     31  C   UNL A   1      41.241  25.400  26.204  1.00  0.00     0.251 C 
ATOM     32  H   UNL A   1      41.563  23.625  25.305  1.00  0.00     0.163 HD
ATOM     33  O   UNL A   1      41.090  26.025  25.160  1.00  0.00    -0.269 OA
BRANCH  31  34
ATOM     34  C   UNL A   1      41.169  26.084  27.512  1.00  0.00     0.039 A 
ATOM     35  C   UNL A   1      42.323  26.652  28.053  1.00  0.00     0.014 A 
ATOM     36  C   UNL A   1      39.933  26.246  28.142  1.00  0.00     0.014 A 
ATOM     37  C   UNL A   1      42.220  27.449  29.195  1.00  0.00     0.010 A 
ATOM     38  C   UNL A   1      39.818  27.125  29.208  1.00  0.00     0.010 A 
ATOM     39  C   UNL A   1      40.962  27.723  29.756  1.00  0.00    -0.014 A 
BRANCH  39  40
ATOM     40  C   UNL A   1      40.813  28.608  30.936  1.00  0.00     0.031 A 
ATOM     41  C   UNL A   1      39.747  29.672  30.932  1.00  0.00     0.074 A 
ATOM     42  C   UNL A   1      41.678  28.509  31.965  1.00  0.00     0.049 A 
ATOM     43  N   UNL A   1      39.501  30.598  31.822  1.00  0.00    -0.248 NA
ATOM     44  C   UNL A   1      38.869  29.728  29.751  1.00  0.00     0.031 C 
ATOM     45  C   UNL A   1      42.794  27.563  32.047  1.00  0.00     0.029 A 
ATOM     46  N   UNL A   1      41.760  29.217  33.137  1.00  0.00    -0.354 N 
ATOM     47  C   UNL A   1      38.461  31.355  31.298  1.00  0.00     0.074 A 
ATOM     48  C   UNL A   1      38.165  30.824  29.987  1.00  0.00     0.031 C 
ATOM     49  C   UNL A   1      43.428  27.731  33.219  1.00  0.00     0.029 A 
ATOM     50  C   UNL A   1      42.789  28.817  33.955  1.00  0.00     0.049 A 
ATOM     51  H   UNL A   1      41.140  29.945  33.370  1.00  0.00     0.167 HD
ATOM     52  C   UNL A   1      37.790  32.382  31.871  1.00  0.00     0.037 A 
ATOM     53  C   UNL A   1      43.173  29.274  35.163  1.00  0.00     0.037 A 
ATOM     54  C   UNL A   1      38.063  32.869  33.196  1.00  0.00     0.049 A 
ATOM     55  C   UNL A   1      42.389  30.390  35.798  1.00  0.00     0.074 A 
ATOM     56  C   UNL A   1      37.395  33.852  33.905  1.00  0.00     0.029 A 
ATOM     57  N   UNL A   1      39.086  32.408  34.013  1.00  0.00    -0.354 N 
ATOM     58  N   UNL A   1      41.358  31.049  35.320  1.00  0.00    -0.248 NA
ATOM     59  C   UNL A   1      42.808  30.819  37.139  1.00  0.00     0.031 C 
ATOM     60  C   UNL A   1      38.040  34.012  35.136  1.00  0.00     0.029 A 
ATOM     61  C   UNL A   1      39.077  33.096  35.213  1.00  0.00     0.049 A 
ATOM     62  H   UNL A   1      39.722  31.695  33.774  1.00  0.00     0.167 HD
ATOM     63  C   UNL A   1      40.990  31.952  36.311  1.00  0.00     0.074 A 
ATOM     64  C   UNL A   1      41.901  31.746  37.419  1.00  0.00     0.031 C 
ATOM     65  C   UNL A   1      39.991  32.869  36.306  1.00  0.00     0.037 A 
BRANCH  52  66
ATOM     66  C   UNL A   1      36.693  33.032  31.073  1.00  0.00     0.058 A 
ATOM     67  C   UNL A   1      35.337  32.830  31.379  1.00  0.00     0.135 A 
ATOM     68  C   UNL A   1      37.001  33.890  30.005  1.00  0.00     0.135 A 
ATOM     69  F   UNL A   1      34.986  32.004  32.379  1.00  0.00    -0.206 F 
ATOM     70  C   UNL A   1      34.326  33.430  30.638  1.00  0.00     0.059 A 
ATOM     71  C   UNL A   1      36.006  34.525  29.268  1.00  0.00     0.059 A 
ATOM     72  F   UNL A   1      38.279  34.115  29.666  1.00  0.00    -0.206 F 
ATOM     73  C   UNL A   1      34.670  34.277  29.584  1.00  0.00     0.060 A 
BRANCH  73  74
ATOM     74  S   UNL A   1      33.345  35.060  28.640  1.00  0.00     0.124 S 
ATOM     75  O   UNL A   1      32.475  35.543  29.708  1.00  0.00    -0.237 OA
ATOM     76  O   UNL A   1      34.060  36.088  27.892  1.00  0.00    -0.237 OA
ATOM     77  O   UNL A   1      32.807  33.966  27.839  1.00  0.00    -0.744 OA
ENDBRANCH  73  74
ENDBRANCH  52  66
BRANCH  53  78
ATOM     78  C   UNL A   1      44.331  28.653  35.861  1.00  0.00     0.058 A 
ATOM     79  C   UNL A   1      44.148  27.575  36.740  1.00  0.00     0.135 A 
ATOM     80  C   UNL A   1      45.642  29.101  35.643  1.00  0.00     0.135 A 
ATOM     81  F   UNL A   1      42.913  27.112  36.987  1.00  0.00    -0.206 F 
ATOM     82  C   UNL A   1      45.220  26.973  37.391  1.00  0.00     0.059 A 
ATOM     83  C   UNL A   1      46.734  28.501  36.262  1.00  0.00     0.059 A 
ATOM     84  F   UNL A   1      45.873  30.117  34.795  1.00  0.00    -0.206 F 
ATOM     85  C   UNL A   1      46.513  27.442  37.141  1.00  0.00     0.060 A 
BRANCH  85  86
ATOM     86  S   UNL A   1      47.904  26.616  37.945  1.00  0.00     0.124 S 
ATOM     87  O   UNL A   1      48.771  26.329  36.808  1.00  0.00    -0.237 OA
ATOM     88  O   UNL A   1      48.378  27.644  38.867  1.00  0.00    -0.237 OA
ATOM     89  O   UNL A   1      47.284  25.455  38.577  1.00  0.00    -0.744 OA
ENDBRANCH  85  86
ENDBRANCH  53  78
BRANCH  65  90
ATOM     90  C   UNL A   1      39.807  33.697  37.546  1.00  0.00     0.058 A 
ATOM     91  C   UNL A   1      40.498  34.902  37.737  1.00  0.00     0.135 A 
ATOM     92  C   UNL A   1      38.880  33.305  38.526  1.00  0.00     0.135 A 
ATOM     93  F   UNL A   1      41.398  35.316  36.831  1.00  0.00    -0.206 F 
ATOM     94  C   UNL A   1      40.296  35.680  38.872  1.00  0.00     0.059 A 
ATOM     95  C   UNL A   1      38.642  34.083  39.655  1.00  0.00     0.059 A 
ATOM     96  F   UNL A   1      38.183  32.167  38.384  1.00  0.00    -0.206 F 
ATOM     97  C   UNL A   1      39.365  35.263  39.825  1.00  0.00     0.060 A 
BRANCH  97  98
ATOM     98  S   UNL A   1      39.089  36.299  41.277  1.00  0.00     0.124 S 
ATOM     99  O   UNL A   1      40.396  36.252  41.922  1.00  0.00    -0.237 OA
ATOM    100  O   UNL A   1      38.721  37.579  40.681  1.00  0.00    -0.237 OA
ATOM    101  O   UNL A   1      38.013  35.611  41.984  1.00  0.00    -0.744 OA
ENDBRANCH  97  98
ENDBRANCH  65  90
ENDBRANCH  39  40
ENDBRANCH  31  34
ENDBRANCH  29  30
ENDBRANCH  28  29
ENDBRANCH   1  28
TORSDOF 20
ENDMDL
MODEL 3
REMARK VINA RESULT:     -11.5      6.104      8.252
REMARK SMILES CCC(CC)(NC(=O)NC1CCC(C)(C)CC1)C(=O)NCCCCCCNC(=O)c1ccc(-c2c3nc(c(-c4c(F)cc(S(=O)(=O)[O-])cc4F)c4ccc([nH]4)c(-c4c(F)cc(S(=O)(=O)[O-])cc4F)c4nc(c(-c5c(F)cc(S(=O)(=O)[O-])cc5F)c5ccc2[nH]5)C=C4)C=C3)cc1
REMARK SMILES IDX 24 1 23 2 22 3 21 4 20 5 18 6 19 7 3 9 2 10 1 11 4 12 5 13
REMARK SMILES IDX 6 14 7 15 8 17 9 18 10 20 11 21 17 22 12 23 16 24 13 25
REMARK SMILES IDX 14 26 15 27 25 28 26 29 27 30 28 31 29 33 30 34 31 35 95 36
REMARK SMILES IDX 32 37 94 38 33 39 34 40 35 41 88 42 36 43 93 44 87 45 89 46
REMARK SMILES IDX 37 47 92 48 86 49 85 50 38 52 72 53 51 54 71 55 52 56 55 57
REMARK SMILES IDX 70 58 90 59 53 60 54 61 69 63 91 64 56 65 39 66 40 67 49 68
REMARK SMILES IDX 41 69 42 70 48 71 50 72 43 73 44 74 45 75 46 76 47 77 73 78
REMARK SMILES IDX 74 79 83 80 75 81 76 82 82 83 84 84 77 85 78 86 79 87 80 88
REMARK SMILES IDX 81 89 57 90 58 91 67 92 59 93 60 94 66 95 68 96 61 97 62 98
REMARK SMILES IDX 63 99 64 100 65 101
REMARK H PARENT 20 8 6 16 9 19 27 32 89 51 55 62
REMARK Flexibility Score: inf
ROOT
ATOM      1  C   UNL A   1      38.789  22.323  26.154  1.00  0.00     0.002 C 
ENDROOT
BRANCH   1   2
ATOM      2  C   UNL A   1      37.327  22.493  25.744  1.00  0.00     0.002 C 
BRANCH   2   3
ATOM      3  C   UNL A   1      36.575  21.295  25.161  1.00  0.00     0.021 C 
BRANCH   3   4
ATOM      4  C   UNL A   1      35.165  21.451  24.571  1.00  0.00     0.116 C 
BRANCH   4   5
ATOM      5  N   UNL A   1      34.037  20.806  25.233  1.00  0.00    -0.354 N 
ATOM      6  C   UNL A   1      32.697  21.118  25.390  1.00  0.00     0.245 C 
ATOM      7  O   UNL A   1      31.846  20.229  25.376  1.00  0.00    -0.272 OA
ATOM      8  H   UNL A   1      34.284  19.956  25.667  1.00  0.00     0.163 HD
BRANCH   6   9
ATOM      9  C   UNL A   1      32.218  22.543  25.440  1.00  0.00     0.120 C 
BRANCH   9  10
ATOM     10  C   UNL A   1      31.903  23.311  24.126  1.00  0.00     0.035 C 
ATOM     11  C   UNL A   1      32.254  22.665  22.795  1.00  0.00     0.007 C 
ENDBRANCH   9  10
BRANCH   9  12
ATOM     12  C   UNL A   1      33.400  23.198  26.254  1.00  0.00     0.035 C 
ATOM     13  C   UNL A   1      34.099  24.469  25.785  1.00  0.00     0.007 C 
ENDBRANCH   9  12
BRANCH   9  14
ATOM     14  N   UNL A   1      30.928  22.280  26.092  1.00  0.00    -0.324 N 
ATOM     15  C   UNL A   1      30.075  23.122  26.717  1.00  0.00     0.315 C 
ATOM     16  H   UNL A   1      30.640  21.339  26.073  1.00  0.00     0.166 HD
ATOM     17  O   UNL A   1      29.285  22.574  27.501  1.00  0.00    -0.249 OA
ATOM     18  N   UNL A   1      29.907  24.451  26.600  1.00  0.00    -0.335 N 
ATOM     19  H   UNL A   1      29.236  24.636  27.295  1.00  0.00     0.165 HD
BRANCH  18  20
ATOM     20  C   UNL A   1      30.158  25.859  26.005  1.00  0.00     0.083 C 
ATOM     21  C   UNL A   1      31.329  26.773  26.377  1.00  0.00     0.025 C 
ATOM     22  C   UNL A   1      29.569  26.244  24.634  1.00  0.00     0.025 C 
ATOM     23  C   UNL A   1      32.201  27.413  25.255  1.00  0.00     0.008 C 
ATOM     24  C   UNL A   1      30.501  26.589  23.465  1.00  0.00     0.008 C 
ATOM     25  C   UNL A   1      31.882  27.202  23.744  1.00  0.00    -0.035 C 
ATOM     26  C   UNL A   1      32.989  26.395  22.981  1.00  0.00     0.011 C 
ATOM     27  C   UNL A   1      31.944  28.574  23.025  1.00  0.00     0.011 C 
ENDBRANCH  18  20
ENDBRANCH   9  14
ENDBRANCH   6   9
ENDBRANCH   4   5
ENDBRANCH   3   4
ENDBRANCH   2   3
ENDBRANCH   1   2
BRANCH   1  28
ATOM     28  C   UNL A   1      39.527  21.095  25.656  1.00  0.00     0.021 C 
BRANCH  28  29
ATOM     29  C   UNL A   1      40.139  20.258  26.757  1.00  0.00     0.116 C 
BRANCH  29  30
ATOM     30  N   UNL A   1      41.067  19.249  26.261  1.00  0.00    -0.352 N 
ATOM     31  C   UNL A   1      42.384  19.424  25.897  1.00  0.00     0.251 C 
ATOM     32  H   UNL A   1      40.710  18.336  26.177  1.00  0.00     0.163 HD
ATOM     33  O   UNL A   1      43.019  18.514  25.377  1.00  0.00    -0.269 OA
BRANCH  31  34
ATOM     34  C   UNL A   1      42.999  20.750  26.112  1.00  0.00     0.039 A 
ATOM     35  C   UNL A   1      43.314  21.546  25.009  1.00  0.00     0.014 A 
ATOM     36  C   UNL A   1      43.161  21.237  27.410  1.00  0.00     0.014 A 
ATOM     37  C   UNL A   1      43.726  22.864  25.214  1.00  0.00     0.010 A 
ATOM     38  C   UNL A   1      43.464  22.576  27.607  1.00  0.00     0.010 A 
ATOM     39  C   UNL A   1      43.764  23.400  26.513  1.00  0.00    -0.014 A 
BRANCH  39  40
ATOM     40  C   UNL A   1      44.146  24.811  26.760  1.00  0.00     0.031 A 
ATOM     41  C   UNL A   1      45.582  25.229  26.588  1.00  0.00     0.074 A 
ATOM     42  C   UNL A   1      43.226  25.688  27.210  1.00  0.00     0.049 A 
ATOM     43  N   UNL A   1      46.140  26.386  26.829  1.00  0.00    -0.248 NA
ATOM     44  C   UNL A   1      46.524  24.195  26.124  1.00  0.00     0.031 C 
ATOM     45  C   UNL A   1      41.820  25.379  27.480  1.00  0.00     0.029 A 
ATOM     46  N   UNL A   1      43.338  27.018  27.528  1.00  0.00    -0.354 N 
ATOM     47  C   UNL A   1      47.494  26.212  26.570  1.00  0.00     0.074 A 
ATOM     48  C   UNL A   1      47.685  24.824  26.216  1.00  0.00     0.031 C 
ATOM     49  C   UNL A   1      41.196  26.493  27.894  1.00  0.00     0.029 A 
ATOM     50  C   UNL A   1      42.161  27.586  27.953  1.00  0.00     0.049 A 
ATOM     51  H   UNL A   1      44.183  27.518  27.459  1.00  0.00     0.167 HD
ATOM     52  C   UNL A   1      48.485  27.133  26.593  1.00  0.00     0.037 A 
ATOM     53  C   UNL A   1      41.893  28.847  28.345  1.00  0.00     0.037 A 
ATOM     54  C   UNL A   1      48.273  28.522  26.900  1.00  0.00     0.049 A 
ATOM     55  C   UNL A   1      43.001  29.864  28.326  1.00  0.00     0.074 A 
ATOM     56  C   UNL A   1      49.190  29.558  26.877  1.00  0.00     0.029 A 
ATOM     57  N   UNL A   1      47.056  29.070  27.282  1.00  0.00    -0.354 N 
ATOM     58  N   UNL A   1      44.264  29.700  28.006  1.00  0.00    -0.248 NA
ATOM     59  C   UNL A   1      42.650  31.239  28.707  1.00  0.00     0.031 C 
ATOM     60  C   UNL A   1      48.536  30.725  27.285  1.00  0.00     0.029 A 
ATOM     61  C   UNL A   1      47.202  30.426  27.514  1.00  0.00     0.049 A 
ATOM     62  H   UNL A   1      46.214  28.568  27.374  1.00  0.00     0.167 HD
ATOM     63  C   UNL A   1      44.852  30.954  28.124  1.00  0.00     0.074 A 
ATOM     64  C   UNL A   1      43.804  31.868  28.531  1.00  0.00     0.031 C 
ATOM     65  C   UNL A   1      46.142  31.318  27.913  1.00  0.00     0.037 A 
BRANCH  52  66
ATOM     66  C   UNL A   1      49.878  26.670  26.266  1.00  0.00     0.058 A 
ATOM     67  C   UNL A   1      50.404  26.769  24.967  1.00  0.00     0.135 A 
ATOM     68  C   UNL A   1      50.708  26.145  27.269  1.00  0.00     0.135 A 
ATOM     69  F   UNL A   1      49.647  27.246  23.966  1.00  0.00    -0.206 F 
ATOM     70  C   UNL A   1      51.691  26.337  24.668  1.00  0.00     0.059 A 
ATOM     71  C   UNL A   1      52.010  25.734  26.998  1.00  0.00     0.059 A 
ATOM     72  F   UNL A   1      50.256  26.022  28.526  1.00  0.00    -0.206 F 
ATOM     73  C   UNL A   1      52.487  25.821  25.691  1.00  0.00     0.060 A 
BRANCH  73  74
ATOM     74  S   UNL A   1      54.161  25.278  25.287  1.00  0.00     0.124 S 
ATOM     75  O   UNL A   1      54.256  25.650  23.879  1.00  0.00    -0.237 OA
ATOM     76  O   UNL A   1      54.975  26.066  26.207  1.00  0.00    -0.237 OA
ATOM     77  O   UNL A   1      54.127  23.844  25.556  1.00  0.00    -0.744 OA
ENDBRANCH  73  74
ENDBRANCH  52  66
BRANCH  53  78
ATOM     78  C   UNL A   1      40.511  29.221  28.753  1.00  0.00     0.058 A 
ATOM     79  C   UNL A   1      40.178  29.384  30.106  1.00  0.00     0.135 A 
ATOM     80  C   UNL A   1      39.506  29.449  27.801  1.00  0.00     0.135 A 
ATOM     81  F   UNL A   1      41.103  29.173  31.055  1.00  0.00    -0.206 F 
ATOM     82  C   UNL A   1      38.895  29.747  30.503  1.00  0.00     0.059 A 
ATOM     83  C   UNL A   1      38.221  29.836  28.172  1.00  0.00     0.059 A 
ATOM     84  F   UNL A   1      39.778  29.324  26.492  1.00  0.00    -0.206 F 
ATOM     85  C   UNL A   1      37.923  29.975  29.527  1.00  0.00     0.060 A 
BRANCH  85  86
ATOM     86  S   UNL A   1      36.276  30.502  30.050  1.00  0.00     0.124 S 
ATOM     87  O   UNL A   1      36.482  31.928  30.273  1.00  0.00    -0.237 OA
ATOM     88  O   UNL A   1      35.460  30.147  28.893  1.00  0.00    -0.237 OA
ATOM     89  O   UNL A   1      36.034  29.703  31.247  1.00  0.00    -0.744 OA
ENDBRANCH  85  86
ENDBRANCH  53  78
BRANCH  65  90
ATOM     90  C   UNL A   1      46.487  32.770  28.089  1.00  0.00     0.058 A 
ATOM     91  C   UNL A   1      46.315  33.699  27.052  1.00  0.00     0.135 A 
ATOM     92  C   UNL A   1      46.938  33.245  29.331  1.00  0.00     0.135 A 
ATOM     93  F   UNL A   1      45.891  33.294  25.844  1.00  0.00    -0.206 F 
ATOM     94  C   UNL A   1      46.604  35.047  27.232  1.00  0.00     0.059 A 
ATOM     95  C   UNL A   1      47.205  34.593  29.542  1.00  0.00     0.059 A 
ATOM     96  F   UNL A   1      47.105  32.399  30.359  1.00  0.00    -0.206 F 
ATOM     97  C   UNL A   1      47.047  35.485  28.482  1.00  0.00     0.060 A 
BRANCH  97  98
ATOM     98  S   UNL A   1      47.386  37.243  28.713  1.00  0.00     0.124 S 
ATOM     99  O   UNL A   1      48.177  37.230  29.939  1.00  0.00    -0.237 OA
ATOM    100  O   UNL A   1      48.112  37.584  27.494  1.00  0.00    -0.237 OA
ATOM    101  O   UNL A   1      46.056  37.833  28.829  1.00  0.00    -0.744 OA
ENDBRANCH  97  98
ENDBRANCH  65  90
ENDBRANCH  39  40
ENDBRANCH  31  34
ENDBRANCH  29  30
ENDBRANCH  28  29
ENDBRANCH   1  28
TORSDOF 20
ENDMDL
