MODEL 1
REMARK VINA RESULT:      -9.5      0.000      0.000
REMARK SMILES CC(=O)c1ccc(N2/C(=[NH+]/C(=O)CCC(=O)NCCCCCCNC(=O)c3ccc(-c4c5nc(c(-c6c(F)cc(S(=O)(=O)[O-])cc6F)c6ccc([nH]6)c(-c6c(F)cc(S(=O)(=O)[O-])cc6F)c6nc(c(-c7c(F)cc(S(=O)(=O)[O-])cc7F)c7ccc4[nH]7)C=C6)C=C5)cc3)S[C@H]3CS(=O)(=O)C[C@@H]32)cc1
REMARK SMILES IDX 20 1 19 2 18 3 17 4 15 5 16 6 14 8 13 9 11 10 8 11 9 12
REMARK SMILES IDX 100 13 10 14 93 15 94 16 99 17 95 19 96 20 12 21 97 22 98 23
REMARK SMILES IDX 7 24 4 25 5 26 102 27 6 28 101 29 2 30 1 31 3 32 21 33 22 34
REMARK SMILES IDX 23 35 24 36 25 37 26 39 27 40 28 41 92 42 29 43 91 44 30 45
REMARK SMILES IDX 31 46 32 47 85 48 33 49 90 50 84 51 86 52 34 53 89 54 83 55
REMARK SMILES IDX 82 56 35 58 69 59 48 60 68 61 49 62 52 63 67 64 87 65 50 66
REMARK SMILES IDX 51 67 66 69 88 70 53 71 36 72 37 73 46 74 38 75 39 76 45 77
REMARK SMILES IDX 47 78 40 79 41 80 42 81 43 82 44 83 70 84 71 85 80 86 72 87
REMARK SMILES IDX 73 88 79 89 81 90 74 91 75 92 76 93 77 94 78 95 54 96 55 97
REMARK SMILES IDX 64 98 56 99 57 100 63 101 65 102 58 103 59 104 60 105 61 106
REMARK SMILES IDX 62 107
REMARK H PARENT 17 7 10 18 24 38 86 57 52 68
REMARK Flexibility Score: inf
ROOT
ATOM      1  C   UNL A   1      45.948  26.037  31.868  1.00  0.00     0.002 C 
ENDROOT
BRANCH   1   2
ATOM      2  C   UNL A   1      46.970  26.025  30.752  1.00  0.00     0.021 C 
BRANCH   2   3
ATOM      3  C   UNL A   1      46.236  26.126  29.403  1.00  0.00     0.116 C 
BRANCH   3   4
ATOM      4  N   UNL A   1      47.020  25.636  28.272  1.00  0.00    -0.356 N 
ATOM      5  C   UNL A   1      46.886  24.502  27.531  1.00  0.00     0.220 C 
ATOM      6  O   UNL A   1      47.737  24.252  26.677  1.00  0.00    -0.275 OA
ATOM      7  H   UNL A   1      47.765  26.219  28.002  1.00  0.00     0.163 HD
BRANCH   5   8
ATOM      8  C   UNL A   1      45.683  23.616  27.737  1.00  0.00     0.112 C 
BRANCH   8   9
ATOM      9  C   UNL A   1      44.863  23.474  26.453  1.00  0.00     0.138 C 
BRANCH   9  10
ATOM     10  C   UNL A   1      43.499  22.878  26.745  1.00  0.00     0.308 C 
ATOM     11  N   UNL A   1      40.179  24.313  27.188  1.00  0.00    -0.217 N 
ATOM     12  C   UNL A   1      41.304  23.441  27.364  1.00  0.00     0.319 C 
ATOM     13  C   UNL A   1      38.932  23.590  26.874  1.00  0.00     0.212 C 
ATOM     14  N   UNL A   1      42.539  23.791  27.145  1.00  0.00    -0.204 N 
ATOM     15  S   UNL A   1      40.770  21.670  27.595  1.00  0.00    -0.029 SA
ATOM     16  C   UNL A   1      39.660  21.887  26.193  1.00  0.00     0.120 C 
ATOM     17  C   UNL A   1      37.238  24.117  25.899  1.00  0.00     0.188 C 
ATOM     18  H   UNL A   1      42.798  24.733  27.267  1.00  0.00     0.316 HD
ATOM     19  C   UNL A   1      38.347  20.858  25.126  1.00  0.00     0.156 C 
ATOM     20  S   UNL A   1      36.539  22.248  24.644  1.00  0.00     0.155 S 
ATOM     21  O   UNL A   1      43.311  21.711  26.405  1.00  0.00    -0.247 OA
ATOM     22  O   UNL A   1      36.531  22.518  23.211  1.00  0.00    -0.229 OA
ATOM     23  O   UNL A   1      35.290  21.723  25.144  1.00  0.00    -0.229 OA
BRANCH  11  24
ATOM     24  C   UNL A   1      40.026  25.603  27.727  1.00  0.00     0.128 A 
ATOM     25  C   UNL A   1      40.100  28.004  29.227  1.00  0.00     0.018 A 
ATOM     26  C   UNL A   1      40.811  27.895  28.025  1.00  0.00     0.016 A 
ATOM     27  C   UNL A   1      39.301  26.944  29.637  1.00  0.00     0.016 A 
ATOM     28  C   UNL A   1      40.786  26.696  27.290  1.00  0.00     0.052 A 
ATOM     29  C   UNL A   1      39.241  25.783  28.871  1.00  0.00     0.052 A 
BRANCH  25  30
ATOM     30  C   UNL A   1      40.202  29.240  30.051  1.00  0.00     0.159 C 
ATOM     31  C   UNL A   1      40.812  30.474  29.425  1.00  0.00     0.093 C 
ATOM     32  O   UNL A   1      39.755  29.250  31.194  1.00  0.00    -0.295 OA
ENDBRANCH  25  30
ENDBRANCH  11  24
ENDBRANCH   9  10
ENDBRANCH   8   9
ENDBRANCH   5   8
ENDBRANCH   3   4
ENDBRANCH   2   3
ENDBRANCH   1   2
BRANCH   1  33
ATOM     33  C   UNL A   1      46.174  25.267  33.156  1.00  0.00     0.002 C 
BRANCH  33  34
ATOM     34  C   UNL A   1      45.399  23.868  33.744  1.00  0.00     0.021 C 
BRANCH  34  35
ATOM     35  C   UNL A   1      43.427  23.213  34.328  1.00  0.00     0.116 C 
BRANCH  35  36
ATOM     36  N   UNL A   1      42.482  23.634  35.539  1.00  0.00    -0.352 N 
ATOM     37  C   UNL A   1      41.981  24.850  35.968  1.00  0.00     0.251 C 
ATOM     38  H   UNL A   1      42.196  22.873  36.095  1.00  0.00     0.163 HD
ATOM     39  O   UNL A   1      41.351  24.900  37.019  1.00  0.00    -0.269 OA
BRANCH  37  40
ATOM     40  C   UNL A   1      42.205  26.047  35.159  1.00  0.00     0.039 A 
ATOM     41  C   UNL A   1      41.144  26.607  34.439  1.00  0.00     0.014 A 
ATOM     42  C   UNL A   1      43.432  26.694  35.289  1.00  0.00     0.014 A 
ATOM     43  C   UNL A   1      41.280  27.901  33.943  1.00  0.00     0.010 A 
ATOM     44  C   UNL A   1      43.531  28.006  34.873  1.00  0.00     0.010 A 
ATOM     45  C   UNL A   1      42.464  28.610  34.186  1.00  0.00    -0.014 A 
BRANCH  45  46
ATOM     46  C   UNL A   1      42.699  29.942  33.596  1.00  0.00     0.031 A 
ATOM     47  C   UNL A   1      43.316  29.981  32.228  1.00  0.00     0.074 A 
ATOM     48  C   UNL A   1      42.457  31.065  34.295  1.00  0.00     0.049 A 
ATOM     49  N   UNL A   1      43.744  31.003  31.542  1.00  0.00    -0.248 NA
ATOM     50  C   UNL A   1      43.541  28.677  31.573  1.00  0.00     0.031 C 
ATOM     51  C   UNL A   1      41.916  31.129  35.655  1.00  0.00     0.029 A 
ATOM     52  N   UNL A   1      42.653  32.378  33.954  1.00  0.00    -0.354 N 
ATOM     53  C   UNL A   1      44.303  30.462  30.392  1.00  0.00     0.074 A 
ATOM     54  C   UNL A   1      44.264  29.026  30.523  1.00  0.00     0.031 C 
ATOM     55  C   UNL A   1      41.806  32.419  36.022  1.00  0.00     0.029 A 
ATOM     56  C   UNL A   1      42.284  33.269  34.935  1.00  0.00     0.049 A 
ATOM     57  H   UNL A   1      43.022  32.658  33.085  1.00  0.00     0.167 HD
ATOM     58  C   UNL A   1      44.754  31.105  29.294  1.00  0.00     0.037 A 
ATOM     59  C   UNL A   1      42.326  34.616  34.933  1.00  0.00     0.037 A 
ATOM     60  C   UNL A   1      44.730  32.534  29.161  1.00  0.00     0.049 A 
ATOM     61  C   UNL A   1      42.823  35.318  33.691  1.00  0.00     0.074 A 
ATOM     62  C   UNL A   1      45.097  33.302  28.075  1.00  0.00     0.029 A 
ATOM     63  N   UNL A   1      44.303  33.405  30.152  1.00  0.00    -0.354 N 
ATOM     64  N   UNL A   1      43.272  34.798  32.571  1.00  0.00    -0.248 NA
ATOM     65  C   UNL A   1      42.805  36.786  33.705  1.00  0.00     0.031 C 
ATOM     66  C   UNL A   1      44.936  34.645  28.426  1.00  0.00     0.029 A 
ATOM     67  C   UNL A   1      44.414  34.710  29.710  1.00  0.00     0.049 A 
ATOM     68  H   UNL A   1      43.970  33.135  31.039  1.00  0.00     0.167 HD
ATOM     69  C   UNL A   1      43.552  35.874  31.735  1.00  0.00     0.074 A 
ATOM     70  C   UNL A   1      43.212  37.072  32.475  1.00  0.00     0.031 C 
ATOM     71  C   UNL A   1      44.044  35.878  30.470  1.00  0.00     0.037 A 
BRANCH  58  72
ATOM     72  C   UNL A   1      45.273  30.262  28.165  1.00  0.00     0.058 A 
ATOM     73  C   UNL A   1      44.428  29.802  27.141  1.00  0.00     0.135 A 
ATOM     74  C   UNL A   1      46.627  29.899  28.110  1.00  0.00     0.135 A 
ATOM     75  F   UNL A   1      43.117  30.094  27.160  1.00  0.00    -0.206 F 
ATOM     76  C   UNL A   1      44.899  28.980  26.124  1.00  0.00     0.059 A 
ATOM     77  C   UNL A   1      47.128  29.109  27.080  1.00  0.00     0.059 A 
ATOM     78  F   UNL A   1      47.476  30.302  29.068  1.00  0.00    -0.206 F 
ATOM     79  C   UNL A   1      46.251  28.643  26.100  1.00  0.00     0.060 A 
BRANCH  79  80
ATOM     80  S   UNL A   1      46.847  27.590  24.763  1.00  0.00     0.124 S 
ATOM     81  O   UNL A   1      48.178  27.232  25.244  1.00  0.00    -0.237 OA
ATOM     82  O   UNL A   1      45.865  26.511  24.756  1.00  0.00    -0.237 OA
ATOM     83  O   UNL A   1      46.817  28.469  23.598  1.00  0.00    -0.744 OA
ENDBRANCH  79  80
ENDBRANCH  58  72
BRANCH  59  84
ATOM     84  C   UNL A   1      41.845  35.392  36.110  1.00  0.00     0.058 A 
ATOM     85  C   UNL A   1      42.737  35.813  37.110  1.00  0.00     0.135 A 
ATOM     86  C   UNL A   1      40.489  35.713  36.276  1.00  0.00     0.135 A 
ATOM     87  F   UNL A   1      44.044  35.527  37.005  1.00  0.00    -0.206 F 
ATOM     88  C   UNL A   1      42.301  36.494  38.243  1.00  0.00     0.059 A 
ATOM     89  C   UNL A   1      40.031  36.418  37.387  1.00  0.00     0.059 A 
ATOM     90  F   UNL A   1      39.593  35.350  35.345  1.00  0.00    -0.206 F 
ATOM     91  C   UNL A   1      40.944  36.791  38.373  1.00  0.00     0.060 A 
BRANCH  91  92
ATOM     92  S   UNL A   1      40.393  37.693  39.840  1.00  0.00     0.124 S 
ATOM     93  O   UNL A   1      41.400  38.744  39.933  1.00  0.00    -0.237 OA
ATOM     94  O   UNL A   1      39.055  38.124  39.450  1.00  0.00    -0.237 OA
ATOM     95  O   UNL A   1      40.438  36.682  40.892  1.00  0.00    -0.744 OA
ENDBRANCH  91  92
ENDBRANCH  59  84
BRANCH  71  96
ATOM     96  C   UNL A   1      44.200  37.208  29.788  1.00  0.00     0.058 A 
ATOM     97  C   UNL A   1      45.369  37.973  29.916  1.00  0.00     0.135 A 
ATOM     98  C   UNL A   1      43.197  37.679  28.922  1.00  0.00     0.135 A 
ATOM     99  F   UNL A   1      46.356  37.567  30.731  1.00  0.00    -0.206 F 
ATOM    100  C   UNL A   1      45.529  39.170  29.230  1.00  0.00     0.059 A 
ATOM    101  C   UNL A   1      43.351  38.855  28.199  1.00  0.00     0.059 A 
ATOM    102  F   UNL A   1      42.066  36.976  28.751  1.00  0.00    -0.206 F 
ATOM    103  C   UNL A   1      44.518  39.600  28.368  1.00  0.00     0.060 A 
BRANCH 103 104
ATOM    104  S   UNL A   1      44.762  41.132  27.448  1.00  0.00     0.124 S 
ATOM    105  O   UNL A   1      43.493  41.255  26.739  1.00  0.00    -0.237 OA
ATOM    106  O   UNL A   1      44.989  42.103  28.515  1.00  0.00    -0.237 OA
ATOM    107  O   UNL A   1      45.924  40.846  26.611  1.00  0.00    -0.744 OA
ENDBRANCH 103 104
ENDBRANCH  71  96
ENDBRANCH  45  46
ENDBRANCH  37  40
ENDBRANCH  35  36
ENDBRANCH  34  35
ENDBRANCH  33  34
ENDBRANCH   1  33
TORSDOF 20
ENDMDL
MODEL 2
REMARK VINA RESULT:      -9.2      2.937      5.176
REMARK SMILES CC(=O)c1ccc(N2/C(=[NH+]/C(=O)CCC(=O)NCCCCCCNC(=O)c3ccc(-c4c5nc(c(-c6c(F)cc(S(=O)(=O)[O-])cc6F)c6ccc([nH]6)c(-c6c(F)cc(S(=O)(=O)[O-])cc6F)c6nc(c(-c7c(F)cc(S(=O)(=O)[O-])cc7F)c7ccc4[nH]7)C=C6)C=C5)cc3)S[C@H]3CS(=O)(=O)C[C@@H]32)cc1
REMARK SMILES IDX 20 1 19 2 18 3 17 4 15 5 16 6 14 8 13 9 11 10 8 11 9 12
REMARK SMILES IDX 100 13 10 14 93 15 94 16 99 17 95 19 96 20 12 21 97 22 98 23
REMARK SMILES IDX 7 24 4 25 5 26 102 27 6 28 101 29 2 30 1 31 3 32 21 33 22 34
REMARK SMILES IDX 23 35 24 36 25 37 26 39 27 40 28 41 92 42 29 43 91 44 30 45
REMARK SMILES IDX 31 46 32 47 85 48 33 49 90 50 84 51 86 52 34 53 89 54 83 55
REMARK SMILES IDX 82 56 35 58 69 59 48 60 68 61 49 62 52 63 67 64 87 65 50 66
REMARK SMILES IDX 51 67 66 69 88 70 53 71 36 72 37 73 46 74 38 75 39 76 45 77
REMARK SMILES IDX 47 78 40 79 41 80 42 81 43 82 44 83 70 84 71 85 80 86 72 87
REMARK SMILES IDX 73 88 79 89 81 90 74 91 75 92 76 93 77 94 78 95 54 96 55 97
REMARK SMILES IDX 64 98 56 99 57 100 63 101 65 102 58 103 59 104 60 105 61 106
REMARK SMILES IDX 62 107
REMARK H PARENT 17 7 10 18 24 38 86 57 52 68
REMARK Flexibility Score: inf
ROOT
ATOM      1  C   UNL A   1      43.769  24.677  30.214  1.00  0.00     0.002 C 
ENDROOT
BRANCH   1   2
ATOM      2  C   UNL A   1      43.439  23.425  29.430  1.00  0.00     0.021 C 
BRANCH   2   3
ATOM      3  C   UNL A   1      42.116  23.642  28.677  1.00  0.00     0.116 C 
BRANCH   3   4
ATOM      4  N   UNL A   1      42.123  24.814  27.806  1.00  0.00    -0.356 N 
ATOM      5  C   UNL A   1      41.234  25.840  27.700  1.00  0.00     0.220 C 
ATOM      6  O   UNL A   1      41.405  26.678  26.814  1.00  0.00    -0.275 OA
ATOM      7  H   UNL A   1      42.895  24.874  27.199  1.00  0.00     0.163 HD
BRANCH   5   8
ATOM      8  C   UNL A   1      40.103  25.951  28.691  1.00  0.00     0.112 C 
BRANCH   8   9
ATOM      9  C   UNL A   1      39.328  27.258  28.516  1.00  0.00     0.138 C 
BRANCH   9  10
ATOM     10  C   UNL A   1      39.750  28.281  29.552  1.00  0.00     0.308 C 
ATOM     11  N   UNL A   1      38.021  31.016  31.228  1.00  0.00    -0.217 N 
ATOM     12  C   UNL A   1      39.075  30.271  30.604  1.00  0.00     0.319 C 
ATOM     13  C   UNL A   1      38.374  31.497  32.578  1.00  0.00     0.212 C 
ATOM     14  N   UNL A   1      38.883  29.348  29.705  1.00  0.00    -0.204 N 
ATOM     15  S   UNL A   1      40.704  30.522  31.477  1.00  0.00    -0.029 SA
ATOM     16  C   UNL A   1      39.838  30.255  33.034  1.00  0.00     0.120 C 
ATOM     17  C   UNL A   1      37.272  31.977  34.206  1.00  0.00     0.188 C 
ATOM     18  H   UNL A   1      38.097  29.412  29.116  1.00  0.00     0.316 HD
ATOM     19  C   UNL A   1      40.207  30.178  34.979  1.00  0.00     0.156 C 
ATOM     20  S   UNL A   1      38.455  31.228  36.102  1.00  0.00     0.155 S 
ATOM     21  O   UNL A   1      40.682  27.977  30.295  1.00  0.00    -0.247 OA
ATOM     22  O   UNL A   1      37.715  30.219  36.852  1.00  0.00    -0.229 OA
ATOM     23  O   UNL A   1      38.903  32.339  36.908  1.00  0.00    -0.229 OA
BRANCH  11  24
ATOM     24  C   UNL A   1      36.987  31.711  30.577  1.00  0.00     0.128 A 
ATOM     25  C   UNL A   1      34.998  33.522  29.691  1.00  0.00     0.018 A 
ATOM     26  C   UNL A   1      36.227  33.436  29.026  1.00  0.00     0.016 A 
ATOM     27  C   UNL A   1      34.740  32.656  30.748  1.00  0.00     0.016 A 
ATOM     28  C   UNL A   1      37.220  32.548  29.477  1.00  0.00     0.052 A 
ATOM     29  C   UNL A   1      35.711  31.743  31.149  1.00  0.00     0.052 A 
BRANCH  25  30
ATOM     30  C   UNL A   1      33.983  34.527  29.270  1.00  0.00     0.159 C 
ATOM     31  C   UNL A   1      33.318  35.368  30.337  1.00  0.00     0.093 C 
ATOM     32  O   UNL A   1      33.738  34.686  28.078  1.00  0.00    -0.295 OA
ENDBRANCH  25  30
ENDBRANCH  11  24
ENDBRANCH   9  10
ENDBRANCH   8   9
ENDBRANCH   5   8
ENDBRANCH   3   4
ENDBRANCH   2   3
ENDBRANCH   1   2
BRANCH   1  33
ATOM     33  C   UNL A   1      44.540  24.614  31.520  1.00  0.00     0.002 C 
BRANCH  33  34
ATOM     34  C   UNL A   1      44.646  23.360  32.669  1.00  0.00     0.021 C 
BRANCH  34  35
ATOM     35  C   UNL A   1      43.806  22.820  34.582  1.00  0.00     0.116 C 
BRANCH  35  36
ATOM     36  N   UNL A   1      44.020  23.415  36.044  1.00  0.00    -0.352 N 
ATOM     37  C   UNL A   1      44.250  24.693  36.519  1.00  0.00     0.251 C 
ATOM     38  H   UNL A   1      43.981  22.734  36.754  1.00  0.00     0.163 HD
ATOM     39  O   UNL A   1      44.492  24.855  37.711  1.00  0.00    -0.269 OA
BRANCH  37  40
ATOM     40  C   UNL A   1      44.191  25.826  35.597  1.00  0.00     0.039 A 
ATOM     41  C   UNL A   1      42.963  26.215  35.052  1.00  0.00     0.014 A 
ATOM     42  C   UNL A   1      45.343  26.596  35.445  1.00  0.00     0.014 A 
ATOM     43  C   UNL A   1      42.864  27.465  34.445  1.00  0.00     0.010 A 
ATOM     44  C   UNL A   1      45.221  27.867  34.923  1.00  0.00     0.010 A 
ATOM     45  C   UNL A   1      43.988  28.302  34.407  1.00  0.00    -0.014 A 
BRANCH  45  46
ATOM     46  C   UNL A   1      43.966  29.590  33.688  1.00  0.00     0.031 A 
ATOM     47  C   UNL A   1      44.382  29.571  32.246  1.00  0.00     0.074 A 
ATOM     48  C   UNL A   1      43.676  30.738  34.325  1.00  0.00     0.049 A 
ATOM     49  N   UNL A   1      44.576  30.566  31.426  1.00  0.00    -0.248 NA
ATOM     50  C   UNL A   1      44.684  28.246  31.668  1.00  0.00     0.031 C 
ATOM     51  C   UNL A   1      43.320  30.867  35.740  1.00  0.00     0.029 A 
ATOM     52  N   UNL A   1      43.651  32.027  33.858  1.00  0.00    -0.354 N 
ATOM     53  C   UNL A   1      45.040  29.987  30.253  1.00  0.00     0.074 A 
ATOM     54  C   UNL A   1      45.207  28.576  30.500  1.00  0.00     0.031 C 
ATOM     55  C   UNL A   1      43.093  32.164  36.018  1.00  0.00     0.029 A 
ATOM     56  C   UNL A   1      43.305  32.957  34.810  1.00  0.00     0.049 A 
ATOM     57  H   UNL A   1      43.860  32.264  32.926  1.00  0.00     0.167 HD
ATOM     58  C   UNL A   1      45.251  30.572  29.055  1.00  0.00     0.037 A 
ATOM     59  C   UNL A   1      43.170  34.293  34.697  1.00  0.00     0.037 A 
ATOM     60  C   UNL A   1      45.024  31.968  28.816  1.00  0.00     0.049 A 
ATOM     61  C   UNL A   1      43.399  34.927  33.346  1.00  0.00     0.074 A 
ATOM     62  C   UNL A   1      45.137  32.668  27.631  1.00  0.00     0.029 A 
ATOM     63  N   UNL A   1      44.624  32.874  29.788  1.00  0.00    -0.354 N 
ATOM     64  N   UNL A   1      43.757  34.360  32.216  1.00  0.00    -0.248 NA
ATOM     65  C   UNL A   1      43.192  36.377  33.247  1.00  0.00     0.031 C 
ATOM     66  C   UNL A   1      44.851  34.009  27.897  1.00  0.00     0.029 A 
ATOM     67  C   UNL A   1      44.503  34.134  29.234  1.00  0.00     0.049 A 
ATOM     68  H   UNL A   1      44.453  32.652  30.732  1.00  0.00     0.167 HD
ATOM     69  C   UNL A   1      43.778  35.376  31.266  1.00  0.00     0.074 A 
ATOM     70  C   UNL A   1      43.388  36.591  31.953  1.00  0.00     0.031 C 
ATOM     71  C   UNL A   1      44.090  35.317  29.947  1.00  0.00     0.037 A 
BRANCH  58  72
ATOM     72  C   UNL A   1      45.718  29.692  27.931  1.00  0.00     0.058 A 
ATOM     73  C   UNL A   1      47.084  29.532  27.640  1.00  0.00     0.135 A 
ATOM     74  C   UNL A   1      44.793  29.009  27.128  1.00  0.00     0.135 A 
ATOM     75  F   UNL A   1      48.012  30.186  28.358  1.00  0.00    -0.206 F 
ATOM     76  C   UNL A   1      47.513  28.758  26.569  1.00  0.00     0.059 A 
ATOM     77  C   UNL A   1      45.202  28.198  26.074  1.00  0.00     0.059 A 
ATOM     78  F   UNL A   1      43.476  29.135  27.355  1.00  0.00    -0.206 F 
ATOM     79  C   UNL A   1      46.565  28.091  25.794  1.00  0.00     0.060 A 
BRANCH  79  80
ATOM     80  S   UNL A   1      47.142  27.077  24.420  1.00  0.00     0.124 S 
ATOM     81  O   UNL A   1      46.792  27.911  23.274  1.00  0.00    -0.237 OA
ATOM     82  O   UNL A   1      48.568  26.955  24.702  1.00  0.00    -0.237 OA
ATOM     83  O   UNL A   1      46.370  25.846  24.558  1.00  0.00    -0.744 OA
ENDBRANCH  79  80
ENDBRANCH  58  72
BRANCH  59  84
ATOM     84  C   UNL A   1      42.756  35.115  35.868  1.00  0.00     0.058 A 
ATOM     85  C   UNL A   1      43.702  35.570  36.802  1.00  0.00     0.135 A 
ATOM     86  C   UNL A   1      41.412  35.450  36.094  1.00  0.00     0.135 A 
ATOM     87  F   UNL A   1      45.001  35.274  36.637  1.00  0.00    -0.206 F 
ATOM     88  C   UNL A   1      43.329  36.296  37.930  1.00  0.00     0.059 A 
ATOM     89  C   UNL A   1      41.017  36.199  37.200  1.00  0.00     0.059 A 
ATOM     90  F   UNL A   1      40.466  35.056  35.227  1.00  0.00    -0.206 F 
ATOM     91  C   UNL A   1      41.982  36.604  38.121  1.00  0.00     0.060 A 
BRANCH  91  92
ATOM     92  S   UNL A   1      41.514  37.564  39.579  1.00  0.00     0.124 S 
ATOM     93  O   UNL A   1      41.783  36.615  40.654  1.00  0.00    -0.237 OA
ATOM     94  O   UNL A   1      42.416  38.707  39.496  1.00  0.00    -0.237 OA
ATOM     95  O   UNL A   1      40.105  37.866  39.345  1.00  0.00    -0.744 OA
ENDBRANCH  91  92
ENDBRANCH  59  84
BRANCH  71  96
ATOM     96  C   UNL A   1      43.978  36.586  29.147  1.00  0.00     0.058 A 
ATOM     97  C   UNL A   1      42.781  36.962  28.521  1.00  0.00     0.135 A 
ATOM     98  C   UNL A   1      45.063  37.477  29.085  1.00  0.00     0.135 A 
ATOM     99  F   UNL A   1      41.716  36.145  28.551  1.00  0.00    -0.206 F 
ATOM    100  C   UNL A   1      42.670  38.167  27.839  1.00  0.00     0.059 A 
ATOM    101  C   UNL A   1      44.962  38.703  28.438  1.00  0.00     0.059 A 
ATOM    102  F   UNL A   1      46.226  37.172  29.682  1.00  0.00    -0.206 F 
ATOM    103  C   UNL A   1      43.764  39.035  27.809  1.00  0.00     0.060 A 
BRANCH 103 104
ATOM    104  S   UNL A   1      43.587  40.617  26.960  1.00  0.00     0.124 S 
ATOM    105  O   UNL A   1      44.215  41.531  27.908  1.00  0.00    -0.237 OA
ATOM    106  O   UNL A   1      44.322  40.387  25.719  1.00  0.00    -0.237 OA
ATOM    107  O   UNL A   1      42.143  40.763  26.808  1.00  0.00    -0.744 OA
ENDBRANCH 103 104
ENDBRANCH  71  96
ENDBRANCH  45  46
ENDBRANCH  37  40
ENDBRANCH  35  36
ENDBRANCH  34  35
ENDBRANCH  33  34
ENDBRANCH   1  33
TORSDOF 20
ENDMDL
MODEL 3
REMARK VINA RESULT:      -9.1      4.825     15.321
REMARK SMILES CC(=O)c1ccc(N2/C(=[NH+]/C(=O)CCC(=O)NCCCCCCNC(=O)c3ccc(-c4c5nc(c(-c6c(F)cc(S(=O)(=O)[O-])cc6F)c6ccc([nH]6)c(-c6c(F)cc(S(=O)(=O)[O-])cc6F)c6nc(c(-c7c(F)cc(S(=O)(=O)[O-])cc7F)c7ccc4[nH]7)C=C6)C=C5)cc3)S[C@H]3CS(=O)(=O)C[C@@H]32)cc1
REMARK SMILES IDX 20 1 19 2 18 3 17 4 15 5 16 6 14 8 13 9 11 10 8 11 9 12
REMARK SMILES IDX 100 13 10 14 93 15 94 16 99 17 95 19 96 20 12 21 97 22 98 23
REMARK SMILES IDX 7 24 4 25 5 26 102 27 6 28 101 29 2 30 1 31 3 32 21 33 22 34
REMARK SMILES IDX 23 35 24 36 25 37 26 39 27 40 28 41 92 42 29 43 91 44 30 45
REMARK SMILES IDX 31 46 32 47 85 48 33 49 90 50 84 51 86 52 34 53 89 54 83 55
REMARK SMILES IDX 82 56 35 58 69 59 48 60 68 61 49 62 52 63 67 64 87 65 50 66
REMARK SMILES IDX 51 67 66 69 88 70 53 71 36 72 37 73 46 74 38 75 39 76 45 77
REMARK SMILES IDX 47 78 40 79 41 80 42 81 43 82 44 83 70 84 71 85 80 86 72 87
REMARK SMILES IDX 73 88 79 89 81 90 74 91 75 92 76 93 77 94 78 95 54 96 55 97
REMARK SMILES IDX 64 98 56 99 57 100 63 101 65 102 58 103 59 104 60 105 61 106
REMARK SMILES IDX 62 107
REMARK H PARENT 17 7 10 18 24 38 86 57 52 68
REMARK Flexibility Score: inf
ROOT
ATOM      1  C   UNL A   1      47.452  39.825  34.652  1.00  0.00     0.002 C 
ENDROOT
BRANCH   1   2
ATOM      2  C   UNL A   1      46.716  40.946  33.952  1.00  0.00     0.021 C 
BRANCH   2   3
ATOM      3  C   UNL A   1      45.201  40.707  34.083  1.00  0.00     0.116 C 
BRANCH   3   4
ATOM      4  N   UNL A   1      44.463  41.877  34.550  1.00  0.00    -0.356 N 
ATOM      5  C   UNL A   1      43.355  42.483  34.040  1.00  0.00     0.220 C 
ATOM      6  O   UNL A   1      42.964  43.529  34.560  1.00  0.00    -0.275 OA
ATOM      7  H   UNL A   1      44.823  42.296  35.365  1.00  0.00     0.163 HD
BRANCH   5   8
ATOM      8  C   UNL A   1      42.612  41.837  32.897  1.00  0.00     0.112 C 
BRANCH   8   9
ATOM      9  C   UNL A   1      42.280  42.849  31.800  1.00  0.00     0.138 C 
BRANCH   9  10
ATOM     10  C   UNL A   1      43.439  43.001  30.834  1.00  0.00     0.308 C 
ATOM     11  N   UNL A   1      44.156  41.620  27.539  1.00  0.00    -0.217 N 
ATOM     12  C   UNL A   1      44.370  42.107  28.871  1.00  0.00     0.319 C 
ATOM     13  C   UNL A   1      44.987  42.307  26.532  1.00  0.00     0.212 C 
ATOM     14  N   UNL A   1      43.474  42.065  29.815  1.00  0.00    -0.204 N 
ATOM     15  S   UNL A   1      45.932  43.118  28.988  1.00  0.00    -0.029 SA
ATOM     16  C   UNL A   1      45.415  43.977  27.492  1.00  0.00     0.120 C 
ATOM     17  C   UNL A   1      44.768  42.627  24.546  1.00  0.00     0.188 C 
ATOM     18  H   UNL A   1      42.802  41.346  29.804  1.00  0.00     0.316 HD
ATOM     19  C   UNL A   1      46.028  45.425  26.287  1.00  0.00     0.156 C 
ATOM     20  S   UNL A   1      45.572  44.795  24.089  1.00  0.00     0.155 S 
ATOM     21  O   UNL A   1      44.103  44.034  30.909  1.00  0.00    -0.247 OA
ATOM     22  O   UNL A   1      44.530  45.670  23.564  1.00  0.00    -0.229 OA
ATOM     23  O   UNL A   1      46.760  44.749  23.271  1.00  0.00    -0.229 OA
BRANCH  11  24
ATOM     24  C   UNL A   1      43.676  40.348  27.179  1.00  0.00     0.128 A 
ATOM     25  C   UNL A   1      42.804  37.658  27.029  1.00  0.00     0.018 A 
ATOM     26  C   UNL A   1      41.874  38.705  27.064  1.00  0.00     0.016 A 
ATOM     27  C   UNL A   1      44.160  37.960  26.997  1.00  0.00     0.016 A 
ATOM     28  C   UNL A   1      42.309  40.040  27.154  1.00  0.00     0.052 A 
ATOM     29  C   UNL A   1      44.576  39.288  27.031  1.00  0.00     0.052 A 
BRANCH  25  30
ATOM     30  C   UNL A   1      42.342  36.242  27.027  1.00  0.00     0.159 C 
ATOM     31  C   UNL A   1      43.004  35.271  26.075  1.00  0.00     0.093 C 
ATOM     32  O   UNL A   1      41.475  35.881  27.818  1.00  0.00    -0.295 OA
ENDBRANCH  25  30
ENDBRANCH  11  24
ENDBRANCH   9  10
ENDBRANCH   8   9
ENDBRANCH   5   8
ENDBRANCH   3   4
ENDBRANCH   2   3
ENDBRANCH   1   2
BRANCH   1  33
ATOM     33  C   UNL A   1      47.659  38.476  33.987  1.00  0.00     0.002 C 
BRANCH  33  34
ATOM     34  C   UNL A   1      46.600  37.563  33.013  1.00  0.00     0.021 C 
BRANCH  34  35
ATOM     35  C   UNL A   1      46.354  37.007  30.942  1.00  0.00     0.116 C 
BRANCH  35  36
ATOM     36  N   UNL A   1      46.995  37.582  29.603  1.00  0.00    -0.352 N 
ATOM     37  C   UNL A   1      47.497  36.983  28.463  1.00  0.00     0.251 C 
ATOM     38  H   UNL A   1      47.044  38.566  29.583  1.00  0.00     0.163 HD
ATOM     39  O   UNL A   1      48.044  37.677  27.612  1.00  0.00    -0.269 OA
BRANCH  37  40
ATOM     40  C   UNL A   1      47.361  35.538  28.289  1.00  0.00     0.039 A 
ATOM     41  C   UNL A   1      47.650  34.679  29.355  1.00  0.00     0.014 A 
ATOM     42  C   UNL A   1      46.762  35.082  27.116  1.00  0.00     0.014 A 
ATOM     43  C   UNL A   1      47.216  33.357  29.288  1.00  0.00     0.010 A 
ATOM     44  C   UNL A   1      46.258  33.798  27.090  1.00  0.00     0.010 A 
ATOM     45  C   UNL A   1      46.495  32.926  28.167  1.00  0.00    -0.014 A 
BRANCH  45  46
ATOM     46  C   UNL A   1      46.103  31.514  27.999  1.00  0.00     0.031 A 
ATOM     47  C   UNL A   1      44.701  31.146  28.391  1.00  0.00     0.074 A 
ATOM     48  C   UNL A   1      46.992  30.587  27.600  1.00  0.00     0.049 A 
ATOM     49  N   UNL A   1      44.144  29.969  28.467  1.00  0.00    -0.248 NA
ATOM     50  C   UNL A   1      43.828  32.255  28.822  1.00  0.00     0.031 C 
ATOM     51  C   UNL A   1      48.393  30.836  27.255  1.00  0.00     0.029 A 
ATOM     52  N   UNL A   1      46.844  29.234  27.432  1.00  0.00    -0.354 N 
ATOM     53  C   UNL A   1      42.871  30.201  28.971  1.00  0.00     0.074 A 
ATOM     54  C   UNL A   1      42.777  31.605  29.288  1.00  0.00     0.031 C 
ATOM     55  C   UNL A   1      48.970  29.674  26.897  1.00  0.00     0.029 A 
ATOM     56  C   UNL A   1      47.987  28.598  27.006  1.00  0.00     0.049 A 
ATOM     57  H   UNL A   1      45.997  28.761  27.601  1.00  0.00     0.167 HD
ATOM     58  C   UNL A   1      41.848  29.329  29.100  1.00  0.00     0.037 A 
ATOM     59  C   UNL A   1      48.194  27.295  26.730  1.00  0.00     0.037 A 
ATOM     60  C   UNL A   1      41.946  27.948  28.724  1.00  0.00     0.049 A 
ATOM     61  C   UNL A   1      47.034  26.338  26.870  1.00  0.00     0.074 A 
ATOM     62  C   UNL A   1      40.963  26.980  28.745  1.00  0.00     0.029 A 
ATOM     63  N   UNL A   1      43.102  27.347  28.247  1.00  0.00    -0.354 N 
ATOM     64  N   UNL A   1      45.805  26.580  27.267  1.00  0.00    -0.248 NA
ATOM     65  C   UNL A   1      47.281  24.936  26.511  1.00  0.00     0.031 C 
ATOM     66  C   UNL A   1      41.537  25.777  28.324  1.00  0.00     0.029 A 
ATOM     67  C   UNL A   1      42.863  26.012  27.986  1.00  0.00     0.049 A 
ATOM     68  H   UNL A   1      43.965  27.803  28.115  1.00  0.00     0.167 HD
ATOM     69  C   UNL A   1      45.124  25.371  27.167  1.00  0.00     0.074 A 
ATOM     70  C   UNL A   1      46.076  24.402  26.663  1.00  0.00     0.031 C 
ATOM     71  C   UNL A   1      43.832  25.081  27.462  1.00  0.00     0.037 A 
BRANCH  58  72
ATOM     72  C   UNL A   1      40.552  29.863  29.639  1.00  0.00     0.058 A 
ATOM     73  C   UNL A   1      40.394  30.178  31.000  1.00  0.00     0.135 A 
ATOM     74  C   UNL A   1      39.451  30.052  28.791  1.00  0.00     0.135 A 
ATOM     75  F   UNL A   1      41.407  29.988  31.862  1.00  0.00    -0.206 F 
ATOM     76  C   UNL A   1      39.180  30.624  31.507  1.00  0.00     0.059 A 
ATOM     77  C   UNL A   1      38.237  30.534  29.271  1.00  0.00     0.059 A 
ATOM     78  F   UNL A   1      39.543  29.756  27.485  1.00  0.00    -0.206 F 
ATOM     79  C   UNL A   1      38.108  30.802  30.634  1.00  0.00     0.060 A 
BRANCH  79  80
ATOM     80  S   UNL A   1      36.545  31.399  31.307  1.00  0.00     0.124 S 
ATOM     81  O   UNL A   1      36.171  30.300  32.192  1.00  0.00    -0.237 OA
ATOM     82  O   UNL A   1      36.945  32.637  31.968  1.00  0.00    -0.237 OA
ATOM     83  O   UNL A   1      35.706  31.564  30.124  1.00  0.00    -0.744 OA
ENDBRANCH  79  80
ENDBRANCH  58  72
BRANCH  59  84
ATOM     84  C   UNL A   1      49.522  26.823  26.251  1.00  0.00     0.058 A 
ATOM     85  C   UNL A   1      50.472  26.308  27.148  1.00  0.00     0.135 A 
ATOM     86  C   UNL A   1      49.883  26.893  24.896  1.00  0.00     0.135 A 
ATOM     87  F   UNL A   1      50.181  26.224  28.455  1.00  0.00    -0.206 F 
ATOM     88  C   UNL A   1      51.738  25.909  26.727  1.00  0.00     0.059 A 
ATOM     89  C   UNL A   1      51.133  26.474  24.446  1.00  0.00     0.059 A 
ATOM     90  F   UNL A   1      49.010  27.362  23.991  1.00  0.00    -0.206 F 
ATOM     91  C   UNL A   1      52.060  25.998  25.373  1.00  0.00     0.060 A 
BRANCH  91  92
ATOM     92  S   UNL A   1      53.700  25.458  24.837  1.00  0.00     0.124 S 
ATOM     93  O   UNL A   1      53.873  26.222  23.607  1.00  0.00    -0.237 OA
ATOM     94  O   UNL A   1      54.537  25.861  25.961  1.00  0.00    -0.237 OA
ATOM     95  O   UNL A   1      53.540  24.017  24.667  1.00  0.00    -0.744 OA
ENDBRANCH  91  92
ENDBRANCH  59  84
BRANCH  71  96
ATOM     96  C   UNL A   1      43.356  23.679  27.205  1.00  0.00     0.058 A 
ATOM     97  C   UNL A   1      43.303  22.717  28.226  1.00  0.00     0.135 A 
ATOM     98  C   UNL A   1      42.864  23.322  25.938  1.00  0.00     0.135 A 
ATOM     99  F   UNL A   1      43.762  23.008  29.453  1.00  0.00    -0.206 F 
ATOM    100  C   UNL A   1      42.801  21.443  27.992  1.00  0.00     0.059 A 
ATOM    101  C   UNL A   1      42.325  22.065  25.692  1.00  0.00     0.059 A 
ATOM    102  F   UNL A   1      42.877  24.212  24.932  1.00  0.00    -0.206 F 
ATOM    103  C   UNL A   1      42.308  21.128  26.724  1.00  0.00     0.060 A 
BRANCH 103 104
ATOM    104  S   UNL A   1      41.615  19.485  26.451  1.00  0.00     0.124 S 
ATOM    105  O   UNL A   1      41.709  18.901  27.784  1.00  0.00    -0.237 OA
ATOM    106  O   UNL A   1      40.265  19.790  25.986  1.00  0.00    -0.237 OA
ATOM    107  O   UNL A   1      42.501  18.904  25.446  1.00  0.00    -0.744 OA
ENDBRANCH 103 104
ENDBRANCH  71  96
ENDBRANCH  45  46
ENDBRANCH  37  40
ENDBRANCH  35  36
ENDBRANCH  34  35
ENDBRANCH  33  34
ENDBRANCH   1  33
TORSDOF 20
ENDMDL
