MODEL 1
REMARK VINA RESULT:     -10.8      0.000      0.000
REMARK SMILES CN(Cc1ccc(Cl)cc1Cl)S(=O)(=O)CCCC(=O)NCCCCCCNC(=O)c1ccc(-c2c3nc(c(-c4c(F)cc(S(=O)(=O)[O-])cc4F)c4ccc([nH]4)c(-c4c(F)cc(S(=O)(=O)[O-])cc4F)c4nc(c(-c5c(F)cc(S(=O)(=O)[O-])cc5F)c5ccc2[nH]5)C=C4)C=C3)cc1
REMARK SMILES IDX 22 1 21 2 20 3 18 4 19 5 17 7 16 8 15 9 12 10 13 11 14 12
REMARK SMILES IDX 2 13 1 14 3 15 4 16 5 17 10 18 6 19 9 20 11 21 7 22 8 23
REMARK SMILES IDX 23 24 24 25 25 26 26 27 27 28 28 29 29 31 30 32 31 33 95 34
REMARK SMILES IDX 32 35 94 36 33 37 34 38 35 39 88 40 36 41 93 42 87 43 89 44
REMARK SMILES IDX 37 45 92 46 86 47 85 48 38 50 72 51 51 52 71 53 52 54 55 55
REMARK SMILES IDX 70 56 90 57 53 58 54 59 69 61 91 62 56 63 39 64 40 65 49 66
REMARK SMILES IDX 41 67 42 68 48 69 50 70 43 71 44 72 45 73 46 74 47 75 73 76
REMARK SMILES IDX 74 77 83 78 75 79 76 80 82 81 84 82 77 83 78 84 79 85 80 86
REMARK SMILES IDX 81 87 57 88 58 89 67 90 59 91 60 92 66 93 68 94 61 95 62 96
REMARK SMILES IDX 63 97 64 98 65 99
REMARK H PARENT 20 6 27 30 89 49 55 60
REMARK Flexibility Score: inf
ROOT
ATOM      1  C   UNL A   1      37.511  21.772  24.957  1.00  0.00     0.021 C 
ENDROOT
BRANCH   1   2
ATOM      2  C   UNL A   1      36.272  20.954  25.297  1.00  0.00     0.116 C 
BRANCH   2   3
ATOM      3  N   UNL A   1      35.560  21.426  26.457  1.00  0.00    -0.356 N 
ATOM      4  C   UNL A   1      34.224  21.573  26.672  1.00  0.00     0.220 C 
ATOM      5  O   UNL A   1      33.861  21.824  27.825  1.00  0.00    -0.275 OA
ATOM      6  H   UNL A   1      36.131  21.684  27.216  1.00  0.00     0.163 HD
BRANCH   4   7
ATOM      7  C   UNL A   1      33.194  21.402  25.561  1.00  0.00     0.101 C 
BRANCH   7   8
ATOM      8  C   UNL A   1      32.030  22.386  25.566  1.00  0.00     0.027 C 
BRANCH   8   9
ATOM      9  C   UNL A   1      32.326  23.866  25.340  1.00  0.00     0.155 C 
BRANCH   9  10
ATOM     10  S   UNL A   1      32.018  24.571  23.724  1.00  0.00     0.214 S 
ATOM     11  O   UNL A   1      30.818  23.919  23.234  1.00  0.00    -0.212 OA
ATOM     12  O   UNL A   1      33.247  24.421  22.975  1.00  0.00    -0.212 OA
BRANCH  10  13
ATOM     13  N   UNL A   1      31.696  26.215  23.771  1.00  0.00    -0.201 NA
ATOM     14  C   UNL A   1      31.209  26.741  22.463  1.00  0.00     0.124 C 
BRANCH  13  15
ATOM     15  C   UNL A   1      31.156  27.039  24.877  1.00  0.00     0.138 C 
BRANCH  15  16
ATOM     16  C   UNL A   1      31.995  28.054  25.629  1.00  0.00    -0.014 A 
ATOM     17  C   UNL A   1      33.099  27.679  26.404  1.00  0.00     0.008 A 
ATOM     18  C   UNL A   1      31.739  29.441  25.513  1.00  0.00     0.047 A 
ATOM     19  C   UNL A   1      33.856  28.623  27.111  1.00  0.00     0.021 A 
ATOM     20  C   UNL A   1      32.493  30.390  26.219  1.00  0.00     0.041 A 
ATOM     21  Cl  UNL A   1      30.515  30.067  24.458  1.00  0.00    -0.084 Cl
ATOM     22  C   UNL A   1      33.541  29.972  27.027  1.00  0.00     0.042 A 
ATOM     23  Cl  UNL A   1      34.493  31.126  27.872  1.00  0.00    -0.084 Cl
ENDBRANCH  15  16
ENDBRANCH  13  15
ENDBRANCH  10  13
ENDBRANCH   9  10
ENDBRANCH   8   9
ENDBRANCH   7   8
ENDBRANCH   4   7
ENDBRANCH   2   3
ENDBRANCH   1   2
BRANCH   1  24
ATOM     24  C   UNL A   1      37.439  23.209  25.476  1.00  0.00     0.002 C 
BRANCH  24  25
ATOM     25  C   UNL A   1      38.524  23.591  26.494  1.00  0.00     0.002 C 
BRANCH  25  26
ATOM     26  C   UNL A   1      39.600  22.533  26.735  1.00  0.00     0.021 C 
BRANCH  26  27
ATOM     27  C   UNL A   1      40.949  23.065  27.199  1.00  0.00     0.116 C 
BRANCH  27  28
ATOM     28  N   UNL A   1      41.625  23.792  26.139  1.00  0.00    -0.352 N 
ATOM     29  C   UNL A   1      41.824  25.140  25.972  1.00  0.00     0.251 C 
ATOM     30  H   UNL A   1      42.001  23.227  25.426  1.00  0.00     0.163 HD
ATOM     31  O   UNL A   1      42.172  25.556  24.869  1.00  0.00    -0.269 OA
BRANCH  29  32
ATOM     32  C   UNL A   1      41.626  26.091  27.092  1.00  0.00     0.039 A 
ATOM     33  C   UNL A   1      40.571  25.868  27.982  1.00  0.00     0.014 A 
ATOM     34  C   UNL A   1      42.423  27.230  27.239  1.00  0.00     0.014 A 
ATOM     35  C   UNL A   1      40.345  26.758  29.036  1.00  0.00     0.010 A 
ATOM     36  C   UNL A   1      42.254  28.066  28.341  1.00  0.00     0.010 A 
ATOM     37  C   UNL A   1      41.205  27.849  29.245  1.00  0.00    -0.014 A 
BRANCH  37  38
ATOM     38  C   UNL A   1      41.019  28.763  30.404  1.00  0.00     0.031 A 
ATOM     39  C   UNL A   1      41.873  28.621  31.637  1.00  0.00     0.074 A 
ATOM     40  C   UNL A   1      40.040  29.688  30.369  1.00  0.00     0.049 A 
ATOM     41  N   UNL A   1      41.822  29.291  32.760  1.00  0.00    -0.248 NA
ATOM     42  C   UNL A   1      42.902  27.570  31.615  1.00  0.00     0.031 C 
ATOM     43  C   UNL A   1      39.110  29.888  29.254  1.00  0.00     0.029 A 
ATOM     44  N   UNL A   1      39.654  30.624  31.295  1.00  0.00    -0.354 N 
ATOM     45  C   UNL A   1      42.803  28.742  33.578  1.00  0.00     0.074 A 
ATOM     46  C   UNL A   1      43.389  27.640  32.845  1.00  0.00     0.031 C 
ATOM     47  C   UNL A   1      38.275  30.895  29.554  1.00  0.00     0.029 A 
ATOM     48  C   UNL A   1      38.579  31.382  30.896  1.00  0.00     0.049 A 
ATOM     49  H   UNL A   1      40.104  30.741  32.162  1.00  0.00     0.167 HD
ATOM     50  C   UNL A   1      43.199  29.133  34.815  1.00  0.00     0.037 A 
ATOM     51  C   UNL A   1      37.901  32.351  31.542  1.00  0.00     0.037 A 
ATOM     52  C   UNL A   1      42.611  30.234  35.536  1.00  0.00     0.049 A 
ATOM     53  C   UNL A   1      38.341  32.762  32.919  1.00  0.00     0.074 A 
ATOM     54  C   UNL A   1      42.972  30.745  36.769  1.00  0.00     0.029 A 
ATOM     55  N   UNL A   1      41.531  30.986  35.093  1.00  0.00    -0.354 N 
ATOM     56  N   UNL A   1      39.320  32.280  33.648  1.00  0.00    -0.248 NA
ATOM     57  C   UNL A   1      37.591  33.850  33.561  1.00  0.00     0.031 C 
ATOM     58  C   UNL A   1      42.074  31.767  37.099  1.00  0.00     0.029 A 
ATOM     59  C   UNL A   1      41.190  31.935  36.044  1.00  0.00     0.049 A 
ATOM     60  H   UNL A   1      41.072  30.862  34.230  1.00  0.00     0.167 HD
ATOM     61  C   UNL A   1      39.312  33.013  34.830  1.00  0.00     0.074 A 
ATOM     62  C   UNL A   1      38.244  33.985  34.708  1.00  0.00     0.031 C 
ATOM     63  C   UNL A   1      40.114  32.889  35.917  1.00  0.00     0.037 A 
BRANCH  50  64
ATOM     64  C   UNL A   1      44.315  28.355  35.464  1.00  0.00     0.058 A 
ATOM     65  C   UNL A   1      45.660  28.741  35.333  1.00  0.00     0.135 A 
ATOM     66  C   UNL A   1      44.041  27.210  36.230  1.00  0.00     0.135 A 
ATOM     67  F   UNL A   1      45.985  29.823  34.606  1.00  0.00    -0.206 F 
ATOM     68  C   UNL A   1      46.693  27.993  35.888  1.00  0.00     0.059 A 
ATOM     69  C   UNL A   1      45.056  26.465  36.824  1.00  0.00     0.059 A 
ATOM     70  F   UNL A   1      42.775  26.796  36.397  1.00  0.00    -0.206 F 
ATOM     71  C   UNL A   1      46.381  26.851  36.627  1.00  0.00     0.060 A 
BRANCH  71  72
ATOM     72  S   UNL A   1      47.735  25.871  37.309  1.00  0.00     0.124 S 
ATOM     73  O   UNL A   1      48.068  25.010  36.178  1.00  0.00    -0.237 OA
ATOM     74  O   UNL A   1      48.723  26.891  37.640  1.00  0.00    -0.237 OA
ATOM     75  O   UNL A   1      47.125  25.197  38.451  1.00  0.00    -0.744 OA
ENDBRANCH  71  72
ENDBRANCH  50  64
BRANCH  51  76
ATOM     76  C   UNL A   1      36.736  32.993  30.875  1.00  0.00     0.058 A 
ATOM     77  C   UNL A   1      35.426  32.754  31.311  1.00  0.00     0.135 A 
ATOM     78  C   UNL A   1      36.920  33.909  29.826  1.00  0.00     0.135 A 
ATOM     79  F   UNL A   1      35.198  31.880  32.303  1.00  0.00    -0.206 F 
ATOM     80  C   UNL A   1      34.337  33.402  30.734  1.00  0.00     0.059 A 
ATOM     81  C   UNL A   1      35.851  34.589  29.252  1.00  0.00     0.059 A 
ATOM     82  F   UNL A   1      38.157  34.185  29.382  1.00  0.00    -0.206 F 
ATOM     83  C   UNL A   1      34.562  34.327  29.713  1.00  0.00     0.060 A 
BRANCH  83  84
ATOM     84  S   UNL A   1      33.151  35.228  29.034  1.00  0.00     0.124 S 
ATOM     85  O   UNL A   1      33.791  36.430  28.513  1.00  0.00    -0.237 OA
ATOM     86  O   UNL A   1      32.643  34.291  28.037  1.00  0.00    -0.237 OA
ATOM     87  O   UNL A   1      32.288  35.424  30.195  1.00  0.00    -0.744 OA
ENDBRANCH  83  84
ENDBRANCH  51  76
BRANCH  63  88
ATOM     88  C   UNL A   1      39.873  33.833  37.065  1.00  0.00     0.058 A 
ATOM     89  C   UNL A   1      40.491  35.092  37.125  1.00  0.00     0.135 A 
ATOM     90  C   UNL A   1      38.972  33.498  38.089  1.00  0.00     0.135 A 
ATOM     91  F   UNL A   1      41.367  35.461  36.178  1.00  0.00    -0.206 F 
ATOM     92  C   UNL A   1      40.242  35.976  38.171  1.00  0.00     0.059 A 
ATOM     93  C   UNL A   1      38.684  34.377  39.127  1.00  0.00     0.059 A 
ATOM     94  F   UNL A   1      38.345  32.310  38.076  1.00  0.00    -0.206 F 
ATOM     95  C   UNL A   1      39.333  35.611  39.166  1.00  0.00     0.060 A 
BRANCH  95  96
ATOM     96  S   UNL A   1      38.989  36.783  40.494  1.00  0.00     0.124 S 
ATOM     97  O   UNL A   1      38.404  37.900  39.758  1.00  0.00    -0.237 OA
ATOM     98  O   UNL A   1      38.067  36.033  41.342  1.00  0.00    -0.237 OA
ATOM     99  O   UNL A   1      40.303  37.035  41.076  1.00  0.00    -0.744 OA
ENDBRANCH  95  96
ENDBRANCH  63  88
ENDBRANCH  37  38
ENDBRANCH  29  32
ENDBRANCH  27  28
ENDBRANCH  26  27
ENDBRANCH  25  26
ENDBRANCH  24  25
ENDBRANCH   1  24
TORSDOF 22
ENDMDL
MODEL 2
REMARK VINA RESULT:     -10.3      2.363      3.683
REMARK SMILES CN(Cc1ccc(Cl)cc1Cl)S(=O)(=O)CCCC(=O)NCCCCCCNC(=O)c1ccc(-c2c3nc(c(-c4c(F)cc(S(=O)(=O)[O-])cc4F)c4ccc([nH]4)c(-c4c(F)cc(S(=O)(=O)[O-])cc4F)c4nc(c(-c5c(F)cc(S(=O)(=O)[O-])cc5F)c5ccc2[nH]5)C=C4)C=C3)cc1
REMARK SMILES IDX 22 1 21 2 20 3 18 4 19 5 17 7 16 8 15 9 12 10 13 11 14 12
REMARK SMILES IDX 2 13 1 14 3 15 4 16 5 17 10 18 6 19 9 20 11 21 7 22 8 23
REMARK SMILES IDX 23 24 24 25 25 26 26 27 27 28 28 29 29 31 30 32 31 33 95 34
REMARK SMILES IDX 32 35 94 36 33 37 34 38 35 39 88 40 36 41 93 42 87 43 89 44
REMARK SMILES IDX 37 45 92 46 86 47 85 48 38 50 72 51 51 52 71 53 52 54 55 55
REMARK SMILES IDX 70 56 90 57 53 58 54 59 69 61 91 62 56 63 39 64 40 65 49 66
REMARK SMILES IDX 41 67 42 68 48 69 50 70 43 71 44 72 45 73 46 74 47 75 73 76
REMARK SMILES IDX 74 77 83 78 75 79 76 80 82 81 84 82 77 83 78 84 79 85 80 86
REMARK SMILES IDX 81 87 57 88 58 89 67 90 59 91 60 92 66 93 68 94 61 95 62 96
REMARK SMILES IDX 63 97 64 98 65 99
REMARK H PARENT 20 6 27 30 89 49 55 60
REMARK Flexibility Score: inf
ROOT
ATOM      1  C   UNL A   1      40.937  21.019  27.359  1.00  0.00     0.021 C 
ENDROOT
BRANCH   1   2
ATOM      2  C   UNL A   1      40.367  21.744  26.147  1.00  0.00     0.116 C 
BRANCH   2   3
ATOM      3  N   UNL A   1      39.846  23.054  26.443  1.00  0.00    -0.356 N 
ATOM      4  C   UNL A   1      38.584  23.549  26.321  1.00  0.00     0.220 C 
ATOM      5  O   UNL A   1      38.360  24.656  26.819  1.00  0.00    -0.275 OA
ATOM      6  H   UNL A   1      40.509  23.695  26.789  1.00  0.00     0.163 HD
BRANCH   4   7
ATOM      7  C   UNL A   1      37.465  22.774  25.635  1.00  0.00     0.101 C 
BRANCH   7   8
ATOM      8  C   UNL A   1      36.057  23.330  25.810  1.00  0.00     0.027 C 
BRANCH   8   9
ATOM      9  C   UNL A   1      35.291  23.779  24.570  1.00  0.00     0.155 C 
BRANCH   9  10
ATOM     10  S   UNL A   1      33.789  24.730  24.779  1.00  0.00     0.214 S 
ATOM     11  O   UNL A   1      34.109  26.073  24.331  1.00  0.00    -0.212 OA
ATOM     12  O   UNL A   1      33.373  24.535  26.151  1.00  0.00    -0.212 OA
BRANCH  10  13
ATOM     13  N   UNL A   1      32.524  24.185  23.825  1.00  0.00    -0.201 NA
ATOM     14  C   UNL A   1      32.757  24.429  22.371  1.00  0.00     0.124 C 
BRANCH  13  15
ATOM     15  C   UNL A   1      31.648  23.003  24.002  1.00  0.00     0.138 C 
BRANCH  15  16
ATOM     16  C   UNL A   1      32.192  21.612  24.268  1.00  0.00    -0.014 A 
ATOM     17  C   UNL A   1      32.538  21.182  25.553  1.00  0.00     0.008 A 
ATOM     18  C   UNL A   1      32.299  20.660  23.226  1.00  0.00     0.047 A 
ATOM     19  C   UNL A   1      33.059  19.901  25.785  1.00  0.00     0.021 A 
ATOM     20  C   UNL A   1      32.820  19.378  23.452  1.00  0.00     0.041 A 
ATOM     21  Cl  UNL A   1      31.751  20.992  21.616  1.00  0.00    -0.084 Cl
ATOM     22  C   UNL A   1      33.211  19.011  24.732  1.00  0.00     0.042 A 
ATOM     23  Cl  UNL A   1      33.821  17.432  25.028  1.00  0.00    -0.084 Cl
ENDBRANCH  15  16
ENDBRANCH  13  15
ENDBRANCH  10  13
ENDBRANCH   9  10
ENDBRANCH   8   9
ENDBRANCH   7   8
ENDBRANCH   4   7
ENDBRANCH   2   3
ENDBRANCH   1   2
BRANCH   1  24
ATOM     24  C   UNL A   1      42.283  21.584  27.816  1.00  0.00     0.002 C 
BRANCH  24  25
ATOM     25  C   UNL A   1      43.233  22.004  26.686  1.00  0.00     0.002 C 
BRANCH  25  26
ATOM     26  C   UNL A   1      44.492  22.749  27.129  1.00  0.00     0.021 C 
BRANCH  26  27
ATOM     27  C   UNL A   1      44.457  24.260  26.949  1.00  0.00     0.116 C 
BRANCH  27  28
ATOM     28  N   UNL A   1      43.562  24.644  25.871  1.00  0.00    -0.352 N 
ATOM     29  C   UNL A   1      42.445  25.443  25.884  1.00  0.00     0.251 C 
ATOM     30  H   UNL A   1      43.793  24.272  24.990  1.00  0.00     0.163 HD
ATOM     31  O   UNL A   1      41.680  25.407  24.923  1.00  0.00    -0.269 OA
BRANCH  29  32
ATOM     32  C   UNL A   1      42.153  26.337  27.030  1.00  0.00     0.039 A 
ATOM     33  C   UNL A   1      41.250  25.903  28.006  1.00  0.00     0.014 A 
ATOM     34  C   UNL A   1      42.705  27.618  27.122  1.00  0.00     0.014 A 
ATOM     35  C   UNL A   1      40.938  26.732  29.087  1.00  0.00     0.010 A 
ATOM     36  C   UNL A   1      42.464  28.406  28.247  1.00  0.00     0.010 A 
ATOM     37  C   UNL A   1      41.567  27.979  29.236  1.00  0.00    -0.014 A 
BRANCH  37  38
ATOM     38  C   UNL A   1      41.298  28.840  30.419  1.00  0.00     0.031 A 
ATOM     39  C   UNL A   1      42.105  28.682  31.681  1.00  0.00     0.074 A 
ATOM     40  C   UNL A   1      40.286  29.728  30.376  1.00  0.00     0.049 A 
ATOM     41  N   UNL A   1      41.982  29.307  32.825  1.00  0.00    -0.248 NA
ATOM     42  C   UNL A   1      43.175  27.673  31.663  1.00  0.00     0.031 C 
ATOM     43  C   UNL A   1      39.395  29.936  29.231  1.00  0.00     0.029 A 
ATOM     44  N   UNL A   1      39.825  30.612  31.319  1.00  0.00    -0.354 N 
ATOM     45  C   UNL A   1      42.950  28.763  33.663  1.00  0.00     0.074 A 
ATOM     46  C   UNL A   1      43.608  27.713  32.915  1.00  0.00     0.031 C 
ATOM     47  C   UNL A   1      38.510  30.898  29.532  1.00  0.00     0.029 A 
ATOM     48  C   UNL A   1      38.739  31.344  30.903  1.00  0.00     0.049 A 
ATOM     49  H   UNL A   1      40.235  30.712  32.208  1.00  0.00     0.167 HD
ATOM     50  C   UNL A   1      43.278  29.121  34.929  1.00  0.00     0.037 A 
ATOM     51  C   UNL A   1      37.997  32.261  31.555  1.00  0.00     0.037 A 
ATOM     52  C   UNL A   1      42.618  30.170  35.664  1.00  0.00     0.049 A 
ATOM     53  C   UNL A   1      38.364  32.635  32.964  1.00  0.00     0.074 A 
ATOM     54  C   UNL A   1      42.908  30.646  36.930  1.00  0.00     0.029 A 
ATOM     55  N   UNL A   1      41.529  30.897  35.204  1.00  0.00    -0.354 N 
ATOM     56  N   UNL A   1      39.330  32.163  33.716  1.00  0.00    -0.248 NA
ATOM     57  C   UNL A   1      37.546  33.668  33.613  1.00  0.00     0.031 C 
ATOM     58  C   UNL A   1      41.958  31.620  37.259  1.00  0.00     0.029 A 
ATOM     59  C   UNL A   1      41.112  31.796  36.174  1.00  0.00     0.049 A 
ATOM     60  H   UNL A   1      41.111  30.790  34.319  1.00  0.00     0.167 HD
ATOM     61  C   UNL A   1      39.244  32.848  34.922  1.00  0.00     0.074 A 
ATOM     62  C   UNL A   1      38.145  33.783  34.791  1.00  0.00     0.031 C 
ATOM     63  C   UNL A   1      40.006  32.713  36.038  1.00  0.00     0.037 A 
BRANCH  50  64
ATOM     64  C   UNL A   1      44.396  28.361  35.596  1.00  0.00     0.058 A 
ATOM     65  C   UNL A   1      44.153  27.214  36.370  1.00  0.00     0.135 A 
ATOM     66  C   UNL A   1      45.730  28.779  35.459  1.00  0.00     0.135 A 
ATOM     67  F   UNL A   1      42.897  26.769  36.545  1.00  0.00    -0.206 F 
ATOM     68  C   UNL A   1      45.180  26.544  37.028  1.00  0.00     0.059 A 
ATOM     69  C   UNL A   1      46.778  28.105  36.079  1.00  0.00     0.059 A 
ATOM     70  F   UNL A   1      46.026  29.864  34.725  1.00  0.00    -0.206 F 
ATOM     71  C   UNL A   1      46.490  27.002  36.882  1.00  0.00     0.060 A 
BRANCH  71  72
ATOM     72  S   UNL A   1      47.806  26.144  37.771  1.00  0.00     0.124 S 
ATOM     73  O   UNL A   1      47.660  24.784  37.262  1.00  0.00    -0.237 OA
ATOM     74  O   UNL A   1      48.998  26.860  37.332  1.00  0.00    -0.237 OA
ATOM     75  O   UNL A   1      47.446  26.330  39.174  1.00  0.00    -0.744 OA
ENDBRANCH  71  72
ENDBRANCH  50  64
BRANCH  51  76
ATOM     76  C   UNL A   1      36.837  32.884  30.863  1.00  0.00     0.058 A 
ATOM     77  C   UNL A   1      35.527  32.447  31.103  1.00  0.00     0.135 A 
ATOM     78  C   UNL A   1      37.014  33.974  29.994  1.00  0.00     0.135 A 
ATOM     79  F   UNL A   1      35.306  31.404  31.917  1.00  0.00    -0.206 F 
ATOM     80  C   UNL A   1      34.432  33.070  30.510  1.00  0.00     0.059 A 
ATOM     81  C   UNL A   1      35.934  34.629  29.411  1.00  0.00     0.059 A 
ATOM     82  F   UNL A   1      38.248  34.441  29.744  1.00  0.00    -0.206 F 
ATOM     83  C   UNL A   1      34.646  34.167  29.674  1.00  0.00     0.060 A 
BRANCH  83  84
ATOM     84  S   UNL A   1      33.213  35.021  28.982  1.00  0.00     0.124 S 
ATOM     85  O   UNL A   1      32.442  35.325  30.181  1.00  0.00    -0.237 OA
ATOM     86  O   UNL A   1      33.832  36.163  28.315  1.00  0.00    -0.237 OA
ATOM     87  O   UNL A   1      32.628  34.026  28.088  1.00  0.00    -0.744 OA
ENDBRANCH  83  84
ENDBRANCH  51  76
BRANCH  63  88
ATOM     88  C   UNL A   1      39.681  33.601  37.208  1.00  0.00     0.058 A 
ATOM     89  C   UNL A   1      38.821  33.182  38.236  1.00  0.00     0.135 A 
ATOM     90  C   UNL A   1      40.280  34.866  37.334  1.00  0.00     0.135 A 
ATOM     91  F   UNL A   1      38.215  31.986  38.164  1.00  0.00    -0.206 F 
ATOM     92  C   UNL A   1      38.549  33.993  39.333  1.00  0.00     0.059 A 
ATOM     93  C   UNL A   1      40.047  35.681  38.436  1.00  0.00     0.059 A 
ATOM     94  F   UNL A   1      41.119  35.314  36.385  1.00  0.00    -0.206 F 
ATOM     95  C   UNL A   1      39.170  35.240  39.427  1.00  0.00     0.060 A 
BRANCH  95  96
ATOM     96  S   UNL A   1      38.838  36.264  40.876  1.00  0.00     0.124 S 
ATOM     97  O   UNL A   1      37.717  35.556  41.486  1.00  0.00    -0.237 OA
ATOM     98  O   UNL A   1      40.102  36.194  41.603  1.00  0.00    -0.237 OA
ATOM     99  O   UNL A   1      38.520  37.569  40.305  1.00  0.00    -0.744 OA
ENDBRANCH  95  96
ENDBRANCH  63  88
ENDBRANCH  37  38
ENDBRANCH  29  32
ENDBRANCH  27  28
ENDBRANCH  26  27
ENDBRANCH  25  26
ENDBRANCH  24  25
ENDBRANCH   1  24
TORSDOF 22
ENDMDL
MODEL 3
REMARK VINA RESULT:     -10.1      1.720      2.568
REMARK SMILES CN(Cc1ccc(Cl)cc1Cl)S(=O)(=O)CCCC(=O)NCCCCCCNC(=O)c1ccc(-c2c3nc(c(-c4c(F)cc(S(=O)(=O)[O-])cc4F)c4ccc([nH]4)c(-c4c(F)cc(S(=O)(=O)[O-])cc4F)c4nc(c(-c5c(F)cc(S(=O)(=O)[O-])cc5F)c5ccc2[nH]5)C=C4)C=C3)cc1
REMARK SMILES IDX 22 1 21 2 20 3 18 4 19 5 17 7 16 8 15 9 12 10 13 11 14 12
REMARK SMILES IDX 2 13 1 14 3 15 4 16 5 17 10 18 6 19 9 20 11 21 7 22 8 23
REMARK SMILES IDX 23 24 24 25 25 26 26 27 27 28 28 29 29 31 30 32 31 33 95 34
REMARK SMILES IDX 32 35 94 36 33 37 34 38 35 39 88 40 36 41 93 42 87 43 89 44
REMARK SMILES IDX 37 45 92 46 86 47 85 48 38 50 72 51 51 52 71 53 52 54 55 55
REMARK SMILES IDX 70 56 90 57 53 58 54 59 69 61 91 62 56 63 39 64 40 65 49 66
REMARK SMILES IDX 41 67 42 68 48 69 50 70 43 71 44 72 45 73 46 74 47 75 73 76
REMARK SMILES IDX 74 77 83 78 75 79 76 80 82 81 84 82 77 83 78 84 79 85 80 86
REMARK SMILES IDX 81 87 57 88 58 89 67 90 59 91 60 92 66 93 68 94 61 95 62 96
REMARK SMILES IDX 63 97 64 98 65 99
REMARK H PARENT 20 6 27 30 89 49 55 60
REMARK Flexibility Score: inf
ROOT
ATOM      1  C   UNL A   1      40.867  20.866  27.510  1.00  0.00     0.021 C 
ENDROOT
BRANCH   1   2
ATOM      2  C   UNL A   1      40.241  21.181  26.157  1.00  0.00     0.116 C 
BRANCH   2   3
ATOM      3  N   UNL A   1      39.331  22.298  26.180  1.00  0.00    -0.356 N 
ATOM      4  C   UNL A   1      38.067  22.415  25.691  1.00  0.00     0.220 C 
ATOM      5  O   UNL A   1      37.430  23.425  26.005  1.00  0.00    -0.275 OA
ATOM      6  H   UNL A   1      39.680  23.106  26.621  1.00  0.00     0.163 HD
BRANCH   4   7
ATOM      7  C   UNL A   1      37.425  21.341  24.821  1.00  0.00     0.101 C 
BRANCH   7   8
ATOM      8  C   UNL A   1      35.935  21.100  25.038  1.00  0.00     0.027 C 
BRANCH   8   9
ATOM      9  C   UNL A   1      34.938  22.023  24.345  1.00  0.00     0.155 C 
BRANCH   9  10
ATOM     10  S   UNL A   1      33.207  21.908  24.781  1.00  0.00     0.214 S 
ATOM     11  O   UNL A   1      33.178  21.656  26.210  1.00  0.00    -0.212 OA
ATOM     12  O   UNL A   1      32.628  20.926  23.890  1.00  0.00    -0.212 OA
BRANCH  10  13
ATOM     13  N   UNL A   1      32.363  23.332  24.520  1.00  0.00    -0.201 NA
ATOM     14  C   UNL A   1      32.849  24.451  25.378  1.00  0.00     0.124 C 
BRANCH  13  15
ATOM     15  C   UNL A   1      31.790  23.873  23.265  1.00  0.00     0.138 C 
BRANCH  15  16
ATOM     16  C   UNL A   1      31.076  25.209  23.199  1.00  0.00    -0.014 A 
ATOM     17  C   UNL A   1      29.903  25.462  23.919  1.00  0.00     0.008 A 
ATOM     18  C   UNL A   1      31.615  26.288  22.458  1.00  0.00     0.047 A 
ATOM     19  C   UNL A   1      29.240  26.694  23.835  1.00  0.00     0.021 A 
ATOM     20  C   UNL A   1      30.956  27.522  22.370  1.00  0.00     0.041 A 
ATOM     21  Cl  UNL A   1      33.146  26.178  21.653  1.00  0.00    -0.084 Cl
ATOM     22  C   UNL A   1      29.761  27.713  23.050  1.00  0.00     0.042 A 
ATOM     23  Cl  UNL A   1      28.958  29.231  22.976  1.00  0.00    -0.084 Cl
ENDBRANCH  15  16
ENDBRANCH  13  15
ENDBRANCH  10  13
ENDBRANCH   9  10
ENDBRANCH   8   9
ENDBRANCH   7   8
ENDBRANCH   4   7
ENDBRANCH   2   3
ENDBRANCH   1   2
BRANCH   1  24
ATOM     24  C   UNL A   1      42.023  21.801  27.866  1.00  0.00     0.002 C 
BRANCH  24  25
ATOM     25  C   UNL A   1      43.034  22.050  26.738  1.00  0.00     0.002 C 
BRANCH  25  26
ATOM     26  C   UNL A   1      44.179  23.004  27.080  1.00  0.00     0.021 C 
BRANCH  26  27
ATOM     27  C   UNL A   1      44.001  24.438  26.602  1.00  0.00     0.116 C 
BRANCH  27  28
ATOM     28  N   UNL A   1      42.804  24.582  25.792  1.00  0.00    -0.352 N 
ATOM     29  C   UNL A   1      41.605  25.187  26.077  1.00  0.00     0.251 C 
ATOM     30  H   UNL A   1      42.862  24.182  24.894  1.00  0.00     0.163 HD
ATOM     31  O   UNL A   1      40.636  24.949  25.360  1.00  0.00    -0.269 OA
BRANCH  29  32
ATOM     32  C   UNL A   1      41.465  26.113  27.227  1.00  0.00     0.039 A 
ATOM     33  C   UNL A   1      42.163  27.324  27.201  1.00  0.00     0.014 A 
ATOM     34  C   UNL A   1      40.708  25.776  28.353  1.00  0.00     0.014 A 
ATOM     35  C   UNL A   1      42.068  28.208  28.279  1.00  0.00     0.010 A 
ATOM     36  C   UNL A   1      40.542  26.698  29.386  1.00  0.00     0.010 A 
ATOM     37  C   UNL A   1      41.230  27.918  29.369  1.00  0.00    -0.014 A 
BRANCH  37  38
ATOM     38  C   UNL A   1      41.064  28.883  30.489  1.00  0.00     0.031 A 
ATOM     39  C   UNL A   1      41.934  28.792  31.715  1.00  0.00     0.074 A 
ATOM     40  C   UNL A   1      40.088  29.810  30.425  1.00  0.00     0.049 A 
ATOM     41  N   UNL A   1      41.901  29.512  32.808  1.00  0.00    -0.248 NA
ATOM     42  C   UNL A   1      42.958  27.737  31.725  1.00  0.00     0.031 C 
ATOM     43  C   UNL A   1      39.144  29.965  29.316  1.00  0.00     0.029 A 
ATOM     44  N   UNL A   1      39.719  30.788  31.315  1.00  0.00    -0.354 N 
ATOM     45  C   UNL A   1      42.891  28.994  33.636  1.00  0.00     0.074 A 
ATOM     46  C   UNL A   1      43.462  27.858  32.944  1.00  0.00     0.031 C 
ATOM     47  C   UNL A   1      38.317  30.988  29.582  1.00  0.00     0.029 A 
ATOM     48  C   UNL A   1      38.641  31.533  30.897  1.00  0.00     0.049 A 
ATOM     49  H   UNL A   1      40.181  30.941  32.170  1.00  0.00     0.167 HD
ATOM     50  C   UNL A   1      43.305  29.438  34.849  1.00  0.00     0.037 A 
ATOM     51  C   UNL A   1      37.976  32.532  31.509  1.00  0.00     0.037 A 
ATOM     52  C   UNL A   1      42.732  30.572  35.528  1.00  0.00     0.049 A 
ATOM     53  C   UNL A   1      38.436  33.002  32.860  1.00  0.00     0.074 A 
ATOM     54  C   UNL A   1      43.112  31.136  36.733  1.00  0.00     0.029 A 
ATOM     55  N   UNL A   1      41.649  31.309  35.067  1.00  0.00    -0.354 N 
ATOM     56  N   UNL A   1      39.423  32.549  33.596  1.00  0.00    -0.248 NA
ATOM     57  C   UNL A   1      37.699  34.120  33.463  1.00  0.00     0.031 C 
ATOM     58  C   UNL A   1      42.222  32.176  37.029  1.00  0.00     0.029 A 
ATOM     59  C   UNL A   1      41.325  32.301  35.980  1.00  0.00     0.049 A 
ATOM     60  H   UNL A   1      41.178  31.149  34.217  1.00  0.00     0.167 HD
ATOM     61  C   UNL A   1      39.434  33.332  34.745  1.00  0.00     0.074 A 
ATOM     62  C   UNL A   1      38.369  34.303  34.594  1.00  0.00     0.031 C 
ATOM     63  C   UNL A   1      40.251  33.253  35.825  1.00  0.00     0.037 A 
BRANCH  50  64
ATOM     64  C   UNL A   1      44.427  28.684  35.516  1.00  0.00     0.058 A 
ATOM     65  C   UNL A   1      45.775  29.005  35.283  1.00  0.00     0.135 A 
ATOM     66  C   UNL A   1      44.155  27.630  36.403  1.00  0.00     0.135 A 
ATOM     67  F   UNL A   1      46.098  29.998  34.439  1.00  0.00    -0.206 F 
ATOM     68  C   UNL A   1      46.810  28.274  35.859  1.00  0.00     0.059 A 
ATOM     69  C   UNL A   1      45.174  26.907  37.018  1.00  0.00     0.059 A 
ATOM     70  F   UNL A   1      42.887  27.282  36.671  1.00  0.00    -0.206 F 
ATOM     71  C   UNL A   1      46.499  27.221  36.720  1.00  0.00     0.060 A 
BRANCH  71  72
ATOM     72  S   UNL A   1      47.853  26.261  37.430  1.00  0.00     0.124 S 
ATOM     73  O   UNL A   1      48.919  27.257  37.481  1.00  0.00    -0.237 OA
ATOM     74  O   UNL A   1      47.305  25.853  38.718  1.00  0.00    -0.237 OA
ATOM     75  O   UNL A   1      48.049  25.184  36.464  1.00  0.00    -0.744 OA
ENDBRANCH  71  72
ENDBRANCH  50  64
BRANCH  51  76
ATOM     76  C   UNL A   1      36.805  33.150  30.829  1.00  0.00     0.058 A 
ATOM     77  C   UNL A   1      35.494  32.859  31.233  1.00  0.00     0.135 A 
ATOM     78  C   UNL A   1      36.980  34.093  29.803  1.00  0.00     0.135 A 
ATOM     79  F   UNL A   1      35.274  31.958  32.201  1.00  0.00    -0.206 F 
ATOM     80  C   UNL A   1      34.397  33.483  30.646  1.00  0.00     0.059 A 
ATOM     81  C   UNL A   1      35.901  34.750  29.220  1.00  0.00     0.059 A 
ATOM     82  F   UNL A   1      38.216  34.418  29.392  1.00  0.00    -0.206 F 
ATOM     83  C   UNL A   1      34.612  34.436  29.648  1.00  0.00     0.060 A 
BRANCH  83  84
ATOM     84  S   UNL A   1      33.187  35.304  28.957  1.00  0.00     0.124 S 
ATOM     85  O   UNL A   1      32.508  35.765  30.163  1.00  0.00    -0.237 OA
ATOM     86  O   UNL A   1      33.824  36.339  28.148  1.00  0.00    -0.237 OA
ATOM     87  O   UNL A   1      32.495  34.265  28.200  1.00  0.00    -0.744 OA
ENDBRANCH  83  84
ENDBRANCH  51  76
BRANCH  63  88
ATOM     88  C   UNL A   1      40.030  34.248  36.934  1.00  0.00     0.058 A 
ATOM     89  C   UNL A   1      40.598  35.531  36.896  1.00  0.00     0.135 A 
ATOM     90  C   UNL A   1      39.195  33.934  38.020  1.00  0.00     0.135 A 
ATOM     91  F   UNL A   1      41.409  35.881  35.886  1.00  0.00    -0.206 F 
ATOM     92  C   UNL A   1      40.365  36.460  37.905  1.00  0.00     0.059 A 
ATOM     93  C   UNL A   1      38.924  34.857  39.024  1.00  0.00     0.059 A 
ATOM     94  F   UNL A   1      38.618  32.725  38.101  1.00  0.00    -0.206 F 
ATOM     95  C   UNL A   1      39.523  36.115  38.964  1.00  0.00     0.060 A 
BRANCH  95  96
ATOM     96  S   UNL A   1      39.198  37.343  40.246  1.00  0.00     0.124 S 
ATOM     97  O   UNL A   1      38.574  36.528  41.284  1.00  0.00    -0.237 OA
ATOM     98  O   UNL A   1      40.537  37.838  40.551  1.00  0.00    -0.237 OA
ATOM     99  O   UNL A   1      38.317  38.301  39.586  1.00  0.00    -0.744 OA
ENDBRANCH  95  96
ENDBRANCH  63  88
ENDBRANCH  37  38
ENDBRANCH  29  32
ENDBRANCH  27  28
ENDBRANCH  26  27
ENDBRANCH  25  26
ENDBRANCH  24  25
ENDBRANCH   1  24
TORSDOF 22
ENDMDL
