MODEL 1
REMARK VINA RESULT:     -13.1      0.000      0.000
REMARK SMILES O=C(NCCCCCCNC(=O)c1oc2cccc3c2c1CCC3)c1ccc(-c2c3nc(c(-c4c(F)cc(S(=O)(=O)[O-])cc4F)c4ccc([nH]4)c(-c4c(F)cc(S(=O)(=O)[O-])cc4F)c4nc(c(-c5c(F)cc(S(=O)(=O)[O-])cc5F)c5ccc2[nH]5)C=C4)C=C3)cc1
REMARK SMILES IDX 5 1 4 2 3 3 1 4 2 5 25 7 26 8 90 9 27 10 89 11 28 12 29 13
REMARK SMILES IDX 30 14 83 15 31 16 88 17 82 18 84 19 32 20 87 21 81 22 80 23
REMARK SMILES IDX 33 25 67 26 46 27 66 28 47 29 50 30 65 31 85 32 48 33 49 34
REMARK SMILES IDX 64 36 86 37 51 38 34 39 35 40 44 41 36 42 37 43 43 44 45 45
REMARK SMILES IDX 38 46 39 47 40 48 41 49 42 50 68 51 69 52 78 53 70 54 71 55
REMARK SMILES IDX 77 56 79 57 72 58 73 59 74 60 75 61 76 62 52 63 53 64 62 65
REMARK SMILES IDX 54 66 55 67 61 68 63 69 56 70 57 71 58 72 59 73 60 74 6 75
REMARK SMILES IDX 7 76 8 77 9 78 10 79 11 80 12 82 13 83 14 84 21 85 15 86
REMARK SMILES IDX 20 87 22 88 16 89 19 90 23 91 17 92 18 93 24 94
REMARK H PARENT 3 6 84 24 50 35 10 81
REMARK Flexibility Score: inf
ROOT
ATOM      1  C   UNL A   1      37.414  21.386  24.633  1.00  0.00     0.021 C 
ENDROOT
BRANCH   1   2
ATOM      2  C   UNL A   1      38.167  22.095  25.759  1.00  0.00     0.116 C 
BRANCH   2   3
ATOM      3  N   UNL A   1      39.590  21.832  25.806  1.00  0.00    -0.352 N 
ATOM      4  O   UNL A   1      41.720  21.811  26.407  1.00  0.00    -0.269 OA
ATOM      5  C   UNL A   1      40.651  22.427  26.435  1.00  0.00     0.251 C 
ATOM      6  H   UNL A   1      39.854  21.054  25.265  1.00  0.00     0.163 HD
BRANCH   5   7
ATOM      7  C   UNL A   1      40.618  23.779  27.058  1.00  0.00     0.039 A 
ATOM      8  C   UNL A   1      39.729  24.799  26.728  1.00  0.00     0.014 A 
ATOM      9  C   UNL A   1      41.600  24.033  28.036  1.00  0.00     0.014 A 
ATOM     10  C   UNL A   1      39.888  26.070  27.273  1.00  0.00     0.010 A 
ATOM     11  C   UNL A   1      41.752  25.298  28.602  1.00  0.00     0.010 A 
ATOM     12  C   UNL A   1      40.914  26.327  28.190  1.00  0.00    -0.014 A 
BRANCH  12  13
ATOM     13  C   UNL A   1      40.923  27.636  28.836  1.00  0.00     0.031 A 
ATOM     14  C   UNL A   1      41.992  28.537  28.328  1.00  0.00     0.074 A 
ATOM     15  C   UNL A   1      40.041  28.069  29.761  1.00  0.00     0.049 A 
ATOM     16  N   UNL A   1      43.076  28.893  28.934  1.00  0.00    -0.248 NA
ATOM     17  C   UNL A   1      41.923  28.965  26.924  1.00  0.00     0.031 C 
ATOM     18  C   UNL A   1      38.791  27.445  30.191  1.00  0.00     0.029 A 
ATOM     19  N   UNL A   1      40.073  29.228  30.483  1.00  0.00    -0.354 N 
ATOM     20  C   UNL A   1      43.730  29.767  28.069  1.00  0.00     0.074 A 
ATOM     21  C   UNL A   1      43.068  29.639  26.798  1.00  0.00     0.031 C 
ATOM     22  C   UNL A   1      38.092  28.322  30.952  1.00  0.00     0.029 A 
ATOM     23  C   UNL A   1      38.902  29.508  31.182  1.00  0.00     0.049 A 
ATOM     24  H   UNL A   1      40.860  29.818  30.507  1.00  0.00     0.167 HD
ATOM     25  C   UNL A   1      44.626  30.682  28.533  1.00  0.00     0.037 A 
ATOM     26  C   UNL A   1      38.621  30.642  31.877  1.00  0.00     0.037 A 
ATOM     27  C   UNL A   1      45.080  30.336  29.858  1.00  0.00     0.049 A 
ATOM     28  C   UNL A   1      39.922  31.258  32.243  1.00  0.00     0.074 A 
ATOM     29  C   UNL A   1      45.755  29.266  30.413  1.00  0.00     0.029 A 
ATOM     30  N   UNL A   1      44.531  31.020  30.914  1.00  0.00    -0.354 N 
ATOM     31  N   UNL A   1      40.772  30.727  33.078  1.00  0.00    -0.248 NA
ATOM     32  C   UNL A   1      40.467  32.279  31.362  1.00  0.00     0.031 C 
ATOM     33  C   UNL A   1      45.186  29.100  31.710  1.00  0.00     0.029 A 
ATOM     34  C   UNL A   1      44.236  30.107  31.892  1.00  0.00     0.049 A 
ATOM     35  H   UNL A   1      44.377  31.991  30.961  1.00  0.00     0.167 HD
ATOM     36  C   UNL A   1      42.018  31.021  32.548  1.00  0.00     0.074 A 
ATOM     37  C   UNL A   1      41.770  32.063  31.553  1.00  0.00     0.031 C 
ATOM     38  C   UNL A   1      43.091  30.207  32.772  1.00  0.00     0.037 A 
BRANCH  25  39
ATOM     39  C   UNL A   1      44.803  32.075  27.964  1.00  0.00     0.058 A 
ATOM     40  C   UNL A   1      46.038  32.422  27.372  1.00  0.00     0.135 A 
ATOM     41  C   UNL A   1      43.940  33.160  28.236  1.00  0.00     0.135 A 
ATOM     42  F   UNL A   1      46.938  31.476  27.058  1.00  0.00    -0.206 F 
ATOM     43  C   UNL A   1      46.425  33.746  27.163  1.00  0.00     0.059 A 
ATOM     44  C   UNL A   1      44.285  34.485  27.987  1.00  0.00     0.059 A 
ATOM     45  F   UNL A   1      42.759  33.006  28.844  1.00  0.00    -0.206 F 
ATOM     46  C   UNL A   1      45.546  34.772  27.494  1.00  0.00     0.060 A 
BRANCH  46  47
ATOM     47  S   UNL A   1      46.086  36.481  27.337  1.00  0.00     0.124 S 
ATOM     48  O   UNL A   1      44.870  37.204  27.687  1.00  0.00    -0.237 OA
ATOM     49  O   UNL A   1      47.171  36.544  28.311  1.00  0.00    -0.237 OA
ATOM     50  O   UNL A   1      46.498  36.576  25.940  1.00  0.00    -0.744 OA
ENDBRANCH  46  47
ENDBRANCH  25  39
BRANCH  26  51
ATOM     51  C   UNL A   1      37.339  31.398  31.968  1.00  0.00     0.058 A 
ATOM     52  C   UNL A   1      36.839  31.838  33.210  1.00  0.00     0.135 A 
ATOM     53  C   UNL A   1      36.746  31.972  30.828  1.00  0.00     0.135 A 
ATOM     54  F   UNL A   1      37.349  31.357  34.354  1.00  0.00    -0.206 F 
ATOM     55  C   UNL A   1      35.861  32.836  33.315  1.00  0.00     0.059 A 
ATOM     56  C   UNL A   1      35.764  32.962  30.908  1.00  0.00     0.059 A 
ATOM     57  F   UNL A   1      37.170  31.658  29.595  1.00  0.00    -0.206 F 
ATOM     58  C   UNL A   1      35.350  33.413  32.155  1.00  0.00     0.060 A 
BRANCH  58  59
ATOM     59  S   UNL A   1      34.230  34.829  32.285  1.00  0.00     0.124 S 
ATOM     60  O   UNL A   1      34.067  35.217  30.889  1.00  0.00    -0.237 OA
ATOM     61  O   UNL A   1      33.059  34.239  32.923  1.00  0.00    -0.237 OA
ATOM     62  O   UNL A   1      34.975  35.776  33.112  1.00  0.00    -0.744 OA
ENDBRANCH  58  59
ENDBRANCH  26  51
BRANCH  38  63
ATOM     63  C   UNL A   1      42.991  29.172  33.864  1.00  0.00     0.058 A 
ATOM     64  C   UNL A   1      43.221  29.428  35.228  1.00  0.00     0.135 A 
ATOM     65  C   UNL A   1      42.466  27.914  33.529  1.00  0.00     0.135 A 
ATOM     66  F   UNL A   1      43.637  30.632  35.645  1.00  0.00    -0.206 F 
ATOM     67  C   UNL A   1      42.953  28.471  36.209  1.00  0.00     0.059 A 
ATOM     68  C   UNL A   1      42.161  26.958  34.493  1.00  0.00     0.059 A 
ATOM     69  F   UNL A   1      42.176  27.627  32.249  1.00  0.00    -0.206 F 
ATOM     70  C   UNL A   1      42.408  27.243  35.833  1.00  0.00     0.060 A 
BRANCH  70  71
ATOM     71  S   UNL A   1      41.937  26.061  37.117  1.00  0.00     0.124 S 
ATOM     72  O   UNL A   1      40.574  26.474  37.433  1.00  0.00    -0.237 OA
ATOM     73  O   UNL A   1      42.068  24.779  36.428  1.00  0.00    -0.237 OA
ATOM     74  O   UNL A   1      42.920  26.292  38.172  1.00  0.00    -0.744 OA
ENDBRANCH  70  71
ENDBRANCH  38  63
ENDBRANCH  12  13
ENDBRANCH   5   7
ENDBRANCH   2   3
ENDBRANCH   1   2
BRANCH   1  75
ATOM     75  C   UNL A   1      36.013  21.932  24.340  1.00  0.00     0.002 C 
BRANCH  75  76
ATOM     76  C   UNL A   1      35.882  23.457  24.282  1.00  0.00     0.002 C 
BRANCH  76  77
ATOM     77  C   UNL A   1      35.088  24.100  25.422  1.00  0.00     0.021 C 
BRANCH  77  78
ATOM     78  C   UNL A   1      34.955  23.243  26.676  1.00  0.00     0.116 C 
BRANCH  78  79
ATOM     79  N   UNL A   1      33.637  23.341  27.278  1.00  0.00    -0.349 N 
ATOM     80  C   UNL A   1      32.480  22.697  26.901  1.00  0.00     0.287 C 
ATOM     81  H   UNL A   1      33.561  23.944  28.052  1.00  0.00     0.163 HD
ATOM     82  O   UNL A   1      31.421  23.076  27.413  1.00  0.00    -0.266 OA
BRANCH  80  83
ATOM     83  C   UNL A   1      32.559  21.643  25.917  1.00  0.00     0.195 A 
ATOM     84  O   UNL A   1      32.897  20.371  26.355  1.00  0.00    -0.451 OA
ATOM     85  C   UNL A   1      32.339  21.608  24.549  1.00  0.00     0.012 A 
ATOM     86  C   UNL A   1      32.812  19.530  25.282  1.00  0.00     0.135 A 
ATOM     87  C   UNL A   1      32.467  20.261  24.174  1.00  0.00     0.028 A 
ATOM     88  C   UNL A   1      31.984  22.614  23.502  1.00  0.00     0.041 C 
ATOM     89  C   UNL A   1      33.007  18.158  25.236  1.00  0.00     0.048 A 
ATOM     90  C   UNL A   1      32.285  19.690  22.916  1.00  0.00    -0.037 A 
ATOM     91  C   UNL A   1      32.336  22.075  22.083  1.00  0.00     0.010 C 
ATOM     92  C   UNL A   1      32.804  17.558  23.977  1.00  0.00     0.004 A 
ATOM     93  C   UNL A   1      32.441  18.303  22.838  1.00  0.00     0.004 A 
ATOM     94  C   UNL A   1      31.861  20.614  21.805  1.00  0.00     0.036 C 
ENDBRANCH  80  83
ENDBRANCH  78  79
ENDBRANCH  77  78
ENDBRANCH  76  77
ENDBRANCH  75  76
ENDBRANCH   1  75
TORSDOF 16
ENDMDL
MODEL 2
REMARK VINA RESULT:     -13.1      2.035      3.167
REMARK SMILES O=C(NCCCCCCNC(=O)c1oc2cccc3c2c1CCC3)c1ccc(-c2c3nc(c(-c4c(F)cc(S(=O)(=O)[O-])cc4F)c4ccc([nH]4)c(-c4c(F)cc(S(=O)(=O)[O-])cc4F)c4nc(c(-c5c(F)cc(S(=O)(=O)[O-])cc5F)c5ccc2[nH]5)C=C4)C=C3)cc1
REMARK SMILES IDX 5 1 4 2 3 3 1 4 2 5 25 7 26 8 90 9 27 10 89 11 28 12 29 13
REMARK SMILES IDX 30 14 83 15 31 16 88 17 82 18 84 19 32 20 87 21 81 22 80 23
REMARK SMILES IDX 33 25 67 26 46 27 66 28 47 29 50 30 65 31 85 32 48 33 49 34
REMARK SMILES IDX 64 36 86 37 51 38 34 39 35 40 44 41 36 42 37 43 43 44 45 45
REMARK SMILES IDX 38 46 39 47 40 48 41 49 42 50 68 51 69 52 78 53 70 54 71 55
REMARK SMILES IDX 77 56 79 57 72 58 73 59 74 60 75 61 76 62 52 63 53 64 62 65
REMARK SMILES IDX 54 66 55 67 61 68 63 69 56 70 57 71 58 72 59 73 60 74 6 75
REMARK SMILES IDX 7 76 8 77 9 78 10 79 11 80 12 82 13 83 14 84 21 85 15 86
REMARK SMILES IDX 20 87 22 88 16 89 19 90 23 91 17 92 18 93 24 94
REMARK H PARENT 3 6 84 24 50 35 10 81
REMARK Flexibility Score: inf
ROOT
ATOM      1  C   UNL A   1      37.207  22.696  24.388  1.00  0.00     0.021 C 
ENDROOT
BRANCH   1   2
ATOM      2  C   UNL A   1      37.656  22.196  25.762  1.00  0.00     0.116 C 
BRANCH   2   3
ATOM      3  N   UNL A   1      39.060  21.856  25.862  1.00  0.00    -0.352 N 
ATOM      4  O   UNL A   1      41.160  21.719  26.543  1.00  0.00    -0.269 OA
ATOM      5  C   UNL A   1      40.127  22.393  26.530  1.00  0.00     0.251 C 
ATOM      6  H   UNL A   1      39.300  21.063  25.331  1.00  0.00     0.163 HD
BRANCH   5   7
ATOM      7  C   UNL A   1      40.144  23.746  27.152  1.00  0.00     0.039 A 
ATOM      8  C   UNL A   1      39.158  24.718  27.000  1.00  0.00     0.014 A 
ATOM      9  C   UNL A   1      41.281  24.057  27.926  1.00  0.00     0.014 A 
ATOM     10  C   UNL A   1      39.353  26.000  27.508  1.00  0.00     0.010 A 
ATOM     11  C   UNL A   1      41.473  25.332  28.455  1.00  0.00     0.010 A 
ATOM     12  C   UNL A   1      40.521  26.314  28.213  1.00  0.00    -0.014 A 
BRANCH  12  13
ATOM     13  C   UNL A   1      40.586  27.627  28.849  1.00  0.00     0.031 A 
ATOM     14  C   UNL A   1      41.660  28.496  28.298  1.00  0.00     0.074 A 
ATOM     15  C   UNL A   1      39.748  28.089  29.799  1.00  0.00     0.049 A 
ATOM     16  N   UNL A   1      42.774  28.827  28.865  1.00  0.00    -0.248 NA
ATOM     17  C   UNL A   1      41.555  28.916  26.894  1.00  0.00     0.031 C 
ATOM     18  C   UNL A   1      38.497  27.502  30.277  1.00  0.00     0.029 A 
ATOM     19  N   UNL A   1      39.834  29.251  30.512  1.00  0.00    -0.354 N 
ATOM     20  C   UNL A   1      43.420  29.677  27.972  1.00  0.00     0.074 A 
ATOM     21  C   UNL A   1      42.712  29.559  26.724  1.00  0.00     0.031 C 
ATOM     22  C   UNL A   1      37.848  28.402  31.054  1.00  0.00     0.029 A 
ATOM     23  C   UNL A   1      38.696  29.567  31.248  1.00  0.00     0.049 A 
ATOM     24  H   UNL A   1      40.637  29.821  30.505  1.00  0.00     0.167 HD
ATOM     25  C   UNL A   1      44.355  30.572  28.398  1.00  0.00     0.037 A 
ATOM     26  C   UNL A   1      38.469  30.713  31.944  1.00  0.00     0.037 A 
ATOM     27  C   UNL A   1      44.845  30.222  29.709  1.00  0.00     0.049 A 
ATOM     28  C   UNL A   1      39.797  31.296  32.261  1.00  0.00     0.074 A 
ATOM     29  C   UNL A   1      45.510  29.139  30.249  1.00  0.00     0.029 A 
ATOM     30  N   UNL A   1      44.350  30.927  30.779  1.00  0.00    -0.354 N 
ATOM     31  N   UNL A   1      40.661  30.748  33.071  1.00  0.00    -0.248 NA
ATOM     32  C   UNL A   1      40.338  32.296  31.355  1.00  0.00     0.031 C 
ATOM     33  C   UNL A   1      44.981  28.996  31.566  1.00  0.00     0.029 A 
ATOM     34  C   UNL A   1      44.065  30.029  31.773  1.00  0.00     0.049 A 
ATOM     35  H   UNL A   1      44.224  31.903  30.823  1.00  0.00     0.167 HD
ATOM     36  C   UNL A   1      41.896  31.006  32.496  1.00  0.00     0.074 A 
ATOM     37  C   UNL A   1      41.641  32.047  31.503  1.00  0.00     0.031 C 
ATOM     38  C   UNL A   1      42.954  30.165  32.690  1.00  0.00     0.037 A 
BRANCH  25  39
ATOM     39  C   UNL A   1      44.550  31.956  27.813  1.00  0.00     0.058 A 
ATOM     40  C   UNL A   1      45.710  32.223  27.054  1.00  0.00     0.135 A 
ATOM     41  C   UNL A   1      43.813  33.095  28.207  1.00  0.00     0.135 A 
ATOM     42  F   UNL A   1      46.488  31.219  26.614  1.00  0.00    -0.206 F 
ATOM     43  C   UNL A   1      46.158  33.518  26.796  1.00  0.00     0.059 A 
ATOM     44  C   UNL A   1      44.213  34.395  27.915  1.00  0.00     0.059 A 
ATOM     45  F   UNL A   1      42.721  33.016  28.975  1.00  0.00    -0.206 F 
ATOM     46  C   UNL A   1      45.409  34.600  27.250  1.00  0.00     0.060 A 
BRANCH  46  47
ATOM     47  S   UNL A   1      46.043  36.269  27.023  1.00  0.00     0.124 S 
ATOM     48  O   UNL A   1      44.808  37.040  26.944  1.00  0.00    -0.237 OA
ATOM     49  O   UNL A   1      46.838  36.455  28.231  1.00  0.00    -0.237 OA
ATOM     50  O   UNL A   1      46.808  36.171  25.783  1.00  0.00    -0.744 OA
ENDBRANCH  46  47
ENDBRANCH  25  39
BRANCH  26  51
ATOM     51  C   UNL A   1      37.211  31.503  32.072  1.00  0.00     0.058 A 
ATOM     52  C   UNL A   1      36.780  31.988  33.324  1.00  0.00     0.135 A 
ATOM     53  C   UNL A   1      36.579  32.061  30.945  1.00  0.00     0.135 A 
ATOM     54  F   UNL A   1      37.332  31.525  34.456  1.00  0.00    -0.206 F 
ATOM     55  C   UNL A   1      35.832  33.013  33.446  1.00  0.00     0.059 A 
ATOM     56  C   UNL A   1      35.626  33.077  31.043  1.00  0.00     0.059 A 
ATOM     57  F   UNL A   1      36.937  31.704  29.704  1.00  0.00    -0.206 F 
ATOM     58  C   UNL A   1      35.281  33.571  32.295  1.00  0.00     0.060 A 
BRANCH  58  59
ATOM     59  S   UNL A   1      34.204  35.019  32.437  1.00  0.00     0.124 S 
ATOM     60  O   UNL A   1      34.091  35.451  31.049  1.00  0.00    -0.237 OA
ATOM     61  O   UNL A   1      32.998  34.448  33.025  1.00  0.00    -0.237 OA
ATOM     62  O   UNL A   1      34.954  35.916  33.311  1.00  0.00    -0.744 OA
ENDBRANCH  58  59
ENDBRANCH  26  51
BRANCH  38  63
ATOM     63  C   UNL A   1      42.864  29.140  33.792  1.00  0.00     0.058 A 
ATOM     64  C   UNL A   1      43.192  29.386  35.138  1.00  0.00     0.135 A 
ATOM     65  C   UNL A   1      42.249  27.913  33.498  1.00  0.00     0.135 A 
ATOM     66  F   UNL A   1      43.701  30.565  35.521  1.00  0.00    -0.206 F 
ATOM     67  C   UNL A   1      42.933  28.448  36.140  1.00  0.00     0.059 A 
ATOM     68  C   UNL A   1      41.951  26.978  34.485  1.00  0.00     0.059 A 
ATOM     69  F   UNL A   1      41.864  27.639  32.240  1.00  0.00    -0.206 F 
ATOM     70  C   UNL A   1      42.297  27.252  35.806  1.00  0.00     0.060 A 
BRANCH  70  71
ATOM     71  S   UNL A   1      41.841  26.102  37.123  1.00  0.00     0.124 S 
ATOM     72  O   UNL A   1      42.920  26.291  38.087  1.00  0.00    -0.237 OA
ATOM     73  O   UNL A   1      40.529  26.597  37.534  1.00  0.00    -0.237 OA
ATOM     74  O   UNL A   1      41.823  24.804  36.453  1.00  0.00    -0.744 OA
ENDBRANCH  70  71
ENDBRANCH  38  63
ENDBRANCH  12  13
ENDBRANCH   5   7
ENDBRANCH   2   3
ENDBRANCH   1   2
BRANCH   1  75
ATOM     75  C   UNL A   1      35.783  23.258  24.331  1.00  0.00     0.002 C 
BRANCH  75  76
ATOM     76  C   UNL A   1      35.437  24.327  25.373  1.00  0.00     0.002 C 
BRANCH  76  77
ATOM     77  C   UNL A   1      34.040  24.226  25.991  1.00  0.00     0.021 C 
BRANCH  77  78
ATOM     78  C   UNL A   1      32.960  23.693  25.055  1.00  0.00     0.116 C 
BRANCH  78  79
ATOM     79  N   UNL A   1      31.745  23.329  25.761  1.00  0.00    -0.349 N 
ATOM     80  C   UNL A   1      30.835  24.162  26.375  1.00  0.00     0.287 C 
ATOM     81  H   UNL A   1      31.546  22.366  25.808  1.00  0.00     0.163 HD
ATOM     82  O   UNL A   1      29.980  23.640  27.098  1.00  0.00    -0.266 OA
BRANCH  80  83
ATOM     83  C   UNL A   1      30.945  25.586  26.166  1.00  0.00     0.195 A 
ATOM     84  O   UNL A   1      31.445  26.357  27.205  1.00  0.00    -0.451 OA
ATOM     85  C   UNL A   1      30.665  26.408  25.085  1.00  0.00     0.012 A 
ATOM     86  C   UNL A   1      31.552  27.640  26.750  1.00  0.00     0.135 A 
ATOM     87  C   UNL A   1      31.089  27.692  25.460  1.00  0.00     0.028 A 
ATOM     88  C   UNL A   1      30.098  26.210  23.717  1.00  0.00     0.041 C 
ATOM     89  C   UNL A   1      32.048  28.757  27.408  1.00  0.00     0.048 A 
ATOM     90  C   UNL A   1      31.079  28.864  24.705  1.00  0.00    -0.037 A 
ATOM     91  C   UNL A   1      29.588  27.562  23.135  1.00  0.00     0.010 C 
ATOM     92  C   UNL A   1      32.068  29.947  26.652  1.00  0.00     0.004 A 
ATOM     93  C   UNL A   1      31.602  30.003  25.324  1.00  0.00     0.004 A 
ATOM     94  C   UNL A   1      30.585  28.754  23.287  1.00  0.00     0.036 C 
ENDBRANCH  80  83
ENDBRANCH  78  79
ENDBRANCH  77  78
ENDBRANCH  76  77
ENDBRANCH  75  76
ENDBRANCH   1  75
TORSDOF 16
ENDMDL
MODEL 3
REMARK VINA RESULT:     -12.9      2.159      3.401
REMARK SMILES O=C(NCCCCCCNC(=O)c1oc2cccc3c2c1CCC3)c1ccc(-c2c3nc(c(-c4c(F)cc(S(=O)(=O)[O-])cc4F)c4ccc([nH]4)c(-c4c(F)cc(S(=O)(=O)[O-])cc4F)c4nc(c(-c5c(F)cc(S(=O)(=O)[O-])cc5F)c5ccc2[nH]5)C=C4)C=C3)cc1
REMARK SMILES IDX 5 1 4 2 3 3 1 4 2 5 25 7 26 8 90 9 27 10 89 11 28 12 29 13
REMARK SMILES IDX 30 14 83 15 31 16 88 17 82 18 84 19 32 20 87 21 81 22 80 23
REMARK SMILES IDX 33 25 67 26 46 27 66 28 47 29 50 30 65 31 85 32 48 33 49 34
REMARK SMILES IDX 64 36 86 37 51 38 34 39 35 40 44 41 36 42 37 43 43 44 45 45
REMARK SMILES IDX 38 46 39 47 40 48 41 49 42 50 68 51 69 52 78 53 70 54 71 55
REMARK SMILES IDX 77 56 79 57 72 58 73 59 74 60 75 61 76 62 52 63 53 64 62 65
REMARK SMILES IDX 54 66 55 67 61 68 63 69 56 70 57 71 58 72 59 73 60 74 6 75
REMARK SMILES IDX 7 76 8 77 9 78 10 79 11 80 12 82 13 83 14 84 21 85 15 86
REMARK SMILES IDX 20 87 22 88 16 89 19 90 23 91 17 92 18 93 24 94
REMARK H PARENT 3 6 84 24 50 35 10 81
REMARK Flexibility Score: inf
ROOT
ATOM      1  C   UNL A   1      36.353  22.217  24.434  1.00  0.00     0.021 C 
ENDROOT
BRANCH   1   2
ATOM      2  C   UNL A   1      37.377  22.936  25.314  1.00  0.00     0.116 C 
BRANCH   2   3
ATOM      3  N   UNL A   1      38.505  22.128  25.727  1.00  0.00    -0.352 N 
ATOM      4  O   UNL A   1      40.230  21.320  26.853  1.00  0.00    -0.269 OA
ATOM      5  C   UNL A   1      39.546  22.314  26.596  1.00  0.00     0.251 C 
ATOM      6  H   UNL A   1      38.530  21.249  25.283  1.00  0.00     0.163 HD
BRANCH   5   7
ATOM      7  C   UNL A   1      39.948  23.629  27.168  1.00  0.00     0.039 A 
ATOM      8  C   UNL A   1      41.114  23.875  27.889  1.00  0.00     0.014 A 
ATOM      9  C   UNL A   1      39.038  24.689  26.980  1.00  0.00     0.014 A 
ATOM     10  C   UNL A   1      41.312  25.108  28.502  1.00  0.00     0.010 A 
ATOM     11  C   UNL A   1      39.240  25.934  27.574  1.00  0.00     0.010 A 
ATOM     12  C   UNL A   1      40.364  26.129  28.367  1.00  0.00    -0.014 A 
BRANCH  12  13
ATOM     13  C   UNL A   1      40.712  27.442  28.904  1.00  0.00     0.031 A 
ATOM     14  C   UNL A   1      41.895  28.054  28.242  1.00  0.00     0.074 A 
ATOM     15  C   UNL A   1      40.034  28.113  29.858  1.00  0.00     0.049 A 
ATOM     16  N   UNL A   1      43.083  28.200  28.731  1.00  0.00    -0.248 NA
ATOM     17  C   UNL A   1      41.787  28.400  26.818  1.00  0.00     0.031 C 
ATOM     18  C   UNL A   1      38.726  27.805  30.434  1.00  0.00     0.029 A 
ATOM     19  N   UNL A   1      40.380  29.278  30.480  1.00  0.00    -0.354 N 
ATOM     20  C   UNL A   1      43.823  28.855  27.750  1.00  0.00     0.074 A 
ATOM     21  C   UNL A   1      43.032  28.798  26.549  1.00  0.00     0.031 C 
ATOM     22  C   UNL A   1      38.305  28.859  31.175  1.00  0.00     0.029 A 
ATOM     23  C   UNL A   1      39.367  29.850  31.245  1.00  0.00     0.049 A 
ATOM     24  H   UNL A   1      41.273  29.682  30.395  1.00  0.00     0.167 HD
ATOM     25  C   UNL A   1      44.933  29.579  28.066  1.00  0.00     0.037 A 
ATOM     26  C   UNL A   1      39.401  31.058  31.868  1.00  0.00     0.037 A 
ATOM     27  C   UNL A   1      45.426  29.223  29.375  1.00  0.00     0.049 A 
ATOM     28  C   UNL A   1      40.832  31.396  32.079  1.00  0.00     0.074 A 
ATOM     29  C   UNL A   1      45.907  28.067  29.958  1.00  0.00     0.029 A 
ATOM     30  N   UNL A   1      45.137  30.073  30.413  1.00  0.00    -0.354 N 
ATOM     31  N   UNL A   1      41.624  30.743  32.884  1.00  0.00    -0.248 NA
ATOM     32  C   UNL A   1      41.496  32.216  31.079  1.00  0.00     0.031 C 
ATOM     33  C   UNL A   1      45.441  28.108  31.305  1.00  0.00     0.029 A 
ATOM     34  C   UNL A   1      44.749  29.308  31.481  1.00  0.00     0.049 A 
ATOM     35  H   UNL A   1      45.199  31.055  30.394  1.00  0.00     0.167 HD
ATOM     36  C   UNL A   1      42.849  30.724  32.235  1.00  0.00     0.074 A 
ATOM     37  C   UNL A   1      42.735  31.732  31.183  1.00  0.00     0.031 C 
ATOM     38  C   UNL A   1      43.740  29.710  32.438  1.00  0.00     0.037 A 
BRANCH  25  39
ATOM     39  C   UNL A   1      45.348  30.862  27.376  1.00  0.00     0.058 A 
ATOM     40  C   UNL A   1      46.656  30.967  26.852  1.00  0.00     0.135 A 
ATOM     41  C   UNL A   1      44.637  32.078  27.467  1.00  0.00     0.135 A 
ATOM     42  F   UNL A   1      47.427  29.876  26.709  1.00  0.00    -0.206 F 
ATOM     43  C   UNL A   1      47.245  32.193  26.543  1.00  0.00     0.059 A 
ATOM     44  C   UNL A   1      45.187  33.307  27.114  1.00  0.00     0.059 A 
ATOM     45  F   UNL A   1      43.409  32.157  27.990  1.00  0.00    -0.206 F 
ATOM     46  C   UNL A   1      46.505  33.361  26.697  1.00  0.00     0.060 A 
BRANCH  46  47
ATOM     47  S   UNL A   1      47.298  34.951  26.412  1.00  0.00     0.124 S 
ATOM     48  O   UNL A   1      48.134  34.656  25.255  1.00  0.00    -0.237 OA
ATOM     49  O   UNL A   1      46.151  35.819  26.169  1.00  0.00    -0.237 OA
ATOM     50  O   UNL A   1      48.012  35.198  27.661  1.00  0.00    -0.744 OA
ENDBRANCH  46  47
ENDBRANCH  25  39
BRANCH  26  51
ATOM     51  C   UNL A   1      38.324  32.081  31.999  1.00  0.00     0.058 A 
ATOM     52  C   UNL A   1      37.834  32.772  30.871  1.00  0.00     0.135 A 
ATOM     53  C   UNL A   1      37.542  32.176  33.166  1.00  0.00     0.135 A 
ATOM     54  F   UNL A   1      38.504  32.731  29.709  1.00  0.00    -0.206 F 
ATOM     55  C   UNL A   1      36.611  33.454  30.882  1.00  0.00     0.059 A 
ATOM     56  C   UNL A   1      36.324  32.857  33.202  1.00  0.00     0.059 A 
ATOM     57  F   UNL A   1      37.891  31.527  34.286  1.00  0.00    -0.206 F 
ATOM     58  C   UNL A   1      35.848  33.467  32.047  1.00  0.00     0.060 A 
BRANCH  58  59
ATOM     59  S   UNL A   1      34.186  34.182  32.014  1.00  0.00     0.124 S 
ATOM     60  O   UNL A   1      33.803  33.998  30.620  1.00  0.00    -0.237 OA
ATOM     61  O   UNL A   1      33.476  33.354  32.984  1.00  0.00    -0.237 OA
ATOM     62  O   UNL A   1      34.404  35.567  32.424  1.00  0.00    -0.744 OA
ENDBRANCH  58  59
ENDBRANCH  26  51
BRANCH  38  63
ATOM     63  C   UNL A   1      43.526  28.790  33.614  1.00  0.00     0.058 A 
ATOM     64  C   UNL A   1      43.962  29.057  34.924  1.00  0.00     0.135 A 
ATOM     65  C   UNL A   1      42.687  27.680  33.432  1.00  0.00     0.135 A 
ATOM     66  F   UNL A   1      44.693  30.146  35.201  1.00  0.00    -0.206 F 
ATOM     67  C   UNL A   1      43.592  28.247  36.000  1.00  0.00     0.059 A 
ATOM     68  C   UNL A   1      42.278  26.879  34.496  1.00  0.00     0.059 A 
ATOM     69  F   UNL A   1      42.194  27.402  32.214  1.00  0.00    -0.206 F 
ATOM     70  C   UNL A   1      42.736  27.168  35.778  1.00  0.00     0.060 A 
BRANCH  70  71
ATOM     71  S   UNL A   1      42.151  26.206  37.191  1.00  0.00     0.124 S 
ATOM     72  O   UNL A   1      40.842  26.797  37.449  1.00  0.00    -0.237 OA
ATOM     73  O   UNL A   1      42.138  24.844  36.662  1.00  0.00    -0.237 OA
ATOM     74  O   UNL A   1      43.161  26.454  38.216  1.00  0.00    -0.744 OA
ENDBRANCH  70  71
ENDBRANCH  38  63
ENDBRANCH  12  13
ENDBRANCH   5   7
ENDBRANCH   2   3
ENDBRANCH   1   2
BRANCH   1  75
ATOM     75  C   UNL A   1      35.906  22.989  23.189  1.00  0.00     0.002 C 
BRANCH  75  76
ATOM     76  C   UNL A   1      34.458  23.493  23.192  1.00  0.00     0.002 C 
BRANCH  76  77
ATOM     77  C   UNL A   1      33.514  22.796  24.176  1.00  0.00     0.021 C 
BRANCH  77  78
ATOM     78  C   UNL A   1      33.231  23.574  25.457  1.00  0.00     0.116 C 
BRANCH  78  79
ATOM     79  N   UNL A   1      31.979  23.181  26.078  1.00  0.00    -0.349 N 
ATOM     80  C   UNL A   1      30.985  23.994  26.575  1.00  0.00     0.287 C 
ATOM     81  H   UNL A   1      31.821  22.213  26.156  1.00  0.00     0.163 HD
ATOM     82  O   UNL A   1      30.096  23.464  27.251  1.00  0.00    -0.266 OA
BRANCH  80  83
ATOM     83  C   UNL A   1      31.047  25.412  26.308  1.00  0.00     0.195 A 
ATOM     84  O   UNL A   1      31.652  26.224  27.254  1.00  0.00    -0.451 OA
ATOM     85  C   UNL A   1      30.628  26.191  25.240  1.00  0.00     0.012 A 
ATOM     86  C   UNL A   1      31.684  27.492  26.748  1.00  0.00     0.135 A 
ATOM     87  C   UNL A   1      31.073  27.493  25.519  1.00  0.00     0.028 A 
ATOM     88  C   UNL A   1      29.908  25.939  23.956  1.00  0.00     0.041 C 
ATOM     89  C   UNL A   1      32.236  28.637  27.304  1.00  0.00     0.048 A 
ATOM     90  C   UNL A   1      30.955  28.638  24.733  1.00  0.00    -0.037 A 
ATOM     91  C   UNL A   1      29.311  27.264  23.393  1.00  0.00     0.010 C 
ATOM     92  C   UNL A   1      32.148  29.800  26.512  1.00  0.00     0.004 A 
ATOM     93  C   UNL A   1      31.529  29.804  25.247  1.00  0.00     0.004 A 
ATOM     94  C   UNL A   1      30.299  28.472  23.387  1.00  0.00     0.036 C 
ENDBRANCH  80  83
ENDBRANCH  78  79
ENDBRANCH  77  78
ENDBRANCH  76  77
ENDBRANCH  75  76
ENDBRANCH   1  75
TORSDOF 16
ENDMDL
