MODEL 1
REMARK VINA RESULT:     -11.6      0.000      0.000
REMARK SMILES CC(C)N1C[C@@H](C(=O)N2CCC(C(=O)NCCCCCCNC(=O)c3ccc(-c4c5nc(c(-c6c(F)cc(S(=O)(=O)[O-])cc6F)c6ccc([nH]6)c(-c6c(F)cc(S(=O)(=O)[O-])cc6F)c6nc(c(-c7c(F)cc(S(=O)(=O)[O-])cc7F)c7ccc4[nH]7)C=C6)C=C5)cc3)CC2)CC1=O
REMARK SMILES IDX 19 1 18 2 17 3 16 4 15 5 13 6 14 7 12 9 7 10 8 11 9 12 10 13
REMARK SMILES IDX 92 14 11 15 91 16 6 17 4 18 5 19 94 20 93 21 95 22 2 23 1 24
REMARK SMILES IDX 3 25 20 26 21 27 22 28 23 29 24 31 25 32 26 33 90 34 27 35
REMARK SMILES IDX 89 36 28 37 29 38 30 39 83 40 31 41 88 42 82 43 84 44 32 45
REMARK SMILES IDX 87 46 81 47 80 48 33 50 67 51 46 52 66 53 47 54 50 55 65 56
REMARK SMILES IDX 85 57 48 58 49 59 64 61 86 62 51 63 34 64 35 65 44 66 36 67
REMARK SMILES IDX 37 68 43 69 45 70 38 71 39 72 40 73 41 74 42 75 68 76 69 77
REMARK SMILES IDX 78 78 70 79 71 80 77 81 79 82 72 83 73 84 74 85 75 86 76 87
REMARK SMILES IDX 52 88 53 89 62 90 54 91 55 92 61 93 63 94 56 95 57 96 58 97
REMARK SMILES IDX 59 98 60 99
REMARK H PARENT 15 8 22 30 84 49 50 60
REMARK Flexibility Score: inf
ROOT
ATOM      1  C   UNL A   1      31.845  29.271  25.700  1.00  0.00     0.002 C 
ENDROOT
BRANCH   1   2
ATOM      2  C   UNL A   1      31.685  29.426  24.183  1.00  0.00     0.002 C 
BRANCH   2   3
ATOM      3  C   UNL A   1      30.259  29.743  23.718  1.00  0.00     0.021 C 
BRANCH   3   4
ATOM      4  C   UNL A   1      29.715  28.752  22.692  1.00  0.00     0.116 C 
BRANCH   4   5
ATOM      5  N   UNL A   1      28.748  27.853  23.302  1.00  0.00    -0.356 N 
ATOM      6  C   UNL A   1      28.916  26.679  23.966  1.00  0.00     0.223 C 
ATOM      7  O   UNL A   1      27.910  26.065  24.331  1.00  0.00    -0.275 OA
ATOM      8  H   UNL A   1      27.810  28.143  23.219  1.00  0.00     0.163 HD
BRANCH   6   9
ATOM      9  C   UNL A   1      30.302  26.143  24.296  1.00  0.00     0.082 C 
ATOM     10  C   UNL A   1      31.810  22.450  24.752  1.00  0.00     0.227 C 
ATOM     11  O   UNL A   1      30.884  21.966  25.410  1.00  0.00    -0.274 OA
ATOM     12  N   UNL A   1      31.965  23.822  24.672  1.00  0.00    -0.342 N 
ATOM     13  C   UNL A   1      31.624  24.629  25.837  1.00  0.00     0.120 C 
ATOM     14  C   UNL A   1      32.125  24.570  23.437  1.00  0.00     0.120 C 
ATOM     15  C   UNL A   1      30.338  25.413  25.644  1.00  0.00     0.035 C 
ATOM     16  C   UNL A   1      30.862  25.356  23.104  1.00  0.00     0.035 C 
BRANCH  10  17
ATOM     17  C   UNL A   1      32.941  21.536  24.278  1.00  0.00     0.107 C 
ATOM     18  N   UNL A   1      33.759  19.360  24.634  1.00  0.00    -0.339 N 
ATOM     19  C   UNL A   1      32.526  20.083  24.469  1.00  0.00     0.133 C 
ATOM     20  C   UNL A   1      34.842  20.198  24.826  1.00  0.00     0.223 C 
ATOM     21  C   UNL A   1      34.348  21.622  24.850  1.00  0.00     0.115 C 
ATOM     22  O   UNL A   1      36.002  19.863  25.015  1.00  0.00    -0.275 OA
BRANCH  18  23
ATOM     23  C   UNL A   1      33.799  17.899  24.602  1.00  0.00     0.078 C 
ATOM     24  C   UNL A   1      32.836  17.295  25.620  1.00  0.00     0.031 C 
ATOM     25  C   UNL A   1      33.549  17.346  23.199  1.00  0.00     0.031 C 
ENDBRANCH  18  23
ENDBRANCH  10  17
ENDBRANCH   6   9
ENDBRANCH   4   5
ENDBRANCH   3   4
ENDBRANCH   2   3
ENDBRANCH   1   2
BRANCH   1  26
ATOM     26  C   UNL A   1      32.732  28.103  26.137  1.00  0.00     0.021 C 
BRANCH  26  27
ATOM     27  C   UNL A   1      33.838  28.484  27.113  1.00  0.00     0.116 C 
BRANCH  27  28
ATOM     28  N   UNL A   1      33.734  29.873  27.534  1.00  0.00    -0.352 N 
ATOM     29  C   UNL A   1      34.634  30.633  28.238  1.00  0.00     0.251 C 
ATOM     30  H   UNL A   1      32.901  30.332  27.279  1.00  0.00     0.163 HD
ATOM     31  O   UNL A   1      34.297  31.721  28.696  1.00  0.00    -0.269 OA
BRANCH  29  32
ATOM     32  C   UNL A   1      36.003  30.120  28.456  1.00  0.00     0.039 A 
ATOM     33  C   UNL A   1      36.924  30.179  27.408  1.00  0.00     0.014 A 
ATOM     34  C   UNL A   1      36.376  29.595  29.696  1.00  0.00     0.014 A 
ATOM     35  C   UNL A   1      38.241  29.766  27.625  1.00  0.00     0.010 A 
ATOM     36  C   UNL A   1      37.706  29.257  29.932  1.00  0.00     0.010 A 
ATOM     37  C   UNL A   1      38.651  29.335  28.898  1.00  0.00    -0.014 A 
BRANCH  37  38
ATOM     38  C   UNL A   1      40.064  28.967  29.172  1.00  0.00     0.031 A 
ATOM     39  C   UNL A   1      41.007  29.983  29.760  1.00  0.00     0.074 A 
ATOM     40  C   UNL A   1      40.514  27.744  28.826  1.00  0.00     0.049 A 
ATOM     41  N   UNL A   1      42.290  29.879  29.995  1.00  0.00    -0.248 NA
ATOM     42  C   UNL A   1      40.440  31.297  30.104  1.00  0.00     0.031 C 
ATOM     43  C   UNL A   1      39.706  26.688  28.210  1.00  0.00     0.029 A 
ATOM     44  N   UNL A   1      41.763  27.184  28.927  1.00  0.00    -0.354 N 
ATOM     45  C   UNL A   1      42.686  31.116  30.492  1.00  0.00     0.074 A 
ATOM     46  C   UNL A   1      41.518  31.968  30.485  1.00  0.00     0.031 C 
ATOM     47  C   UNL A   1      40.474  25.605  28.007  1.00  0.00     0.029 A 
ATOM     48  C   UNL A   1      41.838  25.902  28.433  1.00  0.00     0.049 A 
ATOM     49  H   UNL A   1      42.534  27.656  29.317  1.00  0.00     0.167 HD
ATOM     50  C   UNL A   1      43.909  31.498  30.929  1.00  0.00     0.037 A 
ATOM     51  C   UNL A   1      42.889  25.067  28.320  1.00  0.00     0.037 A 
ATOM     52  C   UNL A   1      45.058  30.631  30.961  1.00  0.00     0.049 A 
ATOM     53  C   UNL A   1      44.241  25.523  28.805  1.00  0.00     0.074 A 
ATOM     54  C   UNL A   1      46.321  30.900  31.458  1.00  0.00     0.029 A 
ATOM     55  N   UNL A   1      45.090  29.335  30.467  1.00  0.00    -0.354 N 
ATOM     56  N   UNL A   1      44.579  26.667  29.349  1.00  0.00    -0.248 NA
ATOM     57  C   UNL A   1      45.354  24.573  28.664  1.00  0.00     0.031 C 
ATOM     58  C   UNL A   1      47.134  29.790  31.209  1.00  0.00     0.029 A 
ATOM     59  C   UNL A   1      46.360  28.804  30.617  1.00  0.00     0.049 A 
ATOM     60  H   UNL A   1      44.323  28.863  30.070  1.00  0.00     0.167 HD
ATOM     61  C   UNL A   1      45.933  26.562  29.647  1.00  0.00     0.074 A 
ATOM     62  C   UNL A   1      46.350  25.239  29.233  1.00  0.00     0.031 C 
ATOM     63  C   UNL A   1      46.757  27.477  30.215  1.00  0.00     0.037 A 
BRANCH  50  64
ATOM     64  C   UNL A   1      44.079  32.915  31.406  1.00  0.00     0.058 A 
ATOM     65  C   UNL A   1      44.398  33.962  30.527  1.00  0.00     0.135 A 
ATOM     66  C   UNL A   1      43.856  33.240  32.755  1.00  0.00     0.135 A 
ATOM     67  F   UNL A   1      44.637  33.709  29.231  1.00  0.00    -0.206 F 
ATOM     68  C   UNL A   1      44.510  35.276  30.971  1.00  0.00     0.059 A 
ATOM     69  C   UNL A   1      43.932  34.552  33.215  1.00  0.00     0.059 A 
ATOM     70  F   UNL A   1      43.549  32.278  33.640  1.00  0.00    -0.206 F 
ATOM     71  C   UNL A   1      44.270  35.562  32.316  1.00  0.00     0.060 A 
BRANCH  71  72
ATOM     72  S   UNL A   1      44.394  37.275  32.868  1.00  0.00     0.124 S 
ATOM     73  O   UNL A   1      45.488  37.193  33.830  1.00  0.00    -0.237 OA
ATOM     74  O   UNL A   1      44.694  37.981  31.626  1.00  0.00    -0.237 OA
ATOM     75  O   UNL A   1      43.078  37.547  33.438  1.00  0.00    -0.744 OA
ENDBRANCH  71  72
ENDBRANCH  50  64
BRANCH  51  76
ATOM     76  C   UNL A   1      42.713  23.711  27.732  1.00  0.00     0.058 A 
ATOM     77  C   UNL A   1      42.471  22.595  28.546  1.00  0.00     0.135 A 
ATOM     78  C   UNL A   1      42.797  23.499  26.346  1.00  0.00     0.135 A 
ATOM     79  F   UNL A   1      42.387  22.742  29.878  1.00  0.00    -0.206 F 
ATOM     80  C   UNL A   1      42.350  21.314  28.015  1.00  0.00     0.059 A 
ATOM     81  C   UNL A   1      42.648  22.233  25.788  1.00  0.00     0.059 A 
ATOM     82  F   UNL A   1      43.008  24.534  25.518  1.00  0.00    -0.206 F 
ATOM     83  C   UNL A   1      42.441  21.144  26.634  1.00  0.00     0.060 A 
BRANCH  83  84
ATOM     84  S   UNL A   1      42.261  19.481  25.953  1.00  0.00     0.124 S 
ATOM     85  O   UNL A   1      43.125  19.549  24.781  1.00  0.00    -0.237 OA
ATOM     86  O   UNL A   1      42.739  18.648  27.052  1.00  0.00    -0.237 OA
ATOM     87  O   UNL A   1      40.831  19.383  25.679  1.00  0.00    -0.744 OA
ENDBRANCH  83  84
ENDBRANCH  51  76
BRANCH  63  88
ATOM     88  C   UNL A   1      48.183  27.071  30.471  1.00  0.00     0.058 A 
ATOM     89  C   UNL A   1      49.224  27.424  29.599  1.00  0.00     0.135 A 
ATOM     90  C   UNL A   1      48.520  26.373  31.643  1.00  0.00     0.135 A 
ATOM     91  F   UNL A   1      48.958  28.084  28.461  1.00  0.00    -0.206 F 
ATOM     92  C   UNL A   1      50.545  27.084  29.870  1.00  0.00     0.059 A 
ATOM     93  C   UNL A   1      49.838  26.052  31.951  1.00  0.00     0.059 A 
ATOM     94  F   UNL A   1      47.564  26.019  32.517  1.00  0.00    -0.206 F 
ATOM     95  C   UNL A   1      50.843  26.404  31.053  1.00  0.00     0.060 A 
BRANCH  95  96
ATOM     96  S   UNL A   1      52.568  26.013  31.415  1.00  0.00     0.124 S 
ATOM     97  O   UNL A   1      53.161  26.034  30.081  1.00  0.00    -0.237 OA
ATOM     98  O   UNL A   1      52.956  27.106  32.299  1.00  0.00    -0.237 OA
ATOM     99  O   UNL A   1      52.495  24.699  32.047  1.00  0.00    -0.744 OA
ENDBRANCH  95  96
ENDBRANCH  63  88
ENDBRANCH  37  38
ENDBRANCH  29  32
ENDBRANCH  27  28
ENDBRANCH  26  27
ENDBRANCH   1  26
TORSDOF 18
ENDMDL
MODEL 2
REMARK VINA RESULT:     -11.1      4.953     12.146
REMARK SMILES CC(C)N1C[C@@H](C(=O)N2CCC(C(=O)NCCCCCCNC(=O)c3ccc(-c4c5nc(c(-c6c(F)cc(S(=O)(=O)[O-])cc6F)c6ccc([nH]6)c(-c6c(F)cc(S(=O)(=O)[O-])cc6F)c6nc(c(-c7c(F)cc(S(=O)(=O)[O-])cc7F)c7ccc4[nH]7)C=C6)C=C5)cc3)CC2)CC1=O
REMARK SMILES IDX 19 1 18 2 17 3 16 4 15 5 13 6 14 7 12 9 7 10 8 11 9 12 10 13
REMARK SMILES IDX 92 14 11 15 91 16 6 17 4 18 5 19 94 20 93 21 95 22 2 23 1 24
REMARK SMILES IDX 3 25 20 26 21 27 22 28 23 29 24 31 25 32 26 33 90 34 27 35
REMARK SMILES IDX 89 36 28 37 29 38 30 39 83 40 31 41 88 42 82 43 84 44 32 45
REMARK SMILES IDX 87 46 81 47 80 48 33 50 67 51 46 52 66 53 47 54 50 55 65 56
REMARK SMILES IDX 85 57 48 58 49 59 64 61 86 62 51 63 34 64 35 65 44 66 36 67
REMARK SMILES IDX 37 68 43 69 45 70 38 71 39 72 40 73 41 74 42 75 68 76 69 77
REMARK SMILES IDX 78 78 70 79 71 80 77 81 79 82 72 83 73 84 74 85 75 86 76 87
REMARK SMILES IDX 52 88 53 89 62 90 54 91 55 92 61 93 63 94 56 95 57 96 58 97
REMARK SMILES IDX 59 98 60 99
REMARK H PARENT 15 8 22 30 84 49 50 60
REMARK Flexibility Score: inf
ROOT
ATOM      1  C   UNL A   1      43.610  22.153  26.438  1.00  0.00     0.002 C 
ENDROOT
BRANCH   1   2
ATOM      2  C   UNL A   1      44.789  22.766  25.675  1.00  0.00     0.002 C 
BRANCH   2   3
ATOM      3  C   UNL A   1      44.432  23.982  24.813  1.00  0.00     0.021 C 
BRANCH   3   4
ATOM      4  C   UNL A   1      44.408  25.297  25.588  1.00  0.00     0.116 C 
BRANCH   4   5
ATOM      5  N   UNL A   1      43.548  26.270  24.932  1.00  0.00    -0.356 N 
ATOM      6  C   UNL A   1      43.254  27.558  25.251  1.00  0.00     0.223 C 
ATOM      7  O   UNL A   1      42.426  28.156  24.558  1.00  0.00    -0.275 OA
ATOM      8  H   UNL A   1      43.101  25.939  24.119  1.00  0.00     0.163 HD
BRANCH   6   9
ATOM      9  C   UNL A   1      43.950  28.272  26.401  1.00  0.00     0.082 C 
ATOM     10  C   UNL A   1      45.345  32.004  26.908  1.00  0.00     0.227 C 
ATOM     11  O   UNL A   1      45.873  32.141  25.800  1.00  0.00    -0.274 OA
ATOM     12  N   UNL A   1      45.059  30.739  27.390  1.00  0.00    -0.342 N 
ATOM     13  C   UNL A   1      45.969  29.649  27.065  1.00  0.00     0.120 C 
ATOM     14  C   UNL A   1      43.771  30.323  27.919  1.00  0.00     0.120 C 
ATOM     15  C   UNL A   1      45.383  28.687  26.046  1.00  0.00     0.035 C 
ATOM     16  C   UNL A   1      43.054  29.394  26.945  1.00  0.00     0.035 C 
BRANCH  10  17
ATOM     17  C   UNL A   1      45.280  33.203  27.854  1.00  0.00     0.107 C 
ATOM     18  N   UNL A   1      43.992  35.137  28.214  1.00  0.00    -0.339 N 
ATOM     19  C   UNL A   1      43.856  33.744  27.882  1.00  0.00     0.133 C 
ATOM     20  C   UNL A   1      45.302  35.574  28.139  1.00  0.00     0.223 C 
ATOM     21  C   UNL A   1      46.163  34.428  27.674  1.00  0.00     0.115 C 
ATOM     22  O   UNL A   1      45.708  36.708  28.345  1.00  0.00    -0.275 OA
BRANCH  18  23
ATOM     23  C   UNL A   1      42.834  35.954  28.575  1.00  0.00     0.078 C 
ATOM     24  C   UNL A   1      42.423  36.871  27.427  1.00  0.00     0.031 C 
ATOM     25  C   UNL A   1      41.659  35.105  29.061  1.00  0.00     0.031 C 
ENDBRANCH  18  23
ENDBRANCH  10  17
ENDBRANCH   6   9
ENDBRANCH   4   5
ENDBRANCH   3   4
ENDBRANCH   2   3
ENDBRANCH   1   2
BRANCH   1  26
ATOM     26  C   UNL A   1      42.245  22.336  25.770  1.00  0.00     0.021 C 
BRANCH  26  27
ATOM     27  C   UNL A   1      41.062  21.904  26.628  1.00  0.00     0.116 C 
BRANCH  27  28
ATOM     28  N   UNL A   1      39.798  22.056  25.924  1.00  0.00    -0.352 N 
ATOM     29  C   UNL A   1      38.869  23.061  26.025  1.00  0.00     0.251 C 
ATOM     30  H   UNL A   1      39.578  21.337  25.288  1.00  0.00     0.163 HD
ATOM     31  O   UNL A   1      37.758  22.926  25.519  1.00  0.00    -0.269 OA
BRANCH  29  32
ATOM     32  C   UNL A   1      39.211  24.296  26.761  1.00  0.00     0.039 A 
ATOM     33  C   UNL A   1      38.757  24.452  28.072  1.00  0.00     0.014 A 
ATOM     34  C   UNL A   1      39.987  25.290  26.159  1.00  0.00     0.014 A 
ATOM     35  C   UNL A   1      39.136  25.581  28.803  1.00  0.00     0.010 A 
ATOM     36  C   UNL A   1      40.425  26.375  26.912  1.00  0.00     0.010 A 
ATOM     37  C   UNL A   1      40.003  26.534  28.241  1.00  0.00    -0.014 A 
BRANCH  37  38
ATOM     38  C   UNL A   1      40.483  27.701  29.025  1.00  0.00     0.031 A 
ATOM     39  C   UNL A   1      41.820  27.647  29.713  1.00  0.00     0.074 A 
ATOM     40  C   UNL A   1      39.684  28.777  29.175  1.00  0.00     0.049 A 
ATOM     41  N   UNL A   1      42.376  28.527  30.506  1.00  0.00    -0.248 NA
ATOM     42  C   UNL A   1      42.629  26.435  29.504  1.00  0.00     0.031 C 
ATOM     43  C   UNL A   1      38.348  28.928  28.592  1.00  0.00     0.029 A 
ATOM     44  N   UNL A   1      39.870  29.943  29.876  1.00  0.00    -0.354 N 
ATOM     45  C   UNL A   1      43.584  27.967  30.907  1.00  0.00     0.074 A 
ATOM     46  C   UNL A   1      43.662  26.655  30.305  1.00  0.00     0.031 C 
ATOM     47  C   UNL A   1      37.846  30.123  28.943  1.00  0.00     0.029 A 
ATOM     48  C   UNL A   1      38.799  30.805  29.813  1.00  0.00     0.049 A 
ATOM     49  H   UNL A   1      40.693  30.143  30.378  1.00  0.00     0.167 HD
ATOM     50  C   UNL A   1      44.546  28.507  31.692  1.00  0.00     0.037 A 
ATOM     51  C   UNL A   1      38.600  32.000  30.402  1.00  0.00     0.037 A 
ATOM     52  C   UNL A   1      44.472  29.828  32.261  1.00  0.00     0.049 A 
ATOM     53  C   UNL A   1      39.684  32.572  31.279  1.00  0.00     0.074 A 
ATOM     54  C   UNL A   1      45.428  30.495  33.005  1.00  0.00     0.029 A 
ATOM     55  N   UNL A   1      43.378  30.676  32.160  1.00  0.00    -0.354 N 
ATOM     56  N   UNL A   1      40.856  32.064  31.580  1.00  0.00    -0.248 NA
ATOM     57  C   UNL A   1      39.421  33.880  31.895  1.00  0.00     0.031 C 
ATOM     58  C   UNL A   1      44.891  31.722  33.407  1.00  0.00     0.029 A 
ATOM     59  C   UNL A   1      43.624  31.847  32.858  1.00  0.00     0.049 A 
ATOM     60  H   UNL A   1      42.551  30.476  31.666  1.00  0.00     0.167 HD
ATOM     61  C   UNL A   1      41.482  33.005  32.389  1.00  0.00     0.074 A 
ATOM     62  C   UNL A   1      40.565  34.117  32.524  1.00  0.00     0.031 C 
ATOM     63  C   UNL A   1      42.707  32.955  32.967  1.00  0.00     0.037 A 
BRANCH  50  64
ATOM     64  C   UNL A   1      45.764  27.676  31.991  1.00  0.00     0.058 A 
ATOM     65  C   UNL A   1      46.895  27.690  31.161  1.00  0.00     0.135 A 
ATOM     66  C   UNL A   1      45.822  26.902  33.162  1.00  0.00     0.135 A 
ATOM     67  F   UNL A   1      46.892  28.399  30.022  1.00  0.00    -0.206 F 
ATOM     68  C   UNL A   1      48.034  26.952  31.471  1.00  0.00     0.059 A 
ATOM     69  C   UNL A   1      46.962  26.180  33.507  1.00  0.00     0.059 A 
ATOM     70  F   UNL A   1      44.768  26.850  33.991  1.00  0.00    -0.206 F 
ATOM     71  C   UNL A   1      48.060  26.203  32.649  1.00  0.00     0.060 A 
BRANCH  71  72
ATOM     72  S   UNL A   1      49.553  25.273  33.046  1.00  0.00     0.124 S 
ATOM     73  O   UNL A   1      50.049  24.935  31.716  1.00  0.00    -0.237 OA
ATOM     74  O   UNL A   1      50.342  26.254  33.786  1.00  0.00    -0.237 OA
ATOM     75  O   UNL A   1      49.057  24.149  33.834  1.00  0.00    -0.744 OA
ENDBRANCH  71  72
ENDBRANCH  50  64
BRANCH  51  76
ATOM     76  C   UNL A   1      37.331  32.746  30.181  1.00  0.00     0.058 A 
ATOM     77  C   UNL A   1      36.201  32.502  30.975  1.00  0.00     0.135 A 
ATOM     78  C   UNL A   1      37.216  33.706  29.163  1.00  0.00     0.135 A 
ATOM     79  F   UNL A   1      36.257  31.589  31.958  1.00  0.00    -0.206 F 
ATOM     80  C   UNL A   1      34.994  33.157  30.751  1.00  0.00     0.059 A 
ATOM     81  C   UNL A   1      36.030  34.397  28.939  1.00  0.00     0.059 A 
ATOM     82  F   UNL A   1      38.271  33.992  28.385  1.00  0.00    -0.206 F 
ATOM     83  C   UNL A   1      34.919  34.103  29.728  1.00  0.00     0.060 A 
BRANCH  83  84
ATOM     84  S   UNL A   1      33.354  34.964  29.459  1.00  0.00     0.124 S 
ATOM     85  O   UNL A   1      32.769  34.178  28.379  1.00  0.00    -0.237 OA
ATOM     86  O   UNL A   1      32.709  34.839  30.762  1.00  0.00    -0.237 OA
ATOM     87  O   UNL A   1      33.771  36.316  29.103  1.00  0.00    -0.744 OA
ENDBRANCH  83  84
ENDBRANCH  51  76
BRANCH  63  88
ATOM     88  C   UNL A   1      43.156  34.152  33.760  1.00  0.00     0.058 A 
ATOM     89  C   UNL A   1      43.655  35.309  33.140  1.00  0.00     0.135 A 
ATOM     90  C   UNL A   1      43.022  34.166  35.158  1.00  0.00     0.135 A 
ATOM     91  F   UNL A   1      43.811  35.348  31.808  1.00  0.00    -0.206 F 
ATOM     92  C   UNL A   1      44.023  36.428  33.880  1.00  0.00     0.059 A 
ATOM     93  C   UNL A   1      43.352  35.285  35.915  1.00  0.00     0.059 A 
ATOM     94  F   UNL A   1      42.542  33.090  35.802  1.00  0.00    -0.206 F 
ATOM     95  C   UNL A   1      43.861  36.409  35.267  1.00  0.00     0.060 A 
BRANCH  95  96
ATOM     96  S   UNL A   1      44.296  37.887  36.209  1.00  0.00     0.124 S 
ATOM     97  O   UNL A   1      43.302  37.858  37.278  1.00  0.00    -0.237 OA
ATOM     98  O   UNL A   1      45.669  37.605  36.613  1.00  0.00    -0.237 OA
ATOM     99  O   UNL A   1      44.142  38.967  35.239  1.00  0.00    -0.744 OA
ENDBRANCH  95  96
ENDBRANCH  63  88
ENDBRANCH  37  38
ENDBRANCH  29  32
ENDBRANCH  27  28
ENDBRANCH  26  27
ENDBRANCH   1  26
TORSDOF 18
ENDMDL
MODEL 3
REMARK VINA RESULT:     -10.9      2.408      2.946
REMARK SMILES CC(C)N1C[C@@H](C(=O)N2CCC(C(=O)NCCCCCCNC(=O)c3ccc(-c4c5nc(c(-c6c(F)cc(S(=O)(=O)[O-])cc6F)c6ccc([nH]6)c(-c6c(F)cc(S(=O)(=O)[O-])cc6F)c6nc(c(-c7c(F)cc(S(=O)(=O)[O-])cc7F)c7ccc4[nH]7)C=C6)C=C5)cc3)CC2)CC1=O
REMARK SMILES IDX 19 1 18 2 17 3 16 4 15 5 13 6 14 7 12 9 7 10 8 11 9 12 10 13
REMARK SMILES IDX 92 14 11 15 91 16 6 17 4 18 5 19 94 20 93 21 95 22 2 23 1 24
REMARK SMILES IDX 3 25 20 26 21 27 22 28 23 29 24 31 25 32 26 33 90 34 27 35
REMARK SMILES IDX 89 36 28 37 29 38 30 39 83 40 31 41 88 42 82 43 84 44 32 45
REMARK SMILES IDX 87 46 81 47 80 48 33 50 67 51 46 52 66 53 47 54 50 55 65 56
REMARK SMILES IDX 85 57 48 58 49 59 64 61 86 62 51 63 34 64 35 65 44 66 36 67
REMARK SMILES IDX 37 68 43 69 45 70 38 71 39 72 40 73 41 74 42 75 68 76 69 77
REMARK SMILES IDX 78 78 70 79 71 80 77 81 79 82 72 83 73 84 74 85 75 86 76 87
REMARK SMILES IDX 52 88 53 89 62 90 54 91 55 92 61 93 63 94 56 95 57 96 58 97
REMARK SMILES IDX 59 98 60 99
REMARK H PARENT 15 8 22 30 84 49 50 60
REMARK Flexibility Score: inf
ROOT
ATOM      1  C   UNL A   1      31.867  29.404  25.141  1.00  0.00     0.002 C 
ENDROOT
BRANCH   1   2
ATOM      2  C   UNL A   1      31.375  29.548  23.696  1.00  0.00     0.002 C 
BRANCH   2   3
ATOM      3  C   UNL A   1      29.871  29.802  23.553  1.00  0.00     0.021 C 
BRANCH   3   4
ATOM      4  C   UNL A   1      29.184  28.877  22.552  1.00  0.00     0.116 C 
BRANCH   4   5
ATOM      5  N   UNL A   1      28.333  27.914  23.234  1.00  0.00    -0.356 N 
ATOM      6  C   UNL A   1      28.634  26.753  23.872  1.00  0.00     0.223 C 
ATOM      7  O   UNL A   1      27.704  26.073  24.315  1.00  0.00    -0.275 OA
ATOM      8  H   UNL A   1      27.375  28.142  23.232  1.00  0.00     0.163 HD
BRANCH   6   9
ATOM      9  C   UNL A   1      30.075  26.309  24.081  1.00  0.00     0.082 C 
ATOM     10  C   UNL A   1      31.808  22.753  24.770  1.00  0.00     0.227 C 
ATOM     11  O   UNL A   1      30.995  22.323  25.595  1.00  0.00    -0.274 OA
ATOM     12  N   UNL A   1      31.883  24.109  24.509  1.00  0.00    -0.342 N 
ATOM     13  C   UNL A   1      31.651  25.042  25.604  1.00  0.00     0.120 C 
ATOM     14  C   UNL A   1      31.852  24.704  23.184  1.00  0.00     0.120 C 
ATOM     15  C   UNL A   1      30.314  25.753  25.489  1.00  0.00     0.035 C 
ATOM     16  C   UNL A   1      30.519  25.399  22.927  1.00  0.00     0.035 C 
BRANCH  10  17
ATOM     17  C   UNL A   1      32.914  21.826  24.264  1.00  0.00     0.107 C 
ATOM     18  N   UNL A   1      33.540  19.561  24.358  1.00  0.00    -0.339 N 
ATOM     19  C   UNL A   1      32.383  20.400  24.196  1.00  0.00     0.133 C 
ATOM     20  C   UNL A   1      34.654  20.270  24.769  1.00  0.00     0.223 C 
ATOM     21  C   UNL A   1      34.260  21.711  24.965  1.00  0.00     0.115 C 
ATOM     22  O   UNL A   1      35.763  19.816  25.006  1.00  0.00    -0.275 OA
BRANCH  18  23
ATOM     23  C   UNL A   1      33.482  18.122  24.108  1.00  0.00     0.078 C 
ATOM     24  C   UNL A   1      32.949  17.370  25.324  1.00  0.00     0.031 C 
ATOM     25  C   UNL A   1      32.683  17.787  22.849  1.00  0.00     0.031 C 
ENDBRANCH  18  23
ENDBRANCH  10  17
ENDBRANCH   6   9
ENDBRANCH   4   5
ENDBRANCH   3   4
ENDBRANCH   2   3
ENDBRANCH   1   2
BRANCH   1  26
ATOM     26  C   UNL A   1      33.015  28.410  25.334  1.00  0.00     0.021 C 
BRANCH  26  27
ATOM     27  C   UNL A   1      34.150  28.924  26.211  1.00  0.00     0.116 C 
BRANCH  27  28
ATOM     28  N   UNL A   1      33.903  30.280  26.678  1.00  0.00    -0.352 N 
ATOM     29  C   UNL A   1      34.547  30.985  27.664  1.00  0.00     0.251 C 
ATOM     30  H   UNL A   1      33.171  30.757  26.225  1.00  0.00     0.163 HD
ATOM     31  O   UNL A   1      34.072  32.039  28.077  1.00  0.00    -0.269 OA
BRANCH  29  32
ATOM     32  C   UNL A   1      35.804  30.456  28.233  1.00  0.00     0.039 A 
ATOM     33  C   UNL A   1      37.013  30.750  27.598  1.00  0.00     0.014 A 
ATOM     34  C   UNL A   1      35.787  29.682  29.396  1.00  0.00     0.014 A 
ATOM     35  C   UNL A   1      38.213  30.317  28.168  1.00  0.00     0.010 A 
ATOM     36  C   UNL A   1      36.986  29.317  30.002  1.00  0.00     0.010 A 
ATOM     37  C   UNL A   1      38.211  29.628  29.393  1.00  0.00    -0.014 A 
BRANCH  37  38
ATOM     38  C   UNL A   1      39.478  29.228  30.057  1.00  0.00     0.031 A 
ATOM     39  C   UNL A   1      39.976  29.995  31.252  1.00  0.00     0.074 A 
ATOM     40  C   UNL A   1      40.213  28.222  29.541  1.00  0.00     0.049 A 
ATOM     41  N   UNL A   1      41.094  29.852  31.917  1.00  0.00    -0.248 NA
ATOM     42  C   UNL A   1      39.120  31.083  31.751  1.00  0.00     0.031 C 
ATOM     43  C   UNL A   1      39.855  27.432  28.360  1.00  0.00     0.029 A 
ATOM     44  N   UNL A   1      41.421  27.700  29.931  1.00  0.00    -0.354 N 
ATOM     45  C   UNL A   1      41.085  30.842  32.894  1.00  0.00     0.074 A 
ATOM     46  C   UNL A   1      39.871  31.606  32.709  1.00  0.00     0.031 C 
ATOM     47  C   UNL A   1      40.811  26.515  28.136  1.00  0.00     0.029 A 
ATOM     48  C   UNL A   1      41.872  26.681  29.124  1.00  0.00     0.049 A 
ATOM     49  H   UNL A   1      41.918  28.024  30.717  1.00  0.00     0.167 HD
ATOM     50  C   UNL A   1      41.998  31.079  33.865  1.00  0.00     0.037 A 
ATOM     51  C   UNL A   1      43.016  25.971  29.165  1.00  0.00     0.037 A 
ATOM     52  C   UNL A   1      43.188  30.292  34.059  1.00  0.00     0.049 A 
ATOM     53  C   UNL A   1      44.019  26.264  30.251  1.00  0.00     0.074 A 
ATOM     54  C   UNL A   1      44.135  30.403  35.061  1.00  0.00     0.029 A 
ATOM     55  N   UNL A   1      43.601  29.258  33.231  1.00  0.00    -0.354 N 
ATOM     56  N   UNL A   1      43.954  27.149  31.217  1.00  0.00    -0.248 NA
ATOM     57  C   UNL A   1      45.250  25.460  30.255  1.00  0.00     0.031 C 
ATOM     58  C   UNL A   1      45.152  29.478  34.806  1.00  0.00     0.029 A 
ATOM     59  C   UNL A   1      44.806  28.745  33.681  1.00  0.00     0.049 A 
ATOM     60  H   UNL A   1      43.110  28.936  32.441  1.00  0.00     0.167 HD
ATOM     61  C   UNL A   1      45.116  26.984  31.963  1.00  0.00     0.074 A 
ATOM     62  C   UNL A   1      45.861  25.909  31.343  1.00  0.00     0.031 C 
ATOM     63  C   UNL A   1      45.528  27.661  33.063  1.00  0.00     0.037 A 
BRANCH  50  64
ATOM     64  C   UNL A   1      41.757  32.237  34.795  1.00  0.00     0.058 A 
ATOM     65  C   UNL A   1      42.320  33.503  34.566  1.00  0.00     0.135 A 
ATOM     66  C   UNL A   1      40.899  32.094  35.898  1.00  0.00     0.135 A 
ATOM     67  F   UNL A   1      43.160  33.695  33.536  1.00  0.00    -0.206 F 
ATOM     68  C   UNL A   1      42.056  34.579  35.408  1.00  0.00     0.059 A 
ATOM     69  C   UNL A   1      40.596  33.164  36.735  1.00  0.00     0.059 A 
ATOM     70  F   UNL A   1      40.335  30.905  36.165  1.00  0.00    -0.206 F 
ATOM     71  C   UNL A   1      41.188  34.402  36.487  1.00  0.00     0.060 A 
BRANCH  71  72
ATOM     72  S   UNL A   1      40.837  35.815  37.552  1.00  0.00     0.124 S 
ATOM     73  O   UNL A   1      40.627  35.163  38.841  1.00  0.00    -0.237 OA
ATOM     74  O   UNL A   1      42.060  36.604  37.434  1.00  0.00    -0.237 OA
ATOM     75  O   UNL A   1      39.649  36.410  36.949  1.00  0.00    -0.744 OA
ENDBRANCH  71  72
ENDBRANCH  50  64
BRANCH  51  76
ATOM     76  C   UNL A   1      43.279  24.910  28.156  1.00  0.00     0.058 A 
ATOM     77  C   UNL A   1      42.898  23.580  28.388  1.00  0.00     0.135 A 
ATOM     78  C   UNL A   1      43.931  25.197  26.946  1.00  0.00     0.135 A 
ATOM     79  F   UNL A   1      42.277  23.250  29.532  1.00  0.00    -0.206 F 
ATOM     80  C   UNL A   1      43.179  22.568  27.476  1.00  0.00     0.059 A 
ATOM     81  C   UNL A   1      44.195  24.209  26.003  1.00  0.00     0.059 A 
ATOM     82  F   UNL A   1      44.302  26.456  26.663  1.00  0.00    -0.206 F 
ATOM     83  C   UNL A   1      43.829  22.893  26.285  1.00  0.00     0.060 A 
BRANCH  83  84
ATOM     84  S   UNL A   1      44.170  21.576  25.097  1.00  0.00     0.124 S 
ATOM     85  O   UNL A   1      44.024  22.279  23.829  1.00  0.00    -0.237 OA
ATOM     86  O   UNL A   1      45.528  21.183  25.458  1.00  0.00    -0.237 OA
ATOM     87  O   UNL A   1      43.140  20.584  25.392  1.00  0.00    -0.744 OA
ENDBRANCH  83  84
ENDBRANCH  51  76
BRANCH  63  88
ATOM     88  C   UNL A   1      46.820  27.232  33.705  1.00  0.00     0.058 A 
ATOM     89  C   UNL A   1      46.864  26.237  34.695  1.00  0.00     0.135 A 
ATOM     90  C   UNL A   1      48.040  27.779  33.273  1.00  0.00     0.135 A 
ATOM     91  F   UNL A   1      45.728  25.686  35.149  1.00  0.00    -0.206 F 
ATOM     92  C   UNL A   1      48.069  25.815  35.247  1.00  0.00     0.059 A 
ATOM     93  C   UNL A   1      49.258  27.349  33.787  1.00  0.00     0.059 A 
ATOM     94  F   UNL A   1      48.056  28.727  32.322  1.00  0.00    -0.206 F 
ATOM     95  C   UNL A   1      49.262  26.372  34.781  1.00  0.00     0.060 A 
BRANCH  95  96
ATOM     96  S   UNL A   1      50.821  25.779  35.471  1.00  0.00     0.124 S 
ATOM     97  O   UNL A   1      51.465  25.204  34.294  1.00  0.00    -0.237 OA
ATOM     98  O   UNL A   1      51.420  27.005  35.986  1.00  0.00    -0.237 OA
ATOM     99  O   UNL A   1      50.401  24.819  36.487  1.00  0.00    -0.744 OA
ENDBRANCH  95  96
ENDBRANCH  63  88
ENDBRANCH  37  38
ENDBRANCH  29  32
ENDBRANCH  27  28
ENDBRANCH  26  27
ENDBRANCH   1  26
TORSDOF 18
ENDMDL
