MODEL 1
REMARK VINA RESULT:     -11.7      0.000      0.000
REMARK SMILES Cc1ccc(F)cc1NS(=O)(=O)c1ccc(C(=O)NCCCCCCNC(=O)c2ccc(-c3c4nc(c(-c5c(F)cc(S(=O)(=O)[O-])cc5F)c5ccc([nH]5)c(-c5c(F)cc(S(=O)(=O)[O-])cc5F)c5nc(c(-c6c(F)cc(S(=O)(=O)[O-])cc6F)c6ccc3[nH]6)C=C5)C=C4)cc2)cc1
REMARK SMILES IDX 22 1 21 2 20 3 19 4 17 5 18 6 16 8 13 9 14 10 96 11 15 12
REMARK SMILES IDX 95 13 10 14 11 15 12 16 9 17 8 19 1 20 2 21 3 22 4 23 7 24
REMARK SMILES IDX 5 25 6 26 23 27 24 28 25 29 26 30 27 31 28 33 29 34 30 35
REMARK SMILES IDX 94 36 31 37 93 38 32 39 33 40 34 41 87 42 35 43 92 44 86 45
REMARK SMILES IDX 88 46 36 47 91 48 85 49 84 50 37 52 71 53 50 54 70 55 51 56
REMARK SMILES IDX 54 57 69 58 89 59 52 60 53 61 68 63 90 64 55 65 38 66 39 67
REMARK SMILES IDX 48 68 40 69 41 70 47 71 49 72 42 73 43 74 44 75 45 76 46 77
REMARK SMILES IDX 72 78 73 79 82 80 74 81 75 82 81 83 83 84 76 85 77 86 78 87
REMARK SMILES IDX 79 88 80 89 56 90 57 91 66 92 58 93 59 94 65 95 67 96 60 97
REMARK SMILES IDX 61 98 62 99 63 100 64 101
REMARK H PARENT 19 7 9 18 26 32 88 51 54 62
REMARK Flexibility Score: inf
ROOT
ATOM      1  C   UNL A   1      33.918  29.547  27.104  1.00  0.00     0.002 C 
ENDROOT
BRANCH   1   2
ATOM      2  C   UNL A   1      32.982  30.496  26.343  1.00  0.00     0.021 C 
BRANCH   2   3
ATOM      3  C   UNL A   1      31.964  29.773  25.464  1.00  0.00     0.116 C 
BRANCH   3   4
ATOM      4  N   UNL A   1      32.574  29.399  24.203  1.00  0.00    -0.352 N 
ATOM      5  C   UNL A   1      32.905  28.169  23.711  1.00  0.00     0.251 C 
ATOM      6  O   UNL A   1      33.369  28.076  22.577  1.00  0.00    -0.269 OA
ATOM      7  H   UNL A   1      32.784  30.154  23.606  1.00  0.00     0.163 HD
BRANCH   5   8
ATOM      8  C   UNL A   1      32.662  26.936  24.492  1.00  0.00     0.039 A 
ATOM      9  C   UNL A   1      32.176  24.474  25.712  1.00  0.00     0.087 A 
ATOM     10  C   UNL A   1      31.231  25.011  24.829  1.00  0.00     0.023 A 
ATOM     11  C   UNL A   1      33.323  25.201  26.053  1.00  0.00     0.023 A 
ATOM     12  C   UNL A   1      31.494  26.223  24.194  1.00  0.00     0.015 A 
ATOM     13  C   UNL A   1      33.573  26.430  25.428  1.00  0.00     0.015 A 
BRANCH   9  14
ATOM     14  S   UNL A   1      31.889  22.853  26.382  1.00  0.00     0.261 S 
ATOM     15  O   UNL A   1      30.512  22.494  26.104  1.00  0.00    -0.201 OA
ATOM     16  O   UNL A   1      32.386  22.841  27.741  1.00  0.00    -0.201 OA
BRANCH  14  17
ATOM     17  N   UNL A   1      32.880  21.753  25.517  1.00  0.00    -0.279 N 
ATOM     18  H   UNL A   1      32.588  20.820  25.400  1.00  0.00     0.180 HD
BRANCH  17  19
ATOM     19  C   UNL A   1      34.137  22.183  24.962  1.00  0.00     0.055 A 
ATOM     20  C   UNL A   1      33.174  22.713  22.626  1.00  0.00     0.046 C 
ATOM     21  C   UNL A   1      34.271  22.696  23.656  1.00  0.00    -0.027 A 
ATOM     22  C   UNL A   1      35.548  23.108  23.211  1.00  0.00     0.008 A 
ATOM     23  C   UNL A   1      36.667  22.999  24.034  1.00  0.00     0.039 A 
ATOM     24  C   UNL A   1      35.286  21.996  25.736  1.00  0.00     0.066 A 
ATOM     25  C   UNL A   1      36.526  22.427  25.285  1.00  0.00     0.125 A 
ATOM     26  F   UNL A   1      37.602  22.271  26.064  1.00  0.00    -0.207 F 
ENDBRANCH  17  19
ENDBRANCH  14  17
ENDBRANCH   9  14
ENDBRANCH   5   8
ENDBRANCH   3   4
ENDBRANCH   2   3
ENDBRANCH   1   2
BRANCH   1  27
ATOM     27  C   UNL A   1      35.196  30.199  27.643  1.00  0.00     0.002 C 
BRANCH  27  28
ATOM     28  C   UNL A   1      35.099  31.710  27.870  1.00  0.00     0.021 C 
BRANCH  28  29
ATOM     29  C   UNL A   1      36.080  32.250  28.905  1.00  0.00     0.116 C 
BRANCH  29  30
ATOM     30  N   UNL A   1      35.824  31.697  30.225  1.00  0.00    -0.352 N 
ATOM     31  C   UNL A   1      36.558  30.776  30.930  1.00  0.00     0.251 C 
ATOM     32  H   UNL A   1      35.013  32.028  30.675  1.00  0.00     0.163 HD
ATOM     33  O   UNL A   1      36.082  30.236  31.923  1.00  0.00    -0.269 OA
BRANCH  31  34
ATOM     34  C   UNL A   1      37.922  30.435  30.475  1.00  0.00     0.039 A 
ATOM     35  C   UNL A   1      38.918  30.204  31.425  1.00  0.00     0.014 A 
ATOM     36  C   UNL A   1      38.212  30.349  29.110  1.00  0.00     0.014 A 
ATOM     37  C   UNL A   1      40.198  29.837  31.004  1.00  0.00     0.010 A 
ATOM     38  C   UNL A   1      39.467  29.916  28.696  1.00  0.00     0.010 A 
ATOM     39  C   UNL A   1      40.475  29.664  29.638  1.00  0.00    -0.014 A 
BRANCH  39  40
ATOM     40  C   UNL A   1      41.816  29.230  29.173  1.00  0.00     0.031 A 
ATOM     41  C   UNL A   1      42.944  30.222  29.095  1.00  0.00     0.074 A 
ATOM     42  C   UNL A   1      41.998  27.960  28.759  1.00  0.00     0.049 A 
ATOM     43  N   UNL A   1      44.164  30.054  28.654  1.00  0.00    -0.248 NA
ATOM     44  C   UNL A   1      42.654  31.594  29.545  1.00  0.00     0.031 C 
ATOM     45  C   UNL A   1      40.965  26.922  28.740  1.00  0.00     0.029 A 
ATOM     46  N   UNL A   1      43.111  27.331  28.264  1.00  0.00    -0.354 N 
ATOM     47  C   UNL A   1      44.781  31.294  28.759  1.00  0.00     0.074 A 
ATOM     48  C   UNL A   1      43.785  32.220  29.253  1.00  0.00     0.031 C 
ATOM     49  C   UNL A   1      41.499  25.781  28.277  1.00  0.00     0.029 A 
ATOM     50  C   UNL A   1      42.898  26.013  27.933  1.00  0.00     0.049 A 
ATOM     51  H   UNL A   1      43.980  27.779  28.156  1.00  0.00     0.167 HD
ATOM     52  C   UNL A   1      46.067  31.627  28.490  1.00  0.00     0.037 A 
ATOM     53  C   UNL A   1      43.734  25.098  27.404  1.00  0.00     0.037 A 
ATOM     54  C   UNL A   1      47.056  30.693  28.020  1.00  0.00     0.049 A 
ATOM     55  C   UNL A   1      45.158  25.487  27.118  1.00  0.00     0.074 A 
ATOM     56  C   UNL A   1      48.400  30.913  27.774  1.00  0.00     0.029 A 
ATOM     57  N   UNL A   1      46.808  29.360  27.720  1.00  0.00    -0.354 N 
ATOM     58  N   UNL A   1      45.744  26.650  27.287  1.00  0.00    -0.248 NA
ATOM     59  C   UNL A   1      46.038  24.442  26.580  1.00  0.00     0.031 C 
ATOM     60  C   UNL A   1      48.955  29.726  27.284  1.00  0.00     0.029 A 
ATOM     61  C   UNL A   1      47.969  28.752  27.273  1.00  0.00     0.049 A 
ATOM     62  H   UNL A   1      45.936  28.914  27.812  1.00  0.00     0.167 HD
ATOM     63  C   UNL A   1      47.067  26.468  26.900  1.00  0.00     0.074 A 
ATOM     64  C   UNL A   1      47.197  25.082  26.500  1.00  0.00     0.031 C 
ATOM     65  C   UNL A   1      48.082  27.368  26.882  1.00  0.00     0.037 A 
BRANCH  52  66
ATOM     66  C   UNL A   1      46.471  33.061  28.698  1.00  0.00     0.058 A 
ATOM     67  C   UNL A   1      46.959  33.519  29.934  1.00  0.00     0.135 A 
ATOM     68  C   UNL A   1      46.389  33.987  27.646  1.00  0.00     0.135 A 
ATOM     69  F   UNL A   1      47.047  32.681  30.980  1.00  0.00    -0.206 F 
ATOM     70  C   UNL A   1      47.313  34.850  30.129  1.00  0.00     0.059 A 
ATOM     71  C   UNL A   1      46.767  35.317  27.811  1.00  0.00     0.059 A 
ATOM     72  F   UNL A   1      45.932  33.606  26.444  1.00  0.00    -0.206 F 
ATOM     73  C   UNL A   1      47.210  35.743  29.062  1.00  0.00     0.060 A 
BRANCH  73  74
ATOM     74  S   UNL A   1      47.663  37.470  29.335  1.00  0.00     0.124 S 
ATOM     75  O   UNL A   1      46.352  38.113  29.362  1.00  0.00    -0.237 OA
ATOM     76  O   UNL A   1      48.364  37.410  30.613  1.00  0.00    -0.237 OA
ATOM     77  O   UNL A   1      48.495  37.790  28.180  1.00  0.00    -0.744 OA
ENDBRANCH  73  74
ENDBRANCH  52  66
BRANCH  53  78
ATOM     78  C   UNL A   1      43.246  23.718  27.142  1.00  0.00     0.058 A 
ATOM     79  C   UNL A   1      42.923  23.302  25.842  1.00  0.00     0.135 A 
ATOM     80  C   UNL A   1      43.127  22.778  28.177  1.00  0.00     0.135 A 
ATOM     81  F   UNL A   1      43.016  24.166  24.819  1.00  0.00    -0.206 F 
ATOM     82  C   UNL A   1      42.489  22.007  25.577  1.00  0.00     0.059 A 
ATOM     83  C   UNL A   1      42.719  21.470  27.934  1.00  0.00     0.059 A 
ATOM     84  F   UNL A   1      43.443  23.120  29.436  1.00  0.00    -0.206 F 
ATOM     85  C   UNL A   1      42.396  21.097  26.631  1.00  0.00     0.060 A 
BRANCH  85  86
ATOM     86  S   UNL A   1      41.894  19.400  26.266  1.00  0.00     0.124 S 
ATOM     87  O   UNL A   1      40.449  19.543  26.132  1.00  0.00    -0.237 OA
ATOM     88  O   UNL A   1      42.625  19.123  25.033  1.00  0.00    -0.237 OA
ATOM     89  O   UNL A   1      42.349  18.656  27.437  1.00  0.00    -0.744 OA
ENDBRANCH  85  86
ENDBRANCH  53  78
BRANCH  65  90
ATOM     90  C   UNL A   1      49.435  26.875  26.446  1.00  0.00     0.058 A 
ATOM     91  C   UNL A   1      50.320  26.255  27.340  1.00  0.00     0.135 A 
ATOM     92  C   UNL A   1      49.825  26.976  25.099  1.00  0.00     0.135 A 
ATOM     93  F   UNL A   1      49.999  26.140  28.638  1.00  0.00    -0.206 F 
ATOM     94  C   UNL A   1      51.554  25.770  26.920  1.00  0.00     0.059 A 
ATOM     95  C   UNL A   1      51.042  26.472  24.652  1.00  0.00     0.059 A 
ATOM     96  F   UNL A   1      49.010  27.551  24.201  1.00  0.00    -0.206 F 
ATOM     97  C   UNL A   1      51.905  25.881  25.573  1.00  0.00     0.060 A 
BRANCH  97  98
ATOM     98  S   UNL A   1      53.494  25.213  25.034  1.00  0.00     0.124 S 
ATOM     99  O   UNL A   1      54.416  25.871  25.954  1.00  0.00    -0.237 OA
ATOM    100  O   UNL A   1      53.313  23.779  25.235  1.00  0.00    -0.237 OA
ATOM    101  O   UNL A   1      53.585  25.637  23.641  1.00  0.00    -0.744 OA
ENDBRANCH  97  98
ENDBRANCH  65  90
ENDBRANCH  39  40
ENDBRANCH  31  34
ENDBRANCH  29  30
ENDBRANCH  28  29
ENDBRANCH  27  28
ENDBRANCH   1  27
TORSDOF 19
ENDMDL
MODEL 2
REMARK VINA RESULT:     -11.7      2.475      8.784
REMARK SMILES Cc1ccc(F)cc1NS(=O)(=O)c1ccc(C(=O)NCCCCCCNC(=O)c2ccc(-c3c4nc(c(-c5c(F)cc(S(=O)(=O)[O-])cc5F)c5ccc([nH]5)c(-c5c(F)cc(S(=O)(=O)[O-])cc5F)c5nc(c(-c6c(F)cc(S(=O)(=O)[O-])cc6F)c6ccc3[nH]6)C=C5)C=C4)cc2)cc1
REMARK SMILES IDX 22 1 21 2 20 3 19 4 17 5 18 6 16 8 13 9 14 10 96 11 15 12
REMARK SMILES IDX 95 13 10 14 11 15 12 16 9 17 8 19 1 20 2 21 3 22 4 23 7 24
REMARK SMILES IDX 5 25 6 26 23 27 24 28 25 29 26 30 27 31 28 33 29 34 30 35
REMARK SMILES IDX 94 36 31 37 93 38 32 39 33 40 34 41 87 42 35 43 92 44 86 45
REMARK SMILES IDX 88 46 36 47 91 48 85 49 84 50 37 52 71 53 50 54 70 55 51 56
REMARK SMILES IDX 54 57 69 58 89 59 52 60 53 61 68 63 90 64 55 65 38 66 39 67
REMARK SMILES IDX 48 68 40 69 41 70 47 71 49 72 42 73 43 74 44 75 45 76 46 77
REMARK SMILES IDX 72 78 73 79 82 80 74 81 75 82 81 83 83 84 76 85 77 86 78 87
REMARK SMILES IDX 79 88 80 89 56 90 57 91 66 92 58 93 59 94 65 95 67 96 60 97
REMARK SMILES IDX 61 98 62 99 63 100 64 101
REMARK H PARENT 19 7 9 18 26 32 88 51 54 62
REMARK Flexibility Score: inf
ROOT
ATOM      1  C   UNL A   1      35.845  20.720  25.352  1.00  0.00     0.002 C 
ENDROOT
BRANCH   1   2
ATOM      2  C   UNL A   1      35.278  21.837  26.238  1.00  0.00     0.021 C 
BRANCH   2   3
ATOM      3  C   UNL A   1      33.876  21.545  26.767  1.00  0.00     0.116 C 
BRANCH   3   4
ATOM      4  N   UNL A   1      33.194  20.622  25.881  1.00  0.00    -0.352 N 
ATOM      5  C   UNL A   1      32.583  20.837  24.678  1.00  0.00     0.251 C 
ATOM      6  O   UNL A   1      32.110  19.886  24.061  1.00  0.00    -0.269 OA
ATOM      7  H   UNL A   1      33.166  19.690  26.197  1.00  0.00     0.163 HD
BRANCH   5   8
ATOM      8  C   UNL A   1      32.531  22.186  24.071  1.00  0.00     0.039 A 
ATOM      9  C   UNL A   1      32.466  24.599  22.673  1.00  0.00     0.087 A 
ATOM     10  C   UNL A   1      33.580  23.760  22.559  1.00  0.00     0.023 A 
ATOM     11  C   UNL A   1      31.420  24.279  23.549  1.00  0.00     0.023 A 
ATOM     12  C   UNL A   1      33.593  22.539  23.230  1.00  0.00     0.015 A 
ATOM     13  C   UNL A   1      31.448  23.059  24.239  1.00  0.00     0.015 A 
BRANCH   9  14
ATOM     14  S   UNL A   1      32.405  26.072  21.680  1.00  0.00     0.261 S 
ATOM     15  O   UNL A   1      31.028  26.523  21.638  1.00  0.00    -0.201 OA
ATOM     16  O   UNL A   1      33.125  25.810  20.452  1.00  0.00    -0.201 OA
BRANCH  14  17
ATOM     17  N   UNL A   1      33.306  27.283  22.494  1.00  0.00    -0.279 N 
ATOM     18  H   UNL A   1      34.157  27.599  22.113  1.00  0.00     0.180 HD
BRANCH  17  19
ATOM     19  C   UNL A   1      32.827  27.842  23.732  1.00  0.00     0.055 A 
ATOM     20  C   UNL A   1      34.065  26.144  25.231  1.00  0.00     0.046 C 
ATOM     21  C   UNL A   1      33.227  27.372  24.999  1.00  0.00    -0.027 A 
ATOM     22  C   UNL A   1      32.711  28.000  26.155  1.00  0.00     0.008 A 
ATOM     23  C   UNL A   1      31.808  29.057  26.059  1.00  0.00     0.039 A 
ATOM     24  C   UNL A   1      31.851  28.839  23.659  1.00  0.00     0.066 A 
ATOM     25  C   UNL A   1      31.374  29.455  24.808  1.00  0.00     0.125 A 
ATOM     26  F   UNL A   1      30.468  30.435  24.704  1.00  0.00    -0.207 F 
ENDBRANCH  17  19
ENDBRANCH  14  17
ENDBRANCH   9  14
ENDBRANCH   5   8
ENDBRANCH   3   4
ENDBRANCH   2   3
ENDBRANCH   1   2
BRANCH   1  27
ATOM     27  C   UNL A   1      37.232  21.006  24.764  1.00  0.00     0.002 C 
BRANCH  27  28
ATOM     28  C   UNL A   1      38.266  19.902  24.992  1.00  0.00     0.021 C 
BRANCH  28  29
ATOM     29  C   UNL A   1      39.395  20.289  25.941  1.00  0.00     0.116 C 
BRANCH  29  30
ATOM     30  N   UNL A   1      40.376  19.224  26.067  1.00  0.00    -0.352 N 
ATOM     31  C   UNL A   1      41.743  19.319  26.157  1.00  0.00     0.251 C 
ATOM     32  H   UNL A   1      40.012  18.310  26.091  1.00  0.00     0.163 HD
ATOM     33  O   UNL A   1      42.441  18.320  26.016  1.00  0.00    -0.269 OA
BRANCH  31  34
ATOM     34  C   UNL A   1      42.363  20.634  26.414  1.00  0.00     0.039 A 
ATOM     35  C   UNL A   1      42.815  21.397  25.335  1.00  0.00     0.014 A 
ATOM     36  C   UNL A   1      42.499  21.109  27.722  1.00  0.00     0.014 A 
ATOM     37  C   UNL A   1      43.362  22.660  25.566  1.00  0.00     0.010 A 
ATOM     38  C   UNL A   1      42.979  22.396  27.944  1.00  0.00     0.010 A 
ATOM     39  C   UNL A   1      43.423  23.181  26.869  1.00  0.00    -0.014 A 
BRANCH  39  40
ATOM     40  C   UNL A   1      43.958  24.540  27.131  1.00  0.00     0.031 A 
ATOM     41  C   UNL A   1      43.029  25.647  27.549  1.00  0.00     0.074 A 
ATOM     42  C   UNL A   1      45.267  24.791  26.929  1.00  0.00     0.049 A 
ATOM     43  N   UNL A   1      43.292  26.911  27.760  1.00  0.00    -0.248 NA
ATOM     44  C   UNL A   1      41.611  25.292  27.727  1.00  0.00     0.031 C 
ATOM     45  C   UNL A   1      46.255  23.811  26.474  1.00  0.00     0.029 A 
ATOM     46  N   UNL A   1      45.988  25.950  27.066  1.00  0.00    -0.354 N 
ATOM     47  C   UNL A   1      42.076  27.504  28.078  1.00  0.00     0.074 A 
ATOM     48  C   UNL A   1      41.066  26.473  27.979  1.00  0.00     0.031 C 
ATOM     49  C   UNL A   1      47.456  24.403  26.391  1.00  0.00     0.029 A 
ATOM     50  C   UNL A   1      47.319  25.812  26.749  1.00  0.00     0.049 A 
ATOM     51  H   UNL A   1      45.591  26.799  27.365  1.00  0.00     0.167 HD
ATOM     52  C   UNL A   1      41.827  28.785  28.442  1.00  0.00     0.037 A 
ATOM     53  C   UNL A   1      48.315  26.720  26.740  1.00  0.00     0.037 A 
ATOM     54  C   UNL A   1      42.844  29.798  28.560  1.00  0.00     0.049 A 
ATOM     55  C   UNL A   1      48.017  28.135  27.153  1.00  0.00     0.074 A 
ATOM     56  C   UNL A   1      42.707  31.109  28.978  1.00  0.00     0.029 A 
ATOM     57  N   UNL A   1      44.185  29.613  28.254  1.00  0.00    -0.354 N 
ATOM     58  N   UNL A   1      46.872  28.663  27.516  1.00  0.00    -0.248 NA
ATOM     59  C   UNL A   1      49.145  29.075  27.165  1.00  0.00     0.031 C 
ATOM     60  C   UNL A   1      43.957  31.731  28.883  1.00  0.00     0.029 A 
ATOM     61  C   UNL A   1      44.883  30.792  28.455  1.00  0.00     0.049 A 
ATOM     62  H   UNL A   1      44.581  28.769  27.940  1.00  0.00     0.167 HD
ATOM     63  C   UNL A   1      47.148  29.991  27.825  1.00  0.00     0.074 A 
ATOM     64  C   UNL A   1      48.568  30.181  27.615  1.00  0.00     0.031 C 
ATOM     65  C   UNL A   1      46.300  30.963  28.246  1.00  0.00     0.037 A 
BRANCH  52  66
ATOM     66  C   UNL A   1      40.400  29.159  28.738  1.00  0.00     0.058 A 
ATOM     67  C   UNL A   1      39.481  29.435  27.712  1.00  0.00     0.135 A 
ATOM     68  C   UNL A   1      39.937  29.223  30.062  1.00  0.00     0.135 A 
ATOM     69  F   UNL A   1      39.870  29.402  26.427  1.00  0.00    -0.206 F 
ATOM     70  C   UNL A   1      38.167  29.800  27.989  1.00  0.00     0.059 A 
ATOM     71  C   UNL A   1      38.619  29.557  30.362  1.00  0.00     0.059 A 
ATOM     72  F   UNL A   1      40.771  28.968  31.082  1.00  0.00    -0.206 F 
ATOM     73  C   UNL A   1      37.747  29.861  29.318  1.00  0.00     0.060 A 
BRANCH  73  74
ATOM     74  S   UNL A   1      36.042  30.348  29.662  1.00  0.00     0.124 S 
ATOM     75  O   UNL A   1      35.308  29.538  28.695  1.00  0.00    -0.237 OA
ATOM     76  O   UNL A   1      35.884  29.961  31.060  1.00  0.00    -0.237 OA
ATOM     77  O   UNL A   1      36.040  31.784  29.408  1.00  0.00    -0.744 OA
ENDBRANCH  73  74
ENDBRANCH  52  66
BRANCH  53  78
ATOM     78  C   UNL A   1      49.689  26.303  26.354  1.00  0.00     0.058 A 
ATOM     79  C   UNL A   1      50.123  26.393  25.024  1.00  0.00     0.135 A 
ATOM     80  C   UNL A   1      50.606  25.841  27.311  1.00  0.00     0.135 A 
ATOM     81  F   UNL A   1      49.282  26.825  24.072  1.00  0.00    -0.206 F 
ATOM     82  C   UNL A   1      51.414  26.031  24.652  1.00  0.00     0.059 A 
ATOM     83  C   UNL A   1      51.910  25.496  26.968  1.00  0.00     0.059 A 
ATOM     84  F   UNL A   1      50.246  25.754  28.602  1.00  0.00    -0.206 F 
ATOM     85  C   UNL A   1      52.301  25.589  25.633  1.00  0.00     0.060 A 
BRANCH  85  86
ATOM     86  S   UNL A   1      53.994  25.182  25.149  1.00  0.00     0.124 S 
ATOM     87  O   UNL A   1      54.747  25.617  26.320  1.00  0.00    -0.237 OA
ATOM     88  O   UNL A   1      53.914  23.740  24.940  1.00  0.00    -0.237 OA
ATOM     89  O   UNL A   1      54.196  25.974  23.939  1.00  0.00    -0.744 OA
ENDBRANCH  85  86
ENDBRANCH  53  78
BRANCH  65  90
ATOM     90  C   UNL A   1      46.890  32.314  28.543  1.00  0.00     0.058 A 
ATOM     91  C   UNL A   1      47.412  32.632  29.806  1.00  0.00     0.135 A 
ATOM     92  C   UNL A   1      46.986  33.283  27.529  1.00  0.00     0.135 A 
ATOM     93  F   UNL A   1      47.339  31.745  30.809  1.00  0.00    -0.206 F 
ATOM     94  C   UNL A   1      47.989  33.872  30.061  1.00  0.00     0.059 A 
ATOM     95  C   UNL A   1      47.585  34.519  27.755  1.00  0.00     0.059 A 
ATOM     96  F   UNL A   1      46.513  33.025  26.300  1.00  0.00    -0.206 F 
ATOM     97  C   UNL A   1      48.073  34.808  29.027  1.00  0.00     0.060 A 
BRANCH  97  98
ATOM     98  S   UNL A   1      48.859  36.399  29.362  1.00  0.00     0.124 S 
ATOM     99  O   UNL A   1      50.116  35.983  29.976  1.00  0.00    -0.237 OA
ATOM    100  O   UNL A   1      48.967  36.980  28.028  1.00  0.00    -0.237 OA
ATOM    101  O   UNL A   1      47.913  37.064  30.253  1.00  0.00    -0.744 OA
ENDBRANCH  97  98
ENDBRANCH  65  90
ENDBRANCH  39  40
ENDBRANCH  31  34
ENDBRANCH  29  30
ENDBRANCH  28  29
ENDBRANCH  27  28
ENDBRANCH   1  27
TORSDOF 19
ENDMDL
MODEL 3
REMARK VINA RESULT:     -11.6      2.723      3.557
REMARK SMILES Cc1ccc(F)cc1NS(=O)(=O)c1ccc(C(=O)NCCCCCCNC(=O)c2ccc(-c3c4nc(c(-c5c(F)cc(S(=O)(=O)[O-])cc5F)c5ccc([nH]5)c(-c5c(F)cc(S(=O)(=O)[O-])cc5F)c5nc(c(-c6c(F)cc(S(=O)(=O)[O-])cc6F)c6ccc3[nH]6)C=C5)C=C4)cc2)cc1
REMARK SMILES IDX 22 1 21 2 20 3 19 4 17 5 18 6 16 8 13 9 14 10 96 11 15 12
REMARK SMILES IDX 95 13 10 14 11 15 12 16 9 17 8 19 1 20 2 21 3 22 4 23 7 24
REMARK SMILES IDX 5 25 6 26 23 27 24 28 25 29 26 30 27 31 28 33 29 34 30 35
REMARK SMILES IDX 94 36 31 37 93 38 32 39 33 40 34 41 87 42 35 43 92 44 86 45
REMARK SMILES IDX 88 46 36 47 91 48 85 49 84 50 37 52 71 53 50 54 70 55 51 56
REMARK SMILES IDX 54 57 69 58 89 59 52 60 53 61 68 63 90 64 55 65 38 66 39 67
REMARK SMILES IDX 48 68 40 69 41 70 47 71 49 72 42 73 43 74 44 75 45 76 46 77
REMARK SMILES IDX 72 78 73 79 82 80 74 81 75 82 81 83 83 84 76 85 77 86 78 87
REMARK SMILES IDX 79 88 80 89 56 90 57 91 66 92 58 93 59 94 65 95 67 96 60 97
REMARK SMILES IDX 61 98 62 99 63 100 64 101
REMARK H PARENT 19 7 9 18 26 32 88 51 54 62
REMARK Flexibility Score: inf
ROOT
ATOM      1  C   UNL A   1      32.006  29.682  24.745  1.00  0.00     0.002 C 
ENDROOT
BRANCH   1   2
ATOM      2  C   UNL A   1      33.258  29.152  24.032  1.00  0.00     0.021 C 
BRANCH   2   3
ATOM      3  C   UNL A   1      32.960  28.489  22.689  1.00  0.00     0.116 C 
BRANCH   3   4
ATOM      4  N   UNL A   1      31.569  28.690  22.334  1.00  0.00    -0.352 N 
ATOM      5  C   UNL A   1      30.480  27.890  22.538  1.00  0.00     0.251 C 
ATOM      6  O   UNL A   1      29.367  28.287  22.201  1.00  0.00    -0.269 OA
ATOM      7  H   UNL A   1      31.378  29.538  21.872  1.00  0.00     0.163 HD
BRANCH   5   8
ATOM      8  C   UNL A   1      30.602  26.578  23.210  1.00  0.00     0.039 A 
ATOM      9  C   UNL A   1      31.116  24.119  24.425  1.00  0.00     0.087 A 
ATOM     10  C   UNL A   1      31.475  24.322  23.088  1.00  0.00     0.023 A 
ATOM     11  C   UNL A   1      30.424  25.110  25.134  1.00  0.00     0.023 A 
ATOM     12  C   UNL A   1      31.250  25.563  22.495  1.00  0.00     0.015 A 
ATOM     13  C   UNL A   1      30.181  26.350  24.526  1.00  0.00     0.015 A 
BRANCH   9  14
ATOM     14  S   UNL A   1      31.561  22.584  25.202  1.00  0.00     0.261 S 
ATOM     15  O   UNL A   1      31.961  21.658  24.161  1.00  0.00    -0.201 OA
ATOM     16  O   UNL A   1      30.503  22.231  26.125  1.00  0.00    -0.201 OA
BRANCH  14  17
ATOM     17  N   UNL A   1      32.943  22.877  26.174  1.00  0.00    -0.279 N 
ATOM     18  H   UNL A   1      32.832  23.165  27.109  1.00  0.00     0.180 HD
BRANCH  17  19
ATOM     19  C   UNL A   1      34.266  22.704  25.632  1.00  0.00     0.055 A 
ATOM     20  C   UNL A   1      34.517  25.161  24.881  1.00  0.00     0.046 C 
ATOM     21  C   UNL A   1      35.029  23.763  25.100  1.00  0.00    -0.027 A 
ATOM     22  C   UNL A   1      36.326  23.491  24.608  1.00  0.00     0.008 A 
ATOM     23  C   UNL A   1      36.847  22.200  24.626  1.00  0.00     0.039 A 
ATOM     24  C   UNL A   1      34.771  21.403  25.555  1.00  0.00     0.066 A 
ATOM     25  C   UNL A   1      36.055  21.164  25.086  1.00  0.00     0.125 A 
ATOM     26  F   UNL A   1      36.526  19.912  25.061  1.00  0.00    -0.207 F 
ENDBRANCH  17  19
ENDBRANCH  14  17
ENDBRANCH   9  14
ENDBRANCH   5   8
ENDBRANCH   3   4
ENDBRANCH   2   3
ENDBRANCH   1   2
BRANCH   1  27
ATOM     27  C   UNL A   1      31.747  29.072  26.128  1.00  0.00     0.002 C 
BRANCH  27  28
ATOM     28  C   UNL A   1      32.726  27.970  26.537  1.00  0.00     0.021 C 
BRANCH  28  29
ATOM     29  C   UNL A   1      33.919  28.464  27.349  1.00  0.00     0.116 C 
BRANCH  29  30
ATOM     30  N   UNL A   1      33.791  29.873  27.683  1.00  0.00    -0.352 N 
ATOM     31  C   UNL A   1      34.676  30.684  28.349  1.00  0.00     0.251 C 
ATOM     32  H   UNL A   1      32.956  30.306  27.392  1.00  0.00     0.163 HD
ATOM     33  O   UNL A   1      34.318  31.783  28.760  1.00  0.00    -0.269 OA
BRANCH  31  34
ATOM     34  C   UNL A   1      36.059  30.216  28.574  1.00  0.00     0.039 A 
ATOM     35  C   UNL A   1      36.980  30.282  27.527  1.00  0.00     0.014 A 
ATOM     36  C   UNL A   1      36.440  29.710  29.821  1.00  0.00     0.014 A 
ATOM     37  C   UNL A   1      38.300  29.883  27.745  1.00  0.00     0.010 A 
ATOM     38  C   UNL A   1      37.771  29.379  30.055  1.00  0.00     0.010 A 
ATOM     39  C   UNL A   1      38.712  29.454  29.017  1.00  0.00    -0.014 A 
BRANCH  39  40
ATOM     40  C   UNL A   1      40.121  29.071  29.282  1.00  0.00     0.031 A 
ATOM     41  C   UNL A   1      41.070  30.064  29.896  1.00  0.00     0.074 A 
ATOM     42  C   UNL A   1      40.560  27.852  28.909  1.00  0.00     0.049 A 
ATOM     43  N   UNL A   1      42.348  29.941  30.143  1.00  0.00    -0.248 NA
ATOM     44  C   UNL A   1      40.514  31.379  30.253  1.00  0.00     0.031 C 
ATOM     45  C   UNL A   1      39.746  26.823  28.258  1.00  0.00     0.029 A 
ATOM     46  N   UNL A   1      41.802  27.277  29.012  1.00  0.00    -0.354 N 
ATOM     47  C   UNL A   1      42.752  31.163  30.668  1.00  0.00     0.074 A 
ATOM     48  C   UNL A   1      41.596  32.032  30.652  1.00  0.00     0.031 C 
ATOM     49  C   UNL A   1      40.504  25.737  28.039  1.00  0.00     0.029 A 
ATOM     50  C   UNL A   1      41.863  26.003  28.498  1.00  0.00     0.049 A 
ATOM     51  H   UNL A   1      42.575  27.734  29.415  1.00  0.00     0.167 HD
ATOM     52  C   UNL A   1      43.971  31.521  31.141  1.00  0.00     0.037 A 
ATOM     53  C   UNL A   1      42.901  25.149  28.402  1.00  0.00     0.037 A 
ATOM     54  C   UNL A   1      45.109  30.641  31.173  1.00  0.00     0.049 A 
ATOM     55  C   UNL A   1      44.243  25.565  28.938  1.00  0.00     0.074 A 
ATOM     56  C   UNL A   1      46.371  30.884  31.685  1.00  0.00     0.029 A 
ATOM     57  N   UNL A   1      45.126  29.349  30.666  1.00  0.00    -0.354 N 
ATOM     58  N   UNL A   1      44.591  26.702  29.494  1.00  0.00    -0.248 NA
ATOM     59  C   UNL A   1      45.330  24.582  28.844  1.00  0.00     0.031 C 
ATOM     60  C   UNL A   1      47.164  29.756  31.449  1.00  0.00     0.029 A 
ATOM     61  C   UNL A   1      46.382  28.790  30.836  1.00  0.00     0.049 A 
ATOM     62  H   UNL A   1      44.359  28.896  30.248  1.00  0.00     0.167 HD
ATOM     63  C   UNL A   1      45.931  26.560  29.839  1.00  0.00     0.074 A 
ATOM     64  C   UNL A   1      46.325  25.225  29.440  1.00  0.00     0.031 C 
ATOM     65  C   UNL A   1      46.757  27.455  30.436  1.00  0.00     0.037 A 
BRANCH  52  66
ATOM     66  C   UNL A   1      44.129  32.924  31.661  1.00  0.00     0.058 A 
ATOM     67  C   UNL A   1      43.891  33.244  33.008  1.00  0.00     0.135 A 
ATOM     68  C   UNL A   1      44.542  33.960  30.808  1.00  0.00     0.135 A 
ATOM     69  F   UNL A   1      43.481  32.296  33.866  1.00  0.00    -0.206 F 
ATOM     70  C   UNL A   1      44.019  34.545  33.481  1.00  0.00     0.059 A 
ATOM     71  C   UNL A   1      44.706  35.264  31.267  1.00  0.00     0.059 A 
ATOM     72  F   UNL A   1      44.785  33.712  29.512  1.00  0.00    -0.206 F 
ATOM     73  C   UNL A   1      44.424  35.550  32.602  1.00  0.00     0.060 A 
BRANCH  73  74
ATOM     74  S   UNL A   1      44.574  37.237  33.228  1.00  0.00     0.124 S 
ATOM     75  O   UNL A   1      45.208  37.010  34.524  1.00  0.00    -0.237 OA
ATOM     76  O   UNL A   1      45.412  37.872  32.217  1.00  0.00    -0.237 OA
ATOM     77  O   UNL A   1      43.193  37.705  33.279  1.00  0.00    -0.744 OA
ENDBRANCH  73  74
ENDBRANCH  52  66
BRANCH  53  78
ATOM     78  C   UNL A   1      42.696  23.806  27.798  1.00  0.00     0.058 A 
ATOM     79  C   UNL A   1      42.741  23.625  26.408  1.00  0.00     0.135 A 
ATOM     80  C   UNL A   1      42.487  22.671  28.597  1.00  0.00     0.135 A 
ATOM     81  F   UNL A   1      42.934  24.680  25.601  1.00  0.00    -0.206 F 
ATOM     82  C   UNL A   1      42.576  22.371  25.829  1.00  0.00     0.059 A 
ATOM     83  C   UNL A   1      42.344  21.402  28.044  1.00  0.00     0.059 A 
ATOM     84  F   UNL A   1      42.454  22.787  29.934  1.00  0.00    -0.206 F 
ATOM     85  C   UNL A   1      42.384  21.264  26.657  1.00  0.00     0.060 A 
BRANCH  85  86
ATOM     86  S   UNL A   1      42.236  19.631  25.899  1.00  0.00     0.124 S 
ATOM     87  O   UNL A   1      40.849  19.641  25.447  1.00  0.00    -0.237 OA
ATOM     88  O   UNL A   1      43.250  19.688  24.850  1.00  0.00    -0.237 OA
ATOM     89  O   UNL A   1      42.535  18.721  27.001  1.00  0.00    -0.744 OA
ENDBRANCH  85  86
ENDBRANCH  53  78
BRANCH  65  90
ATOM     90  C   UNL A   1      48.164  27.011  30.726  1.00  0.00     0.058 A 
ATOM     91  C   UNL A   1      49.205  27.202  29.805  1.00  0.00     0.135 A 
ATOM     92  C   UNL A   1      48.484  26.438  31.969  1.00  0.00     0.135 A 
ATOM     93  F   UNL A   1      48.952  27.738  28.601  1.00  0.00    -0.206 F 
ATOM     94  C   UNL A   1      50.510  26.820  30.096  1.00  0.00     0.059 A 
ATOM     95  C   UNL A   1      49.788  26.075  32.292  1.00  0.00     0.059 A 
ATOM     96  F   UNL A   1      47.528  26.244  32.890  1.00  0.00    -0.206 F 
ATOM     97  C   UNL A   1      50.793  26.261  31.344  1.00  0.00     0.060 A 
BRANCH  97  98
ATOM     98  S   UNL A   1      52.498  25.805  31.723  1.00  0.00     0.124 S 
ATOM     99  O   UNL A   1      52.348  24.410  32.126  1.00  0.00    -0.237 OA
ATOM    100  O   UNL A   1      53.172  26.028  30.447  1.00  0.00    -0.237 OA
ATOM    101  O   UNL A   1      52.868  26.731  32.789  1.00  0.00    -0.744 OA
ENDBRANCH  97  98
ENDBRANCH  65  90
ENDBRANCH  39  40
ENDBRANCH  31  34
ENDBRANCH  29  30
ENDBRANCH  28  29
ENDBRANCH  27  28
ENDBRANCH   1  27
TORSDOF 19
ENDMDL
