MODEL 1
REMARK VINA RESULT:     -11.4      0.000      0.000
REMARK SMILES CCOC(=O)C1=NN(c2ccc(Cl)cc2F)[C@@H](C(=O)NCCCCCCNC(=O)c2ccc(-c3c4nc(c(-c5c(F)cc(S(=O)(=O)[O-])cc5F)c5ccc([nH]5)c(-c5c(F)cc(S(=O)(=O)[O-])cc5F)c5nc(c(-c6c(F)cc(S(=O)(=O)[O-])cc6F)c6ccc3[nH]6)C=C5)C=C4)cc2)C1
REMARK SMILES IDX 23 1 22 2 21 3 20 4 18 5 19 6 17 8 6 9 7 10 96 11 8 12 4 13
REMARK SMILES IDX 5 14 3 15 2 16 1 17 9 18 10 19 15 20 11 21 14 22 16 23 12 24
REMARK SMILES IDX 13 25 24 26 25 27 26 28 27 29 28 30 29 32 30 33 31 34 95 35
REMARK SMILES IDX 32 36 94 37 33 38 34 39 35 40 88 41 36 42 93 43 87 44 89 45
REMARK SMILES IDX 37 46 92 47 86 48 85 49 38 51 72 52 51 53 71 54 52 55 55 56
REMARK SMILES IDX 70 57 90 58 53 59 54 60 69 62 91 63 56 64 39 65 40 66 49 67
REMARK SMILES IDX 41 68 42 69 48 70 50 71 43 72 44 73 45 74 46 75 47 76 73 77
REMARK SMILES IDX 74 78 83 79 75 80 76 81 82 82 84 83 77 84 78 85 79 86 80 87
REMARK SMILES IDX 81 88 57 89 58 90 67 91 59 92 60 93 66 94 68 95 61 96 62 97
REMARK SMILES IDX 63 98 64 99 65 100
REMARK H PARENT 20 7 27 31 89 50 55 61
REMARK Flexibility Score: inf
ROOT
ATOM      1  C   UNL A   1      35.738  23.662  24.401  1.00  0.00     0.002 C 
ENDROOT
BRANCH   1   2
ATOM      2  C   UNL A   1      34.690  24.776  24.380  1.00  0.00     0.021 C 
BRANCH   2   3
ATOM      3  C   UNL A   1      33.442  24.508  23.545  1.00  0.00     0.116 C 
BRANCH   3   4
ATOM      4  N   UNL A   1      32.863  25.712  22.979  1.00  0.00    -0.354 N 
ATOM      5  C   UNL A   1      31.939  26.574  23.500  1.00  0.00     0.245 C 
ATOM      6  O   UNL A   1      31.695  27.589  22.836  1.00  0.00    -0.273 OA
ATOM      7  H   UNL A   1      33.187  25.944  22.078  1.00  0.00     0.163 HD
BRANCH   5   8
ATOM      8  C   UNL A   1      31.130  26.280  24.775  1.00  0.00     0.203 C 
ATOM      9  C   UNL A   1      31.073  24.410  26.123  1.00  0.00     0.148 C 
ATOM     10  N   UNL A   1      31.826  25.236  26.787  1.00  0.00    -0.169 NA
ATOM     11  C   UNL A   1      30.604  24.851  24.776  1.00  0.00     0.103 C 
ATOM     12  N   UNL A   1      31.910  26.361  26.013  1.00  0.00    -0.249 N 
BRANCH   9  13
ATOM     13  C   UNL A   1      30.659  23.056  26.626  1.00  0.00     0.354 C 
ATOM     14  O   UNL A   1      29.981  22.904  27.628  1.00  0.00    -0.245 OA
BRANCH  13  15
ATOM     15  O   UNL A   1      31.065  22.124  25.741  1.00  0.00    -0.461 OA
BRANCH  15  16
ATOM     16  C   UNL A   1      32.450  21.758  25.828  1.00  0.00     0.230 C 
ATOM     17  C   UNL A   1      32.908  21.083  24.550  1.00  0.00     0.049 C 
ENDBRANCH  15  16
ENDBRANCH  13  15
ENDBRANCH   9  13
BRANCH  12  18
ATOM     18  C   UNL A   1      32.592  27.492  26.447  1.00  0.00     0.096 A 
ATOM     19  C   UNL A   1      33.937  27.687  26.087  1.00  0.00     0.032 A 
ATOM     20  C   UNL A   1      31.989  28.497  27.222  1.00  0.00     0.149 A 
ATOM     21  C   UNL A   1      34.621  28.859  26.431  1.00  0.00     0.023 A 
ATOM     22  C   UNL A   1      32.668  29.651  27.605  1.00  0.00     0.062 A 
ATOM     23  F   UNL A   1      30.725  28.352  27.649  1.00  0.00    -0.205 F 
ATOM     24  C   UNL A   1      33.982  29.835  27.190  1.00  0.00     0.044 A 
ATOM     25  Cl  UNL A   1      34.813  31.279  27.613  1.00  0.00    -0.084 Cl
ENDBRANCH  12  18
ENDBRANCH   5   8
ENDBRANCH   3   4
ENDBRANCH   2   3
ENDBRANCH   1   2
BRANCH   1  26
ATOM     26  C   UNL A   1      36.432  23.403  25.741  1.00  0.00     0.002 C 
BRANCH  26  27
ATOM     27  C   UNL A   1      37.904  22.984  25.683  1.00  0.00     0.021 C 
BRANCH  27  28
ATOM     28  C   UNL A   1      38.865  23.756  26.582  1.00  0.00     0.116 C 
BRANCH  28  29
ATOM     29  N   UNL A   1      40.228  23.771  26.084  1.00  0.00    -0.352 N 
ATOM     30  C   UNL A   1      41.261  24.627  26.384  1.00  0.00     0.251 C 
ATOM     31  H   UNL A   1      40.445  23.064  25.435  1.00  0.00     0.163 HD
ATOM     32  O   UNL A   1      42.321  24.534  25.770  1.00  0.00    -0.269 OA
BRANCH  30  33
ATOM     33  C   UNL A   1      41.097  25.678  27.416  1.00  0.00     0.039 A 
ATOM     34  C   UNL A   1      40.033  25.568  28.318  1.00  0.00     0.014 A 
ATOM     35  C   UNL A   1      41.959  26.777  27.489  1.00  0.00     0.014 A 
ATOM     36  C   UNL A   1      39.870  26.523  29.325  1.00  0.00     0.010 A 
ATOM     37  C   UNL A   1      41.828  27.698  28.529  1.00  0.00     0.010 A 
ATOM     38  C   UNL A   1      40.782  27.580  29.457  1.00  0.00    -0.014 A 
BRANCH  38  39
ATOM     39  C   UNL A   1      40.658  28.569  30.560  1.00  0.00     0.031 A 
ATOM     40  C   UNL A   1      41.531  28.458  31.781  1.00  0.00     0.074 A 
ATOM     41  C   UNL A   1      39.720  29.533  30.490  1.00  0.00     0.049 A 
ATOM     42  N   UNL A   1      41.520  29.179  32.873  1.00  0.00    -0.248 NA
ATOM     43  C   UNL A   1      42.531  27.379  31.784  1.00  0.00     0.031 C 
ATOM     44  C   UNL A   1      38.783  29.722  29.381  1.00  0.00     0.029 A 
ATOM     45  N   UNL A   1      39.389  30.529  31.375  1.00  0.00    -0.354 N 
ATOM     46  C   UNL A   1      42.494  28.633  33.699  1.00  0.00     0.074 A 
ATOM     47  C   UNL A   1      43.052  27.496  32.998  1.00  0.00     0.031 C 
ATOM     48  C   UNL A   1      37.994  30.777  29.645  1.00  0.00     0.029 A 
ATOM     49  C   UNL A   1      38.348  31.321  30.953  1.00  0.00     0.049 A 
ATOM     50  H   UNL A   1      39.855  30.664  32.232  1.00  0.00     0.167 HD
ATOM     51  C   UNL A   1      42.901  29.050  34.923  1.00  0.00     0.037 A 
ATOM     52  C   UNL A   1      37.741  32.363  31.553  1.00  0.00     0.037 A 
ATOM     53  C   UNL A   1      42.369  30.202  35.604  1.00  0.00     0.049 A 
ATOM     54  C   UNL A   1      38.225  32.823  32.901  1.00  0.00     0.074 A 
ATOM     55  C   UNL A   1      42.757  30.738  36.821  1.00  0.00     0.029 A 
ATOM     56  N   UNL A   1      41.339  30.998  35.128  1.00  0.00    -0.354 N 
ATOM     57  N   UNL A   1      39.183  32.325  33.644  1.00  0.00    -0.248 NA
ATOM     58  C   UNL A   1      37.551  33.990  33.488  1.00  0.00     0.031 C 
ATOM     59  C   UNL A   1      41.942  31.843  37.092  1.00  0.00     0.029 A 
ATOM     60  C   UNL A   1      41.069  32.014  36.029  1.00  0.00     0.049 A 
ATOM     61  H   UNL A   1      40.867  30.860  34.274  1.00  0.00     0.167 HD
ATOM     62  C   UNL A   1      39.242  33.129  34.777  1.00  0.00     0.074 A 
ATOM     63  C   UNL A   1      38.229  34.153  34.616  1.00  0.00     0.031 C 
ATOM     64  C   UNL A   1      40.062  33.030  35.852  1.00  0.00     0.037 A 
BRANCH  51  65
ATOM     65  C   UNL A   1      43.982  28.256  35.602  1.00  0.00     0.058 A 
ATOM     66  C   UNL A   1      45.340  28.558  35.418  1.00  0.00     0.135 A 
ATOM     67  C   UNL A   1      43.655  27.197  36.464  1.00  0.00     0.135 A 
ATOM     68  F   UNL A   1      45.705  29.552  34.592  1.00  0.00    -0.206 F 
ATOM     69  C   UNL A   1      46.340  27.817  36.039  1.00  0.00     0.059 A 
ATOM     70  C   UNL A   1      44.639  26.458  37.115  1.00  0.00     0.059 A 
ATOM     71  F   UNL A   1      42.371  26.867  36.676  1.00  0.00    -0.206 F 
ATOM     72  C   UNL A   1      45.979  26.764  36.882  1.00  0.00     0.060 A 
BRANCH  72  73
ATOM     73  S   UNL A   1      47.286  25.805  37.676  1.00  0.00     0.124 S 
ATOM     74  O   UNL A   1      48.368  25.931  36.704  1.00  0.00    -0.237 OA
ATOM     75  O   UNL A   1      47.480  26.515  38.935  1.00  0.00    -0.237 OA
ATOM     76  O   UNL A   1      46.702  24.473  37.796  1.00  0.00    -0.744 OA
ENDBRANCH  72  73
ENDBRANCH  51  65
BRANCH  52  77
ATOM     77  C   UNL A   1      36.624  33.063  30.867  1.00  0.00     0.058 A 
ATOM     78  C   UNL A   1      35.296  32.858  31.266  1.00  0.00     0.135 A 
ATOM     79  C   UNL A   1      36.864  33.961  29.816  1.00  0.00     0.135 A 
ATOM     80  F   UNL A   1      35.019  32.004  32.262  1.00  0.00    -0.206 F 
ATOM     81  C   UNL A   1      34.239  33.512  30.641  1.00  0.00     0.059 A 
ATOM     82  C   UNL A   1      35.826  34.642  29.188  1.00  0.00     0.059 A 
ATOM     83  F   UNL A   1      38.120  34.203  29.410  1.00  0.00    -0.206 F 
ATOM     84  C   UNL A   1      34.514  34.403  29.603  1.00  0.00     0.060 A 
BRANCH  84  85
ATOM     85  S   UNL A   1      33.143  35.291  28.834  1.00  0.00     0.124 S 
ATOM     86  O   UNL A   1      32.377  35.712  29.999  1.00  0.00    -0.237 OA
ATOM     87  O   UNL A   1      33.831  36.352  28.104  1.00  0.00    -0.237 OA
ATOM     88  O   UNL A   1      32.515  34.272  27.996  1.00  0.00    -0.744 OA
ENDBRANCH  84  85
ENDBRANCH  52  77
BRANCH  64  89
ATOM     89  C   UNL A   1      39.919  34.069  36.926  1.00  0.00     0.058 A 
ATOM     90  C   UNL A   1      40.521  35.331  36.811  1.00  0.00     0.135 A 
ATOM     91  C   UNL A   1      39.130  33.817  38.059  1.00  0.00     0.135 A 
ATOM     92  F   UNL A   1      41.292  35.618  35.750  1.00  0.00    -0.206 F 
ATOM     93  C   UNL A   1      40.361  36.303  37.793  1.00  0.00     0.059 A 
ATOM     94  C   UNL A   1      38.938  34.780  39.043  1.00  0.00     0.059 A 
ATOM     95  F   UNL A   1      38.526  32.627  38.211  1.00  0.00    -0.206 F 
ATOM     96  C   UNL A   1      39.566  36.018  38.906  1.00  0.00     0.060 A 
BRANCH  96  97
ATOM     97  S   UNL A   1      39.331  37.299  40.157  1.00  0.00     0.124 S 
ATOM     98  O   UNL A   1      40.709  37.684  40.445  1.00  0.00    -0.237 OA
ATOM     99  O   UNL A   1      38.531  38.292  39.447  1.00  0.00    -0.237 OA
ATOM    100  O   UNL A   1      38.636  36.597  41.233  1.00  0.00    -0.744 OA
ENDBRANCH  96  97
ENDBRANCH  64  89
ENDBRANCH  38  39
ENDBRANCH  30  33
ENDBRANCH  28  29
ENDBRANCH  27  28
ENDBRANCH  26  27
ENDBRANCH   1  26
TORSDOF 20
ENDMDL
MODEL 2
REMARK VINA RESULT:     -11.4      6.617     11.989
REMARK SMILES CCOC(=O)C1=NN(c2ccc(Cl)cc2F)[C@@H](C(=O)NCCCCCCNC(=O)c2ccc(-c3c4nc(c(-c5c(F)cc(S(=O)(=O)[O-])cc5F)c5ccc([nH]5)c(-c5c(F)cc(S(=O)(=O)[O-])cc5F)c5nc(c(-c6c(F)cc(S(=O)(=O)[O-])cc6F)c6ccc3[nH]6)C=C5)C=C4)cc2)C1
REMARK SMILES IDX 23 1 22 2 21 3 20 4 18 5 19 6 17 8 6 9 7 10 96 11 8 12 4 13
REMARK SMILES IDX 5 14 3 15 2 16 1 17 9 18 10 19 15 20 11 21 14 22 16 23 12 24
REMARK SMILES IDX 13 25 24 26 25 27 26 28 27 29 28 30 29 32 30 33 31 34 95 35
REMARK SMILES IDX 32 36 94 37 33 38 34 39 35 40 88 41 36 42 93 43 87 44 89 45
REMARK SMILES IDX 37 46 92 47 86 48 85 49 38 51 72 52 51 53 71 54 52 55 55 56
REMARK SMILES IDX 70 57 90 58 53 59 54 60 69 62 91 63 56 64 39 65 40 66 49 67
REMARK SMILES IDX 41 68 42 69 48 70 50 71 43 72 44 73 45 74 46 75 47 76 73 77
REMARK SMILES IDX 74 78 83 79 75 80 76 81 82 82 84 83 77 84 78 85 79 86 80 87
REMARK SMILES IDX 81 88 57 89 58 90 67 91 59 92 60 93 66 94 68 95 61 96 62 97
REMARK SMILES IDX 63 98 64 99 65 100
REMARK H PARENT 20 7 27 31 89 50 55 61
REMARK Flexibility Score: inf
ROOT
ATOM      1  C   UNL A   1      34.752  30.710  27.557  1.00  0.00     0.002 C 
ENDROOT
BRANCH   1   2
ATOM      2  C   UNL A   1      33.588  30.163  26.729  1.00  0.00     0.021 C 
BRANCH   2   3
ATOM      3  C   UNL A   1      33.802  28.793  26.094  1.00  0.00     0.116 C 
BRANCH   3   4
ATOM      4  N   UNL A   1      33.743  28.819  24.645  1.00  0.00    -0.354 N 
ATOM      5  C   UNL A   1      32.663  28.829  23.808  1.00  0.00     0.245 C 
ATOM      6  O   UNL A   1      32.902  28.955  22.600  1.00  0.00    -0.273 OA
ATOM      7  H   UNL A   1      34.619  28.831  24.194  1.00  0.00     0.163 HD
BRANCH   5   8
ATOM      8  C   UNL A   1      31.222  28.573  24.280  1.00  0.00     0.203 C 
ATOM      9  C   UNL A   1      29.214  28.788  23.167  1.00  0.00     0.148 C 
ATOM     10  N   UNL A   1      29.436  27.507  23.140  1.00  0.00    -0.169 NA
ATOM     11  C   UNL A   1      30.275  29.649  23.767  1.00  0.00     0.103 C 
ATOM     12  N   UNL A   1      30.636  27.329  23.773  1.00  0.00    -0.249 N 
BRANCH   9  13
ATOM     13  C   UNL A   1      27.970  29.438  22.633  1.00  0.00     0.354 C 
ATOM     14  O   UNL A   1      26.873  29.284  23.144  1.00  0.00    -0.245 OA
BRANCH  13  15
ATOM     15  O   UNL A   1      28.312  30.258  21.618  1.00  0.00    -0.461 OA
BRANCH  15  16
ATOM     16  C   UNL A   1      27.705  31.558  21.648  1.00  0.00     0.230 C 
ATOM     17  C   UNL A   1      28.028  32.330  20.384  1.00  0.00     0.049 C 
ENDBRANCH  15  16
ENDBRANCH  13  15
ENDBRANCH   9  13
BRANCH  12  18
ATOM     18  C   UNL A   1      31.162  26.059  23.989  1.00  0.00     0.096 A 
ATOM     19  C   UNL A   1      31.086  25.473  25.264  1.00  0.00     0.032 A 
ATOM     20  C   UNL A   1      31.753  25.294  22.969  1.00  0.00     0.149 A 
ATOM     21  C   UNL A   1      31.523  24.161  25.489  1.00  0.00     0.023 A 
ATOM     22  C   UNL A   1      32.226  24.003  23.188  1.00  0.00     0.062 A 
ATOM     23  F   UNL A   1      31.909  25.812  21.741  1.00  0.00    -0.205 F 
ATOM     24  C   UNL A   1      32.092  23.433  24.448  1.00  0.00     0.044 A 
ATOM     25  Cl  UNL A   1      32.625  21.821  24.715  1.00  0.00    -0.084 Cl
ENDBRANCH  12  18
ENDBRANCH   5   8
ENDBRANCH   3   4
ENDBRANCH   2   3
ENDBRANCH   1   2
BRANCH   1  26
ATOM     26  C   UNL A   1      34.624  32.157  28.042  1.00  0.00     0.002 C 
BRANCH  26  27
ATOM     27  C   UNL A   1      35.899  33.005  28.021  1.00  0.00     0.021 C 
BRANCH  27  28
ATOM     28  C   UNL A   1      36.767  32.957  29.275  1.00  0.00     0.116 C 
BRANCH  28  29
ATOM     29  N   UNL A   1      36.232  32.091  30.309  1.00  0.00    -0.352 N 
ATOM     30  C   UNL A   1      36.732  30.914  30.811  1.00  0.00     0.251 C 
ATOM     31  H   UNL A   1      35.384  32.392  30.711  1.00  0.00     0.163 HD
ATOM     32  O   UNL A   1      36.068  30.271  31.620  1.00  0.00    -0.269 OA
BRANCH  30  33
ATOM     33  C   UNL A   1      38.046  30.397  30.361  1.00  0.00     0.039 A 
ATOM     34  C   UNL A   1      38.249  30.192  28.992  1.00  0.00     0.014 A 
ATOM     35  C   UNL A   1      39.065  30.090  31.268  1.00  0.00     0.014 A 
ATOM     36  C   UNL A   1      39.488  29.739  28.530  1.00  0.00     0.010 A 
ATOM     37  C   UNL A   1      40.318  29.692  30.802  1.00  0.00     0.010 A 
ATOM     38  C   UNL A   1      40.542  29.512  29.428  1.00  0.00    -0.014 A 
BRANCH  38  39
ATOM     39  C   UNL A   1      41.884  29.090  28.947  1.00  0.00     0.031 A 
ATOM     40  C   UNL A   1      43.004  30.090  28.844  1.00  0.00     0.074 A 
ATOM     41  C   UNL A   1      42.079  27.818  28.546  1.00  0.00     0.049 A 
ATOM     42  N   UNL A   1      44.216  29.927  28.382  1.00  0.00    -0.248 NA
ATOM     43  C   UNL A   1      42.713  31.458  29.300  1.00  0.00     0.031 C 
ATOM     44  C   UNL A   1      41.064  26.763  28.555  1.00  0.00     0.029 A 
ATOM     45  N   UNL A   1      43.196  27.198  28.042  1.00  0.00    -0.354 N 
ATOM     46  C   UNL A   1      44.828  31.172  28.472  1.00  0.00     0.074 A 
ATOM     47  C   UNL A   1      43.839  32.089  28.999  1.00  0.00     0.031 C 
ATOM     48  C   UNL A   1      41.607  25.625  28.092  1.00  0.00     0.029 A 
ATOM     49  C   UNL A   1      42.998  25.875  27.726  1.00  0.00     0.049 A 
ATOM     50  H   UNL A   1      44.057  27.659  27.917  1.00  0.00     0.167 HD
ATOM     51  C   UNL A   1      46.101  31.517  28.162  1.00  0.00     0.037 A 
ATOM     52  C   UNL A   1      43.840  24.966  27.197  1.00  0.00     0.037 A 
ATOM     53  C   UNL A   1      47.093  30.596  27.670  1.00  0.00     0.049 A 
ATOM     54  C   UNL A   1      45.256  25.366  26.883  1.00  0.00     0.074 A 
ATOM     55  C   UNL A   1      48.426  30.838  27.383  1.00  0.00     0.029 A 
ATOM     56  N   UNL A   1      46.864  29.256  27.397  1.00  0.00    -0.354 N 
ATOM     57  N   UNL A   1      45.830  26.536  27.024  1.00  0.00    -0.248 NA
ATOM     58  C   UNL A   1      46.138  24.321  26.344  1.00  0.00     0.031 C 
ATOM     59  C   UNL A   1      48.995  29.650  26.909  1.00  0.00     0.029 A 
ATOM     60  C   UNL A   1      48.025  28.661  26.934  1.00  0.00     0.049 A 
ATOM     61  H   UNL A   1      46.001  28.796  27.514  1.00  0.00     0.167 HD
ATOM     62  C   UNL A   1      47.147  26.364  26.612  1.00  0.00     0.074 A 
ATOM     63  C   UNL A   1      47.287  24.974  26.226  1.00  0.00     0.031 C 
ATOM     64  C   UNL A   1      48.150  27.274  26.560  1.00  0.00     0.037 A 
BRANCH  51  65
ATOM     65  C   UNL A   1      46.496  32.955  28.352  1.00  0.00     0.058 A 
ATOM     66  C   UNL A   1      46.356  33.897  27.321  1.00  0.00     0.135 A 
ATOM     67  C   UNL A   1      46.997  33.401  29.586  1.00  0.00     0.135 A 
ATOM     68  F   UNL A   1      45.896  33.518  26.118  1.00  0.00    -0.206 F 
ATOM     69  C   UNL A   1      46.729  35.226  27.494  1.00  0.00     0.059 A 
ATOM     70  C   UNL A   1      47.355  34.731  29.789  1.00  0.00     0.059 A 
ATOM     71  F   UNL A   1      47.149  32.541  30.605  1.00  0.00    -0.206 F 
ATOM     72  C   UNL A   1      47.234  35.632  28.731  1.00  0.00     0.060 A 
BRANCH  72  73
ATOM     73  S   UNL A   1      47.724  37.356  28.942  1.00  0.00     0.124 S 
ATOM     74  O   UNL A   1      47.355  37.593  30.334  1.00  0.00    -0.237 OA
ATOM     75  O   UNL A   1      49.156  37.314  28.665  1.00  0.00    -0.237 OA
ATOM     76  O   UNL A   1      46.918  38.060  27.949  1.00  0.00    -0.744 OA
ENDBRANCH  72  73
ENDBRANCH  51  65
BRANCH  52  77
ATOM     77  C   UNL A   1      43.372  23.577  26.958  1.00  0.00     0.058 A 
ATOM     78  C   UNL A   1      43.080  23.131  25.660  1.00  0.00     0.135 A 
ATOM     79  C   UNL A   1      43.225  22.665  28.014  1.00  0.00     0.135 A 
ATOM     80  F   UNL A   1      43.199  23.970  24.621  1.00  0.00    -0.206 F 
ATOM     81  C   UNL A   1      42.648  21.831  25.418  1.00  0.00     0.059 A 
ATOM     82  C   UNL A   1      42.815  21.354  27.794  1.00  0.00     0.059 A 
ATOM     83  F   UNL A   1      43.508  23.041  29.271  1.00  0.00    -0.206 F 
ATOM     84  C   UNL A   1      42.519  20.949  26.492  1.00  0.00     0.060 A 
BRANCH  84  85
ATOM     85  S   UNL A   1      42.014  19.247  26.162  1.00  0.00     0.124 S 
ATOM     86  O   UNL A   1      42.372  18.588  27.412  1.00  0.00    -0.237 OA
ATOM     87  O   UNL A   1      40.585  19.393  25.903  1.00  0.00    -0.237 OA
ATOM     88  O   UNL A   1      42.818  18.881  24.999  1.00  0.00    -0.744 OA
ENDBRANCH  84  85
ENDBRANCH  52  77
BRANCH  64  89
ATOM     89  C   UNL A   1      49.494  26.793  26.096  1.00  0.00     0.058 A 
ATOM     90  C   UNL A   1      49.891  26.906  24.755  1.00  0.00     0.135 A 
ATOM     91  C   UNL A   1      50.414  26.259  27.013  1.00  0.00     0.135 A 
ATOM     92  F   UNL A   1      49.045  27.403  23.840  1.00  0.00    -0.206 F 
ATOM     93  C   UNL A   1      51.150  26.489  24.334  1.00  0.00     0.059 A 
ATOM     94  C   UNL A   1      51.685  25.855  26.618  1.00  0.00     0.059 A 
ATOM     95  F   UNL A   1      50.084  26.138  28.308  1.00  0.00    -0.206 F 
ATOM     96  C   UNL A   1      52.041  25.964  25.274  1.00  0.00     0.060 A 
BRANCH  96  97
ATOM     97  S   UNL A   1      53.686  25.461  24.726  1.00  0.00     0.124 S 
ATOM     98  O   UNL A   1      53.593  24.007  24.818  1.00  0.00    -0.237 OA
ATOM     99  O   UNL A   1      53.749  26.008  23.374  1.00  0.00    -0.237 OA
ATOM    100  O   UNL A   1      54.574  26.098  25.695  1.00  0.00    -0.744 OA
ENDBRANCH  96  97
ENDBRANCH  64  89
ENDBRANCH  38  39
ENDBRANCH  30  33
ENDBRANCH  28  29
ENDBRANCH  27  28
ENDBRANCH  26  27
ENDBRANCH   1  26
TORSDOF 20
ENDMDL
MODEL 3
REMARK VINA RESULT:     -11.3      3.437      9.291
REMARK SMILES CCOC(=O)C1=NN(c2ccc(Cl)cc2F)[C@@H](C(=O)NCCCCCCNC(=O)c2ccc(-c3c4nc(c(-c5c(F)cc(S(=O)(=O)[O-])cc5F)c5ccc([nH]5)c(-c5c(F)cc(S(=O)(=O)[O-])cc5F)c5nc(c(-c6c(F)cc(S(=O)(=O)[O-])cc6F)c6ccc3[nH]6)C=C5)C=C4)cc2)C1
REMARK SMILES IDX 23 1 22 2 21 3 20 4 18 5 19 6 17 8 6 9 7 10 96 11 8 12 4 13
REMARK SMILES IDX 5 14 3 15 2 16 1 17 9 18 10 19 15 20 11 21 14 22 16 23 12 24
REMARK SMILES IDX 13 25 24 26 25 27 26 28 27 29 28 30 29 32 30 33 31 34 95 35
REMARK SMILES IDX 32 36 94 37 33 38 34 39 35 40 88 41 36 42 93 43 87 44 89 45
REMARK SMILES IDX 37 46 92 47 86 48 85 49 38 51 72 52 51 53 71 54 52 55 55 56
REMARK SMILES IDX 70 57 90 58 53 59 54 60 69 62 91 63 56 64 39 65 40 66 49 67
REMARK SMILES IDX 41 68 42 69 48 70 50 71 43 72 44 73 45 74 46 75 47 76 73 77
REMARK SMILES IDX 74 78 83 79 75 80 76 81 82 82 84 83 77 84 78 85 79 86 80 87
REMARK SMILES IDX 81 88 57 89 58 90 67 91 59 92 60 93 66 94 68 95 61 96 62 97
REMARK SMILES IDX 63 98 64 99 65 100
REMARK H PARENT 20 7 27 31 89 50 55 61
REMARK Flexibility Score: inf
ROOT
ATOM      1  C   UNL A   1      33.109  25.615  26.168  1.00  0.00     0.002 C 
ENDROOT
BRANCH   1   2
ATOM      2  C   UNL A   1      34.385  25.443  25.342  1.00  0.00     0.021 C 
BRANCH   2   3
ATOM      3  C   UNL A   1      35.096  24.100  25.478  1.00  0.00     0.116 C 
BRANCH   3   4
ATOM      4  N   UNL A   1      34.378  23.155  26.312  1.00  0.00    -0.354 N 
ATOM      5  C   UNL A   1      33.979  21.874  26.050  1.00  0.00     0.245 C 
ATOM      6  O   UNL A   1      33.465  21.253  26.989  1.00  0.00    -0.273 OA
ATOM      7  H   UNL A   1      34.140  23.490  27.207  1.00  0.00     0.163 HD
BRANCH   5   8
ATOM      8  C   UNL A   1      34.031  21.240  24.650  1.00  0.00     0.203 C 
ATOM      9  C   UNL A   1      32.943  19.397  23.792  1.00  0.00     0.148 C 
ATOM     10  N   UNL A   1      32.259  20.397  23.318  1.00  0.00    -0.169 NA
ATOM     11  C   UNL A   1      34.055  19.720  24.734  1.00  0.00     0.103 C 
ATOM     12  N   UNL A   1      32.856  21.521  23.821  1.00  0.00    -0.249 N 
BRANCH   9  13
ATOM     13  C   UNL A   1      32.677  17.959  23.452  1.00  0.00     0.354 C 
ATOM     14  O   UNL A   1      32.756  17.524  22.316  1.00  0.00    -0.245 OA
BRANCH  13  15
ATOM     15  O   UNL A   1      32.462  17.277  24.596  1.00  0.00    -0.461 OA
BRANCH  15  16
ATOM     16  C   UNL A   1      33.214  16.063  24.737  1.00  0.00     0.230 C 
ATOM     17  C   UNL A   1      32.458  15.059  25.585  1.00  0.00     0.049 C 
ENDBRANCH  15  16
ENDBRANCH  13  15
ENDBRANCH   9  13
BRANCH  12  18
ATOM     18  C   UNL A   1      32.422  22.794  23.465  1.00  0.00     0.096 A 
ATOM     19  C   UNL A   1      33.123  23.532  22.496  1.00  0.00     0.032 A 
ATOM     20  C   UNL A   1      31.273  23.390  24.011  1.00  0.00     0.149 A 
ATOM     21  C   UNL A   1      32.658  24.776  22.050  1.00  0.00     0.023 A 
ATOM     22  C   UNL A   1      30.820  24.643  23.605  1.00  0.00     0.062 A 
ATOM     23  F   UNL A   1      30.586  22.767  24.981  1.00  0.00    -0.205 F 
ATOM     24  C   UNL A   1      31.508  25.325  22.609  1.00  0.00     0.044 A 
ATOM     25  Cl  UNL A   1      30.929  26.849  22.065  1.00  0.00    -0.084 Cl
ENDBRANCH  12  18
ENDBRANCH   5   8
ENDBRANCH   3   4
ENDBRANCH   2   3
ENDBRANCH   1   2
BRANCH   1  26
ATOM     26  C   UNL A   1      32.367  26.946  26.007  1.00  0.00     0.002 C 
BRANCH  26  27
ATOM     27  C   UNL A   1      33.129  28.079  25.314  1.00  0.00     0.021 C 
BRANCH  27  28
ATOM     28  C   UNL A   1      34.259  28.724  26.112  1.00  0.00     0.116 C 
BRANCH  28  29
ATOM     29  N   UNL A   1      33.922  30.040  26.622  1.00  0.00    -0.352 N 
ATOM     30  C   UNL A   1      34.550  30.794  27.584  1.00  0.00     0.251 C 
ATOM     31  H   UNL A   1      33.125  30.454  26.218  1.00  0.00     0.163 HD
ATOM     32  O   UNL A   1      34.041  31.851  27.950  1.00  0.00    -0.269 OA
BRANCH  30  33
ATOM     33  C   UNL A   1      35.813  30.330  28.204  1.00  0.00     0.039 A 
ATOM     34  C   UNL A   1      37.021  30.639  27.569  1.00  0.00     0.014 A 
ATOM     35  C   UNL A   1      35.820  29.576  29.382  1.00  0.00     0.014 A 
ATOM     36  C   UNL A   1      38.233  30.248  28.145  1.00  0.00     0.010 A 
ATOM     37  C   UNL A   1      37.032  29.234  29.984  1.00  0.00     0.010 A 
ATOM     38  C   UNL A   1      38.250  29.567  29.372  1.00  0.00    -0.014 A 
BRANCH  38  39
ATOM     39  C   UNL A   1      39.532  29.198  30.027  1.00  0.00     0.031 A 
ATOM     40  C   UNL A   1      40.026  29.972  31.219  1.00  0.00     0.074 A 
ATOM     41  C   UNL A   1      40.281  28.202  29.515  1.00  0.00     0.049 A 
ATOM     42  N   UNL A   1      41.149  29.846  31.878  1.00  0.00    -0.248 NA
ATOM     43  C   UNL A   1      39.153  31.045  31.720  1.00  0.00     0.031 C 
ATOM     44  C   UNL A   1      39.935  27.403  28.337  1.00  0.00     0.029 A 
ATOM     45  N   UNL A   1      41.496  27.699  29.910  1.00  0.00    -0.354 N 
ATOM     46  C   UNL A   1      41.128  30.832  32.858  1.00  0.00     0.074 A 
ATOM     47  C   UNL A   1      39.896  31.573  32.682  1.00  0.00     0.031 C 
ATOM     48  C   UNL A   1      40.907  26.503  28.115  1.00  0.00     0.029 A 
ATOM     49  C   UNL A   1      41.957  26.678  29.113  1.00  0.00     0.049 A 
ATOM     50  H   UNL A   1      41.991  28.038  30.691  1.00  0.00     0.167 HD
ATOM     51  C   UNL A   1      42.041  31.086  33.826  1.00  0.00     0.037 A 
ATOM     52  C   UNL A   1      43.100  25.967  29.176  1.00  0.00     0.037 A 
ATOM     53  C   UNL A   1      43.249  30.326  34.020  1.00  0.00     0.049 A 
ATOM     54  C   UNL A   1      44.088  26.251  30.274  1.00  0.00     0.074 A 
ATOM     55  C   UNL A   1      44.208  30.470  35.010  1.00  0.00     0.029 A 
ATOM     56  N   UNL A   1      43.663  29.277  33.214  1.00  0.00    -0.354 N 
ATOM     57  N   UNL A   1      44.025  27.154  31.222  1.00  0.00    -0.248 NA
ATOM     58  C   UNL A   1      45.297  25.417  30.313  1.00  0.00     0.031 C 
ATOM     59  C   UNL A   1      45.215  29.526  34.784  1.00  0.00     0.029 A 
ATOM     60  C   UNL A   1      44.867  28.772  33.674  1.00  0.00     0.049 A 
ATOM     61  H   UNL A   1      43.173  28.942  32.428  1.00  0.00     0.167 HD
ATOM     62  C   UNL A   1      45.175  26.983  31.985  1.00  0.00     0.074 A 
ATOM     63  C   UNL A   1      45.911  25.884  31.393  1.00  0.00     0.031 C 
ATOM     64  C   UNL A   1      45.584  27.673  33.078  1.00  0.00     0.037 A 
BRANCH  51  65
ATOM     65  C   UNL A   1      41.763  32.233  34.757  1.00  0.00     0.058 A 
ATOM     66  C   UNL A   1      42.290  33.513  34.521  1.00  0.00     0.135 A 
ATOM     67  C   UNL A   1      40.943  32.058  35.883  1.00  0.00     0.135 A 
ATOM     68  F   UNL A   1      43.092  33.730  33.466  1.00  0.00    -0.206 F 
ATOM     69  C   UNL A   1      42.040  34.573  35.387  1.00  0.00     0.059 A 
ATOM     70  C   UNL A   1      40.661  33.110  36.750  1.00  0.00     0.059 A 
ATOM     71  F   UNL A   1      40.414  30.855  36.154  1.00  0.00    -0.206 F 
ATOM     72  C   UNL A   1      41.228  34.359  36.503  1.00  0.00     0.060 A 
BRANCH  72  73
ATOM     73  S   UNL A   1      40.919  35.739  37.624  1.00  0.00     0.124 S 
ATOM     74  O   UNL A   1      42.215  36.411  37.619  1.00  0.00    -0.237 OA
ATOM     75  O   UNL A   1      39.834  36.452  36.957  1.00  0.00    -0.237 OA
ATOM     76  O   UNL A   1      40.556  35.083  38.876  1.00  0.00    -0.744 OA
ENDBRANCH  72  73
ENDBRANCH  51  65
BRANCH  52  77
ATOM     77  C   UNL A   1      43.358  24.894  28.180  1.00  0.00     0.058 A 
ATOM     78  C   UNL A   1      44.061  25.166  26.998  1.00  0.00     0.135 A 
ATOM     79  C   UNL A   1      42.925  23.578  28.399  1.00  0.00     0.135 A 
ATOM     80  F   UNL A   1      44.488  26.411  26.743  1.00  0.00    -0.206 F 
ATOM     81  C   UNL A   1      44.318  24.172  26.059  1.00  0.00     0.059 A 
ATOM     82  C   UNL A   1      43.187  22.562  27.486  1.00  0.00     0.059 A 
ATOM     83  F   UNL A   1      42.263  23.266  29.524  1.00  0.00    -0.206 F 
ATOM     84  C   UNL A   1      43.877  22.872  26.313  1.00  0.00     0.060 A 
BRANCH  84  85
ATOM     85  S   UNL A   1      44.265  21.575  25.117  1.00  0.00     0.124 S 
ATOM     86  O   UNL A   1      45.643  21.256  25.468  1.00  0.00    -0.237 OA
ATOM     87  O   UNL A   1      43.272  20.554  25.436  1.00  0.00    -0.237 OA
ATOM     88  O   UNL A   1      44.076  22.241  23.832  1.00  0.00    -0.744 OA
ENDBRANCH  84  85
ENDBRANCH  52  77
BRANCH  64  89
ATOM     89  C   UNL A   1      46.870  27.243  33.723  1.00  0.00     0.058 A 
ATOM     90  C   UNL A   1      48.098  27.819  33.364  1.00  0.00     0.135 A 
ATOM     91  C   UNL A   1      46.866  26.282  34.745  1.00  0.00     0.135 A 
ATOM     92  F   UNL A   1      48.155  28.737  32.387  1.00  0.00    -0.206 F 
ATOM     93  C   UNL A   1      49.285  27.442  33.986  1.00  0.00     0.059 A 
ATOM     94  C   UNL A   1      48.036  25.905  35.395  1.00  0.00     0.059 A 
ATOM     95  F   UNL A   1      45.715  25.708  35.130  1.00  0.00    -0.206 F 
ATOM     96  C   UNL A   1      49.243  26.483  35.002  1.00  0.00     0.060 A 
BRANCH  96  97
ATOM     97  S   UNL A   1      50.782  26.028  35.830  1.00  0.00     0.124 S 
ATOM     98  O   UNL A   1      50.428  26.220  37.233  1.00  0.00    -0.237 OA
ATOM     99  O   UNL A   1      50.970  24.644  35.408  1.00  0.00    -0.237 OA
ATOM    100  O   UNL A   1      51.750  26.979  35.290  1.00  0.00    -0.744 OA
ENDBRANCH  96  97
ENDBRANCH  64  89
ENDBRANCH  38  39
ENDBRANCH  30  33
ENDBRANCH  28  29
ENDBRANCH  27  28
ENDBRANCH  26  27
ENDBRANCH   1  26
TORSDOF 20
ENDMDL
