MODEL 1
REMARK VINA RESULT:     -11.7      0.000      0.000
REMARK SMILES Cc1cc(NC(=O)c2sccc2/C=C/C(=O)NCCCCCCNC(=O)c2ccc(-c3c4nc(c(-c5c(F)cc(S(=O)(=O)[O-])cc5F)c5ccc([nH]5)c(-c5c(F)cc(S(=O)(=O)[O-])cc5F)c5nc(c(-c6c(F)cc(S(=O)(=O)[O-])cc6F)c6ccc3[nH]6)C=C5)C=C4)cc2)ccn1
REMARK SMILES IDX 20 1 19 2 18 3 17 4 15 5 16 6 14 8 13 9 12 10 8 11 9 12
REMARK SMILES IDX 10 13 11 14 6 15 5 16 7 18 4 19 1 20 2 21 3 22 95 23 94 24
REMARK SMILES IDX 93 25 21 26 22 27 23 28 24 29 25 30 26 32 27 33 28 34 92 35
REMARK SMILES IDX 29 36 91 37 30 38 31 39 32 40 85 41 33 42 90 43 84 44 86 45
REMARK SMILES IDX 34 46 89 47 83 48 82 49 35 51 69 52 48 53 68 54 49 55 52 56
REMARK SMILES IDX 67 57 87 58 50 59 51 60 66 62 88 63 53 64 36 65 37 66 46 67
REMARK SMILES IDX 38 68 39 69 45 70 47 71 40 72 41 73 42 74 43 75 44 76 70 77
REMARK SMILES IDX 71 78 80 79 72 80 73 81 79 82 81 83 74 84 75 85 76 86 77 87
REMARK SMILES IDX 78 88 54 89 55 90 64 91 56 92 57 93 63 94 65 95 58 96 59 97
REMARK SMILES IDX 60 98 61 99 62 100
REMARK H PARENT 17 7 5 17 24 31 86 50 52 61
REMARK Flexibility Score: inf
ROOT
ATOM      1  C   UNL A   1      31.202  27.953  24.117  1.00  0.00     0.002 C 
ENDROOT
BRANCH   1   2
ATOM      2  C   UNL A   1      29.926  27.146  23.858  1.00  0.00     0.021 C 
BRANCH   2   3
ATOM      3  C   UNL A   1      30.148  25.639  23.908  1.00  0.00     0.116 C 
BRANCH   3   4
ATOM      4  N   UNL A   1      29.856  25.109  25.225  1.00  0.00    -0.353 N 
ATOM      5  C   UNL A   1      30.555  24.247  26.006  1.00  0.00     0.243 C 
ATOM      6  O   UNL A   1      30.172  24.008  27.149  1.00  0.00    -0.270 OA
ATOM      7  H   UNL A   1      29.011  25.428  25.618  1.00  0.00     0.163 HD
BRANCH   5   8
ATOM      8  C   UNL A   1      31.834  23.666  25.544  1.00  0.00     0.072 C 
ATOM      9  C   UNL A   1      33.056  24.170  25.778  1.00  0.00     0.015 C 
BRANCH   9  10
ATOM     10  C   UNL A   1      34.265  23.534  25.349  1.00  0.00    -0.002 A 
ATOM     11  C   UNL A   1      34.700  22.300  25.812  1.00  0.00     0.099 A 
ATOM     12  S   UNL A   1      36.224  21.877  25.140  1.00  0.00    -0.138 S 
ATOM     13  C   UNL A   1      36.247  23.267  24.148  1.00  0.00     0.066 A 
ATOM     14  C   UNL A   1      35.151  24.073  24.363  1.00  0.00     0.020 A 
BRANCH  11  15
ATOM     15  C   UNL A   1      34.106  21.368  26.747  1.00  0.00     0.266 C 
ATOM     16  N   UNL A   1      33.407  20.256  26.316  1.00  0.00    -0.321 N 
ATOM     17  H   UNL A   1      32.983  19.756  27.049  1.00  0.00     0.170 HD
ATOM     18  O   UNL A   1      34.151  21.546  27.968  1.00  0.00    -0.268 OA
BRANCH  16  19
ATOM     19  C   UNL A   1      33.176  19.690  25.048  1.00  0.00     0.044 A 
ATOM     20  C   UNL A   1      34.011  16.403  23.353  1.00  0.00     0.067 C 
ATOM     21  C   UNL A   1      33.479  17.780  23.612  1.00  0.00     0.039 A 
ATOM     22  C   UNL A   1      33.782  18.457  24.789  1.00  0.00     0.049 A 
ATOM     23  N   UNL A   1      32.640  18.286  22.683  1.00  0.00    -0.261 NA
ATOM     24  C   UNL A   1      32.126  19.510  22.916  1.00  0.00     0.113 A 
ATOM     25  C   UNL A   1      32.373  20.247  24.062  1.00  0.00     0.046 A 
ENDBRANCH  16  19
ENDBRANCH  11  15
ENDBRANCH   9  10
ENDBRANCH   5   8
ENDBRANCH   3   4
ENDBRANCH   2   3
ENDBRANCH   1   2
BRANCH   1  26
ATOM     26  C   UNL A   1      31.437  28.332  25.584  1.00  0.00     0.002 C 
BRANCH  26  27
ATOM     27  C   UNL A   1      32.687  27.719  26.225  1.00  0.00     0.021 C 
BRANCH  27  28
ATOM     28  C   UNL A   1      33.952  28.559  26.083  1.00  0.00     0.116 C 
BRANCH  28  29
ATOM     29  N   UNL A   1      33.720  29.946  26.445  1.00  0.00    -0.352 N 
ATOM     30  C   UNL A   1      34.363  30.728  27.368  1.00  0.00     0.251 C 
ATOM     31  H   UNL A   1      32.991  30.391  25.953  1.00  0.00     0.163 HD
ATOM     32  O   UNL A   1      33.874  31.810  27.685  1.00  0.00    -0.269 OA
BRANCH  30  33
ATOM     33  C   UNL A   1      35.631  30.278  27.984  1.00  0.00     0.039 A 
ATOM     34  C   UNL A   1      35.591  29.706  29.259  1.00  0.00     0.014 A 
ATOM     35  C   UNL A   1      36.860  30.474  27.346  1.00  0.00     0.014 A 
ATOM     36  C   UNL A   1      36.778  29.321  29.887  1.00  0.00     0.010 A 
ATOM     37  C   UNL A   1      38.036  30.024  27.942  1.00  0.00     0.010 A 
ATOM     38  C   UNL A   1      38.009  29.471  29.231  1.00  0.00    -0.014 A 
BRANCH  38  39
ATOM     39  C   UNL A   1      39.283  29.120  29.911  1.00  0.00     0.031 A 
ATOM     40  C   UNL A   1      39.706  29.875  31.144  1.00  0.00     0.074 A 
ATOM     41  C   UNL A   1      40.068  28.149  29.406  1.00  0.00     0.049 A 
ATOM     42  N   UNL A   1      40.792  29.746  31.861  1.00  0.00    -0.248 NA
ATOM     43  C   UNL A   1      38.800  30.935  31.620  1.00  0.00     0.031 C 
ATOM     44  C   UNL A   1      39.787  27.379  28.192  1.00  0.00     0.029 A 
ATOM     45  N   UNL A   1      41.264  27.645  29.850  1.00  0.00    -0.354 N 
ATOM     46  C   UNL A   1      40.710  30.715  32.855  1.00  0.00     0.074 A 
ATOM     47  C   UNL A   1      39.494  31.460  32.619  1.00  0.00     0.031 C 
ATOM     48  C   UNL A   1      40.775  26.488  27.999  1.00  0.00     0.029 A 
ATOM     49  C   UNL A   1      41.768  26.640  29.058  1.00  0.00     0.049 A 
ATOM     50  H   UNL A   1      41.720  27.973  30.658  1.00  0.00     0.167 HD
ATOM     51  C   UNL A   1      41.555  30.945  33.887  1.00  0.00     0.037 A 
ATOM     52  C   UNL A   1      42.901  25.921  29.176  1.00  0.00     0.037 A 
ATOM     53  C   UNL A   1      42.744  30.173  34.141  1.00  0.00     0.049 A 
ATOM     54  C   UNL A   1      43.806  26.172  30.352  1.00  0.00     0.074 A 
ATOM     55  C   UNL A   1      43.641  30.289  35.188  1.00  0.00     0.029 A 
ATOM     56  N   UNL A   1      43.195  29.131  33.342  1.00  0.00    -0.354 N 
ATOM     57  N   UNL A   1      43.684  27.056  31.314  1.00  0.00    -0.248 NA
ATOM     58  C   UNL A   1      44.995  25.316  30.472  1.00  0.00     0.031 C 
ATOM     59  C   UNL A   1      44.653  29.341  35.005  1.00  0.00     0.029 A 
ATOM     60  C   UNL A   1      44.359  28.601  33.871  1.00  0.00     0.049 A 
ATOM     61  H   UNL A   1      42.752  28.817  32.522  1.00  0.00     0.167 HD
ATOM     62  C   UNL A   1      44.756  26.836  32.173  1.00  0.00     0.074 A 
ATOM     63  C   UNL A   1      45.512  25.732  31.619  1.00  0.00     0.031 C 
ATOM     64  C   UNL A   1      45.086  27.486  33.316  1.00  0.00     0.037 A 
BRANCH  51  65
ATOM     65  C   UNL A   1      41.221  32.070  34.830  1.00  0.00     0.058 A 
ATOM     66  C   UNL A   1      41.674  33.380  34.605  1.00  0.00     0.135 A 
ATOM     67  C   UNL A   1      40.403  31.844  35.950  1.00  0.00     0.135 A 
ATOM     68  F   UNL A   1      42.473  33.649  33.560  1.00  0.00    -0.206 F 
ATOM     69  C   UNL A   1      41.348  34.421  35.468  1.00  0.00     0.059 A 
ATOM     70  C   UNL A   1      40.042  32.877  36.811  1.00  0.00     0.059 A 
ATOM     71  F   UNL A   1      39.944  30.612  36.216  1.00  0.00    -0.206 F 
ATOM     72  C   UNL A   1      40.530  34.160  36.567  1.00  0.00     0.060 A 
BRANCH  72  73
ATOM     73  S   UNL A   1      40.102  35.528  37.665  1.00  0.00     0.124 S 
ATOM     74  O   UNL A   1      41.273  35.581  38.534  1.00  0.00    -0.237 OA
ATOM     75  O   UNL A   1      39.952  36.641  36.735  1.00  0.00    -0.237 OA
ATOM     76  O   UNL A   1      38.868  35.077  38.303  1.00  0.00    -0.744 OA
ENDBRANCH  72  73
ENDBRANCH  51  65
BRANCH  52  77
ATOM     77  C   UNL A   1      43.229  24.872  28.174  1.00  0.00     0.058 A 
ATOM     78  C   UNL A   1      43.855  25.199  26.962  1.00  0.00     0.135 A 
ATOM     79  C   UNL A   1      42.918  23.523  28.404  1.00  0.00     0.135 A 
ATOM     80  F   UNL A   1      44.170  26.476  26.694  1.00  0.00    -0.206 F 
ATOM     81  C   UNL A   1      44.135  24.233  26.001  1.00  0.00     0.059 A 
ATOM     82  C   UNL A   1      43.213  22.534  27.471  1.00  0.00     0.059 A 
ATOM     83  F   UNL A   1      42.340  23.153  29.558  1.00  0.00    -0.206 F 
ATOM     84  C   UNL A   1      43.809  22.902  26.265  1.00  0.00     0.060 A 
BRANCH  84  85
ATOM     85  S   UNL A   1      44.202  21.649  25.025  1.00  0.00     0.124 S 
ATOM     86  O   UNL A   1      43.133  20.681  25.236  1.00  0.00    -0.237 OA
ATOM     87  O   UNL A   1      44.136  22.415  23.783  1.00  0.00    -0.237 OA
ATOM     88  O   UNL A   1      45.541  21.209  25.409  1.00  0.00    -0.744 OA
ENDBRANCH  84  85
ENDBRANCH  52  77
BRANCH  64  89
ATOM     89  C   UNL A   1      46.280  26.982  34.077  1.00  0.00     0.058 A 
ATOM     90  C   UNL A   1      47.568  27.493  33.862  1.00  0.00     0.135 A 
ATOM     91  C   UNL A   1      46.122  25.991  35.060  1.00  0.00     0.135 A 
ATOM     92  F   UNL A   1      47.774  28.439  32.932  1.00  0.00    -0.206 F 
ATOM     93  C   UNL A   1      48.666  27.013  34.570  1.00  0.00     0.059 A 
ATOM     94  C   UNL A   1      47.200  25.518  35.800  1.00  0.00     0.059 A 
ATOM     95  F   UNL A   1      44.907  25.479  35.315  1.00  0.00    -0.206 F 
ATOM     96  C   UNL A   1      48.472  26.023  35.535  1.00  0.00     0.060 A 
BRANCH  96  97
ATOM     97  S   UNL A   1      49.901  25.413  36.453  1.00  0.00     0.124 S 
ATOM     98  O   UNL A   1      49.627  23.981  36.503  1.00  0.00    -0.237 OA
ATOM     99  O   UNL A   1      51.017  25.815  35.602  1.00  0.00    -0.237 OA
ATOM    100  O   UNL A   1      49.810  26.116  37.729  1.00  0.00    -0.744 OA
ENDBRANCH  96  97
ENDBRANCH  64  89
ENDBRANCH  38  39
ENDBRANCH  30  33
ENDBRANCH  28  29
ENDBRANCH  27  28
ENDBRANCH  26  27
ENDBRANCH   1  26
TORSDOF 19
ENDMDL
MODEL 2
REMARK VINA RESULT:     -11.6      2.738      3.435
REMARK SMILES Cc1cc(NC(=O)c2sccc2/C=C/C(=O)NCCCCCCNC(=O)c2ccc(-c3c4nc(c(-c5c(F)cc(S(=O)(=O)[O-])cc5F)c5ccc([nH]5)c(-c5c(F)cc(S(=O)(=O)[O-])cc5F)c5nc(c(-c6c(F)cc(S(=O)(=O)[O-])cc6F)c6ccc3[nH]6)C=C5)C=C4)cc2)ccn1
REMARK SMILES IDX 20 1 19 2 18 3 17 4 15 5 16 6 14 8 13 9 12 10 8 11 9 12
REMARK SMILES IDX 10 13 11 14 6 15 5 16 7 18 4 19 1 20 2 21 3 22 95 23 94 24
REMARK SMILES IDX 93 25 21 26 22 27 23 28 24 29 25 30 26 32 27 33 28 34 92 35
REMARK SMILES IDX 29 36 91 37 30 38 31 39 32 40 85 41 33 42 90 43 84 44 86 45
REMARK SMILES IDX 34 46 89 47 83 48 82 49 35 51 69 52 48 53 68 54 49 55 52 56
REMARK SMILES IDX 67 57 87 58 50 59 51 60 66 62 88 63 53 64 36 65 37 66 46 67
REMARK SMILES IDX 38 68 39 69 45 70 47 71 40 72 41 73 42 74 43 75 44 76 70 77
REMARK SMILES IDX 71 78 80 79 72 80 73 81 79 82 81 83 74 84 75 85 76 86 77 87
REMARK SMILES IDX 78 88 54 89 55 90 64 91 56 92 57 93 63 94 65 95 58 96 59 97
REMARK SMILES IDX 60 98 61 99 62 100
REMARK H PARENT 17 7 5 17 24 31 86 50 52 61
REMARK Flexibility Score: inf
ROOT
ATOM      1  C   UNL A   1      32.672  27.086  23.640  1.00  0.00     0.002 C 
ENDROOT
BRANCH   1   2
ATOM      2  C   UNL A   1      31.142  27.160  23.676  1.00  0.00     0.021 C 
BRANCH   2   3
ATOM      3  C   UNL A   1      30.472  25.797  23.541  1.00  0.00     0.116 C 
BRANCH   3   4
ATOM      4  N   UNL A   1      29.956  25.338  24.814  1.00  0.00    -0.353 N 
ATOM      5  C   UNL A   1      30.566  24.671  25.827  1.00  0.00     0.243 C 
ATOM      6  O   UNL A   1      29.961  24.469  26.879  1.00  0.00    -0.270 OA
ATOM      7  H   UNL A   1      29.006  25.546  24.972  1.00  0.00     0.163 HD
BRANCH   5   8
ATOM      8  C   UNL A   1      31.987  24.272  25.731  1.00  0.00     0.072 C 
ATOM      9  C   UNL A   1      32.516  23.472  24.791  1.00  0.00     0.015 C 
BRANCH   9  10
ATOM     10  C   UNL A   1      33.912  23.161  24.718  1.00  0.00    -0.002 A 
ATOM     11  C   UNL A   1      34.531  22.183  25.485  1.00  0.00     0.099 A 
ATOM     12  S   UNL A   1      36.223  22.132  25.193  1.00  0.00    -0.138 S 
ATOM     13  C   UNL A   1      36.114  23.316  23.968  1.00  0.00     0.066 A 
ATOM     14  C   UNL A   1      34.830  23.792  23.821  1.00  0.00     0.020 A 
BRANCH  11  15
ATOM     15  C   UNL A   1      33.999  21.259  26.464  1.00  0.00     0.266 C 
ATOM     16  N   UNL A   1      33.385  20.079  26.086  1.00  0.00    -0.321 N 
ATOM     17  H   UNL A   1      32.992  19.587  26.842  1.00  0.00     0.170 HD
ATOM     18  O   UNL A   1      34.020  21.501  27.675  1.00  0.00    -0.268 OA
BRANCH  16  19
ATOM     19  C   UNL A   1      33.205  19.435  24.848  1.00  0.00     0.044 A 
ATOM     20  C   UNL A   1      34.409  16.203  23.272  1.00  0.00     0.067 C 
ATOM     21  C   UNL A   1      33.717  17.515  23.486  1.00  0.00     0.039 A 
ATOM     22  C   UNL A   1      33.953  18.274  24.628  1.00  0.00     0.049 A 
ATOM     23  N   UNL A   1      32.809  17.876  22.553  1.00  0.00    -0.261 NA
ATOM     24  C   UNL A   1      32.153  19.037  22.747  1.00  0.00     0.113 A 
ATOM     25  C   UNL A   1      32.326  19.847  23.856  1.00  0.00     0.046 A 
ENDBRANCH  16  19
ENDBRANCH  11  15
ENDBRANCH   9  10
ENDBRANCH   5   8
ENDBRANCH   3   4
ENDBRANCH   2   3
ENDBRANCH   1   2
BRANCH   1  26
ATOM     26  C   UNL A   1      33.381  27.933  24.705  1.00  0.00     0.002 C 
BRANCH  26  27
ATOM     27  C   UNL A   1      32.696  27.966  26.075  1.00  0.00     0.021 C 
BRANCH  27  28
ATOM     28  C   UNL A   1      33.616  28.326  27.238  1.00  0.00     0.116 C 
BRANCH  28  29
ATOM     29  N   UNL A   1      33.525  29.734  27.579  1.00  0.00    -0.352 N 
ATOM     30  C   UNL A   1      34.447  30.548  28.184  1.00  0.00     0.251 C 
ATOM     31  H   UNL A   1      32.674  30.169  27.340  1.00  0.00     0.163 HD
ATOM     32  O   UNL A   1      34.099  31.655  28.586  1.00  0.00    -0.269 OA
BRANCH  30  33
ATOM     33  C   UNL A   1      35.848  30.102  28.356  1.00  0.00     0.039 A 
ATOM     34  C   UNL A   1      36.271  29.699  29.626  1.00  0.00     0.014 A 
ATOM     35  C   UNL A   1      36.760  30.142  27.296  1.00  0.00     0.014 A 
ATOM     36  C   UNL A   1      37.602  29.324  29.829  1.00  0.00     0.010 A 
ATOM     37  C   UNL A   1      38.067  29.699  27.484  1.00  0.00     0.010 A 
ATOM     38  C   UNL A   1      38.509  29.316  28.759  1.00  0.00    -0.014 A 
BRANCH  38  39
ATOM     39  C   UNL A   1      39.939  28.976  28.974  1.00  0.00     0.031 A 
ATOM     40  C   UNL A   1      40.875  30.008  29.547  1.00  0.00     0.074 A 
ATOM     41  C   UNL A   1      40.399  27.757  28.630  1.00  0.00     0.049 A 
ATOM     42  N   UNL A   1      42.160  29.921  29.778  1.00  0.00    -0.248 NA
ATOM     43  C   UNL A   1      40.297  31.321  29.879  1.00  0.00     0.031 C 
ATOM     44  C   UNL A   1      39.599  26.690  28.023  1.00  0.00     0.029 A 
ATOM     45  N   UNL A   1      41.653  27.211  28.737  1.00  0.00    -0.354 N 
ATOM     46  C   UNL A   1      42.544  31.166  30.263  1.00  0.00     0.074 A 
ATOM     47  C   UNL A   1      41.369  32.009  30.242  1.00  0.00     0.031 C 
ATOM     48  C   UNL A   1      40.378  25.613  27.831  1.00  0.00     0.029 A 
ATOM     49  C   UNL A   1      41.735  25.919  28.274  1.00  0.00     0.049 A 
ATOM     50  H   UNL A   1      42.422  27.700  29.109  1.00  0.00     0.167 HD
ATOM     51  C   UNL A   1      43.758  31.565  30.711  1.00  0.00     0.037 A 
ATOM     52  C   UNL A   1      42.785  25.077  28.217  1.00  0.00     0.037 A 
ATOM     53  C   UNL A   1      44.915  30.708  30.766  1.00  0.00     0.049 A 
ATOM     54  C   UNL A   1      44.115  25.532  28.754  1.00  0.00     0.074 A 
ATOM     55  C   UNL A   1      46.179  30.997  31.251  1.00  0.00     0.029 A 
ATOM     56  N   UNL A   1      44.945  29.391  30.333  1.00  0.00    -0.354 N 
ATOM     57  N   UNL A   1      44.447  26.696  29.260  1.00  0.00    -0.248 NA
ATOM     58  C   UNL A   1      45.211  24.553  28.731  1.00  0.00     0.031 C 
ATOM     59  C   UNL A   1      46.983  29.865  31.079  1.00  0.00     0.029 A 
ATOM     60  C   UNL A   1      46.205  28.856  30.534  1.00  0.00     0.049 A 
ATOM     61  H   UNL A   1      44.182  28.909  29.940  1.00  0.00     0.167 HD
ATOM     62  C   UNL A   1      45.777  26.577  29.651  1.00  0.00     0.074 A 
ATOM     63  C   UNL A   1      46.185  25.226  29.329  1.00  0.00     0.031 C 
ATOM     64  C   UNL A   1      46.587  27.500  30.225  1.00  0.00     0.037 A 
BRANCH  51  65
ATOM     65  C   UNL A   1      43.898  32.985  31.188  1.00  0.00     0.058 A 
ATOM     66  C   UNL A   1      43.829  33.315  32.551  1.00  0.00     0.135 A 
ATOM     67  C   UNL A   1      44.148  34.024  30.276  1.00  0.00     0.135 A 
ATOM     68  F   UNL A   1      43.575  32.364  33.465  1.00  0.00    -0.206 F 
ATOM     69  C   UNL A   1      43.978  34.626  32.992  1.00  0.00     0.059 A 
ATOM     70  C   UNL A   1      44.328  35.339  30.698  1.00  0.00     0.059 A 
ATOM     71  F   UNL A   1      44.222  33.767  28.961  1.00  0.00    -0.206 F 
ATOM     72  C   UNL A   1      44.229  35.631  32.057  1.00  0.00     0.060 A 
BRANCH  72  73
ATOM     73  S   UNL A   1      44.439  37.324  32.649  1.00  0.00     0.124 S 
ATOM     74  O   UNL A   1      44.893  38.001  31.438  1.00  0.00    -0.237 OA
ATOM     75  O   UNL A   1      43.094  37.667  33.100  1.00  0.00    -0.237 OA
ATOM     76  O   UNL A   1      45.437  37.193  33.706  1.00  0.00    -0.744 OA
ENDBRANCH  72  73
ENDBRANCH  51  65
BRANCH  52  77
ATOM     77  C   UNL A   1      42.616  23.707  27.663  1.00  0.00     0.058 A 
ATOM     78  C   UNL A   1      42.398  22.608  28.505  1.00  0.00     0.135 A 
ATOM     79  C   UNL A   1      42.674  23.469  26.281  1.00  0.00     0.135 A 
ATOM     80  F   UNL A   1      42.336  22.783  29.835  1.00  0.00    -0.206 F 
ATOM     81  C   UNL A   1      42.272  21.317  28.003  1.00  0.00     0.059 A 
ATOM     82  C   UNL A   1      42.525  22.191  25.752  1.00  0.00     0.059 A 
ATOM     83  F   UNL A   1      42.858  24.491  25.429  1.00  0.00    -0.206 F 
ATOM     84  C   UNL A   1      42.340  21.118  26.623  1.00  0.00     0.060 A 
BRANCH  84  85
ATOM     85  S   UNL A   1      42.147  19.444  25.976  1.00  0.00     0.124 S 
ATOM     86  O   UNL A   1      42.978  19.493  24.779  1.00  0.00    -0.237 OA
ATOM     87  O   UNL A   1      42.658  18.629  27.076  1.00  0.00    -0.237 OA
ATOM     88  O   UNL A   1      40.709  19.337  25.746  1.00  0.00    -0.744 OA
ENDBRANCH  84  85
ENDBRANCH  52  77
BRANCH  64  89
ATOM     89  C   UNL A   1      47.975  27.063  30.599  1.00  0.00     0.058 A 
ATOM     90  C   UNL A   1      49.084  27.334  29.785  1.00  0.00     0.135 A 
ATOM     91  C   UNL A   1      48.199  26.387  31.811  1.00  0.00     0.135 A 
ATOM     92  F   UNL A   1      48.924  27.974  28.616  1.00  0.00    -0.206 F 
ATOM     93  C   UNL A   1      50.364  26.918  30.140  1.00  0.00     0.059 A 
ATOM     94  C   UNL A   1      49.473  25.989  32.200  1.00  0.00     0.059 A 
ATOM     95  F   UNL A   1      47.173  26.116  32.634  1.00  0.00    -0.206 F 
ATOM     96  C   UNL A   1      50.548  26.243  31.348  1.00  0.00     0.060 A 
BRANCH  96  97
ATOM     97  S   UNL A   1      52.213  25.715  31.804  1.00  0.00     0.124 S 
ATOM     98  O   UNL A   1      52.505  26.605  32.924  1.00  0.00    -0.237 OA
ATOM     99  O   UNL A   1      52.014  24.310  32.147  1.00  0.00    -0.237 OA
ATOM    100  O   UNL A   1      52.989  25.954  30.591  1.00  0.00    -0.744 OA
ENDBRANCH  96  97
ENDBRANCH  64  89
ENDBRANCH  38  39
ENDBRANCH  30  33
ENDBRANCH  28  29
ENDBRANCH  27  28
ENDBRANCH  26  27
ENDBRANCH   1  26
TORSDOF 19
ENDMDL
MODEL 3
REMARK VINA RESULT:     -11.4      4.975      6.332
REMARK SMILES Cc1cc(NC(=O)c2sccc2/C=C/C(=O)NCCCCCCNC(=O)c2ccc(-c3c4nc(c(-c5c(F)cc(S(=O)(=O)[O-])cc5F)c5ccc([nH]5)c(-c5c(F)cc(S(=O)(=O)[O-])cc5F)c5nc(c(-c6c(F)cc(S(=O)(=O)[O-])cc6F)c6ccc3[nH]6)C=C5)C=C4)cc2)ccn1
REMARK SMILES IDX 20 1 19 2 18 3 17 4 15 5 16 6 14 8 13 9 12 10 8 11 9 12
REMARK SMILES IDX 10 13 11 14 6 15 5 16 7 18 4 19 1 20 2 21 3 22 95 23 94 24
REMARK SMILES IDX 93 25 21 26 22 27 23 28 24 29 25 30 26 32 27 33 28 34 92 35
REMARK SMILES IDX 29 36 91 37 30 38 31 39 32 40 85 41 33 42 90 43 84 44 86 45
REMARK SMILES IDX 34 46 89 47 83 48 82 49 35 51 69 52 48 53 68 54 49 55 52 56
REMARK SMILES IDX 67 57 87 58 50 59 51 60 66 62 88 63 53 64 36 65 37 66 46 67
REMARK SMILES IDX 38 68 39 69 45 70 47 71 40 72 41 73 42 74 43 75 44 76 70 77
REMARK SMILES IDX 71 78 80 79 72 80 73 81 79 82 81 83 74 84 75 85 76 86 77 87
REMARK SMILES IDX 78 88 54 89 55 90 64 91 56 92 57 93 63 94 65 95 58 96 59 97
REMARK SMILES IDX 60 98 61 99 62 100
REMARK H PARENT 17 7 5 17 24 31 86 50 52 61
REMARK Flexibility Score: inf
ROOT
ATOM      1  C   UNL A   1      35.082  30.253  27.459  1.00  0.00     0.002 C 
ENDROOT
BRANCH   1   2
ATOM      2  C   UNL A   1      34.003  29.170  27.359  1.00  0.00     0.021 C 
BRANCH   2   3
ATOM      3  C   UNL A   1      33.917  28.534  25.977  1.00  0.00     0.116 C 
BRANCH   3   4
ATOM      4  N   UNL A   1      32.694  27.773  25.826  1.00  0.00    -0.353 N 
ATOM      5  C   UNL A   1      32.499  26.464  25.520  1.00  0.00     0.243 C 
ATOM      6  O   UNL A   1      31.363  25.993  25.546  1.00  0.00    -0.270 OA
ATOM      7  H   UNL A   1      31.868  28.289  25.969  1.00  0.00     0.163 HD
BRANCH   5   8
ATOM      8  C   UNL A   1      33.641  25.564  25.257  1.00  0.00     0.072 C 
ATOM      9  C   UNL A   1      33.682  24.248  25.522  1.00  0.00     0.015 C 
BRANCH   9  10
ATOM     10  C   UNL A   1      34.801  23.415  25.197  1.00  0.00    -0.002 A 
ATOM     11  C   UNL A   1      35.022  22.162  25.751  1.00  0.00     0.099 A 
ATOM     12  S   UNL A   1      36.495  21.477  25.191  1.00  0.00    -0.138 S 
ATOM     13  C   UNL A   1      36.774  22.783  24.127  1.00  0.00     0.066 A 
ATOM     14  C   UNL A   1      35.804  23.754  24.235  1.00  0.00     0.020 A 
BRANCH  11  15
ATOM     15  C   UNL A   1      34.251  21.389  26.702  1.00  0.00     0.266 C 
ATOM     16  N   UNL A   1      33.424  20.359  26.295  1.00  0.00    -0.321 N 
ATOM     17  H   UNL A   1      32.893  19.974  27.029  1.00  0.00     0.170 HD
ATOM     18  O   UNL A   1      34.255  21.642  27.910  1.00  0.00    -0.268 OA
BRANCH  16  19
ATOM     19  C   UNL A   1      33.182  19.745  25.051  1.00  0.00     0.044 A 
ATOM     20  C   UNL A   1      33.895  16.351  23.517  1.00  0.00     0.067 C 
ATOM     21  C   UNL A   1      33.419  17.760  23.707  1.00  0.00     0.039 A 
ATOM     22  C   UNL A   1      33.738  18.477  24.857  1.00  0.00     0.049 A 
ATOM     23  N   UNL A   1      32.612  18.258  22.746  1.00  0.00    -0.261 NA
ATOM     24  C   UNL A   1      32.148  19.512  22.917  1.00  0.00     0.113 A 
ATOM     25  C   UNL A   1      32.414  20.289  24.031  1.00  0.00     0.046 A 
ENDBRANCH  16  19
ENDBRANCH  11  15
ENDBRANCH   9  10
ENDBRANCH   5   8
ENDBRANCH   3   4
ENDBRANCH   2   3
ENDBRANCH   1   2
BRANCH   1  26
ATOM     26  C   UNL A   1      34.671  31.499  28.254  1.00  0.00     0.002 C 
BRANCH  26  27
ATOM     27  C   UNL A   1      35.650  32.676  28.175  1.00  0.00     0.021 C 
BRANCH  27  28
ATOM     28  C   UNL A   1      36.531  32.854  29.408  1.00  0.00     0.116 C 
BRANCH  28  29
ATOM     29  N   UNL A   1      36.173  31.924  30.463  1.00  0.00    -0.352 N 
ATOM     30  C   UNL A   1      36.789  30.763  30.852  1.00  0.00     0.251 C 
ATOM     31  H   UNL A   1      35.367  32.163  30.976  1.00  0.00     0.163 HD
ATOM     32  O   UNL A   1      36.208  30.002  31.620  1.00  0.00    -0.269 OA
BRANCH  30  33
ATOM     33  C   UNL A   1      38.140  30.424  30.351  1.00  0.00     0.039 A 
ATOM     34  C   UNL A   1      38.309  30.193  28.982  1.00  0.00     0.014 A 
ATOM     35  C   UNL A   1      39.222  30.266  31.224  1.00  0.00     0.014 A 
ATOM     36  C   UNL A   1      39.561  29.818  28.490  1.00  0.00     0.010 A 
ATOM     37  C   UNL A   1      40.485  29.963  30.722  1.00  0.00     0.010 A 
ATOM     38  C   UNL A   1      40.661  29.706  29.354  1.00  0.00    -0.014 A 
BRANCH  38  39
ATOM     39  C   UNL A   1      41.982  29.252  28.851  1.00  0.00     0.031 A 
ATOM     40  C   UNL A   1      43.119  30.235  28.740  1.00  0.00     0.074 A 
ATOM     41  C   UNL A   1      42.153  27.971  28.470  1.00  0.00     0.049 A 
ATOM     42  N   UNL A   1      44.334  30.048  28.295  1.00  0.00    -0.248 NA
ATOM     43  C   UNL A   1      42.845  31.621  29.160  1.00  0.00     0.031 C 
ATOM     44  C   UNL A   1      41.114  26.938  28.487  1.00  0.00     0.029 A 
ATOM     45  N   UNL A   1      43.261  27.321  27.989  1.00  0.00    -0.354 N 
ATOM     46  C   UNL A   1      44.960  31.288  28.363  1.00  0.00     0.074 A 
ATOM     47  C   UNL A   1      43.976  32.232  28.842  1.00  0.00     0.031 C 
ATOM     48  C   UNL A   1      41.642  25.779  28.056  1.00  0.00     0.029 A 
ATOM     49  C   UNL A   1      43.043  25.992  27.707  1.00  0.00     0.049 A 
ATOM     50  H   UNL A   1      44.130  27.764  27.857  1.00  0.00     0.167 HD
ATOM     51  C   UNL A   1      46.245  31.606  28.080  1.00  0.00     0.037 A 
ATOM     52  C   UNL A   1      43.881  25.053  27.226  1.00  0.00     0.037 A 
ATOM     53  C   UNL A   1      47.232  30.652  27.642  1.00  0.00     0.049 A 
ATOM     54  C   UNL A   1      45.314  25.424  26.953  1.00  0.00     0.074 A 
ATOM     55  C   UNL A   1      48.575  30.860  27.378  1.00  0.00     0.029 A 
ATOM     56  N   UNL A   1      46.984  29.306  27.415  1.00  0.00    -0.354 N 
ATOM     57  N   UNL A   1      45.903  26.591  27.077  1.00  0.00    -0.248 NA
ATOM     58  C   UNL A   1      46.203  24.348  26.493  1.00  0.00     0.031 C 
ATOM     59  C   UNL A   1      49.131  29.647  26.959  1.00  0.00     0.029 A 
ATOM     60  C   UNL A   1      48.146  28.674  27.010  1.00  0.00     0.049 A 
ATOM     61  H   UNL A   1      46.110  28.867  27.526  1.00  0.00     0.167 HD
ATOM     62  C   UNL A   1      47.238  26.380  26.748  1.00  0.00     0.074 A 
ATOM     63  C   UNL A   1      47.370  24.974  26.428  1.00  0.00     0.031 C 
ATOM     64  C   UNL A   1      48.262  27.267  26.715  1.00  0.00     0.037 A 
BRANCH  51  65
ATOM     65  C   UNL A   1      46.665  33.041  28.246  1.00  0.00     0.058 A 
ATOM     66  C   UNL A   1      46.545  33.970  27.199  1.00  0.00     0.135 A 
ATOM     67  C   UNL A   1      47.154  33.506  29.478  1.00  0.00     0.135 A 
ATOM     68  F   UNL A   1      46.101  33.577  25.994  1.00  0.00    -0.206 F 
ATOM     69  C   UNL A   1      46.917  35.301  27.360  1.00  0.00     0.059 A 
ATOM     70  C   UNL A   1      47.505  34.839  29.670  1.00  0.00     0.059 A 
ATOM     71  F   UNL A   1      47.292  32.662  30.513  1.00  0.00    -0.206 F 
ATOM     72  C   UNL A   1      47.394  35.727  28.600  1.00  0.00     0.060 A 
BRANCH  72  73
ATOM     73  S   UNL A   1      47.853  37.462  28.797  1.00  0.00     0.124 S 
ATOM     74  O   UNL A   1      47.214  37.790  30.067  1.00  0.00    -0.237 OA
ATOM     75  O   UNL A   1      49.310  37.400  28.818  1.00  0.00    -0.237 OA
ATOM     76  O   UNL A   1      47.273  38.101  27.619  1.00  0.00    -0.744 OA
ENDBRANCH  72  73
ENDBRANCH  51  65
BRANCH  52  77
ATOM     77  C   UNL A   1      43.398  23.664  27.004  1.00  0.00     0.058 A 
ATOM     78  C   UNL A   1      43.150  23.183  25.710  1.00  0.00     0.135 A 
ATOM     79  C   UNL A   1      43.170  22.792  28.080  1.00  0.00     0.135 A 
ATOM     80  F   UNL A   1      43.350  23.979  24.649  1.00  0.00    -0.206 F 
ATOM     81  C   UNL A   1      42.666  21.898  25.490  1.00  0.00     0.059 A 
ATOM     82  C   UNL A   1      42.712  21.493  27.885  1.00  0.00     0.059 A 
ATOM     83  F   UNL A   1      43.414  23.196  29.337  1.00  0.00    -0.206 F 
ATOM     84  C   UNL A   1      42.448  21.060  26.585  1.00  0.00     0.060 A 
BRANCH  84  85
ATOM     85  S   UNL A   1      41.847  19.383  26.290  1.00  0.00     0.124 S 
ATOM     86  O   UNL A   1      42.326  18.686  27.477  1.00  0.00    -0.237 OA
ATOM     87  O   UNL A   1      40.403  19.585  26.206  1.00  0.00    -0.237 OA
ATOM     88  O   UNL A   1      42.492  19.013  25.034  1.00  0.00    -0.744 OA
ENDBRANCH  84  85
ENDBRANCH  52  77
BRANCH  64  89
ATOM     89  C   UNL A   1      49.627  26.734  26.381  1.00  0.00     0.058 A 
ATOM     90  C   UNL A   1      50.150  26.792  25.081  1.00  0.00     0.135 A 
ATOM     91  C   UNL A   1      50.436  26.182  27.389  1.00  0.00     0.135 A 
ATOM     92  F   UNL A   1      49.417  27.307  24.080  1.00  0.00    -0.206 F 
ATOM     93  C   UNL A   1      51.413  26.290  24.783  1.00  0.00     0.059 A 
ATOM     94  C   UNL A   1      51.712  25.701  27.121  1.00  0.00     0.059 A 
ATOM     95  F   UNL A   1      49.988  26.116  28.654  1.00  0.00    -0.206 F 
ATOM     96  C   UNL A   1      52.185  25.743  25.810  1.00  0.00     0.060 A 
BRANCH  96  97
ATOM     97  S   UNL A   1      53.825  25.100  25.415  1.00  0.00     0.124 S 
ATOM     98  O   UNL A   1      53.589  23.661  25.437  1.00  0.00    -0.237 OA
ATOM     99  O   UNL A   1      54.083  25.681  24.100  1.00  0.00    -0.237 OA
ATOM    100  O   UNL A   1      54.661  25.617  26.495  1.00  0.00    -0.744 OA
ENDBRANCH  96  97
ENDBRANCH  64  89
ENDBRANCH  38  39
ENDBRANCH  30  33
ENDBRANCH  28  29
ENDBRANCH  27  28
ENDBRANCH  26  27
ENDBRANCH   1  26
TORSDOF 19
ENDMDL
