MODEL 1
REMARK VINA RESULT:     -11.4      0.000      0.000
REMARK SMILES O=C(NCCCCCCNC(=O)[C@H]1CC[C@@H](CNc2ccccc2C(F)(F)F)O1)c1ccc(-c2c3nc(c(-c4c(F)cc(S(=O)(=O)[O-])cc4F)c4ccc([nH]4)c(-c4c(F)cc(S(=O)(=O)[O-])cc4F)c4nc(c(-c5c(F)cc(S(=O)(=O)[O-])cc5F)c5ccc2[nH]5)C=C4)C=C3)cc1
REMARK SMILES IDX 7 1 6 2 5 3 4 4 3 5 1 6 2 7 30 9 31 10 95 11 32 12 94 13
REMARK SMILES IDX 33 14 34 15 35 16 88 17 36 18 93 19 87 20 89 21 37 22 92 23
REMARK SMILES IDX 86 24 85 25 38 27 72 28 51 29 71 30 52 31 55 32 70 33 90 34
REMARK SMILES IDX 53 35 54 36 69 38 91 39 56 40 39 41 40 42 49 43 41 44 42 45
REMARK SMILES IDX 48 46 50 47 43 48 44 49 45 50 46 51 47 52 73 53 74 54 83 55
REMARK SMILES IDX 75 56 76 57 82 58 84 59 77 60 78 61 79 62 80 63 81 64 57 65
REMARK SMILES IDX 58 66 67 67 59 68 60 69 66 70 68 71 61 72 62 73 63 74 64 75
REMARK SMILES IDX 65 76 8 77 9 78 10 79 11 80 12 82 13 83 14 84 29 85 15 86
REMARK SMILES IDX 16 87 17 88 18 89 19 91 20 92 24 93 21 94 23 95 22 96 25 97
REMARK SMILES IDX 26 98 27 99 28 100
REMARK H PARENT 3 8 89 26 55 37 10 81 18 90
REMARK Flexibility Score: inf
ROOT
ATOM      1  C   UNL A   1      35.145  24.263  25.750  1.00  0.00     0.002 C 
ENDROOT
BRANCH   1   2
ATOM      2  C   UNL A   1      36.325  23.480  25.155  1.00  0.00     0.002 C 
BRANCH   2   3
ATOM      3  C   UNL A   1      37.469  23.163  26.127  1.00  0.00     0.021 C 
BRANCH   3   4
ATOM      4  C   UNL A   1      38.359  24.353  26.480  1.00  0.00     0.116 C 
BRANCH   4   5
ATOM      5  N   UNL A   1      39.737  24.123  26.081  1.00  0.00    -0.352 N 
ATOM      6  O   UNL A   1      41.900  24.637  25.759  1.00  0.00    -0.269 OA
ATOM      7  C   UNL A   1      40.870  24.828  26.400  1.00  0.00     0.251 C 
ATOM      8  H   UNL A   1      39.879  23.346  25.495  1.00  0.00     0.163 HD
BRANCH   7   9
ATOM      9  C   UNL A   1      40.860  25.813  27.505  1.00  0.00     0.039 A 
ATOM     10  C   UNL A   1      41.794  26.853  27.558  1.00  0.00     0.014 A 
ATOM     11  C   UNL A   1      39.843  25.736  28.461  1.00  0.00     0.014 A 
ATOM     12  C   UNL A   1      41.761  27.767  28.610  1.00  0.00     0.010 A 
ATOM     13  C   UNL A   1      39.779  26.684  29.485  1.00  0.00     0.010 A 
ATOM     14  C   UNL A   1      40.744  27.700  29.574  1.00  0.00    -0.014 A 
BRANCH  14  15
ATOM     15  C   UNL A   1      40.643  28.729  30.640  1.00  0.00     0.031 A 
ATOM     16  C   UNL A   1      41.481  28.632  31.881  1.00  0.00     0.074 A 
ATOM     17  C   UNL A   1      39.746  29.724  30.505  1.00  0.00     0.049 A 
ATOM     18  N   UNL A   1      41.460  29.383  32.952  1.00  0.00    -0.248 NA
ATOM     19  C   UNL A   1      42.465  27.540  31.930  1.00  0.00     0.031 C 
ATOM     20  C   UNL A   1      38.864  29.909  29.352  1.00  0.00     0.029 A 
ATOM     21  N   UNL A   1      39.410  30.750  31.351  1.00  0.00    -0.354 N 
ATOM     22  C   UNL A   1      42.407  28.843  33.814  1.00  0.00     0.074 A 
ATOM     23  C   UNL A   1      42.972  27.688  33.147  1.00  0.00     0.031 C 
ATOM     24  C   UNL A   1      38.082  30.977  29.564  1.00  0.00     0.029 A 
ATOM     25  C   UNL A   1      38.372  31.523  30.887  1.00  0.00     0.049 A 
ATOM     26  H   UNL A   1      39.867  30.917  32.207  1.00  0.00     0.167 HD
ATOM     27  C   UNL A   1      42.770  29.274  35.046  1.00  0.00     0.037 A 
ATOM     28  C   UNL A   1      37.702  32.535  31.472  1.00  0.00     0.037 A 
ATOM     29  C   UNL A   1      42.204  30.428  35.698  1.00  0.00     0.049 A 
ATOM     30  C   UNL A   1      38.107  32.989  32.843  1.00  0.00     0.074 A 
ATOM     31  C   UNL A   1      42.540  30.977  36.923  1.00  0.00     0.029 A 
ATOM     32  N   UNL A   1      41.170  31.200  35.185  1.00  0.00    -0.354 N 
ATOM     33  N   UNL A   1      39.044  32.505  33.624  1.00  0.00    -0.248 NA
ATOM     34  C   UNL A   1      37.373  34.125  33.416  1.00  0.00     0.031 C 
ATOM     35  C   UNL A   1      41.680  32.053  37.171  1.00  0.00     0.029 A 
ATOM     36  C   UNL A   1      40.839  32.205  36.079  1.00  0.00     0.049 A 
ATOM     37  H   UNL A   1      40.736  31.053  34.314  1.00  0.00     0.167 HD
ATOM     38  C   UNL A   1      39.026  33.287  34.772  1.00  0.00     0.074 A 
ATOM     39  C   UNL A   1      37.987  34.279  34.584  1.00  0.00     0.031 C 
ATOM     40  C   UNL A   1      39.806  33.192  35.876  1.00  0.00     0.037 A 
BRANCH  27  41
ATOM     41  C   UNL A   1      43.810  28.473  35.780  1.00  0.00     0.058 A 
ATOM     42  C   UNL A   1      43.463  27.427  36.650  1.00  0.00     0.135 A 
ATOM     43  C   UNL A   1      45.176  28.758  35.614  1.00  0.00     0.135 A 
ATOM     44  F   UNL A   1      42.172  27.118  36.855  1.00  0.00    -0.206 F 
ATOM     45  C   UNL A   1      44.428  26.725  37.366  1.00  0.00     0.059 A 
ATOM     46  C   UNL A   1      46.160  28.050  36.299  1.00  0.00     0.059 A 
ATOM     47  F   UNL A   1      45.565  29.742  34.789  1.00  0.00    -0.206 F 
ATOM     48  C   UNL A   1      45.774  27.053  37.192  1.00  0.00     0.060 A 
BRANCH  48  49
ATOM     49  S   UNL A   1      47.013  26.168  38.163  1.00  0.00     0.124 S 
ATOM     50  O   UNL A   1      47.974  27.230  38.441  1.00  0.00    -0.237 OA
ATOM     51  O   UNL A   1      46.240  25.698  39.309  1.00  0.00    -0.237 OA
ATOM     52  O   UNL A   1      47.476  25.124  37.253  1.00  0.00    -0.744 OA
ENDBRANCH  48  49
ENDBRANCH  27  41
BRANCH  28  53
ATOM     53  C   UNL A   1      36.575  33.166  30.739  1.00  0.00     0.058 A 
ATOM     54  C   UNL A   1      35.247  32.955  31.132  1.00  0.00     0.135 A 
ATOM     55  C   UNL A   1      36.814  34.073  29.693  1.00  0.00     0.135 A 
ATOM     56  F   UNL A   1      34.970  32.094  32.124  1.00  0.00    -0.206 F 
ATOM     57  C   UNL A   1      34.194  33.632  30.525  1.00  0.00     0.059 A 
ATOM     58  C   UNL A   1      35.780  34.777  29.086  1.00  0.00     0.059 A 
ATOM     59  F   UNL A   1      38.072  34.321  29.293  1.00  0.00    -0.206 F 
ATOM     60  C   UNL A   1      34.472  34.551  29.511  1.00  0.00     0.060 A 
BRANCH  60  61
ATOM     61  S   UNL A   1      33.109  35.505  28.809  1.00  0.00     0.124 S 
ATOM     62  O   UNL A   1      33.823  36.533  28.062  1.00  0.00    -0.237 OA
ATOM     63  O   UNL A   1      32.413  34.502  28.009  1.00  0.00    -0.237 OA
ATOM     64  O   UNL A   1      32.382  35.969  29.987  1.00  0.00    -0.744 OA
ENDBRANCH  60  61
ENDBRANCH  28  53
BRANCH  40  65
ATOM     65  C   UNL A   1      39.598  34.204  36.967  1.00  0.00     0.058 A 
ATOM     66  C   UNL A   1      38.872  33.895  38.129  1.00  0.00     0.135 A 
ATOM     67  C   UNL A   1      40.217  35.461  36.892  1.00  0.00     0.135 A 
ATOM     68  F   UNL A   1      38.253  32.710  38.243  1.00  0.00    -0.206 F 
ATOM     69  C   UNL A   1      38.773  34.799  39.182  1.00  0.00     0.059 A 
ATOM     70  C   UNL A   1      40.148  36.372  37.941  1.00  0.00     0.059 A 
ATOM     71  F   UNL A   1      40.925  35.802  35.804  1.00  0.00    -0.206 F 
ATOM     72  C   UNL A   1      39.423  36.032  39.082  1.00  0.00     0.060 A 
BRANCH  72  73
ATOM     73  S   UNL A   1      39.356  37.163  40.489  1.00  0.00     0.124 S 
ATOM     74  O   UNL A   1      38.656  38.307  39.914  1.00  0.00    -0.237 OA
ATOM     75  O   UNL A   1      38.606  36.392  41.476  1.00  0.00    -0.237 OA
ATOM     76  O   UNL A   1      40.761  37.384  40.813  1.00  0.00    -0.744 OA
ENDBRANCH  72  73
ENDBRANCH  40  65
ENDBRANCH  14  15
ENDBRANCH   7   9
ENDBRANCH   4   5
ENDBRANCH   3   4
ENDBRANCH   2   3
ENDBRANCH   1   2
BRANCH   1  77
ATOM     77  C   UNL A   1      34.563  25.339  24.830  1.00  0.00     0.021 C 
BRANCH  77  78
ATOM     78  C   UNL A   1      33.372  26.090  25.425  1.00  0.00     0.116 C 
BRANCH  78  79
ATOM     79  N   UNL A   1      33.546  27.524  25.309  1.00  0.00    -0.354 N 
ATOM     80  C   UNL A   1      32.648  28.534  25.149  1.00  0.00     0.249 C 
ATOM     81  H   UNL A   1      34.484  27.822  25.355  1.00  0.00     0.163 HD
ATOM     82  O   UNL A   1      33.107  29.679  25.053  1.00  0.00    -0.272 OA
BRANCH  80  83
ATOM     83  C   UNL A   1      31.112  28.308  25.079  1.00  0.00     0.207 C 
ATOM     84  C   UNL A   1      30.521  29.020  23.865  1.00  0.00     0.045 C 
ATOM     85  O   UNL A   1      30.587  26.988  25.067  1.00  0.00    -0.363 OA
ATOM     86  C   UNL A   1      30.237  27.884  22.912  1.00  0.00     0.037 C 
ATOM     87  C   UNL A   1      29.829  26.771  23.861  1.00  0.00     0.138 C 
BRANCH  87  88
ATOM     88  C   UNL A   1      30.115  25.361  23.319  1.00  0.00     0.145 C 
BRANCH  88  89
ATOM     89  N   UNL A   1      30.317  24.394  24.382  1.00  0.00    -0.382 N 
ATOM     90  H   UNL A   1      29.773  24.520  25.193  1.00  0.00     0.160 HD
BRANCH  89  91
ATOM     91  C   UNL A   1      31.183  23.320  24.390  1.00  0.00     0.046 A 
ATOM     92  C   UNL A   1      31.532  22.819  23.118  1.00  0.00     0.026 A 
ATOM     93  C   UNL A   1      31.784  22.722  25.512  1.00  0.00     0.079 A 
ATOM     94  C   UNL A   1      32.465  21.795  22.944  1.00  0.00     0.002 A 
ATOM     95  C   UNL A   1      32.751  21.703  25.319  1.00  0.00     0.015 A 
ATOM     96  C   UNL A   1      33.089  21.245  24.050  1.00  0.00     0.001 A 
BRANCH  93  97
ATOM     97  C   UNL A   1      31.452  23.050  26.947  1.00  0.00     0.418 C 
ATOM     98  F   UNL A   1      31.460  24.392  27.212  1.00  0.00    -0.166 F 
ATOM     99  F   UNL A   1      30.195  22.638  27.293  1.00  0.00    -0.166 F 
ATOM    100  F   UNL A   1      32.288  22.514  27.883  1.00  0.00    -0.166 F 
ENDBRANCH  93  97
ENDBRANCH  89  91
ENDBRANCH  88  89
ENDBRANCH  87  88
ENDBRANCH  80  83
ENDBRANCH  78  79
ENDBRANCH  77  78
ENDBRANCH   1  77
TORSDOF 20
ENDMDL
MODEL 2
REMARK VINA RESULT:     -10.9      5.092      6.678
REMARK SMILES O=C(NCCCCCCNC(=O)[C@H]1CC[C@@H](CNc2ccccc2C(F)(F)F)O1)c1ccc(-c2c3nc(c(-c4c(F)cc(S(=O)(=O)[O-])cc4F)c4ccc([nH]4)c(-c4c(F)cc(S(=O)(=O)[O-])cc4F)c4nc(c(-c5c(F)cc(S(=O)(=O)[O-])cc5F)c5ccc2[nH]5)C=C4)C=C3)cc1
REMARK SMILES IDX 7 1 6 2 5 3 4 4 3 5 1 6 2 7 30 9 31 10 95 11 32 12 94 13
REMARK SMILES IDX 33 14 34 15 35 16 88 17 36 18 93 19 87 20 89 21 37 22 92 23
REMARK SMILES IDX 86 24 85 25 38 27 72 28 51 29 71 30 52 31 55 32 70 33 90 34
REMARK SMILES IDX 53 35 54 36 69 38 91 39 56 40 39 41 40 42 49 43 41 44 42 45
REMARK SMILES IDX 48 46 50 47 43 48 44 49 45 50 46 51 47 52 73 53 74 54 83 55
REMARK SMILES IDX 75 56 76 57 82 58 84 59 77 60 78 61 79 62 80 63 81 64 57 65
REMARK SMILES IDX 58 66 67 67 59 68 60 69 66 70 68 71 61 72 62 73 63 74 64 75
REMARK SMILES IDX 65 76 8 77 9 78 10 79 11 80 12 82 13 83 14 84 29 85 15 86
REMARK SMILES IDX 16 87 17 88 18 89 19 91 20 92 24 93 21 94 23 95 22 96 25 97
REMARK SMILES IDX 26 98 27 99 28 100
REMARK H PARENT 3 8 89 26 55 37 10 81 18 90
REMARK Flexibility Score: inf
ROOT
ATOM      1  C   UNL A   1      34.299  23.722  23.047  1.00  0.00     0.002 C 
ENDROOT
BRANCH   1   2
ATOM      2  C   UNL A   1      35.464  22.841  23.521  1.00  0.00     0.002 C 
BRANCH   2   3
ATOM      3  C   UNL A   1      36.639  23.585  24.169  1.00  0.00     0.021 C 
BRANCH   3   4
ATOM      4  C   UNL A   1      36.678  23.520  25.694  1.00  0.00     0.116 C 
BRANCH   4   5
ATOM      5  N   UNL A   1      37.634  22.530  26.160  1.00  0.00    -0.352 N 
ATOM      6  O   UNL A   1      39.653  21.727  26.730  1.00  0.00    -0.269 OA
ATOM      7  C   UNL A   1      38.911  22.700  26.632  1.00  0.00     0.251 C 
ATOM      8  H   UNL A   1      37.318  21.599  26.135  1.00  0.00     0.163 HD
BRANCH   7   9
ATOM      9  C   UNL A   1      39.400  24.043  27.017  1.00  0.00     0.039 A 
ATOM     10  C   UNL A   1      39.403  24.458  28.353  1.00  0.00     0.014 A 
ATOM     11  C   UNL A   1      39.940  24.870  26.026  1.00  0.00     0.014 A 
ATOM     12  C   UNL A   1      39.869  25.729  28.687  1.00  0.00     0.010 A 
ATOM     13  C   UNL A   1      40.456  26.120  26.371  1.00  0.00     0.010 A 
ATOM     14  C   UNL A   1      40.413  26.565  27.702  1.00  0.00    -0.014 A 
BRANCH  14  15
ATOM     15  C   UNL A   1      41.004  27.878  28.066  1.00  0.00     0.031 A 
ATOM     16  C   UNL A   1      42.486  28.099  27.990  1.00  0.00     0.074 A 
ATOM     17  C   UNL A   1      40.197  28.855  28.522  1.00  0.00     0.049 A 
ATOM     18  N   UNL A   1      43.185  29.143  28.355  1.00  0.00    -0.248 NA
ATOM     19  C   UNL A   1      43.291  26.997  27.443  1.00  0.00     0.031 C 
ATOM     20  C   UNL A   1      38.743  28.748  28.657  1.00  0.00     0.029 A 
ATOM     21  N   UNL A   1      40.483  30.116  28.977  1.00  0.00    -0.354 N 
ATOM     22  C   UNL A   1      44.513  28.819  28.106  1.00  0.00     0.074 A 
ATOM     23  C   UNL A   1      44.523  27.470  27.576  1.00  0.00     0.031 C 
ATOM     24  C   UNL A   1      38.265  29.891  29.168  1.00  0.00     0.029 A 
ATOM     25  C   UNL A   1      39.380  30.793  29.442  1.00  0.00     0.049 A 
ATOM     26  H   UNL A   1      41.389  30.500  28.972  1.00  0.00     0.167 HD
ATOM     27  C   UNL A   1      45.619  29.577  28.301  1.00  0.00     0.037 A 
ATOM     28  C   UNL A   1      39.278  31.988  30.054  1.00  0.00     0.037 A 
ATOM     29  C   UNL A   1      45.595  30.919  28.826  1.00  0.00     0.049 A 
ATOM     30  C   UNL A   1      40.514  32.809  30.277  1.00  0.00     0.074 A 
ATOM     31  C   UNL A   1      46.654  31.790  29.013  1.00  0.00     0.029 A 
ATOM     32  N   UNL A   1      44.455  31.579  29.265  1.00  0.00    -0.354 N 
ATOM     33  N   UNL A   1      41.758  32.512  29.984  1.00  0.00    -0.248 NA
ATOM     34  C   UNL A   1      40.341  34.123  30.908  1.00  0.00     0.031 C 
ATOM     35  C   UNL A   1      46.162  32.958  29.605  1.00  0.00     0.029 A 
ATOM     36  C   UNL A   1      44.788  32.835  29.743  1.00  0.00     0.049 A 
ATOM     37  H   UNL A   1      43.543  31.207  29.238  1.00  0.00     0.167 HD
ATOM     38  C   UNL A   1      42.514  33.610  30.376  1.00  0.00     0.074 A 
ATOM     39  C   UNL A   1      41.588  34.579  30.926  1.00  0.00     0.031 C 
ATOM     40  C   UNL A   1      43.853  33.795  30.282  1.00  0.00     0.037 A 
BRANCH  27  41
ATOM     41  C   UNL A   1      46.949  28.957  27.973  1.00  0.00     0.058 A 
ATOM     42  C   UNL A   1      47.478  28.982  26.673  1.00  0.00     0.135 A 
ATOM     43  C   UNL A   1      47.705  28.324  28.974  1.00  0.00     0.135 A 
ATOM     44  F   UNL A   1      46.794  29.565  25.675  1.00  0.00    -0.206 F 
ATOM     45  C   UNL A   1      48.685  28.360  26.366  1.00  0.00     0.059 A 
ATOM     46  C   UNL A   1      48.927  27.719  28.695  1.00  0.00     0.059 A 
ATOM     47  F   UNL A   1      47.250  28.277  30.236  1.00  0.00    -0.206 F 
ATOM     48  C   UNL A   1      49.396  27.721  27.383  1.00  0.00     0.060 A 
BRANCH  48  49
ATOM     49  S   UNL A   1      50.936  26.875  26.963  1.00  0.00     0.124 S 
ATOM     50  O   UNL A   1      51.559  27.842  26.064  1.00  0.00    -0.237 OA
ATOM     51  O   UNL A   1      51.575  26.719  28.266  1.00  0.00    -0.237 OA
ATOM     52  O   UNL A   1      50.484  25.636  26.338  1.00  0.00    -0.744 OA
ENDBRANCH  48  49
ENDBRANCH  27  41
BRANCH  28  53
ATOM     53  C   UNL A   1      37.938  32.455  30.496  1.00  0.00     0.058 A 
ATOM     54  C   UNL A   1      37.497  32.247  31.810  1.00  0.00     0.135 A 
ATOM     55  C   UNL A   1      37.118  33.206  29.639  1.00  0.00     0.135 A 
ATOM     56  F   UNL A   1      38.245  31.532  32.664  1.00  0.00    -0.206 F 
ATOM     57  C   UNL A   1      36.295  32.780  32.264  1.00  0.00     0.059 A 
ATOM     58  C   UNL A   1      35.924  33.767  30.076  1.00  0.00     0.059 A 
ATOM     59  F   UNL A   1      37.508  33.446  28.376  1.00  0.00    -0.206 F 
ATOM     60  C   UNL A   1      35.521  33.550  31.393  1.00  0.00     0.060 A 
BRANCH  60  61
ATOM     61  S   UNL A   1      34.020  34.330  32.026  1.00  0.00     0.124 S 
ATOM     62  O   UNL A   1      33.276  34.578  30.797  1.00  0.00    -0.237 OA
ATOM     63  O   UNL A   1      33.481  33.292  32.900  1.00  0.00    -0.237 OA
ATOM     64  O   UNL A   1      34.522  35.516  32.713  1.00  0.00    -0.744 OA
ENDBRANCH  60  61
ENDBRANCH  28  53
BRANCH  40  65
ATOM     65  C   UNL A   1      44.412  35.108  30.753  1.00  0.00     0.058 A 
ATOM     66  C   UNL A   1      44.486  36.223  29.904  1.00  0.00     0.135 A 
ATOM     67  C   UNL A   1      44.782  35.277  32.096  1.00  0.00     0.135 A 
ATOM     68  F   UNL A   1      44.153  36.110  28.609  1.00  0.00    -0.206 F 
ATOM     69  C   UNL A   1      44.904  37.465  30.374  1.00  0.00     0.059 A 
ATOM     70  C   UNL A   1      45.184  36.513  32.592  1.00  0.00     0.059 A 
ATOM     71  F   UNL A   1      44.725  34.241  32.948  1.00  0.00    -0.206 F 
ATOM     72  C   UNL A   1      45.242  37.601  31.723  1.00  0.00     0.060 A 
BRANCH  72  73
ATOM     73  S   UNL A   1      45.703  39.235  32.339  1.00  0.00     0.124 S 
ATOM     74  O   UNL A   1      46.434  39.783  31.202  1.00  0.00    -0.237 OA
ATOM     75  O   UNL A   1      44.405  39.845  32.613  1.00  0.00    -0.237 OA
ATOM     76  O   UNL A   1      46.508  38.937  33.520  1.00  0.00    -0.744 OA
ENDBRANCH  72  73
ENDBRANCH  40  65
ENDBRANCH  14  15
ENDBRANCH   7   9
ENDBRANCH   4   5
ENDBRANCH   3   4
ENDBRANCH   2   3
ENDBRANCH   1   2
BRANCH   1  77
ATOM     77  C   UNL A   1      33.233  22.989  22.230  1.00  0.00     0.021 C 
BRANCH  77  78
ATOM     78  C   UNL A   1      32.022  22.539  23.047  1.00  0.00     0.116 C 
BRANCH  78  79
ATOM     79  N   UNL A   1      32.261  21.253  23.672  1.00  0.00    -0.354 N 
ATOM     80  C   UNL A   1      32.158  20.844  24.967  1.00  0.00     0.249 C 
ATOM     81  H   UNL A   1      32.550  20.547  23.049  1.00  0.00     0.163 HD
ATOM     82  O   UNL A   1      32.460  19.669  25.206  1.00  0.00    -0.272 OA
BRANCH  80  83
ATOM     83  C   UNL A   1      31.693  21.773  26.121  1.00  0.00     0.207 C 
ATOM     84  C   UNL A   1      32.890  22.464  26.768  1.00  0.00     0.045 C 
ATOM     85  O   UNL A   1      30.727  22.786  25.875  1.00  0.00    -0.363 OA
ATOM     86  C   UNL A   1      32.786  23.877  26.246  1.00  0.00     0.037 C 
ATOM     87  C   UNL A   1      31.283  24.080  26.181  1.00  0.00     0.138 C 
BRANCH  87  88
ATOM     88  C   UNL A   1      30.842  25.096  25.115  1.00  0.00     0.145 C 
BRANCH  88  89
ATOM     89  N   UNL A   1      30.364  26.335  25.701  1.00  0.00    -0.382 N 
ATOM     90  H   UNL A   1      29.459  26.311  26.088  1.00  0.00     0.160 HD
BRANCH  89  91
ATOM     91  C   UNL A   1      31.030  27.541  25.778  1.00  0.00     0.046 A 
ATOM     92  C   UNL A   1      31.619  27.825  27.029  1.00  0.00     0.026 A 
ATOM     93  C   UNL A   1      31.223  28.472  24.742  1.00  0.00     0.079 A 
ATOM     94  C   UNL A   1      32.403  28.958  27.250  1.00  0.00     0.002 A 
ATOM     95  C   UNL A   1      32.044  29.605  24.973  1.00  0.00     0.015 A 
ATOM     96  C   UNL A   1      32.629  29.845  26.211  1.00  0.00     0.001 A 
BRANCH  93  97
ATOM     97  C   UNL A   1      30.582  28.392  23.378  1.00  0.00     0.418 C 
ATOM     98  F   UNL A   1      29.217  28.487  23.415  1.00  0.00    -0.166 F 
ATOM     99  F   UNL A   1      30.976  29.415  22.561  1.00  0.00    -0.166 F 
ATOM    100  F   UNL A   1      30.824  27.246  22.679  1.00  0.00    -0.166 F 
ENDBRANCH  93  97
ENDBRANCH  89  91
ENDBRANCH  88  89
ENDBRANCH  87  88
ENDBRANCH  80  83
ENDBRANCH  78  79
ENDBRANCH  77  78
ENDBRANCH   1  77
TORSDOF 20
ENDMDL
MODEL 3
REMARK VINA RESULT:     -10.9      6.401     11.161
REMARK SMILES O=C(NCCCCCCNC(=O)[C@H]1CC[C@@H](CNc2ccccc2C(F)(F)F)O1)c1ccc(-c2c3nc(c(-c4c(F)cc(S(=O)(=O)[O-])cc4F)c4ccc([nH]4)c(-c4c(F)cc(S(=O)(=O)[O-])cc4F)c4nc(c(-c5c(F)cc(S(=O)(=O)[O-])cc5F)c5ccc2[nH]5)C=C4)C=C3)cc1
REMARK SMILES IDX 7 1 6 2 5 3 4 4 3 5 1 6 2 7 30 9 31 10 95 11 32 12 94 13
REMARK SMILES IDX 33 14 34 15 35 16 88 17 36 18 93 19 87 20 89 21 37 22 92 23
REMARK SMILES IDX 86 24 85 25 38 27 72 28 51 29 71 30 52 31 55 32 70 33 90 34
REMARK SMILES IDX 53 35 54 36 69 38 91 39 56 40 39 41 40 42 49 43 41 44 42 45
REMARK SMILES IDX 48 46 50 47 43 48 44 49 45 50 46 51 47 52 73 53 74 54 83 55
REMARK SMILES IDX 75 56 76 57 82 58 84 59 77 60 78 61 79 62 80 63 81 64 57 65
REMARK SMILES IDX 58 66 67 67 59 68 60 69 66 70 68 71 61 72 62 73 63 74 64 75
REMARK SMILES IDX 65 76 8 77 9 78 10 79 11 80 12 82 13 83 14 84 29 85 15 86
REMARK SMILES IDX 16 87 17 88 18 89 19 91 20 92 24 93 21 94 23 95 22 96 25 97
REMARK SMILES IDX 26 98 27 99 28 100
REMARK H PARENT 3 8 89 26 55 37 10 81 18 90
REMARK Flexibility Score: inf
ROOT
ATOM      1  C   UNL A   1      37.252  21.982  25.431  1.00  0.00     0.002 C 
ENDROOT
BRANCH   1   2
ATOM      2  C   UNL A   1      37.522  20.713  24.610  1.00  0.00     0.002 C 
BRANCH   2   3
ATOM      3  C   UNL A   1      38.382  19.646  25.299  1.00  0.00     0.021 C 
BRANCH   3   4
ATOM      4  C   UNL A   1      39.605  20.185  26.037  1.00  0.00     0.116 C 
BRANCH   4   5
ATOM      5  N   UNL A   1      40.672  19.201  26.089  1.00  0.00    -0.352 N 
ATOM      6  O   UNL A   1      42.772  18.428  25.892  1.00  0.00    -0.269 OA
ATOM      7  C   UNL A   1      42.032  19.382  26.111  1.00  0.00     0.251 C 
ATOM      8  H   UNL A   1      40.375  18.263  26.113  1.00  0.00     0.163 HD
BRANCH   7   9
ATOM      9  C   UNL A   1      42.610  20.716  26.393  1.00  0.00     0.039 A 
ATOM     10  C   UNL A   1      43.047  21.550  25.358  1.00  0.00     0.014 A 
ATOM     11  C   UNL A   1      42.638  21.168  27.716  1.00  0.00     0.014 A 
ATOM     12  C   UNL A   1      43.588  22.800  25.653  1.00  0.00     0.010 A 
ATOM     13  C   UNL A   1      43.130  22.442  28.004  1.00  0.00     0.010 A 
ATOM     14  C   UNL A   1      43.620  23.264  26.976  1.00  0.00    -0.014 A 
BRANCH  14  15
ATOM     15  C   UNL A   1      44.100  24.634  27.286  1.00  0.00     0.031 A 
ATOM     16  C   UNL A   1      43.132  25.724  27.643  1.00  0.00     0.074 A 
ATOM     17  C   UNL A   1      45.416  24.905  27.187  1.00  0.00     0.049 A 
ATOM     18  N   UNL A   1      43.359  26.995  27.851  1.00  0.00    -0.248 NA
ATOM     19  C   UNL A   1      41.719  25.336  27.770  1.00  0.00     0.031 C 
ATOM     20  C   UNL A   1      46.449  23.931  26.829  1.00  0.00     0.029 A 
ATOM     21  N   UNL A   1      46.107  26.078  27.353  1.00  0.00    -0.354 N 
ATOM     22  C   UNL A   1      42.120  27.567  28.111  1.00  0.00     0.074 A 
ATOM     23  C   UNL A   1      41.139  26.503  28.014  1.00  0.00     0.031 C 
ATOM     24  C   UNL A   1      47.639  24.546  26.795  1.00  0.00     0.029 A 
ATOM     25  C   UNL A   1      47.449  25.966  27.079  1.00  0.00     0.049 A 
ATOM     26  H   UNL A   1      45.683  26.919  27.640  1.00  0.00     0.167 HD
ATOM     27  C   UNL A   1      41.829  28.857  28.404  1.00  0.00     0.037 A 
ATOM     28  C   UNL A   1      48.415  26.903  27.026  1.00  0.00     0.037 A 
ATOM     29  C   UNL A   1      42.813  29.904  28.502  1.00  0.00     0.049 A 
ATOM     30  C   UNL A   1      48.073  28.330  27.338  1.00  0.00     0.074 A 
ATOM     31  C   UNL A   1      42.628  31.232  28.844  1.00  0.00     0.029 A 
ATOM     32  N   UNL A   1      44.168  29.746  28.240  1.00  0.00    -0.354 N 
ATOM     33  N   UNL A   1      46.904  28.846  27.638  1.00  0.00    -0.248 NA
ATOM     34  C   UNL A   1      49.172  29.303  27.309  1.00  0.00     0.031 C 
ATOM     35  C   UNL A   1      43.861  31.886  28.746  1.00  0.00     0.029 A 
ATOM     36  C   UNL A   1      44.825  30.956  28.389  1.00  0.00     0.049 A 
ATOM     37  H   UNL A   1      44.597  28.897  27.986  1.00  0.00     0.167 HD
ATOM     38  C   UNL A   1      47.129  30.200  27.852  1.00  0.00     0.074 A 
ATOM     39  C   UNL A   1      48.546  30.424  27.651  1.00  0.00     0.031 C 
ATOM     40  C   UNL A   1      46.240  31.164  28.192  1.00  0.00     0.037 A 
BRANCH  27  41
ATOM     41  C   UNL A   1      40.381  29.210  28.610  1.00  0.00     0.058 A 
ATOM     42  C   UNL A   1      39.499  29.377  27.530  1.00  0.00     0.135 A 
ATOM     43  C   UNL A   1      39.870  29.387  29.906  1.00  0.00     0.135 A 
ATOM     44  F   UNL A   1      39.936  29.230  26.270  1.00  0.00    -0.206 F 
ATOM     45  C   UNL A   1      38.174  29.756  27.727  1.00  0.00     0.059 A 
ATOM     46  C   UNL A   1      38.541  29.739  30.126  1.00  0.00     0.059 A 
ATOM     47  F   UNL A   1      40.667  29.232  30.974  1.00  0.00    -0.206 F 
ATOM     48  C   UNL A   1      37.708  29.946  29.028  1.00  0.00     0.060 A 
BRANCH  48  49
ATOM     49  S   UNL A   1      36.001  30.484  29.267  1.00  0.00     0.124 S 
ATOM     50  O   UNL A   1      36.019  31.795  28.625  1.00  0.00    -0.237 OA
ATOM     51  O   UNL A   1      35.243  29.449  28.571  1.00  0.00    -0.237 OA
ATOM     52  O   UNL A   1      35.848  30.498  30.719  1.00  0.00    -0.744 OA
ENDBRANCH  48  49
ENDBRANCH  27  41
BRANCH  28  53
ATOM     53  C   UNL A   1      49.793  26.492  26.653  1.00  0.00     0.058 A 
ATOM     54  C   UNL A   1      50.703  26.047  27.621  1.00  0.00     0.135 A 
ATOM     55  C   UNL A   1      50.189  26.441  25.306  1.00  0.00     0.135 A 
ATOM     56  F   UNL A   1      50.369  26.080  28.920  1.00  0.00    -0.206 F 
ATOM     57  C   UNL A   1      51.954  25.552  27.268  1.00  0.00     0.059 A 
ATOM     58  C   UNL A   1      51.426  25.931  24.928  1.00  0.00     0.059 A 
ATOM     59  F   UNL A   1      49.345  26.841  24.342  1.00  0.00    -0.206 F 
ATOM     60  C   UNL A   1      52.302  25.487  25.916  1.00  0.00     0.060 A 
BRANCH  60  61
ATOM     61  S   UNL A   1      53.882  24.739  25.464  1.00  0.00     0.124 S 
ATOM     62  O   UNL A   1      54.616  24.818  26.722  1.00  0.00    -0.237 OA
ATOM     63  O   UNL A   1      53.479  23.400  25.044  1.00  0.00    -0.237 OA
ATOM     64  O   UNL A   1      54.368  25.602  24.393  1.00  0.00    -0.744 OA
ENDBRANCH  60  61
ENDBRANCH  28  53
BRANCH  40  65
ATOM     65  C   UNL A   1      46.765  32.556  28.402  1.00  0.00     0.058 A 
ATOM     66  C   UNL A   1      47.280  32.970  29.640  1.00  0.00     0.135 A 
ATOM     67  C   UNL A   1      46.845  33.451  27.323  1.00  0.00     0.135 A 
ATOM     68  F   UNL A   1      47.217  32.155  30.704  1.00  0.00    -0.206 F 
ATOM     69  C   UNL A   1      47.862  34.224  29.800  1.00  0.00     0.059 A 
ATOM     70  C   UNL A   1      47.441  34.702  27.455  1.00  0.00     0.059 A 
ATOM     71  F   UNL A   1      46.370  33.101  26.118  1.00  0.00    -0.206 F 
ATOM     72  C   UNL A   1      47.947  35.079  28.699  1.00  0.00     0.060 A 
BRANCH  72  73
ATOM     73  S   UNL A   1      48.778  36.669  28.898  1.00  0.00     0.124 S 
ATOM     74  O   UNL A   1      47.906  37.556  28.134  1.00  0.00    -0.237 OA
ATOM     75  O   UNL A   1      48.759  36.855  30.346  1.00  0.00    -0.237 OA
ATOM     76  O   UNL A   1      50.098  36.437  28.321  1.00  0.00    -0.744 OA
ENDBRANCH  72  73
ENDBRANCH  40  65
ENDBRANCH  14  15
ENDBRANCH   7   9
ENDBRANCH   4   5
ENDBRANCH   3   4
ENDBRANCH   2   3
ENDBRANCH   1   2
BRANCH   1  77
ATOM     77  C   UNL A   1      37.011  23.244  24.598  1.00  0.00     0.021 C 
BRANCH  77  78
ATOM     78  C   UNL A   1      35.561  23.429  24.152  1.00  0.00     0.116 C 
BRANCH  78  79
ATOM     79  N   UNL A   1      35.000  24.653  24.690  1.00  0.00    -0.354 N 
ATOM     80  C   UNL A   1      33.785  25.242  24.517  1.00  0.00     0.249 C 
ATOM     81  H   UNL A   1      35.607  25.148  25.287  1.00  0.00     0.163 HD
ATOM     82  O   UNL A   1      33.601  26.320  25.096  1.00  0.00    -0.272 OA
BRANCH  80  83
ATOM     83  C   UNL A   1      32.656  24.632  23.642  1.00  0.00     0.207 C 
ATOM     84  C   UNL A   1      31.913  23.542  24.410  1.00  0.00     0.045 C 
ATOM     85  O   UNL A   1      31.662  25.473  23.073  1.00  0.00    -0.363 OA
ATOM     86  C   UNL A   1      30.606  24.211  24.763  1.00  0.00     0.037 C 
ATOM     87  C   UNL A   1      30.358  25.083  23.545  1.00  0.00     0.138 C 
BRANCH  87  88
ATOM     88  C   UNL A   1      29.521  26.338  23.844  1.00  0.00     0.145 C 
BRANCH  88  89
ATOM     89  N   UNL A   1      29.905  27.464  23.013  1.00  0.00    -0.382 N 
ATOM     90  H   UNL A   1      30.471  27.257  22.235  1.00  0.00     0.160 HD
BRANCH  89  91
ATOM     91  C   UNL A   1      29.569  28.792  23.187  1.00  0.00     0.046 A 
ATOM     92  C   UNL A   1      28.432  29.224  22.472  1.00  0.00     0.026 A 
ATOM     93  C   UNL A   1      30.201  29.723  24.031  1.00  0.00     0.079 A 
ATOM     94  C   UNL A   1      27.906  30.510  22.605  1.00  0.00     0.002 A 
ATOM     95  C   UNL A   1      29.638  31.017  24.177  1.00  0.00     0.015 A 
ATOM     96  C   UNL A   1      28.503  31.406  23.475  1.00  0.00     0.001 A 
BRANCH  93  97
ATOM     97  C   UNL A   1      31.484  29.475  24.784  1.00  0.00     0.418 C 
ATOM     98  F   UNL A   1      32.533  29.141  23.972  1.00  0.00    -0.166 F 
ATOM     99  F   UNL A   1      31.910  30.586  25.458  1.00  0.00    -0.166 F 
ATOM    100  F   UNL A   1      31.440  28.475  25.711  1.00  0.00    -0.166 F 
ENDBRANCH  93  97
ENDBRANCH  89  91
ENDBRANCH  88  89
ENDBRANCH  87  88
ENDBRANCH  80  83
ENDBRANCH  78  79
ENDBRANCH  77  78
ENDBRANCH   1  77
TORSDOF 20
ENDMDL
