MODEL 1
REMARK VINA RESULT:     -13.4      0.000      0.000
REMARK SMILES Cc1ccc(-c2cc([C@@H](C)C(=O)NCCCCCCNC(=O)c3ccc(-c4c5nc(c(-c6c(F)cc(S(=O)(=O)[O-])cc6F)c6ccc([nH]6)c(-c6c(F)cc(S(=O)(=O)[O-])cc6F)c6nc(c(-c7c(F)cc(S(=O)(=O)[O-])cc7F)c7ccc4[nH]7)C=C6)C=C5)cc3)ccc2C[C@H]2CCCC2=O)cc1
REMARK SMILES IDX 16 1 15 2 14 3 13 4 11 5 12 6 9 8 10 9 8 10 6 11 7 12 91 13
REMARK SMILES IDX 90 14 89 15 5 16 1 17 2 18 3 19 100 20 4 21 99 22 92 23
REMARK SMILES IDX 93 24 94 25 97 26 95 27 96 28 98 29 17 30 18 31 19 32 20 33
REMARK SMILES IDX 21 34 22 36 23 37 24 38 88 39 25 40 87 41 26 42 27 43 28 44
REMARK SMILES IDX 81 45 29 46 86 47 80 48 82 49 30 50 85 51 79 52 78 53 31 55
REMARK SMILES IDX 65 56 44 57 64 58 45 59 48 60 63 61 83 62 46 63 47 64 62 66
REMARK SMILES IDX 84 67 49 68 32 69 33 70 42 71 34 72 35 73 41 74 43 75 36 76
REMARK SMILES IDX 37 77 38 78 39 79 40 80 66 81 67 82 76 83 68 84 69 85 75 86
REMARK SMILES IDX 77 87 70 88 71 89 72 90 73 91 74 92 50 93 51 94 60 95 52 96
REMARK SMILES IDX 53 97 59 98 61 99 54 100 55 101 56 102 57 103 58 104
REMARK H PARENT 13 7 20 35 82 54 48 65
REMARK Flexibility Score: inf
ROOT
ATOM      1  C   UNL A   1      33.096  26.975  26.596  1.00  0.00     0.002 C 
ENDROOT
BRANCH   1   2
ATOM      2  C   UNL A   1      31.672  26.580  26.185  1.00  0.00     0.021 C 
BRANCH   2   3
ATOM      3  C   UNL A   1      31.568  25.743  24.908  1.00  0.00     0.116 C 
BRANCH   3   4
ATOM      4  N   UNL A   1      31.062  26.506  23.784  1.00  0.00    -0.356 N 
ATOM      5  C   UNL A   1      31.477  26.612  22.492  1.00  0.00     0.227 C 
ATOM      6  O   UNL A   1      30.830  27.384  21.769  1.00  0.00    -0.274 OA
ATOM      7  H   UNL A   1      30.270  27.050  23.995  1.00  0.00     0.163 HD
BRANCH   5   8
ATOM      8  C   UNL A   1      32.655  25.826  21.893  1.00  0.00     0.105 C 
ATOM      9  C   UNL A   1      32.734  25.869  20.367  1.00  0.00     0.023 C 
BRANCH   8  10
ATOM     10  C   UNL A   1      32.864  24.458  22.524  1.00  0.00    -0.035 A 
ATOM     11  C   UNL A   1      34.239  22.979  23.950  1.00  0.00    -0.015 A 
ATOM     12  C   UNL A   1      34.011  24.215  23.303  1.00  0.00     0.013 A 
ATOM     13  C   UNL A   1      33.216  22.007  23.913  1.00  0.00    -0.039 A 
ATOM     14  C   UNL A   1      32.120  22.216  23.063  1.00  0.00     0.004 A 
ATOM     15  C   UNL A   1      31.964  23.406  22.357  1.00  0.00     0.005 A 
BRANCH  11  16
ATOM     16  C   UNL A   1      35.572  22.713  24.526  1.00  0.00    -0.018 A 
ATOM     17  C   UNL A   1      39.512  21.803  26.082  1.00  0.00     0.044 C 
ATOM     18  C   UNL A   1      38.159  22.140  25.532  1.00  0.00    -0.051 A 
ATOM     19  C   UNL A   1      37.486  21.206  24.739  1.00  0.00     0.004 A 
ATOM     20  C   UNL A   1      37.537  23.363  25.812  1.00  0.00     0.004 A 
ATOM     21  C   UNL A   1      36.218  21.497  24.235  1.00  0.00     0.009 A 
ATOM     22  C   UNL A   1      36.259  23.647  25.311  1.00  0.00     0.009 A 
ENDBRANCH  11  16
BRANCH  13  23
ATOM     23  C   UNL A   1      33.219  20.748  24.761  1.00  0.00     0.047 C 
BRANCH  23  24
ATOM     24  C   UNL A   1      32.767  20.912  26.221  1.00  0.00     0.060 C 
ATOM     25  C   UNL A   1      33.852  21.338  27.222  1.00  0.00     0.012 C 
ATOM     26  C   UNL A   1      31.708  21.978  26.422  1.00  0.00     0.136 C 
ATOM     27  C   UNL A   1      33.623  22.822  27.486  1.00  0.00     0.009 C 
ATOM     28  C   UNL A   1      32.112  22.994  27.456  1.00  0.00     0.076 C 
ATOM     29  O   UNL A   1      30.639  22.007  25.824  1.00  0.00    -0.299 OA
ENDBRANCH  23  24
ENDBRANCH  13  23
ENDBRANCH   8  10
ENDBRANCH   5   8
ENDBRANCH   3   4
ENDBRANCH   2   3
ENDBRANCH   1   2
BRANCH   1  30
ATOM     30  C   UNL A   1      33.897  27.825  25.593  1.00  0.00     0.002 C 
BRANCH  30  31
ATOM     31  C   UNL A   1      34.111  29.293  25.969  1.00  0.00     0.021 C 
BRANCH  31  32
ATOM     32  C   UNL A   1      34.271  29.530  27.466  1.00  0.00     0.116 C 
BRANCH  32  33
ATOM     33  N   UNL A   1      35.000  30.751  27.770  1.00  0.00    -0.352 N 
ATOM     34  C   UNL A   1      36.058  30.861  28.663  1.00  0.00     0.251 C 
ATOM     35  H   UNL A   1      34.720  31.571  27.302  1.00  0.00     0.163 HD
ATOM     36  O   UNL A   1      36.295  31.860  29.308  1.00  0.00    -0.269 OA
BRANCH  34  37
ATOM     37  C   UNL A   1      37.004  29.724  28.653  1.00  0.00     0.039 A 
ATOM     38  C   UNL A   1      37.216  29.051  29.863  1.00  0.00     0.014 A 
ATOM     39  C   UNL A   1      37.840  29.524  27.559  1.00  0.00     0.014 A 
ATOM     40  C   UNL A   1      38.370  28.289  30.027  1.00  0.00     0.010 A 
ATOM     41  C   UNL A   1      39.023  28.837  27.751  1.00  0.00     0.010 A 
ATOM     42  C   UNL A   1      39.310  28.258  28.995  1.00  0.00    -0.014 A 
BRANCH  42  43
ATOM     43  C   UNL A   1      40.656  27.713  29.143  1.00  0.00     0.031 A 
ATOM     44  C   UNL A   1      40.953  26.334  28.663  1.00  0.00     0.074 A 
ATOM     45  C   UNL A   1      41.653  28.497  29.617  1.00  0.00     0.049 A 
ATOM     46  N   UNL A   1      41.967  25.626  29.034  1.00  0.00    -0.248 NA
ATOM     47  C   UNL A   1      40.083  25.625  27.727  1.00  0.00     0.031 C 
ATOM     48  C   UNL A   1      43.084  28.215  29.529  1.00  0.00     0.029 A 
ATOM     49  N   UNL A   1      41.617  29.661  30.390  1.00  0.00    -0.354 N 
ATOM     50  C   UNL A   1      42.045  24.521  28.210  1.00  0.00     0.074 A 
ATOM     51  C   UNL A   1      40.815  24.541  27.451  1.00  0.00     0.031 C 
ATOM     52  C   UNL A   1      43.727  28.955  30.446  1.00  0.00     0.029 A 
ATOM     53  C   UNL A   1      42.708  29.582  31.268  1.00  0.00     0.049 A 
ATOM     54  H   UNL A   1      40.959  30.390  30.331  1.00  0.00     0.167 HD
ATOM     55  C   UNL A   1      43.196  23.785  28.168  1.00  0.00     0.037 A 
ATOM     56  C   UNL A   1      42.631  29.446  32.628  1.00  0.00     0.037 A 
ATOM     57  C   UNL A   1      44.176  24.290  29.129  1.00  0.00     0.049 A 
ATOM     58  C   UNL A   1      43.353  28.216  33.161  1.00  0.00     0.074 A 
ATOM     59  C   UNL A   1      45.243  25.165  29.000  1.00  0.00     0.029 A 
ATOM     60  N   UNL A   1      43.950  24.143  30.492  1.00  0.00    -0.354 N 
ATOM     61  N   UNL A   1      43.747  27.225  32.410  1.00  0.00    -0.248 NA
ATOM     62  C   UNL A   1      43.651  27.982  34.574  1.00  0.00     0.031 C 
ATOM     63  C   UNL A   1      45.607  25.607  30.295  1.00  0.00     0.029 A 
ATOM     64  C   UNL A   1      44.780  24.983  31.212  1.00  0.00     0.049 A 
ATOM     65  H   UNL A   1      43.291  23.529  30.889  1.00  0.00     0.167 HD
ATOM     66  C   UNL A   1      44.281  26.233  33.187  1.00  0.00     0.074 A 
ATOM     67  C   UNL A   1      44.232  26.769  34.535  1.00  0.00     0.031 C 
ATOM     68  C   UNL A   1      44.699  25.043  32.663  1.00  0.00     0.037 A 
BRANCH  55  69
ATOM     69  C   UNL A   1      43.544  22.814  27.050  1.00  0.00     0.058 A 
ATOM     70  C   UNL A   1      42.957  21.529  26.999  1.00  0.00     0.135 A 
ATOM     71  C   UNL A   1      44.493  23.059  26.038  1.00  0.00     0.135 A 
ATOM     72  F   UNL A   1      41.952  21.182  27.813  1.00  0.00    -0.206 F 
ATOM     73  C   UNL A   1      43.376  20.531  26.114  1.00  0.00     0.059 A 
ATOM     74  C   UNL A   1      44.972  22.061  25.180  1.00  0.00     0.059 A 
ATOM     75  F   UNL A   1      44.957  24.294  25.807  1.00  0.00    -0.206 F 
ATOM     76  C   UNL A   1      44.418  20.791  25.238  1.00  0.00     0.060 A 
BRANCH  76  77
ATOM     77  S   UNL A   1      45.026  19.455  24.189  1.00  0.00     0.124 S 
ATOM     78  O   UNL A   1      44.465  18.274  24.836  1.00  0.00    -0.237 OA
ATOM     79  O   UNL A   1      44.453  19.802  22.893  1.00  0.00    -0.237 OA
ATOM     80  O   UNL A   1      46.477  19.580  24.285  1.00  0.00    -0.744 OA
ENDBRANCH  76  77
ENDBRANCH  55  69
BRANCH  56  81
ATOM     81  C   UNL A   1      41.416  30.043  33.240  1.00  0.00     0.058 A 
ATOM     82  C   UNL A   1      41.386  31.439  33.406  1.00  0.00     0.135 A 
ATOM     83  C   UNL A   1      40.194  29.359  33.238  1.00  0.00     0.135 A 
ATOM     84  F   UNL A   1      42.534  32.133  33.465  1.00  0.00    -0.206 F 
ATOM     85  C   UNL A   1      40.192  32.150  33.366  1.00  0.00     0.059 A 
ATOM     86  C   UNL A   1      38.983  30.051  33.205  1.00  0.00     0.059 A 
ATOM     87  F   UNL A   1      40.165  28.025  33.109  1.00  0.00    -0.206 F 
ATOM     88  C   UNL A   1      39.002  31.447  33.182  1.00  0.00     0.060 A 
BRANCH  88  89
ATOM     89  S   UNL A   1      37.523  32.389  32.735  1.00  0.00     0.124 S 
ATOM     90  O   UNL A   1      36.596  31.335  32.343  1.00  0.00    -0.237 OA
ATOM     91  O   UNL A   1      37.213  33.072  33.991  1.00  0.00    -0.237 OA
ATOM     92  O   UNL A   1      37.994  33.252  31.658  1.00  0.00    -0.744 OA
ENDBRANCH  88  89
ENDBRANCH  56  81
BRANCH  68  93
ATOM     93  C   UNL A   1      45.134  23.847  33.467  1.00  0.00     0.058 A 
ATOM     94  C   UNL A   1      46.424  23.696  33.999  1.00  0.00     0.135 A 
ATOM     95  C   UNL A   1      44.190  22.865  33.849  1.00  0.00     0.135 A 
ATOM     96  F   UNL A   1      47.374  24.618  33.783  1.00  0.00    -0.206 F 
ATOM     97  C   UNL A   1      46.777  22.613  34.805  1.00  0.00     0.059 A 
ATOM     98  C   UNL A   1      44.506  21.803  34.693  1.00  0.00     0.059 A 
ATOM     99  F   UNL A   1      42.921  22.915  33.414  1.00  0.00    -0.206 F 
ATOM    100  C   UNL A   1      45.811  21.670  35.147  1.00  0.00     0.060 A 
BRANCH 100 101
ATOM    101  S   UNL A   1      46.236  20.295  36.232  1.00  0.00     0.124 S 
ATOM    102  O   UNL A   1      45.800  20.802  37.529  1.00  0.00    -0.237 OA
ATOM    103  O   UNL A   1      45.447  19.192  35.689  1.00  0.00    -0.237 OA
ATOM    104  O   UNL A   1      47.679  20.169  36.053  1.00  0.00    -0.744 OA
ENDBRANCH 100 101
ENDBRANCH  68  93
ENDBRANCH  42  43
ENDBRANCH  34  37
ENDBRANCH  32  33
ENDBRANCH  31  32
ENDBRANCH  30  31
ENDBRANCH   1  30
TORSDOF 20
ENDMDL
MODEL 2
REMARK VINA RESULT:     -12.7      1.592      2.120
REMARK SMILES Cc1ccc(-c2cc([C@@H](C)C(=O)NCCCCCCNC(=O)c3ccc(-c4c5nc(c(-c6c(F)cc(S(=O)(=O)[O-])cc6F)c6ccc([nH]6)c(-c6c(F)cc(S(=O)(=O)[O-])cc6F)c6nc(c(-c7c(F)cc(S(=O)(=O)[O-])cc7F)c7ccc4[nH]7)C=C6)C=C5)cc3)ccc2C[C@H]2CCCC2=O)cc1
REMARK SMILES IDX 16 1 15 2 14 3 13 4 11 5 12 6 9 8 10 9 8 10 6 11 7 12 91 13
REMARK SMILES IDX 90 14 89 15 5 16 1 17 2 18 3 19 100 20 4 21 99 22 92 23
REMARK SMILES IDX 93 24 94 25 97 26 95 27 96 28 98 29 17 30 18 31 19 32 20 33
REMARK SMILES IDX 21 34 22 36 23 37 24 38 88 39 25 40 87 41 26 42 27 43 28 44
REMARK SMILES IDX 81 45 29 46 86 47 80 48 82 49 30 50 85 51 79 52 78 53 31 55
REMARK SMILES IDX 65 56 44 57 64 58 45 59 48 60 63 61 83 62 46 63 47 64 62 66
REMARK SMILES IDX 84 67 49 68 32 69 33 70 42 71 34 72 35 73 41 74 43 75 36 76
REMARK SMILES IDX 37 77 38 78 39 79 40 80 66 81 67 82 76 83 68 84 69 85 75 86
REMARK SMILES IDX 77 87 70 88 71 89 72 90 73 91 74 92 50 93 51 94 60 95 52 96
REMARK SMILES IDX 53 97 59 98 61 99 54 100 55 101 56 102 57 103 58 104
REMARK H PARENT 13 7 20 35 82 54 48 65
REMARK Flexibility Score: inf
ROOT
ATOM      1  C   UNL A   1      32.304  26.714  26.755  1.00  0.00     0.002 C 
ENDROOT
BRANCH   1   2
ATOM      2  C   UNL A   1      31.118  26.029  26.064  1.00  0.00     0.021 C 
BRANCH   2   3
ATOM      3  C   UNL A   1      31.440  25.359  24.726  1.00  0.00     0.116 C 
BRANCH   3   4
ATOM      4  N   UNL A   1      30.951  26.119  23.592  1.00  0.00    -0.356 N 
ATOM      5  C   UNL A   1      31.451  26.316  22.342  1.00  0.00     0.227 C 
ATOM      6  O   UNL A   1      30.792  27.055  21.597  1.00  0.00    -0.274 OA
ATOM      7  H   UNL A   1      30.098  26.580  23.758  1.00  0.00     0.163 HD
BRANCH   5   8
ATOM      8  C   UNL A   1      32.739  25.665  21.811  1.00  0.00     0.105 C 
ATOM      9  C   UNL A   1      32.884  25.693  20.290  1.00  0.00     0.023 C 
BRANCH   8  10
ATOM     10  C   UNL A   1      33.078  24.341  22.479  1.00  0.00    -0.035 A 
ATOM     11  C   UNL A   1      34.520  23.069  24.033  1.00  0.00    -0.015 A 
ATOM     12  C   UNL A   1      34.182  24.259  23.349  1.00  0.00     0.013 A 
ATOM     13  C   UNL A   1      33.642  21.967  23.931  1.00  0.00    -0.039 A 
ATOM     14  C   UNL A   1      32.599  22.023  22.995  1.00  0.00     0.004 A 
ATOM     15  C   UNL A   1      32.343  23.177  22.260  1.00  0.00     0.005 A 
BRANCH  11  16
ATOM     16  C   UNL A   1      35.827  22.987  24.715  1.00  0.00    -0.018 A 
ATOM     17  C   UNL A   1      39.717  22.623  26.588  1.00  0.00     0.044 C 
ATOM     18  C   UNL A   1      38.379  22.772  25.929  1.00  0.00    -0.051 A 
ATOM     19  C   UNL A   1      37.901  21.751  25.104  1.00  0.00     0.004 A 
ATOM     20  C   UNL A   1      37.581  23.903  26.137  1.00  0.00     0.004 A 
ATOM     21  C   UNL A   1      36.649  21.865  24.498  1.00  0.00     0.009 A 
ATOM     22  C   UNL A   1      36.319  24.011  25.534  1.00  0.00     0.009 A 
ENDBRANCH  11  16
BRANCH  13  23
ATOM     23  C   UNL A   1      33.746  20.725  24.798  1.00  0.00     0.047 C 
BRANCH  23  24
ATOM     24  C   UNL A   1      33.179  20.842  26.222  1.00  0.00     0.060 C 
ATOM     25  C   UNL A   1      34.139  21.382  27.291  1.00  0.00     0.012 C 
ATOM     26  C   UNL A   1      32.001  21.789  26.340  1.00  0.00     0.136 C 
ATOM     27  C   UNL A   1      33.736  22.833  27.527  1.00  0.00     0.009 C 
ATOM     28  C   UNL A   1      32.221  22.843  27.391  1.00  0.00     0.076 C 
ATOM     29  O   UNL A   1      30.978  21.702  25.669  1.00  0.00    -0.299 OA
ENDBRANCH  23  24
ENDBRANCH  13  23
ENDBRANCH   8  10
ENDBRANCH   5   8
ENDBRANCH   3   4
ENDBRANCH   2   3
ENDBRANCH   1   2
BRANCH   1  30
ATOM     30  C   UNL A   1      33.450  27.198  25.850  1.00  0.00     0.002 C 
BRANCH  30  31
ATOM     31  C   UNL A   1      33.773  28.693  25.906  1.00  0.00     0.021 C 
BRANCH  31  32
ATOM     32  C   UNL A   1      33.262  29.387  27.163  1.00  0.00     0.116 C 
BRANCH  32  33
ATOM     33  N   UNL A   1      33.751  30.752  27.293  1.00  0.00    -0.352 N 
ATOM     34  C   UNL A   1      34.729  31.181  28.180  1.00  0.00     0.251 C 
ATOM     35  H   UNL A   1      33.353  31.430  26.700  1.00  0.00     0.163 HD
ATOM     36  O   UNL A   1      34.755  32.290  28.671  1.00  0.00    -0.269 OA
BRANCH  34  37
ATOM     37  C   UNL A   1      35.860  30.244  28.363  1.00  0.00     0.039 A 
ATOM     38  C   UNL A   1      36.072  29.734  29.651  1.00  0.00     0.014 A 
ATOM     39  C   UNL A   1      36.818  30.108  27.364  1.00  0.00     0.014 A 
ATOM     40  C   UNL A   1      37.323  29.220  29.983  1.00  0.00     0.010 A 
ATOM     41  C   UNL A   1      38.080  29.675  27.718  1.00  0.00     0.010 A 
ATOM     42  C   UNL A   1      38.347  29.273  29.035  1.00  0.00    -0.014 A 
BRANCH  42  43
ATOM     43  C   UNL A   1      39.748  29.005  29.343  1.00  0.00     0.031 A 
ATOM     44  C   UNL A   1      40.356  27.703  28.950  1.00  0.00     0.074 A 
ATOM     45  C   UNL A   1      40.517  29.978  29.886  1.00  0.00     0.049 A 
ATOM     46  N   UNL A   1      41.442  27.214  29.452  1.00  0.00    -0.248 NA
ATOM     47  C   UNL A   1      39.748  26.820  27.957  1.00  0.00     0.031 C 
ATOM     48  C   UNL A   1      41.977  29.981  29.958  1.00  0.00     0.029 A 
ATOM     49  N   UNL A   1      40.173  31.126  30.606  1.00  0.00    -0.354 N 
ATOM     50  C   UNL A   1      41.821  26.131  28.684  1.00  0.00     0.074 A 
ATOM     51  C   UNL A   1      40.701  25.897  27.802  1.00  0.00     0.031 C 
ATOM     52  C   UNL A   1      42.361  30.848  30.908  1.00  0.00     0.029 A 
ATOM     53  C   UNL A   1      41.157  31.278  31.595  1.00  0.00     0.049 A 
ATOM     54  H   UNL A   1      39.397  31.711  30.450  1.00  0.00     0.167 HD
ATOM     55  C   UNL A   1      43.090  25.634  28.790  1.00  0.00     0.037 A 
ATOM     56  C   UNL A   1      40.958  31.154  32.944  1.00  0.00     0.037 A 
ATOM     57  C   UNL A   1      43.843  26.339  29.827  1.00  0.00     0.049 A 
ATOM     58  C   UNL A   1      41.842  30.100  33.596  1.00  0.00     0.074 A 
ATOM     59  C   UNL A   1      44.728  27.404  29.776  1.00  0.00     0.029 A 
ATOM     60  N   UNL A   1      43.502  26.175  31.165  1.00  0.00    -0.354 N 
ATOM     61  N   UNL A   1      42.499  29.192  32.929  1.00  0.00    -0.248 NA
ATOM     62  C   UNL A   1      42.023  29.955  35.040  1.00  0.00     0.031 C 
ATOM     63  C   UNL A   1      44.857  27.932  31.083  1.00  0.00     0.029 A 
ATOM     64  C   UNL A   1      44.071  27.174  31.934  1.00  0.00     0.049 A 
ATOM     65  H   UNL A   1      42.935  25.451  31.515  1.00  0.00     0.167 HD
ATOM     66  C   UNL A   1      43.127  28.338  33.796  1.00  0.00     0.074 A 
ATOM     67  C   UNL A   1      42.828  28.878  35.109  1.00  0.00     0.031 C 
ATOM     68  C   UNL A   1      43.821  27.244  33.365  1.00  0.00     0.037 A 
BRANCH  55  69
ATOM     69  C   UNL A   1      43.739  24.731  27.753  1.00  0.00     0.058 A 
ATOM     70  C   UNL A   1      43.671  25.045  26.376  1.00  0.00     0.135 A 
ATOM     71  C   UNL A   1      44.384  23.512  28.039  1.00  0.00     0.135 A 
ATOM     72  F   UNL A   1      43.198  26.222  25.946  1.00  0.00    -0.206 F 
ATOM     73  C   UNL A   1      44.077  24.164  25.370  1.00  0.00     0.059 A 
ATOM     74  C   UNL A   1      44.745  22.587  27.051  1.00  0.00     0.059 A 
ATOM     75  F   UNL A   1      44.737  23.191  29.290  1.00  0.00    -0.206 F 
ATOM     76  C   UNL A   1      44.571  22.915  25.715  1.00  0.00     0.060 A 
BRANCH  76  77
ATOM     77  S   UNL A   1      44.977  21.747  24.403  1.00  0.00     0.124 S 
ATOM     78  O   UNL A   1      44.666  22.513  23.200  1.00  0.00    -0.237 OA
ATOM     79  O   UNL A   1      46.393  21.495  24.646  1.00  0.00    -0.237 OA
ATOM     80  O   UNL A   1      44.087  20.619  24.664  1.00  0.00    -0.744 OA
ENDBRANCH  76  77
ENDBRANCH  55  69
BRANCH  56  81
ATOM     81  C   UNL A   1      39.592  31.513  33.402  1.00  0.00     0.058 A 
ATOM     82  C   UNL A   1      39.302  32.876  33.591  1.00  0.00     0.135 A 
ATOM     83  C   UNL A   1      38.516  30.634  33.226  1.00  0.00     0.135 A 
ATOM     84  F   UNL A   1      40.297  33.749  33.814  1.00  0.00    -0.206 F 
ATOM     85  C   UNL A   1      38.018  33.376  33.409  1.00  0.00     0.059 A 
ATOM     86  C   UNL A   1      37.218  31.114  33.048  1.00  0.00     0.059 A 
ATOM     87  F   UNL A   1      38.733  29.321  33.068  1.00  0.00    -0.206 F 
ATOM     88  C   UNL A   1      36.999  32.492  33.056  1.00  0.00     0.060 A 
BRANCH  88  89
ATOM     89  S   UNL A   1      35.449  33.191  32.438  1.00  0.00     0.124 S 
ATOM     90  O   UNL A   1      34.880  32.068  31.701  1.00  0.00    -0.237 OA
ATOM     91  O   UNL A   1      34.764  33.546  33.681  1.00  0.00    -0.237 OA
ATOM     92  O   UNL A   1      35.895  34.319  31.629  1.00  0.00    -0.744 OA
ENDBRANCH  88  89
ENDBRANCH  56  81
BRANCH  68  93
ATOM     93  C   UNL A   1      44.388  26.171  34.255  1.00  0.00     0.058 A 
ATOM     94  C   UNL A   1      45.761  26.009  34.498  1.00  0.00     0.135 A 
ATOM     95  C   UNL A   1      43.525  25.348  35.016  1.00  0.00     0.135 A 
ATOM     96  F   UNL A   1      46.667  26.801  33.906  1.00  0.00    -0.206 F 
ATOM     97  C   UNL A   1      46.253  25.054  35.390  1.00  0.00     0.059 A 
ATOM     98  C   UNL A   1      43.991  24.424  35.948  1.00  0.00     0.059 A 
ATOM     99  F   UNL A   1      42.192  25.426  34.879  1.00  0.00    -0.206 F 
ATOM    100  C   UNL A   1      45.360  24.265  36.110  1.00  0.00     0.060 A 
BRANCH 100 101
ATOM    101  S   UNL A   1      45.979  23.064  37.304  1.00  0.00     0.124 S 
ATOM    102  O   UNL A   1      45.579  21.805  36.684  1.00  0.00    -0.237 OA
ATOM    103  O   UNL A   1      47.415  23.328  37.322  1.00  0.00    -0.237 OA
ATOM    104  O   UNL A   1      45.269  23.422  38.528  1.00  0.00    -0.744 OA
ENDBRANCH 100 101
ENDBRANCH  68  93
ENDBRANCH  42  43
ENDBRANCH  34  37
ENDBRANCH  32  33
ENDBRANCH  31  32
ENDBRANCH  30  31
ENDBRANCH   1  30
TORSDOF 20
ENDMDL
MODEL 3
REMARK VINA RESULT:     -11.9      4.401     11.024
REMARK SMILES Cc1ccc(-c2cc([C@@H](C)C(=O)NCCCCCCNC(=O)c3ccc(-c4c5nc(c(-c6c(F)cc(S(=O)(=O)[O-])cc6F)c6ccc([nH]6)c(-c6c(F)cc(S(=O)(=O)[O-])cc6F)c6nc(c(-c7c(F)cc(S(=O)(=O)[O-])cc7F)c7ccc4[nH]7)C=C6)C=C5)cc3)ccc2C[C@H]2CCCC2=O)cc1
REMARK SMILES IDX 16 1 15 2 14 3 13 4 11 5 12 6 9 8 10 9 8 10 6 11 7 12 91 13
REMARK SMILES IDX 90 14 89 15 5 16 1 17 2 18 3 19 100 20 4 21 99 22 92 23
REMARK SMILES IDX 93 24 94 25 97 26 95 27 96 28 98 29 17 30 18 31 19 32 20 33
REMARK SMILES IDX 21 34 22 36 23 37 24 38 88 39 25 40 87 41 26 42 27 43 28 44
REMARK SMILES IDX 81 45 29 46 86 47 80 48 82 49 30 50 85 51 79 52 78 53 31 55
REMARK SMILES IDX 65 56 44 57 64 58 45 59 48 60 63 61 83 62 46 63 47 64 62 66
REMARK SMILES IDX 84 67 49 68 32 69 33 70 42 71 34 72 35 73 41 74 43 75 36 76
REMARK SMILES IDX 37 77 38 78 39 79 40 80 66 81 67 82 76 83 68 84 69 85 75 86
REMARK SMILES IDX 77 87 70 88 71 89 72 90 73 91 74 92 50 93 51 94 60 95 52 96
REMARK SMILES IDX 53 97 59 98 61 99 54 100 55 101 56 102 57 103 58 104
REMARK H PARENT 13 7 20 35 82 54 48 65
REMARK Flexibility Score: inf
ROOT
ATOM      1  C   UNL A   1      39.423  24.243  26.607  1.00  0.00     0.002 C 
ENDROOT
BRANCH   1   2
ATOM      2  C   UNL A   1      37.966  24.034  26.174  1.00  0.00     0.021 C 
BRANCH   2   3
ATOM      3  C   UNL A   1      37.708  22.777  25.340  1.00  0.00     0.116 C 
BRANCH   3   4
ATOM      4  N   UNL A   1      36.938  23.053  24.143  1.00  0.00    -0.356 N 
ATOM      5  C   UNL A   1      35.619  22.894  23.849  1.00  0.00     0.227 C 
ATOM      6  O   UNL A   1      35.270  23.210  22.703  1.00  0.00    -0.274 OA
ATOM      7  H   UNL A   1      37.470  23.426  23.404  1.00  0.00     0.163 HD
BRANCH   5   8
ATOM      8  C   UNL A   1      34.565  22.384  24.845  1.00  0.00     0.105 C 
ATOM      9  C   UNL A   1      34.274  20.887  24.749  1.00  0.00     0.023 C 
BRANCH   8  10
ATOM     10  C   UNL A   1      33.345  23.284  24.964  1.00  0.00    -0.035 A 
ATOM     11  C   UNL A   1      32.417  25.539  25.369  1.00  0.00    -0.015 A 
ATOM     12  C   UNL A   1      33.508  24.644  25.288  1.00  0.00     0.013 A 
ATOM     13  C   UNL A   1      31.140  25.074  24.986  1.00  0.00    -0.039 A 
ATOM     14  C   UNL A   1      30.968  23.701  24.754  1.00  0.00     0.004 A 
ATOM     15  C   UNL A   1      32.045  22.819  24.775  1.00  0.00     0.005 A 
BRANCH  11  16
ATOM     16  C   UNL A   1      32.634  26.874  25.963  1.00  0.00    -0.018 A 
ATOM     17  C   UNL A   1      33.381  30.829  27.565  1.00  0.00     0.044 C 
ATOM     18  C   UNL A   1      33.099  29.469  27.001  1.00  0.00    -0.051 A 
ATOM     19  C   UNL A   1      34.006  28.893  26.109  1.00  0.00     0.004 A 
ATOM     20  C   UNL A   1      31.956  28.748  27.365  1.00  0.00     0.004 A 
ATOM     21  C   UNL A   1      33.768  27.620  25.590  1.00  0.00     0.009 A 
ATOM     22  C   UNL A   1      31.724  27.465  26.849  1.00  0.00     0.009 A 
ENDBRANCH  11  16
BRANCH  13  23
ATOM     23  C   UNL A   1      29.938  25.979  24.787  1.00  0.00     0.047 C 
BRANCH  23  24
ATOM     24  C   UNL A   1      29.919  26.805  23.490  1.00  0.00     0.060 C 
ATOM     25  C   UNL A   1      29.819  28.328  23.659  1.00  0.00     0.012 C 
ATOM     26  C   UNL A   1      31.170  26.656  22.646  1.00  0.00     0.136 C 
ATOM     27  C   UNL A   1      31.222  28.873  23.419  1.00  0.00     0.009 C 
ATOM     28  C   UNL A   1      31.804  27.985  22.329  1.00  0.00     0.076 C 
ATOM     29  O   UNL A   1      31.611  25.583  22.253  1.00  0.00    -0.299 OA
ENDBRANCH  23  24
ENDBRANCH  13  23
ENDBRANCH   8  10
ENDBRANCH   5   8
ENDBRANCH   3   4
ENDBRANCH   2   3
ENDBRANCH   1   2
BRANCH   1  30
ATOM     30  C   UNL A   1      40.082  23.102  27.401  1.00  0.00     0.002 C 
BRANCH  30  31
ATOM     31  C   UNL A   1      40.854  22.064  26.582  1.00  0.00     0.021 C 
BRANCH  31  32
ATOM     32  C   UNL A   1      42.006  22.650  25.774  1.00  0.00     0.116 C 
BRANCH  32  33
ATOM     33  N   UNL A   1      43.283  22.564  26.465  1.00  0.00    -0.352 N 
ATOM     34  C   UNL A   1      44.115  23.635  26.766  1.00  0.00     0.251 C 
ATOM     35  H   UNL A   1      43.583  21.670  26.745  1.00  0.00     0.163 HD
ATOM     36  O   UNL A   1      45.324  23.554  26.822  1.00  0.00    -0.269 OA
BRANCH  34  37
ATOM     37  C   UNL A   1      43.417  24.867  27.193  1.00  0.00     0.039 A 
ATOM     38  C   UNL A   1      43.526  25.990  26.362  1.00  0.00     0.014 A 
ATOM     39  C   UNL A   1      42.919  24.970  28.488  1.00  0.00     0.014 A 
ATOM     40  C   UNL A   1      43.279  27.255  26.891  1.00  0.00     0.010 A 
ATOM     41  C   UNL A   1      42.755  26.229  29.031  1.00  0.00     0.010 A 
ATOM     42  C   UNL A   1      42.978  27.372  28.249  1.00  0.00    -0.014 A 
BRANCH  42  43
ATOM     43  C   UNL A   1      42.951  28.643  28.965  1.00  0.00     0.031 A 
ATOM     44  C   UNL A   1      41.661  29.368  29.139  1.00  0.00     0.074 A 
ATOM     45  C   UNL A   1      44.076  29.106  29.560  1.00  0.00     0.049 A 
ATOM     46  N   UNL A   1      41.553  30.621  29.432  1.00  0.00    -0.248 NA
ATOM     47  C   UNL A   1      40.365  28.717  28.958  1.00  0.00     0.031 C 
ATOM     48  C   UNL A   1      44.145  30.170  30.560  1.00  0.00     0.029 A 
ATOM     49  N   UNL A   1      45.424  28.820  29.324  1.00  0.00    -0.354 N 
ATOM     50  C   UNL A   1      40.233  30.876  29.746  1.00  0.00     0.074 A 
ATOM     51  C   UNL A   1      39.528  29.669  29.380  1.00  0.00     0.031 C 
ATOM     52  C   UNL A   1      45.400  30.644  30.600  1.00  0.00     0.029 A 
ATOM     53  C   UNL A   1      46.117  30.028  29.499  1.00  0.00     0.049 A 
ATOM     54  H   UNL A   1      45.810  27.948  29.083  1.00  0.00     0.167 HD
ATOM     55  C   UNL A   1      39.901  32.030  30.401  1.00  0.00     0.037 A 
ATOM     56  C   UNL A   1      46.758  30.730  28.514  1.00  0.00     0.037 A 
ATOM     57  C   UNL A   1      41.076  32.880  30.591  1.00  0.00     0.049 A 
ATOM     58  C   UNL A   1      46.258  32.160  28.360  1.00  0.00     0.074 A 
ATOM     59  C   UNL A   1      41.950  33.037  31.656  1.00  0.00     0.029 A 
ATOM     60  N   UNL A   1      41.675  33.491  29.497  1.00  0.00    -0.354 N 
ATOM     61  N   UNL A   1      45.145  32.598  28.880  1.00  0.00    -0.248 NA
ATOM     62  C   UNL A   1      46.941  33.193  27.581  1.00  0.00     0.031 C 
ATOM     63  C   UNL A   1      43.116  33.680  31.175  1.00  0.00     0.029 A 
ATOM     64  C   UNL A   1      42.943  33.935  29.826  1.00  0.00     0.049 A 
ATOM     65  H   UNL A   1      41.256  33.593  28.612  1.00  0.00     0.167 HD
ATOM     66  C   UNL A   1      44.926  33.893  28.493  1.00  0.00     0.074 A 
ATOM     67  C   UNL A   1      46.098  34.234  27.708  1.00  0.00     0.031 C 
ATOM     68  C   UNL A   1      43.790  34.571  28.829  1.00  0.00     0.037 A 
BRANCH  55  69
ATOM     69  C   UNL A   1      38.587  32.243  31.135  1.00  0.00     0.058 A 
ATOM     70  C   UNL A   1      37.462  32.777  30.464  1.00  0.00     0.135 A 
ATOM     71  C   UNL A   1      38.384  32.007  32.509  1.00  0.00     0.135 A 
ATOM     72  F   UNL A   1      37.450  32.945  29.136  1.00  0.00    -0.206 F 
ATOM     73  C   UNL A   1      36.295  33.172  31.124  1.00  0.00     0.059 A 
ATOM     74  C   UNL A   1      37.250  32.447  33.203  1.00  0.00     0.059 A 
ATOM     75  F   UNL A   1      39.260  31.291  33.226  1.00  0.00    -0.206 F 
ATOM     76  C   UNL A   1      36.214  33.047  32.502  1.00  0.00     0.060 A 
BRANCH  76  77
ATOM     77  S   UNL A   1      34.750  33.673  33.348  1.00  0.00     0.124 S 
ATOM     78  O   UNL A   1      33.698  32.803  32.831  1.00  0.00    -0.237 OA
ATOM     79  O   UNL A   1      35.102  33.478  34.750  1.00  0.00    -0.237 OA
ATOM     80  O   UNL A   1      34.671  35.064  32.909  1.00  0.00    -0.744 OA
ENDBRANCH  76  77
ENDBRANCH  55  69
BRANCH  56  81
ATOM     81  C   UNL A   1      47.285  29.896  27.404  1.00  0.00     0.058 A 
ATOM     82  C   UNL A   1      48.482  29.192  27.626  1.00  0.00     0.135 A 
ATOM     83  C   UNL A   1      46.450  29.454  26.371  1.00  0.00     0.135 A 
ATOM     84  F   UNL A   1      49.340  29.607  28.572  1.00  0.00    -0.206 F 
ATOM     85  C   UNL A   1      48.741  27.982  26.992  1.00  0.00     0.059 A 
ATOM     86  C   UNL A   1      46.694  28.247  25.715  1.00  0.00     0.059 A 
ATOM     87  F   UNL A   1      45.309  30.103  26.097  1.00  0.00    -0.206 F 
ATOM     88  C   UNL A   1      47.797  27.481  26.097  1.00  0.00     0.060 A 
BRANCH  88  89
ATOM     89  S   UNL A   1      47.947  25.750  25.590  1.00  0.00     0.124 S 
ATOM     90  O   UNL A   1      48.102  25.069  26.869  1.00  0.00    -0.237 OA
ATOM     91  O   UNL A   1      46.674  25.529  24.904  1.00  0.00    -0.237 OA
ATOM     92  O   UNL A   1      49.124  25.759  24.729  1.00  0.00    -0.744 OA
ENDBRANCH  88  89
ENDBRANCH  56  81
BRANCH  68  93
ATOM     93  C   UNL A   1      43.401  35.927  28.302  1.00  0.00     0.058 A 
ATOM     94  C   UNL A   1      42.870  36.139  27.020  1.00  0.00     0.135 A 
ATOM     95  C   UNL A   1      43.425  37.055  29.156  1.00  0.00     0.135 A 
ATOM     96  F   UNL A   1      42.709  35.122  26.160  1.00  0.00    -0.206 F 
ATOM     97  C   UNL A   1      42.446  37.397  26.588  1.00  0.00     0.059 A 
ATOM     98  C   UNL A   1      42.961  38.308  28.762  1.00  0.00     0.059 A 
ATOM     99  F   UNL A   1      43.897  36.968  30.409  1.00  0.00    -0.206 F 
ATOM    100  C   UNL A   1      42.496  38.476  27.466  1.00  0.00     0.060 A 
BRANCH 100 101
ATOM    101  S   UNL A   1      41.903  40.095  26.940  1.00  0.00     0.124 S 
ATOM    102  O   UNL A   1      43.097  40.653  26.313  1.00  0.00    -0.237 OA
ATOM    103  O   UNL A   1      40.811  39.765  26.028  1.00  0.00    -0.237 OA
ATOM    104  O   UNL A   1      41.494  40.720  28.193  1.00  0.00    -0.744 OA
ENDBRANCH 100 101
ENDBRANCH  68  93
ENDBRANCH  42  43
ENDBRANCH  34  37
ENDBRANCH  32  33
ENDBRANCH  31  32
ENDBRANCH  30  31
ENDBRANCH   1  30
TORSDOF 20
ENDMDL
