MODEL 1
REMARK VINA RESULT:     -10.8      0.000      0.000
REMARK SMILES O=C(NCCCCCCNC(=O)c1ncc2ccccc2n1)c1ccc(-c2c3nc(c(-c4c(F)cc(S(=O)(=O)[O-])cc4F)c4ccc([nH]4)c(-c4c(F)cc(S(=O)(=O)[O-])cc4F)c4nc(c(-c5c(F)cc(S(=O)(=O)[O-])cc5F)c5ccc2[nH]5)C=C4)C=C3)cc1
REMARK SMILES IDX 5 1 4 2 3 3 1 4 2 5 23 7 24 8 88 9 25 10 87 11 26 12 27 13
REMARK SMILES IDX 28 14 81 15 29 16 86 17 80 18 82 19 30 20 85 21 79 22 78 23
REMARK SMILES IDX 31 25 65 26 44 27 64 28 45 29 48 30 63 31 83 32 46 33 47 34
REMARK SMILES IDX 62 36 84 37 49 38 32 39 33 40 42 41 34 42 35 43 41 44 43 45
REMARK SMILES IDX 36 46 37 47 38 48 39 49 40 50 66 51 67 52 76 53 68 54 69 55
REMARK SMILES IDX 75 56 77 57 70 58 71 59 72 60 73 61 74 62 50 63 51 64 60 65
REMARK SMILES IDX 52 66 53 67 59 68 61 69 54 70 55 71 56 72 57 73 58 74 6 75
REMARK SMILES IDX 7 76 8 77 9 78 10 79 11 80 12 82 13 83 14 84 22 85 15 86
REMARK SMILES IDX 21 87 16 88 20 89 17 90 19 91 18 92
REMARK H PARENT 3 6 82 24 48 35 10 81
REMARK Flexibility Score: inf
ROOT
ATOM      1  C   UNL A   1      35.009  33.519  28.125  1.00  0.00     0.021 C 
ENDROOT
BRANCH   1   2
ATOM      2  C   UNL A   1      34.657  32.425  29.126  1.00  0.00     0.116 C 
BRANCH   2   3
ATOM      3  N   UNL A   1      34.033  31.268  28.507  1.00  0.00    -0.352 N 
ATOM      4  O   UNL A   1      33.955  29.269  27.462  1.00  0.00    -0.269 OA
ATOM      5  C   UNL A   1      34.617  30.095  28.086  1.00  0.00     0.251 C 
ATOM      6  H   UNL A   1      33.059  31.330  28.372  1.00  0.00     0.163 HD
BRANCH   5   7
ATOM      7  C   UNL A   1      36.050  29.843  28.362  1.00  0.00     0.039 A 
ATOM      8  C   UNL A   1      37.015  30.080  27.382  1.00  0.00     0.014 A 
ATOM      9  C   UNL A   1      36.433  29.361  29.617  1.00  0.00     0.014 A 
ATOM     10  C   UNL A   1      38.335  29.701  27.605  1.00  0.00     0.010 A 
ATOM     11  C   UNL A   1      37.776  29.059  29.870  1.00  0.00     0.010 A 
ATOM     12  C   UNL A   1      38.734  29.197  28.855  1.00  0.00    -0.014 A 
BRANCH  12  13
ATOM     13  C   UNL A   1      40.171  28.888  29.075  1.00  0.00     0.031 A 
ATOM     14  C   UNL A   1      40.758  27.558  28.689  1.00  0.00     0.074 A 
ATOM     15  C   UNL A   1      40.963  29.857  29.575  1.00  0.00     0.049 A 
ATOM     16  N   UNL A   1      42.007  27.164  28.745  1.00  0.00    -0.248 NA
ATOM     17  C   UNL A   1      39.832  26.533  28.183  1.00  0.00     0.031 C 
ATOM     18  C   UNL A   1      40.499  31.176  30.016  1.00  0.00     0.029 A 
ATOM     19  N   UNL A   1      42.319  29.901  29.771  1.00  0.00    -0.354 N 
ATOM     20  C   UNL A   1      42.017  25.851  28.290  1.00  0.00     0.074 A 
ATOM     21  C   UNL A   1      40.645  25.501  27.989  1.00  0.00     0.031 C 
ATOM     22  C   UNL A   1      41.557  31.916  30.378  1.00  0.00     0.029 A 
ATOM     23  C   UNL A   1      42.766  31.113  30.242  1.00  0.00     0.049 A 
ATOM     24  H   UNL A   1      42.915  29.138  29.592  1.00  0.00     0.167 HD
ATOM     25  C   UNL A   1      43.075  25.019  28.128  1.00  0.00     0.037 A 
ATOM     26  C   UNL A   1      44.009  31.533  30.538  1.00  0.00     0.037 A 
ATOM     27  C   UNL A   1      44.441  25.375  28.423  1.00  0.00     0.049 A 
ATOM     28  C   UNL A   1      45.164  30.599  30.327  1.00  0.00     0.074 A 
ATOM     29  C   UNL A   1      45.582  24.601  28.292  1.00  0.00     0.029 A 
ATOM     30  N   UNL A   1      44.853  26.610  28.904  1.00  0.00    -0.354 N 
ATOM     31  N   UNL A   1      45.153  29.366  29.881  1.00  0.00    -0.248 NA
ATOM     32  C   UNL A   1      46.500  31.112  30.655  1.00  0.00     0.031 C 
ATOM     33  C   UNL A   1      46.680  25.360  28.716  1.00  0.00     0.029 A 
ATOM     34  C   UNL A   1      46.229  26.618  29.078  1.00  0.00     0.049 A 
ATOM     35  H   UNL A   1      44.255  27.369  29.094  1.00  0.00     0.167 HD
ATOM     36  C   UNL A   1      46.479  28.952  29.879  1.00  0.00     0.074 A 
ATOM     37  C   UNL A   1      47.268  30.079  30.334  1.00  0.00     0.031 C 
ATOM     38  C   UNL A   1      46.995  27.745  29.542  1.00  0.00     0.037 A 
BRANCH  25  39
ATOM     39  C   UNL A   1      42.804  23.635  27.604  1.00  0.00     0.058 A 
ATOM     40  C   UNL A   1      42.865  23.348  26.231  1.00  0.00     0.135 A 
ATOM     41  C   UNL A   1      42.534  22.574  28.483  1.00  0.00     0.135 A 
ATOM     42  F   UNL A   1      43.104  24.328  25.346  1.00  0.00    -0.206 F 
ATOM     43  C   UNL A   1      42.654  22.060  25.747  1.00  0.00     0.059 A 
ATOM     44  C   UNL A   1      42.340  21.274  28.022  1.00  0.00     0.059 A 
ATOM     45  F   UNL A   1      42.465  22.794  29.806  1.00  0.00    -0.206 F 
ATOM     46  C   UNL A   1      42.391  21.029  26.651  1.00  0.00     0.060 A 
BRANCH  46  47
ATOM     47  S   UNL A   1      42.136  19.362  26.008  1.00  0.00     0.124 S 
ATOM     48  O   UNL A   1      42.612  18.546  27.122  1.00  0.00    -0.237 OA
ATOM     49  O   UNL A   1      40.695  19.332  25.774  1.00  0.00    -0.237 OA
ATOM     50  O   UNL A   1      42.963  19.328  24.806  1.00  0.00    -0.744 OA
ENDBRANCH  46  47
ENDBRANCH  25  39
BRANCH  26  51
ATOM     51  C   UNL A   1      44.215  32.905  31.067  1.00  0.00     0.058 A 
ATOM     52  C   UNL A   1      44.441  33.991  30.209  1.00  0.00     0.135 A 
ATOM     53  C   UNL A   1      44.159  33.159  32.447  1.00  0.00     0.135 A 
ATOM     54  F   UNL A   1      44.504  33.795  28.883  1.00  0.00    -0.206 F 
ATOM     55  C   UNL A   1      44.619  35.280  30.699  1.00  0.00     0.059 A 
ATOM     56  C   UNL A   1      44.308  34.442  32.959  1.00  0.00     0.059 A 
ATOM     57  F   UNL A   1      43.924  32.156  33.306  1.00  0.00    -0.206 F 
ATOM     58  C   UNL A   1      44.550  35.496  32.077  1.00  0.00     0.060 A 
BRANCH  58  59
ATOM     59  S   UNL A   1      44.727  37.178  32.710  1.00  0.00     0.124 S 
ATOM     60  O   UNL A   1      45.989  37.086  33.433  1.00  0.00    -0.237 OA
ATOM     61  O   UNL A   1      44.749  37.971  31.484  1.00  0.00    -0.237 OA
ATOM     62  O   UNL A   1      43.534  37.349  33.534  1.00  0.00    -0.744 OA
ENDBRANCH  58  59
ENDBRANCH  26  51
BRANCH  38  63
ATOM     63  C   UNL A   1      48.485  27.594  29.654  1.00  0.00     0.058 A 
ATOM     64  C   UNL A   1      49.079  27.051  30.804  1.00  0.00     0.135 A 
ATOM     65  C   UNL A   1      49.325  27.989  28.602  1.00  0.00     0.135 A 
ATOM     66  F   UNL A   1      48.317  26.665  31.840  1.00  0.00    -0.206 F 
ATOM     67  C   UNL A   1      50.460  26.937  30.922  1.00  0.00     0.059 A 
ATOM     68  C   UNL A   1      50.708  27.865  28.690  1.00  0.00     0.059 A 
ATOM     69  F   UNL A   1      48.804  28.506  27.478  1.00  0.00    -0.206 F 
ATOM     70  C   UNL A   1      51.266  27.355  29.861  1.00  0.00     0.060 A 
BRANCH  70  71
ATOM     71  S   UNL A   1      53.058  27.206  30.022  1.00  0.00     0.124 S 
ATOM     72  O   UNL A   1      53.478  28.600  29.919  1.00  0.00    -0.237 OA
ATOM     73  O   UNL A   1      53.209  26.594  31.338  1.00  0.00    -0.237 OA
ATOM     74  O   UNL A   1      53.427  26.353  28.896  1.00  0.00    -0.744 OA
ENDBRANCH  70  71
ENDBRANCH  38  63
ENDBRANCH  12  13
ENDBRANCH   5   7
ENDBRANCH   2   3
ENDBRANCH   1   2
BRANCH   1  75
ATOM     75  C   UNL A   1      34.403  34.892  28.414  1.00  0.00     0.002 C 
BRANCH  75  76
ATOM     76  C   UNL A   1      32.968  34.889  28.947  1.00  0.00     0.002 C 
BRANCH  76  77
ATOM     77  C   UNL A   1      32.637  35.964  29.987  1.00  0.00     0.021 C 
BRANCH  77  78
ATOM     78  C   UNL A   1      33.779  36.920  30.331  1.00  0.00     0.116 C 
BRANCH  78  79
ATOM     79  N   UNL A   1      33.659  37.444  31.680  1.00  0.00    -0.349 N 
ATOM     80  C   UNL A   1      33.914  36.801  32.879  1.00  0.00     0.289 C 
ATOM     81  H   UNL A   1      33.358  38.378  31.751  1.00  0.00     0.163 HD
ATOM     82  O   UNL A   1      33.618  37.371  33.929  1.00  0.00    -0.266 OA
BRANCH  80  83
ATOM     83  C   UNL A   1      34.528  35.428  32.884  1.00  0.00     0.218 A 
ATOM     84  N   UNL A   1      33.680  34.382  32.852  1.00  0.00    -0.232 NA
ATOM     85  N   UNL A   1      35.877  35.359  32.881  1.00  0.00    -0.224 NA
ATOM     86  C   UNL A   1      34.264  33.174  32.783  1.00  0.00     0.124 A 
ATOM     87  C   UNL A   1      36.418  34.139  32.807  1.00  0.00     0.074 A 
ATOM     88  C   UNL A   1      35.640  32.976  32.746  1.00  0.00     0.019 A 
ATOM     89  C   UNL A   1      37.799  34.000  32.772  1.00  0.00     0.029 A 
ATOM     90  C   UNL A   1      36.239  31.706  32.644  1.00  0.00     0.012 A 
ATOM     91  C   UNL A   1      38.408  32.745  32.669  1.00  0.00     0.002 A 
ATOM     92  C   UNL A   1      37.626  31.597  32.603  1.00  0.00     0.001 A 
ENDBRANCH  80  83
ENDBRANCH  78  79
ENDBRANCH  77  78
ENDBRANCH  76  77
ENDBRANCH  75  76
ENDBRANCH   1  75
TORSDOF 16
ENDMDL
MODEL 2
REMARK VINA RESULT:     -10.6      2.415      8.811
REMARK SMILES O=C(NCCCCCCNC(=O)c1ncc2ccccc2n1)c1ccc(-c2c3nc(c(-c4c(F)cc(S(=O)(=O)[O-])cc4F)c4ccc([nH]4)c(-c4c(F)cc(S(=O)(=O)[O-])cc4F)c4nc(c(-c5c(F)cc(S(=O)(=O)[O-])cc5F)c5ccc2[nH]5)C=C4)C=C3)cc1
REMARK SMILES IDX 5 1 4 2 3 3 1 4 2 5 23 7 24 8 88 9 25 10 87 11 26 12 27 13
REMARK SMILES IDX 28 14 81 15 29 16 86 17 80 18 82 19 30 20 85 21 79 22 78 23
REMARK SMILES IDX 31 25 65 26 44 27 64 28 45 29 48 30 63 31 83 32 46 33 47 34
REMARK SMILES IDX 62 36 84 37 49 38 32 39 33 40 42 41 34 42 35 43 41 44 43 45
REMARK SMILES IDX 36 46 37 47 38 48 39 49 40 50 66 51 67 52 76 53 68 54 69 55
REMARK SMILES IDX 75 56 77 57 70 58 71 59 72 60 73 61 74 62 50 63 51 64 60 65
REMARK SMILES IDX 52 66 53 67 59 68 61 69 54 70 55 71 56 72 57 73 58 74 6 75
REMARK SMILES IDX 7 76 8 77 9 78 10 79 11 80 12 82 13 83 14 84 22 85 15 86
REMARK SMILES IDX 21 87 16 88 20 89 17 90 19 91 18 92
REMARK H PARENT 3 6 82 24 48 35 10 81
REMARK Flexibility Score: inf
ROOT
ATOM      1  C   UNL A   1      34.588  32.766  28.003  1.00  0.00     0.021 C 
ENDROOT
BRANCH   1   2
ATOM      2  C   UNL A   1      35.769  31.933  28.488  1.00  0.00     0.116 C 
BRANCH   2   3
ATOM      3  N   UNL A   1      35.568  31.382  29.818  1.00  0.00    -0.352 N 
ATOM      4  O   UNL A   1      36.028  30.106  31.622  1.00  0.00    -0.269 OA
ATOM      5  C   UNL A   1      36.415  30.593  30.562  1.00  0.00     0.251 C 
ATOM      6  H   UNL A   1      34.709  31.605  30.246  1.00  0.00     0.163 HD
BRANCH   5   7
ATOM      7  C   UNL A   1      37.782  30.308  30.069  1.00  0.00     0.039 A 
ATOM      8  C   UNL A   1      38.020  30.104  28.708  1.00  0.00     0.014 A 
ATOM      9  C   UNL A   1      38.840  30.240  30.981  1.00  0.00     0.014 A 
ATOM     10  C   UNL A   1      39.278  29.693  28.280  1.00  0.00     0.010 A 
ATOM     11  C   UNL A   1      40.126  29.909  30.537  1.00  0.00     0.010 A 
ATOM     12  C   UNL A   1      40.349  29.602  29.186  1.00  0.00    -0.014 A 
BRANCH  12  13
ATOM     13  C   UNL A   1      41.695  29.244  28.667  1.00  0.00     0.031 A 
ATOM     14  C   UNL A   1      42.822  30.239  28.650  1.00  0.00     0.074 A 
ATOM     15  C   UNL A   1      41.907  27.975  28.265  1.00  0.00     0.049 A 
ATOM     16  N   UNL A   1      44.072  30.058  28.301  1.00  0.00    -0.248 NA
ATOM     17  C   UNL A   1      42.513  31.616  29.069  1.00  0.00     0.031 C 
ATOM     18  C   UNL A   1      40.879  26.930  28.206  1.00  0.00     0.029 A 
ATOM     19  N   UNL A   1      43.050  27.338  27.859  1.00  0.00    -0.354 N 
ATOM     20  C   UNL A   1      44.696  31.291  28.451  1.00  0.00     0.074 A 
ATOM     21  C   UNL A   1      43.681  32.223  28.894  1.00  0.00     0.031 C 
ATOM     22  C   UNL A   1      41.450  25.773  27.843  1.00  0.00     0.029 A 
ATOM     23  C   UNL A   1      42.868  26.000  27.595  1.00  0.00     0.049 A 
ATOM     24  H   UNL A   1      43.918  27.794  27.765  1.00  0.00     0.167 HD
ATOM     25  C   UNL A   1      45.997  31.611  28.248  1.00  0.00     0.037 A 
ATOM     26  C   UNL A   1      43.744  25.060  27.195  1.00  0.00     0.037 A 
ATOM     27  C   UNL A   1      47.006  30.678  27.814  1.00  0.00     0.049 A 
ATOM     28  C   UNL A   1      45.182  25.438  27.001  1.00  0.00     0.074 A 
ATOM     29  C   UNL A   1      48.352  30.907  27.580  1.00  0.00     0.029 A 
ATOM     30  N   UNL A   1      46.783  29.333  27.552  1.00  0.00    -0.354 N 
ATOM     31  N   UNL A   1      45.754  26.607  27.163  1.00  0.00    -0.248 NA
ATOM     32  C   UNL A   1      46.096  24.371  26.573  1.00  0.00     0.031 C 
ATOM     33  C   UNL A   1      48.936  29.708  27.154  1.00  0.00     0.029 A 
ATOM     34  C   UNL A   1      47.963  28.723  27.156  1.00  0.00     0.049 A 
ATOM     35  H   UNL A   1      45.912  28.880  27.635  1.00  0.00     0.167 HD
ATOM     36  C   UNL A   1      47.094  26.419  26.852  1.00  0.00     0.074 A 
ATOM     37  C   UNL A   1      47.255  25.015  26.528  1.00  0.00     0.031 C 
ATOM     38  C   UNL A   1      48.100  27.327  26.827  1.00  0.00     0.037 A 
BRANCH  25  39
ATOM     39  C   UNL A   1      46.414  33.036  28.496  1.00  0.00     0.058 A 
ATOM     40  C   UNL A   1      46.879  33.453  29.753  1.00  0.00     0.135 A 
ATOM     41  C   UNL A   1      46.402  33.979  27.456  1.00  0.00     0.135 A 
ATOM     42  F   UNL A   1      46.897  32.597  30.786  1.00  0.00    -0.206 F 
ATOM     43  C   UNL A   1      47.304  34.761  29.975  1.00  0.00     0.059 A 
ATOM     44  C   UNL A   1      46.841  35.287  27.651  1.00  0.00     0.059 A 
ATOM     45  F   UNL A   1      45.968  33.632  26.235  1.00  0.00    -0.206 F 
ATOM     46  C   UNL A   1      47.280  35.671  28.917  1.00  0.00     0.060 A 
BRANCH  46  47
ATOM     47  S   UNL A   1      47.848  37.358  29.216  1.00  0.00     0.124 S 
ATOM     48  O   UNL A   1      49.069  37.399  28.416  1.00  0.00    -0.237 OA
ATOM     49  O   UNL A   1      46.736  38.159  28.714  1.00  0.00    -0.237 OA
ATOM     50  O   UNL A   1      48.044  37.401  30.662  1.00  0.00    -0.744 OA
ENDBRANCH  46  47
ENDBRANCH  25  39
BRANCH  26  51
ATOM     51  C   UNL A   1      43.271  23.674  26.950  1.00  0.00     0.058 A 
ATOM     52  C   UNL A   1      43.053  23.197  25.649  1.00  0.00     0.135 A 
ATOM     53  C   UNL A   1      43.055  22.789  28.018  1.00  0.00     0.135 A 
ATOM     54  F   UNL A   1      43.245  24.008  24.597  1.00  0.00    -0.206 F 
ATOM     55  C   UNL A   1      42.625  21.895  25.415  1.00  0.00     0.059 A 
ATOM     56  C   UNL A   1      42.653  21.476  27.808  1.00  0.00     0.059 A 
ATOM     57  F   UNL A   1      43.271  23.193  29.280  1.00  0.00    -0.206 F 
ATOM     58  C   UNL A   1      42.428  21.041  26.502  1.00  0.00     0.060 A 
BRANCH  58  59
ATOM     59  S   UNL A   1      41.924  19.334  26.194  1.00  0.00     0.124 S 
ATOM     60  O   UNL A   1      42.315  18.687  27.441  1.00  0.00    -0.237 OA
ATOM     61  O   UNL A   1      40.489  19.469  25.966  1.00  0.00    -0.237 OA
ATOM     62  O   UNL A   1      42.704  18.965  25.017  1.00  0.00    -0.744 OA
ENDBRANCH  58  59
ENDBRANCH  26  51
BRANCH  38  63
ATOM     63  C   UNL A   1      49.458  26.820  26.437  1.00  0.00     0.058 A 
ATOM     64  C   UNL A   1      49.942  26.961  25.127  1.00  0.00     0.135 A 
ATOM     65  C   UNL A   1      50.286  26.192  27.381  1.00  0.00     0.135 A 
ATOM     66  F   UNL A   1      49.185  27.548  24.187  1.00  0.00    -0.206 F 
ATOM     67  C   UNL A   1      51.187  26.465  24.756  1.00  0.00     0.059 A 
ATOM     68  C   UNL A   1      51.544  25.708  27.037  1.00  0.00     0.059 A 
ATOM     69  F   UNL A   1      49.872  26.041  28.649  1.00  0.00    -0.206 F 
ATOM     70  C   UNL A   1      51.977  25.832  25.718  1.00  0.00     0.060 A 
BRANCH  70  71
ATOM     71  S   UNL A   1      53.592  25.190  25.230  1.00  0.00     0.124 S 
ATOM     72  O   UNL A   1      54.466  25.815  26.217  1.00  0.00    -0.237 OA
ATOM     73  O   UNL A   1      53.414  23.747  25.365  1.00  0.00    -0.237 OA
ATOM     74  O   UNL A   1      53.745  25.670  23.860  1.00  0.00    -0.744 OA
ENDBRANCH  70  71
ENDBRANCH  38  63
ENDBRANCH  12  13
ENDBRANCH   5   7
ENDBRANCH   2   3
ENDBRANCH   1   2
BRANCH   1  75
ATOM     75  C   UNL A   1      34.544  34.203  28.520  1.00  0.00     0.002 C 
BRANCH  75  76
ATOM     76  C   UNL A   1      33.243  34.625  29.207  1.00  0.00     0.002 C 
BRANCH  76  77
ATOM     77  C   UNL A   1      33.219  36.044  29.783  1.00  0.00     0.021 C 
BRANCH  77  78
ATOM     78  C   UNL A   1      33.729  36.183  31.216  1.00  0.00     0.116 C 
BRANCH  78  79
ATOM     79  N   UNL A   1      33.358  35.044  32.037  1.00  0.00    -0.349 N 
ATOM     80  C   UNL A   1      34.181  34.092  32.612  1.00  0.00     0.289 C 
ATOM     81  H   UNL A   1      32.394  34.935  32.206  1.00  0.00     0.163 HD
ATOM     82  O   UNL A   1      33.664  33.118  33.160  1.00  0.00    -0.266 OA
BRANCH  80  83
ATOM     83  C   UNL A   1      35.675  34.250  32.552  1.00  0.00     0.218 A 
ATOM     84  N   UNL A   1      36.299  34.574  33.702  1.00  0.00    -0.232 NA
ATOM     85  N   UNL A   1      36.270  34.016  31.362  1.00  0.00    -0.224 NA
ATOM     86  C   UNL A   1      37.639  34.635  33.627  1.00  0.00     0.124 A 
ATOM     87  C   UNL A   1      37.605  34.083  31.332  1.00  0.00     0.074 A 
ATOM     88  C   UNL A   1      38.366  34.388  32.468  1.00  0.00     0.019 A 
ATOM     89  C   UNL A   1      38.280  33.826  30.147  1.00  0.00     0.029 A 
ATOM     90  C   UNL A   1      39.772  34.426  32.410  1.00  0.00     0.012 A 
ATOM     91  C   UNL A   1      39.676  33.858  30.075  1.00  0.00     0.002 A 
ATOM     92  C   UNL A   1      40.423  34.156  31.210  1.00  0.00     0.001 A 
ENDBRANCH  80  83
ENDBRANCH  78  79
ENDBRANCH  77  78
ENDBRANCH  76  77
ENDBRANCH  75  76
ENDBRANCH   1  75
TORSDOF 16
ENDMDL
MODEL 3
REMARK VINA RESULT:     -10.6      2.537      8.996
REMARK SMILES O=C(NCCCCCCNC(=O)c1ncc2ccccc2n1)c1ccc(-c2c3nc(c(-c4c(F)cc(S(=O)(=O)[O-])cc4F)c4ccc([nH]4)c(-c4c(F)cc(S(=O)(=O)[O-])cc4F)c4nc(c(-c5c(F)cc(S(=O)(=O)[O-])cc5F)c5ccc2[nH]5)C=C4)C=C3)cc1
REMARK SMILES IDX 5 1 4 2 3 3 1 4 2 5 23 7 24 8 88 9 25 10 87 11 26 12 27 13
REMARK SMILES IDX 28 14 81 15 29 16 86 17 80 18 82 19 30 20 85 21 79 22 78 23
REMARK SMILES IDX 31 25 65 26 44 27 64 28 45 29 48 30 63 31 83 32 46 33 47 34
REMARK SMILES IDX 62 36 84 37 49 38 32 39 33 40 42 41 34 42 35 43 41 44 43 45
REMARK SMILES IDX 36 46 37 47 38 48 39 49 40 50 66 51 67 52 76 53 68 54 69 55
REMARK SMILES IDX 75 56 77 57 70 58 71 59 72 60 73 61 74 62 50 63 51 64 60 65
REMARK SMILES IDX 52 66 53 67 59 68 61 69 54 70 55 71 56 72 57 73 58 74 6 75
REMARK SMILES IDX 7 76 8 77 9 78 10 79 11 80 12 82 13 83 14 84 22 85 15 86
REMARK SMILES IDX 21 87 16 88 20 89 17 90 19 91 18 92
REMARK H PARENT 3 6 82 24 48 35 10 81
REMARK Flexibility Score: inf
ROOT
ATOM      1  C   UNL A   1      34.107  28.653  26.918  1.00  0.00     0.021 C 
ENDROOT
BRANCH   1   2
ATOM      2  C   UNL A   1      35.314  29.423  27.442  1.00  0.00     0.116 C 
BRANCH   2   3
ATOM      3  N   UNL A   1      35.210  29.750  28.854  1.00  0.00    -0.352 N 
ATOM      4  O   UNL A   1      35.906  29.938  30.993  1.00  0.00    -0.269 OA
ATOM      5  C   UNL A   1      36.198  29.762  29.812  1.00  0.00     0.251 C 
ATOM      6  H   UNL A   1      34.310  29.997  29.169  1.00  0.00     0.163 HD
BRANCH   5   7
ATOM      7  C   UNL A   1      37.608  29.534  29.421  1.00  0.00     0.039 A 
ATOM      8  C   UNL A   1      38.024  29.744  28.105  1.00  0.00     0.014 A 
ATOM      9  C   UNL A   1      38.526  29.101  30.383  1.00  0.00     0.014 A 
ATOM     10  C   UNL A   1      39.312  29.385  27.721  1.00  0.00     0.010 A 
ATOM     11  C   UNL A   1      39.847  28.821  30.013  1.00  0.00     0.010 A 
ATOM     12  C   UNL A   1      40.242  28.931  28.672  1.00  0.00    -0.014 A 
BRANCH  12  13
ATOM     13  C   UNL A   1      41.632  28.643  28.230  1.00  0.00     0.031 A 
ATOM     14  C   UNL A   1      42.696  29.706  28.237  1.00  0.00     0.074 A 
ATOM     15  C   UNL A   1      41.941  27.379  27.877  1.00  0.00     0.049 A 
ATOM     16  N   UNL A   1      43.971  29.593  27.956  1.00  0.00    -0.248 NA
ATOM     17  C   UNL A   1      42.284  31.071  28.599  1.00  0.00     0.031 C 
ATOM     18  C   UNL A   1      40.983  26.271  27.800  1.00  0.00     0.029 A 
ATOM     19  N   UNL A   1      43.140  26.803  27.547  1.00  0.00    -0.354 N 
ATOM     20  C   UNL A   1      44.511  30.866  28.099  1.00  0.00     0.074 A 
ATOM     21  C   UNL A   1      43.419  31.744  28.463  1.00  0.00     0.031 C 
ATOM     22  C   UNL A   1      41.641  25.142  27.499  1.00  0.00     0.029 A 
ATOM     23  C   UNL A   1      43.053  25.451  27.315  1.00  0.00     0.049 A 
ATOM     24  H   UNL A   1      43.982  27.310  27.482  1.00  0.00     0.167 HD
ATOM     25  C   UNL A   1      45.799  31.261  27.950  1.00  0.00     0.037 A 
ATOM     26  C   UNL A   1      44.003  24.556  26.986  1.00  0.00     0.037 A 
ATOM     27  C   UNL A   1      46.883  30.380  27.594  1.00  0.00     0.049 A 
ATOM     28  C   UNL A   1      45.424  25.017  26.851  1.00  0.00     0.074 A 
ATOM     29  C   UNL A   1      48.223  30.686  27.419  1.00  0.00     0.029 A 
ATOM     30  N   UNL A   1      46.755  29.018  27.361  1.00  0.00    -0.354 N 
ATOM     31  N   UNL A   1      45.914  26.224  27.005  1.00  0.00    -0.248 NA
ATOM     32  C   UNL A   1      46.421  23.999  26.501  1.00  0.00     0.031 C 
ATOM     33  C   UNL A   1      48.899  29.515  27.058  1.00  0.00     0.029 A 
ATOM     34  C   UNL A   1      47.988  28.472  27.042  1.00  0.00     0.049 A 
ATOM     35  H   UNL A   1      45.911  28.514  27.416  1.00  0.00     0.167 HD
ATOM     36  C   UNL A   1      47.278  26.111  26.766  1.00  0.00     0.074 A 
ATOM     37  C   UNL A   1      47.539  24.712  26.493  1.00  0.00     0.031 C 
ATOM     38  C   UNL A   1      48.226  27.079  26.762  1.00  0.00     0.037 A 
BRANCH  25  39
ATOM     39  C   UNL A   1      46.115  32.715  28.175  1.00  0.00     0.058 A 
ATOM     40  C   UNL A   1      46.536  33.186  29.429  1.00  0.00     0.135 A 
ATOM     41  C   UNL A   1      46.052  33.636  27.117  1.00  0.00     0.135 A 
ATOM     42  F   UNL A   1      46.599  32.352  30.478  1.00  0.00    -0.206 F 
ATOM     43  C   UNL A   1      46.868  34.523  29.630  1.00  0.00     0.059 A 
ATOM     44  C   UNL A   1      46.399  34.973  27.291  1.00  0.00     0.059 A 
ATOM     45  F   UNL A   1      45.657  33.237  25.898  1.00  0.00    -0.206 F 
ATOM     46  C   UNL A   1      46.795  35.410  28.554  1.00  0.00     0.060 A 
BRANCH  46  47
ATOM     47  S   UNL A   1      47.245  37.137  28.827  1.00  0.00     0.124 S 
ATOM     48  O   UNL A   1      48.698  37.045  28.936  1.00  0.00    -0.237 OA
ATOM     49  O   UNL A   1      46.742  37.787  27.621  1.00  0.00    -0.237 OA
ATOM     50  O   UNL A   1      46.543  37.482  30.060  1.00  0.00    -0.744 OA
ENDBRANCH  46  47
ENDBRANCH  25  39
BRANCH  26  51
ATOM     51  C   UNL A   1      43.628  23.137  26.760  1.00  0.00     0.058 A 
ATOM     52  C   UNL A   1      43.274  22.299  27.828  1.00  0.00     0.135 A 
ATOM     53  C   UNL A   1      43.591  22.600  25.464  1.00  0.00     0.135 A 
ATOM     54  F   UNL A   1      43.297  22.768  29.085  1.00  0.00    -0.206 F 
ATOM     55  C   UNL A   1      42.908  20.974  27.620  1.00  0.00     0.059 A 
ATOM     56  C   UNL A   1      43.204  21.287  25.228  1.00  0.00     0.059 A 
ATOM     57  F   UNL A   1      43.901  23.370  24.409  1.00  0.00    -0.206 F 
ATOM     58  C   UNL A   1      42.876  20.477  26.315  1.00  0.00     0.060 A 
BRANCH  58  59
ATOM     59  S   UNL A   1      42.348  18.771  26.041  1.00  0.00     0.124 S 
ATOM     60  O   UNL A   1      40.950  18.956  25.667  1.00  0.00    -0.237 OA
ATOM     61  O   UNL A   1      43.243  18.336  24.973  1.00  0.00    -0.237 OA
ATOM     62  O   UNL A   1      42.580  18.140  27.336  1.00  0.00    -0.744 OA
ENDBRANCH  58  59
ENDBRANCH  26  51
BRANCH  38  63
ATOM     63  C   UNL A   1      49.631  26.646  26.455  1.00  0.00     0.058 A 
ATOM     64  C   UNL A   1      50.169  26.776  25.165  1.00  0.00     0.135 A 
ATOM     65  C   UNL A   1      50.448  26.103  27.458  1.00  0.00     0.135 A 
ATOM     66  F   UNL A   1      49.423  27.283  24.170  1.00  0.00    -0.206 F 
ATOM     67  C   UNL A   1      51.459  26.348  24.870  1.00  0.00     0.059 A 
ATOM     68  C   UNL A   1      51.749  25.689  27.191  1.00  0.00     0.059 A 
ATOM     69  F   UNL A   1      49.983  25.967  28.709  1.00  0.00    -0.206 F 
ATOM     70  C   UNL A   1      52.239  25.798  25.890  1.00  0.00     0.060 A 
BRANCH  70  71
ATOM     71  S   UNL A   1      53.912  25.244  25.500  1.00  0.00     0.124 S 
ATOM     72  O   UNL A   1      54.705  26.022  26.447  1.00  0.00    -0.237 OA
ATOM     73  O   UNL A   1      53.841  23.810  25.761  1.00  0.00    -0.237 OA
ATOM     74  O   UNL A   1      54.070  25.613  24.097  1.00  0.00    -0.744 OA
ENDBRANCH  70  71
ENDBRANCH  38  63
ENDBRANCH  12  13
ENDBRANCH   5   7
ENDBRANCH   2   3
ENDBRANCH   1   2
BRANCH   1  75
ATOM     75  C   UNL A   1      32.745  29.243  27.280  1.00  0.00     0.002 C 
BRANCH  75  76
ATOM     76  C   UNL A   1      32.177  30.264  26.290  1.00  0.00     0.002 C 
BRANCH  76  77
ATOM     77  C   UNL A   1      31.829  31.638  26.870  1.00  0.00     0.021 C 
BRANCH  77  78
ATOM     78  C   UNL A   1      33.004  32.427  27.446  1.00  0.00     0.116 C 
BRANCH  78  79
ATOM     79  N   UNL A   1      32.655  33.812  27.702  1.00  0.00    -0.349 N 
ATOM     80  C   UNL A   1      33.165  34.665  28.665  1.00  0.00     0.289 C 
ATOM     81  H   UNL A   1      31.963  34.195  27.115  1.00  0.00     0.163 HD
ATOM     82  O   UNL A   1      32.639  35.768  28.817  1.00  0.00    -0.266 OA
BRANCH  80  83
ATOM     83  C   UNL A   1      34.333  34.237  29.510  1.00  0.00     0.218 A 
ATOM     84  N   UNL A   1      34.078  33.955  30.802  1.00  0.00    -0.232 NA
ATOM     85  N   UNL A   1      35.532  34.134  28.895  1.00  0.00    -0.224 NA
ATOM     86  C   UNL A   1      35.130  33.505  31.508  1.00  0.00     0.124 A 
ATOM     87  C   UNL A   1      36.550  33.679  29.631  1.00  0.00     0.074 A 
ATOM     88  C   UNL A   1      36.403  33.331  30.980  1.00  0.00     0.019 A 
ATOM     89  C   UNL A   1      37.802  33.523  29.051  1.00  0.00     0.029 A 
ATOM     90  C   UNL A   1      37.490  32.831  31.723  1.00  0.00     0.012 A 
ATOM     91  C   UNL A   1      38.890  33.026  29.776  1.00  0.00     0.002 A 
ATOM     92  C   UNL A   1      38.732  32.677  31.114  1.00  0.00     0.001 A 
ENDBRANCH  80  83
ENDBRANCH  78  79
ENDBRANCH  77  78
ENDBRANCH  76  77
ENDBRANCH  75  76
ENDBRANCH   1  75
TORSDOF 16
ENDMDL
