MODEL 1
REMARK VINA RESULT:     -12.3      0.000      0.000
REMARK SMILES CC(=O)Nc1ccc(/C=N/c2ccccc2C(=O)NCCCCCCNC(=O)c2ccc(-c3c4nc(c(-c5c(F)cc(S(=O)(=O)[O-])cc5F)c5ccc([nH]5)c(-c5c(F)cc(S(=O)(=O)[O-])cc5F)c5nc(c(-c6c(F)cc(S(=O)(=O)[O-])cc6F)c6ccc3[nH]6)C=C5)C=C4)cc2)cc1
REMARK SMILES IDX 22 1 21 2 20 3 19 4 17 5 18 6 16 8 11 9 12 10 13 11 15 12
REMARK SMILES IDX 14 13 10 14 9 15 8 16 5 17 6 18 96 19 7 20 95 21 4 22 1 23
REMARK SMILES IDX 2 24 3 25 23 27 24 28 25 29 26 30 27 31 28 33 29 34 30 35
REMARK SMILES IDX 94 36 31 37 93 38 32 39 33 40 34 41 87 42 35 43 92 44 86 45
REMARK SMILES IDX 88 46 36 47 91 48 85 49 84 50 37 52 71 53 50 54 70 55 51 56
REMARK SMILES IDX 54 57 69 58 89 59 52 60 53 61 68 63 90 64 55 65 38 66 39 67
REMARK SMILES IDX 48 68 40 69 41 70 47 71 49 72 42 73 43 74 44 75 45 76 46 77
REMARK SMILES IDX 72 78 73 79 82 80 74 81 75 82 81 83 83 84 76 85 77 86 78 87
REMARK SMILES IDX 79 88 80 89 56 90 57 91 66 92 58 93 59 94 65 95 67 96 60 97
REMARK SMILES IDX 61 98 62 99 63 100 64 101
REMARK H PARENT 19 7 4 26 26 32 88 51 54 62
REMARK Flexibility Score: inf
ROOT
ATOM      1  C   UNL A   1      33.180  28.848  25.111  1.00  0.00     0.002 C 
ENDROOT
BRANCH   1   2
ATOM      2  C   UNL A   1      33.702  27.889  24.034  1.00  0.00     0.021 C 
BRANCH   2   3
ATOM      3  C   UNL A   1      34.017  26.450  24.431  1.00  0.00     0.116 C 
BRANCH   3   4
ATOM      4  N   UNL A   1      33.792  25.444  23.419  1.00  0.00    -0.352 N 
ATOM      5  C   UNL A   1      32.815  24.474  23.357  1.00  0.00     0.253 C 
ATOM      6  O   UNL A   1      32.733  23.822  22.312  1.00  0.00    -0.269 OA
ATOM      7  H   UNL A   1      34.427  25.452  22.667  1.00  0.00     0.163 HD
BRANCH   5   8
ATOM      8  C   UNL A   1      31.917  24.096  24.492  1.00  0.00     0.065 A 
ATOM      9  C   UNL A   1      30.878  24.864  25.058  1.00  0.00     0.076 A 
ATOM     10  C   UNL A   1      30.154  24.327  26.138  1.00  0.00     0.029 A 
ATOM     11  C   UNL A   1      30.402  23.044  26.629  1.00  0.00     0.002 A 
ATOM     12  C   UNL A   1      32.136  22.788  24.982  1.00  0.00     0.016 A 
ATOM     13  C   UNL A   1      31.389  22.267  26.041  1.00  0.00     0.001 A 
BRANCH   9  14
ATOM     14  N   UNL A   1      30.537  26.180  24.707  1.00  0.00    -0.255 NA
ATOM     15  C   UNL A   1      29.593  26.370  23.843  1.00  0.00     0.119 C 
BRANCH  15  16
ATOM     16  C   UNL A   1      29.299  27.735  23.359  1.00  0.00    -0.007 A 
ATOM     17  C   UNL A   1      28.594  30.153  22.105  1.00  0.00     0.041 A 
ATOM     18  C   UNL A   1      29.933  29.739  22.154  1.00  0.00     0.027 A 
ATOM     19  C   UNL A   1      27.624  29.349  22.714  1.00  0.00     0.027 A 
ATOM     20  C   UNL A   1      30.287  28.533  22.774  1.00  0.00     0.012 A 
ATOM     21  C   UNL A   1      27.971  28.151  23.348  1.00  0.00     0.012 A 
BRANCH  17  22
ATOM     22  N   UNL A   1      28.293  31.277  21.313  1.00  0.00    -0.326 N 
ATOM     23  C   UNL A   1      28.719  33.165  22.889  1.00  0.00     0.114 C 
ATOM     24  C   UNL A   1      28.150  32.599  21.623  1.00  0.00     0.221 C 
ATOM     25  O   UNL A   1      27.580  33.346  20.827  1.00  0.00    -0.275 OA
ATOM     26  H   UNL A   1      28.161  31.072  20.360  1.00  0.00     0.169 HD
ENDBRANCH  17  22
ENDBRANCH  15  16
ENDBRANCH   9  14
ENDBRANCH   5   8
ENDBRANCH   3   4
ENDBRANCH   2   3
ENDBRANCH   1   2
BRANCH   1  27
ATOM     27  C   UNL A   1      33.873  28.869  26.477  1.00  0.00     0.002 C 
BRANCH  27  28
ATOM     28  C   UNL A   1      33.804  30.158  27.293  1.00  0.00     0.021 C 
BRANCH  28  29
ATOM     29  C   UNL A   1      35.106  30.843  27.689  1.00  0.00     0.116 C 
BRANCH  29  30
ATOM     30  N   UNL A   1      35.238  31.025  29.124  1.00  0.00    -0.352 N 
ATOM     31  C   UNL A   1      36.262  30.777  30.011  1.00  0.00     0.251 C 
ATOM     32  H   UNL A   1      34.435  31.403  29.547  1.00  0.00     0.163 HD
ATOM     33  O   UNL A   1      36.032  30.981  31.205  1.00  0.00    -0.269 OA
BRANCH  31  34
ATOM     34  C   UNL A   1      37.609  30.271  29.610  1.00  0.00     0.039 A 
ATOM     35  C   UNL A   1      38.548  30.031  30.626  1.00  0.00     0.014 A 
ATOM     36  C   UNL A   1      38.013  30.091  28.286  1.00  0.00     0.014 A 
ATOM     37  C   UNL A   1      39.838  29.562  30.332  1.00  0.00     0.010 A 
ATOM     38  C   UNL A   1      39.284  29.572  27.990  1.00  0.00     0.010 A 
ATOM     39  C   UNL A   1      40.215  29.314  29.009  1.00  0.00    -0.014 A 
BRANCH  39  40
ATOM     40  C   UNL A   1      41.600  28.875  28.670  1.00  0.00     0.031 A 
ATOM     41  C   UNL A   1      42.716  29.890  28.643  1.00  0.00     0.074 A 
ATOM     42  C   UNL A   1      41.866  27.589  28.364  1.00  0.00     0.049 A 
ATOM     43  N   UNL A   1      43.973  29.736  28.310  1.00  0.00    -0.248 NA
ATOM     44  C   UNL A   1      42.365  31.266  29.032  1.00  0.00     0.031 C 
ATOM     45  C   UNL A   1      40.889  26.500  28.355  1.00  0.00     0.029 A 
ATOM     46  N   UNL A   1      43.043  26.980  27.990  1.00  0.00    -0.354 N 
ATOM     47  C   UNL A   1      44.558  30.991  28.438  1.00  0.00     0.074 A 
ATOM     48  C   UNL A   1      43.508  31.906  28.831  1.00  0.00     0.031 C 
ATOM     49  C   UNL A   1      41.504  25.360  27.994  1.00  0.00     0.029 A 
ATOM     50  C   UNL A   1      42.911  25.637  27.715  1.00  0.00     0.049 A 
ATOM     51  H   UNL A   1      43.900  27.460  27.924  1.00  0.00     0.167 HD
ATOM     52  C   UNL A   1      45.854  31.348  28.265  1.00  0.00     0.037 A 
ATOM     53  C   UNL A   1      43.817  24.736  27.278  1.00  0.00     0.037 A 
ATOM     54  C   UNL A   1      46.904  30.436  27.894  1.00  0.00     0.049 A 
ATOM     55  C   UNL A   1      45.245  25.168  27.050  1.00  0.00     0.074 A 
ATOM     56  C   UNL A   1      48.254  30.701  27.733  1.00  0.00     0.029 A 
ATOM     57  N   UNL A   1      46.728  29.088  27.622  1.00  0.00    -0.354 N 
ATOM     58  N   UNL A   1      45.789  26.350  27.218  1.00  0.00    -0.248 NA
ATOM     59  C   UNL A   1      46.186  24.141  26.576  1.00  0.00     0.031 C 
ATOM     60  C   UNL A   1      48.884  29.527  27.310  1.00  0.00     0.029 A 
ATOM     61  C   UNL A   1      47.939  28.515  27.269  1.00  0.00     0.049 A 
ATOM     62  H   UNL A   1      45.870  28.609  27.673  1.00  0.00     0.167 HD
ATOM     63  C   UNL A   1      47.138  26.198  26.912  1.00  0.00     0.074 A 
ATOM     64  C   UNL A   1      47.331  24.810  26.552  1.00  0.00     0.031 C 
ATOM     65  C   UNL A   1      48.127  27.126  26.928  1.00  0.00     0.037 A 
BRANCH  52  66
ATOM     66  C   UNL A   1      46.214  32.796  28.469  1.00  0.00     0.058 A 
ATOM     67  C   UNL A   1      46.587  33.295  29.728  1.00  0.00     0.135 A 
ATOM     68  C   UNL A   1      46.231  33.686  27.383  1.00  0.00     0.135 A 
ATOM     69  F   UNL A   1      46.574  32.493  30.805  1.00  0.00    -0.206 F 
ATOM     70  C   UNL A   1      46.940  34.629  29.907  1.00  0.00     0.059 A 
ATOM     71  C   UNL A   1      46.610  35.016  27.532  1.00  0.00     0.059 A 
ATOM     72  F   UNL A   1      45.883  33.262  26.157  1.00  0.00    -0.206 F 
ATOM     73  C   UNL A   1      46.951  35.481  28.801  1.00  0.00     0.060 A 
BRANCH  73  74
ATOM     74  S   UNL A   1      47.423  37.205  29.050  1.00  0.00     0.124 S 
ATOM     75  O   UNL A   1      47.804  37.203  30.458  1.00  0.00    -0.237 OA
ATOM     76  O   UNL A   1      48.514  37.370  28.097  1.00  0.00    -0.237 OA
ATOM     77  O   UNL A   1      46.201  37.942  28.733  1.00  0.00    -0.744 OA
ENDBRANCH  73  74
ENDBRANCH  52  66
BRANCH  53  78
ATOM     78  C   UNL A   1      43.411  23.324  27.022  1.00  0.00     0.058 A 
ATOM     79  C   UNL A   1      43.238  22.842  25.715  1.00  0.00     0.135 A 
ATOM     80  C   UNL A   1      43.160  22.436  28.081  1.00  0.00     0.135 A 
ATOM     81  F   UNL A   1      43.451  23.654  24.668  1.00  0.00    -0.206 F 
ATOM     82  C   UNL A   1      42.807  21.542  25.466  1.00  0.00     0.059 A 
ATOM     83  C   UNL A   1      42.757  21.123  27.856  1.00  0.00     0.059 A 
ATOM     84  F   UNL A   1      43.318  22.840  29.350  1.00  0.00    -0.206 F 
ATOM     85  C   UNL A   1      42.570  20.689  26.544  1.00  0.00     0.060 A 
BRANCH  85  86
ATOM     86  S   UNL A   1      42.041  18.995  26.209  1.00  0.00     0.124 S 
ATOM     87  O   UNL A   1      40.647  19.190  25.830  1.00  0.00    -0.237 OA
ATOM     88  O   UNL A   1      42.947  18.598  25.135  1.00  0.00    -0.237 OA
ATOM     89  O   UNL A   1      42.259  18.317  27.485  1.00  0.00    -0.744 OA
ENDBRANCH  85  86
ENDBRANCH  53  78
BRANCH  65  90
ATOM     90  C   UNL A   1      49.525  26.671  26.597  1.00  0.00     0.058 A 
ATOM     91  C   UNL A   1      50.361  26.080  27.556  1.00  0.00     0.135 A 
ATOM     92  C   UNL A   1      50.009  26.771  25.281  1.00  0.00     0.135 A 
ATOM     93  F   UNL A   1      49.953  25.962  28.829  1.00  0.00    -0.206 F 
ATOM     94  C   UNL A   1      51.636  25.623  27.229  1.00  0.00     0.059 A 
ATOM     95  C   UNL A   1      51.267  26.293  24.924  1.00  0.00     0.059 A 
ATOM     96  F   UNL A   1      49.248  27.317  24.320  1.00  0.00    -0.206 F 
ATOM     97  C   UNL A   1      52.078  25.731  25.908  1.00  0.00     0.060 A 
BRANCH  97  98
ATOM     98  S   UNL A   1      53.717  25.099  25.490  1.00  0.00     0.124 S 
ATOM     99  O   UNL A   1      54.049  25.897  24.314  1.00  0.00    -0.237 OA
ATOM    100  O   UNL A   1      54.484  25.399  26.695  1.00  0.00    -0.237 OA
ATOM    101  O   UNL A   1      53.483  23.681  25.239  1.00  0.00    -0.744 OA
ENDBRANCH  97  98
ENDBRANCH  65  90
ENDBRANCH  39  40
ENDBRANCH  31  34
ENDBRANCH  29  30
ENDBRANCH  28  29
ENDBRANCH  27  28
ENDBRANCH   1  27
TORSDOF 19
ENDMDL
MODEL 2
REMARK VINA RESULT:     -12.2      6.396     11.785
REMARK SMILES CC(=O)Nc1ccc(/C=N/c2ccccc2C(=O)NCCCCCCNC(=O)c2ccc(-c3c4nc(c(-c5c(F)cc(S(=O)(=O)[O-])cc5F)c5ccc([nH]5)c(-c5c(F)cc(S(=O)(=O)[O-])cc5F)c5nc(c(-c6c(F)cc(S(=O)(=O)[O-])cc6F)c6ccc3[nH]6)C=C5)C=C4)cc2)cc1
REMARK SMILES IDX 22 1 21 2 20 3 19 4 17 5 18 6 16 8 11 9 12 10 13 11 15 12
REMARK SMILES IDX 14 13 10 14 9 15 8 16 5 17 6 18 96 19 7 20 95 21 4 22 1 23
REMARK SMILES IDX 2 24 3 25 23 27 24 28 25 29 26 30 27 31 28 33 29 34 30 35
REMARK SMILES IDX 94 36 31 37 93 38 32 39 33 40 34 41 87 42 35 43 92 44 86 45
REMARK SMILES IDX 88 46 36 47 91 48 85 49 84 50 37 52 71 53 50 54 70 55 51 56
REMARK SMILES IDX 54 57 69 58 89 59 52 60 53 61 68 63 90 64 55 65 38 66 39 67
REMARK SMILES IDX 48 68 40 69 41 70 47 71 49 72 42 73 43 74 44 75 45 76 46 77
REMARK SMILES IDX 72 78 73 79 82 80 74 81 75 82 81 83 83 84 76 85 77 86 78 87
REMARK SMILES IDX 79 88 80 89 56 90 57 91 66 92 58 93 59 94 65 95 67 96 60 97
REMARK SMILES IDX 61 98 62 99 63 100 64 101
REMARK H PARENT 19 7 4 26 26 32 88 51 54 62
REMARK Flexibility Score: inf
ROOT
ATOM      1  C   UNL A   1      37.401  23.708  25.843  1.00  0.00     0.002 C 
ENDROOT
BRANCH   1   2
ATOM      2  C   UNL A   1      37.171  22.493  24.936  1.00  0.00     0.021 C 
BRANCH   2   3
ATOM      3  C   UNL A   1      36.520  21.250  25.535  1.00  0.00     0.116 C 
BRANCH   3   4
ATOM      4  N   UNL A   1      35.456  21.480  26.484  1.00  0.00    -0.352 N 
ATOM      5  C   UNL A   1      34.093  21.412  26.298  1.00  0.00     0.253 C 
ATOM      6  O   UNL A   1      33.381  21.502  27.303  1.00  0.00    -0.269 OA
ATOM      7  H   UNL A   1      35.746  21.720  27.393  1.00  0.00     0.163 HD
BRANCH   5   8
ATOM      8  C   UNL A   1      33.418  21.332  24.965  1.00  0.00     0.065 A 
ATOM      9  C   UNL A   1      33.127  22.395  24.085  1.00  0.00     0.076 A 
ATOM     10  C   UNL A   1      32.469  22.108  22.875  1.00  0.00     0.029 A 
ATOM     11  C   UNL A   1      32.143  20.803  22.503  1.00  0.00     0.002 A 
ATOM     12  C   UNL A   1      33.107  20.014  24.560  1.00  0.00     0.016 A 
ATOM     13  C   UNL A   1      32.474  19.751  23.343  1.00  0.00     0.001 A 
BRANCH   9  14
ATOM     14  N   UNL A   1      33.350  23.759  24.333  1.00  0.00    -0.255 NA
ATOM     15  C   UNL A   1      32.540  24.391  25.119  1.00  0.00     0.119 C 
BRANCH  15  16
ATOM     16  C   UNL A   1      32.674  25.852  25.297  1.00  0.00    -0.007 A 
ATOM     17  C   UNL A   1      33.271  28.548  25.833  1.00  0.00     0.041 A 
ATOM     18  C   UNL A   1      32.287  27.876  26.571  1.00  0.00     0.027 A 
ATOM     19  C   UNL A   1      33.930  27.855  24.812  1.00  0.00     0.027 A 
ATOM     20  C   UNL A   1      31.990  26.531  26.310  1.00  0.00     0.012 A 
ATOM     21  C   UNL A   1      33.629  26.517  24.535  1.00  0.00     0.012 A 
BRANCH  17  22
ATOM     22  N   UNL A   1      33.641  29.834  26.270  1.00  0.00    -0.326 N 
ATOM     23  C   UNL A   1      35.535  29.346  27.819  1.00  0.00     0.114 C 
ATOM     24  C   UNL A   1      34.486  30.256  27.256  1.00  0.00     0.221 C 
ATOM     25  O   UNL A   1      34.410  31.417  27.659  1.00  0.00    -0.275 OA
ATOM     26  H   UNL A   1      33.210  30.566  25.771  1.00  0.00     0.169 HD
ENDBRANCH  17  22
ENDBRANCH  15  16
ENDBRANCH   9  14
ENDBRANCH   5   8
ENDBRANCH   3   4
ENDBRANCH   2   3
ENDBRANCH   1   2
BRANCH   1  27
ATOM     27  C   UNL A   1      38.803  23.946  26.415  1.00  0.00     0.002 C 
BRANCH  27  28
ATOM     28  C   UNL A   1      39.765  22.761  26.462  1.00  0.00     0.021 C 
BRANCH  28  29
ATOM     29  C   UNL A   1      41.233  23.025  26.777  1.00  0.00     0.116 C 
BRANCH  29  30
ATOM     30  N   UNL A   1      41.858  23.942  25.842  1.00  0.00    -0.352 N 
ATOM     31  C   UNL A   1      42.095  25.299  25.874  1.00  0.00     0.251 C 
ATOM     32  H   UNL A   1      42.178  23.508  25.019  1.00  0.00     0.163 HD
ATOM     33  O   UNL A   1      42.596  25.806  24.868  1.00  0.00    -0.269 OA
BRANCH  31  34
ATOM     34  C   UNL A   1      41.769  26.174  27.040  1.00  0.00     0.039 A 
ATOM     35  C   UNL A   1      42.412  27.420  27.123  1.00  0.00     0.014 A 
ATOM     36  C   UNL A   1      40.924  25.800  28.086  1.00  0.00     0.014 A 
ATOM     37  C   UNL A   1      42.167  28.298  28.190  1.00  0.00     0.010 A 
ATOM     38  C   UNL A   1      40.635  26.696  29.127  1.00  0.00     0.010 A 
ATOM     39  C   UNL A   1      41.263  27.950  29.199  1.00  0.00    -0.014 A 
BRANCH  39  40
ATOM     40  C   UNL A   1      41.036  28.841  30.373  1.00  0.00     0.031 A 
ATOM     41  C   UNL A   1      41.881  28.670  31.612  1.00  0.00     0.074 A 
ATOM     42  C   UNL A   1      40.070  29.783  30.355  1.00  0.00     0.049 A 
ATOM     43  N   UNL A   1      41.805  29.289  32.763  1.00  0.00    -0.248 NA
ATOM     44  C   UNL A   1      42.946  27.654  31.548  1.00  0.00     0.031 C 
ATOM     45  C   UNL A   1      39.184  30.065  29.226  1.00  0.00     0.029 A 
ATOM     46  N   UNL A   1      39.667  30.674  31.323  1.00  0.00    -0.354 N 
ATOM     47  C   UNL A   1      42.800  28.734  33.561  1.00  0.00     0.074 A 
ATOM     48  C   UNL A   1      43.434  27.693  32.779  1.00  0.00     0.031 C 
ATOM     49  C   UNL A   1      38.342  31.057  29.566  1.00  0.00     0.029 A 
ATOM     50  C   UNL A   1      38.605  31.464  30.944  1.00  0.00     0.049 A 
ATOM     51  H   UNL A   1      40.097  30.740  32.206  1.00  0.00     0.167 HD
ATOM     52  C   UNL A   1      43.168  29.071  34.820  1.00  0.00     0.037 A 
ATOM     53  C   UNL A   1      37.915  32.399  31.631  1.00  0.00     0.037 A 
ATOM     54  C   UNL A   1      42.553  30.119  35.593  1.00  0.00     0.049 A 
ATOM     55  C   UNL A   1      38.316  32.726  33.049  1.00  0.00     0.074 A 
ATOM     56  C   UNL A   1      42.885  30.557  36.864  1.00  0.00     0.029 A 
ATOM     57  N   UNL A   1      41.480  30.891  35.173  1.00  0.00    -0.354 N 
ATOM     58  N   UNL A   1      39.288  32.221  33.771  1.00  0.00    -0.248 NA
ATOM     59  C   UNL A   1      37.529  33.756  33.746  1.00  0.00     0.031 C 
ATOM     60  C   UNL A   1      41.979  31.554  37.235  1.00  0.00     0.029 A 
ATOM     61  C   UNL A   1      41.122  31.783  36.171  1.00  0.00     0.049 A 
ATOM     62  H   UNL A   1      41.039  30.816  34.297  1.00  0.00     0.167 HD
ATOM     63  C   UNL A   1      39.254  32.899  34.987  1.00  0.00     0.074 A 
ATOM     64  C   UNL A   1      38.170  33.853  34.903  1.00  0.00     0.031 C 
ATOM     65  C   UNL A   1      40.050  32.744  36.074  1.00  0.00     0.037 A 
BRANCH  52  66
ATOM     66  C   UNL A   1      44.291  28.292  35.453  1.00  0.00     0.058 A 
ATOM     67  C   UNL A   1      44.052  27.136  36.214  1.00  0.00     0.135 A 
ATOM     68  C   UNL A   1      45.626  28.680  35.256  1.00  0.00     0.135 A 
ATOM     69  F   UNL A   1      42.795  26.727  36.446  1.00  0.00    -0.206 F 
ATOM     70  C   UNL A   1      45.095  26.408  36.778  1.00  0.00     0.059 A 
ATOM     71  C   UNL A   1      46.686  27.950  35.785  1.00  0.00     0.059 A 
ATOM     72  F   UNL A   1      45.912  29.778  34.537  1.00  0.00    -0.206 F 
ATOM     73  C   UNL A   1      46.409  26.822  36.555  1.00  0.00     0.060 A 
BRANCH  73  74
ATOM     74  S   UNL A   1      47.749  25.857  37.284  1.00  0.00     0.124 S 
ATOM     75  O   UNL A   1      47.123  25.362  38.504  1.00  0.00    -0.237 OA
ATOM     76  O   UNL A   1      48.010  24.858  36.254  1.00  0.00    -0.237 OA
ATOM     77  O   UNL A   1      48.811  26.843  37.480  1.00  0.00    -0.744 OA
ENDBRANCH  73  74
ENDBRANCH  52  66
BRANCH  53  78
ATOM     78  C   UNL A   1      36.765  33.105  30.996  1.00  0.00     0.058 A 
ATOM     79  C   UNL A   1      35.441  32.804  31.349  1.00  0.00     0.135 A 
ATOM     80  C   UNL A   1      36.968  34.075  30.001  1.00  0.00     0.135 A 
ATOM     81  F   UNL A   1      35.193  31.874  32.284  1.00  0.00    -0.206 F 
ATOM     82  C   UNL A   1      34.359  33.418  30.725  1.00  0.00     0.059 A 
ATOM     83  C   UNL A   1      35.902  34.724  29.383  1.00  0.00     0.059 A 
ATOM     84  F   UNL A   1      38.213  34.410  29.630  1.00  0.00    -0.206 F 
ATOM     85  C   UNL A   1      34.600  34.378  29.742  1.00  0.00     0.060 A 
BRANCH  85  86
ATOM     86  S   UNL A   1      33.190  35.190  28.959  1.00  0.00     0.124 S 
ATOM     87  O   UNL A   1      32.758  34.178  28.004  1.00  0.00    -0.237 OA
ATOM     88  O   UNL A   1      32.301  35.421  30.093  1.00  0.00    -0.237 OA
ATOM     89  O   UNL A   1      33.778  36.396  28.378  1.00  0.00    -0.744 OA
ENDBRANCH  85  86
ENDBRANCH  53  78
BRANCH  65  90
ATOM     90  C   UNL A   1      39.821  33.657  37.251  1.00  0.00     0.058 A 
ATOM     91  C   UNL A   1      40.521  34.863  37.402  1.00  0.00     0.135 A 
ATOM     92  C   UNL A   1      38.839  33.347  38.206  1.00  0.00     0.135 A 
ATOM     93  F   UNL A   1      41.472  35.209  36.522  1.00  0.00    -0.206 F 
ATOM     94  C   UNL A   1      40.271  35.721  38.471  1.00  0.00     0.059 A 
ATOM     95  C   UNL A   1      38.550  34.203  39.265  1.00  0.00     0.059 A 
ATOM     96  F   UNL A   1      38.130  32.211  38.105  1.00  0.00    -0.206 F 
ATOM     97  C   UNL A   1      39.280  35.383  39.395  1.00  0.00     0.060 A 
BRANCH  97  98
ATOM     98  S   UNL A   1      38.938  36.523  40.754  1.00  0.00     0.124 S 
ATOM     99  O   UNL A   1      38.494  37.713  40.035  1.00  0.00    -0.237 OA
ATOM    100  O   UNL A   1      37.906  35.815  41.503  1.00  0.00    -0.237 OA
ATOM    101  O   UNL A   1      40.226  36.643  41.430  1.00  0.00    -0.744 OA
ENDBRANCH  97  98
ENDBRANCH  65  90
ENDBRANCH  39  40
ENDBRANCH  31  34
ENDBRANCH  29  30
ENDBRANCH  28  29
ENDBRANCH  27  28
ENDBRANCH   1  27
TORSDOF 19
ENDMDL
MODEL 3
REMARK VINA RESULT:     -12.0      6.544     11.815
REMARK SMILES CC(=O)Nc1ccc(/C=N/c2ccccc2C(=O)NCCCCCCNC(=O)c2ccc(-c3c4nc(c(-c5c(F)cc(S(=O)(=O)[O-])cc5F)c5ccc([nH]5)c(-c5c(F)cc(S(=O)(=O)[O-])cc5F)c5nc(c(-c6c(F)cc(S(=O)(=O)[O-])cc6F)c6ccc3[nH]6)C=C5)C=C4)cc2)cc1
REMARK SMILES IDX 22 1 21 2 20 3 19 4 17 5 18 6 16 8 11 9 12 10 13 11 15 12
REMARK SMILES IDX 14 13 10 14 9 15 8 16 5 17 6 18 96 19 7 20 95 21 4 22 1 23
REMARK SMILES IDX 2 24 3 25 23 27 24 28 25 29 26 30 27 31 28 33 29 34 30 35
REMARK SMILES IDX 94 36 31 37 93 38 32 39 33 40 34 41 87 42 35 43 92 44 86 45
REMARK SMILES IDX 88 46 36 47 91 48 85 49 84 50 37 52 71 53 50 54 70 55 51 56
REMARK SMILES IDX 54 57 69 58 89 59 52 60 53 61 68 63 90 64 55 65 38 66 39 67
REMARK SMILES IDX 48 68 40 69 41 70 47 71 49 72 42 73 43 74 44 75 45 76 46 77
REMARK SMILES IDX 72 78 73 79 82 80 74 81 75 82 81 83 83 84 76 85 77 86 78 87
REMARK SMILES IDX 79 88 80 89 56 90 57 91 66 92 58 93 59 94 65 95 67 96 60 97
REMARK SMILES IDX 61 98 62 99 63 100 64 101
REMARK H PARENT 19 7 4 26 26 32 88 51 54 62
REMARK Flexibility Score: inf
ROOT
ATOM      1  C   UNL A   1      36.981  23.461  25.263  1.00  0.00     0.002 C 
ENDROOT
BRANCH   1   2
ATOM      2  C   UNL A   1      36.988  22.221  24.360  1.00  0.00     0.021 C 
BRANCH   2   3
ATOM      3  C   UNL A   1      36.391  20.925  24.898  1.00  0.00     0.116 C 
BRANCH   3   4
ATOM      4  N   UNL A   1      35.313  21.064  25.849  1.00  0.00    -0.352 N 
ATOM      5  C   UNL A   1      34.052  20.510  25.824  1.00  0.00     0.253 C 
ATOM      6  O   UNL A   1      33.353  20.652  26.832  1.00  0.00    -0.269 OA
ATOM      7  H   UNL A   1      35.507  21.636  26.626  1.00  0.00     0.163 HD
BRANCH   5   8
ATOM      8  C   UNL A   1      33.441  19.835  24.636  1.00  0.00     0.065 A 
ATOM      9  C   UNL A   1      32.690  20.432  23.602  1.00  0.00     0.076 A 
ATOM     10  C   UNL A   1      32.189  19.612  22.574  1.00  0.00     0.029 A 
ATOM     11  C   UNL A   1      32.455  18.243  22.524  1.00  0.00     0.002 A 
ATOM     12  C   UNL A   1      33.726  18.453  24.555  1.00  0.00     0.016 A 
ATOM     13  C   UNL A   1      33.236  17.663  23.513  1.00  0.00     0.001 A 
BRANCH   9  14
ATOM     14  N   UNL A   1      32.303  21.780  23.533  1.00  0.00    -0.255 NA
ATOM     15  C   UNL A   1      33.199  22.673  23.268  1.00  0.00     0.119 C 
BRANCH  15  16
ATOM     16  C   UNL A   1      32.848  24.108  23.315  1.00  0.00    -0.007 A 
ATOM     17  C   UNL A   1      32.425  26.858  23.726  1.00  0.00     0.041 A 
ATOM     18  C   UNL A   1      31.450  25.923  24.102  1.00  0.00     0.027 A 
ATOM     19  C   UNL A   1      33.598  26.394  23.121  1.00  0.00     0.027 A 
ATOM     20  C   UNL A   1      31.660  24.552  23.903  1.00  0.00     0.012 A 
ATOM     21  C   UNL A   1      33.809  25.028  22.905  1.00  0.00     0.012 A 
BRANCH  17  22
ATOM     22  N   UNL A   1      32.225  28.195  24.119  1.00  0.00    -0.326 N 
ATOM     23  C   UNL A   1      33.709  28.388  26.116  1.00  0.00     0.114 C 
ATOM     24  C   UNL A   1      32.601  28.883  25.237  1.00  0.00     0.221 C 
ATOM     25  O   UNL A   1      32.046  29.950  25.504  1.00  0.00    -0.275 OA
ATOM     26  H   UNL A   1      31.721  28.734  23.468  1.00  0.00     0.169 HD
ENDBRANCH  17  22
ENDBRANCH  15  16
ENDBRANCH   9  14
ENDBRANCH   5   8
ENDBRANCH   3   4
ENDBRANCH   2   3
ENDBRANCH   1   2
BRANCH   1  27
ATOM     27  C   UNL A   1      38.220  23.759  26.115  1.00  0.00     0.002 C 
BRANCH  27  28
ATOM     28  C   UNL A   1      39.191  22.613  26.387  1.00  0.00     0.021 C 
BRANCH  28  29
ATOM     29  C   UNL A   1      40.543  22.935  27.013  1.00  0.00     0.116 C 
BRANCH  29  30
ATOM     30  N   UNL A   1      41.401  23.717  26.140  1.00  0.00    -0.352 N 
ATOM     31  C   UNL A   1      41.834  25.024  26.176  1.00  0.00     0.251 C 
ATOM     32  H   UNL A   1      41.741  23.212  25.367  1.00  0.00     0.163 HD
ATOM     33  O   UNL A   1      42.515  25.417  25.227  1.00  0.00    -0.269 OA
BRANCH  31  34
ATOM     34  C   UNL A   1      41.516  25.978  27.282  1.00  0.00     0.039 A 
ATOM     35  C   UNL A   1      42.374  27.073  27.468  1.00  0.00     0.014 A 
ATOM     36  C   UNL A   1      40.464  25.807  28.182  1.00  0.00     0.014 A 
ATOM     37  C   UNL A   1      42.150  28.010  28.489  1.00  0.00     0.010 A 
ATOM     38  C   UNL A   1      40.205  26.769  29.171  1.00  0.00     0.010 A 
ATOM     39  C   UNL A   1      41.052  27.876  29.344  1.00  0.00    -0.014 A 
BRANCH  39  40
ATOM     40  C   UNL A   1      40.832  28.825  30.473  1.00  0.00     0.031 A 
ATOM     41  C   UNL A   1      41.665  28.700  31.724  1.00  0.00     0.074 A 
ATOM     42  C   UNL A   1      39.881  29.780  30.403  1.00  0.00     0.049 A 
ATOM     43  N   UNL A   1      41.592  29.374  32.844  1.00  0.00    -0.248 NA
ATOM     44  C   UNL A   1      42.714  27.667  31.717  1.00  0.00     0.031 C 
ATOM     45  C   UNL A   1      39.006  30.021  29.255  1.00  0.00     0.029 A 
ATOM     46  N   UNL A   1      39.485  30.722  31.324  1.00  0.00    -0.354 N 
ATOM     47  C   UNL A   1      42.572  28.843  33.674  1.00  0.00     0.074 A 
ATOM     48  C   UNL A   1      43.195  27.757  32.948  1.00  0.00     0.031 C 
ATOM     49  C   UNL A   1      38.177  31.041  29.541  1.00  0.00     0.029 A 
ATOM     50  C   UNL A   1      38.438  31.509  30.901  1.00  0.00     0.049 A 
ATOM     51  H   UNL A   1      39.911  30.824  32.206  1.00  0.00     0.167 HD
ATOM     52  C   UNL A   1      42.938  29.234  34.919  1.00  0.00     0.037 A 
ATOM     53  C   UNL A   1      37.758  32.487  31.537  1.00  0.00     0.037 A 
ATOM     54  C   UNL A   1      42.334  30.327  35.636  1.00  0.00     0.049 A 
ATOM     55  C   UNL A   1      38.156  32.875  32.941  1.00  0.00     0.074 A 
ATOM     56  C   UNL A   1      42.665  30.820  36.888  1.00  0.00     0.029 A 
ATOM     57  N   UNL A   1      41.276  31.095  35.173  1.00  0.00    -0.354 N 
ATOM     58  N   UNL A   1      39.115  32.390  33.693  1.00  0.00    -0.248 NA
ATOM     59  C   UNL A   1      37.380  33.949  33.582  1.00  0.00     0.031 C 
ATOM     60  C   UNL A   1      41.773  31.847  37.204  1.00  0.00     0.029 A 
ATOM     61  C   UNL A   1      40.925  32.038  36.125  1.00  0.00     0.049 A 
ATOM     62  H   UNL A   1      40.840  30.985  34.298  1.00  0.00     0.167 HD
ATOM     63  C   UNL A   1      39.083  33.125  34.875  1.00  0.00     0.074 A 
ATOM     64  C   UNL A   1      38.015  34.091  34.738  1.00  0.00     0.031 C 
ATOM     65  C   UNL A   1      39.870  33.010  35.974  1.00  0.00     0.037 A 
BRANCH  52  66
ATOM     66  C   UNL A   1      44.044  28.469  35.596  1.00  0.00     0.058 A 
ATOM     67  C   UNL A   1      45.392  28.837  35.455  1.00  0.00     0.135 A 
ATOM     68  C   UNL A   1      43.749  27.382  36.435  1.00  0.00     0.135 A 
ATOM     69  F   UNL A   1      45.734  29.859  34.654  1.00  0.00    -0.206 F 
ATOM     70  C   UNL A   1      46.408  28.140  36.101  1.00  0.00     0.059 A 
ATOM     71  C   UNL A   1      44.745  26.690  37.115  1.00  0.00     0.059 A 
ATOM     72  F   UNL A   1      42.477  26.987  36.606  1.00  0.00    -0.206 F 
ATOM     73  C   UNL A   1      46.074  27.069  36.932  1.00  0.00     0.060 A 
BRANCH  73  74
ATOM     74  S   UNL A   1      47.405  26.185  37.771  1.00  0.00     0.124 S 
ATOM     75  O   UNL A   1      47.054  24.796  37.492  1.00  0.00    -0.237 OA
ATOM     76  O   UNL A   1      48.592  26.689  37.091  1.00  0.00    -0.237 OA
ATOM     77  O   UNL A   1      47.262  26.598  39.166  1.00  0.00    -0.744 OA
ENDBRANCH  73  74
ENDBRANCH  52  66
BRANCH  53  78
ATOM     78  C   UNL A   1      36.624  33.179  30.861  1.00  0.00     0.058 A 
ATOM     79  C   UNL A   1      36.849  34.146  29.869  1.00  0.00     0.135 A 
ATOM     80  C   UNL A   1      35.293  32.907  31.214  1.00  0.00     0.135 A 
ATOM     81  F   UNL A   1      38.104  34.452  29.505  1.00  0.00    -0.206 F 
ATOM     82  C   UNL A   1      35.800  34.837  29.269  1.00  0.00     0.059 A 
ATOM     83  C   UNL A   1      34.225  33.564  30.607  1.00  0.00     0.059 A 
ATOM     84  F   UNL A   1      35.018  31.986  32.149  1.00  0.00    -0.206 F 
ATOM     85  C   UNL A   1      34.490  34.538  29.645  1.00  0.00     0.060 A 
BRANCH  85  86
ATOM     86  S   UNL A   1      33.134  35.418  28.839  1.00  0.00     0.124 S 
ATOM     87  O   UNL A   1      32.483  34.345  28.098  1.00  0.00    -0.237 OA
ATOM     88  O   UNL A   1      32.394  35.951  29.979  1.00  0.00    -0.237 OA
ATOM     89  O   UNL A   1      33.823  36.419  28.026  1.00  0.00    -0.744 OA
ENDBRANCH  85  86
ENDBRANCH  53  78
BRANCH  65  90
ATOM     90  C   UNL A   1      39.648  33.982  37.105  1.00  0.00     0.058 A 
ATOM     91  C   UNL A   1      38.869  33.653  38.224  1.00  0.00     0.135 A 
ATOM     92  C   UNL A   1      40.279  35.237  37.093  1.00  0.00     0.135 A 
ATOM     93  F   UNL A   1      38.240  32.470  38.288  1.00  0.00    -0.206 F 
ATOM     94  C   UNL A   1      38.706  34.543  39.284  1.00  0.00     0.059 A 
ATOM     95  C   UNL A   1      40.156  36.129  38.155  1.00  0.00     0.059 A 
ATOM     96  F   UNL A   1      41.046  35.599  36.053  1.00  0.00    -0.206 F 
ATOM     97  C   UNL A   1      39.357  35.777  39.241  1.00  0.00     0.060 A 
BRANCH  97  98
ATOM     98  S   UNL A   1      39.168  36.905  40.639  1.00  0.00     0.124 S 
ATOM     99  O   UNL A   1      38.491  36.055  41.613  1.00  0.00    -0.237 OA
ATOM    100  O   UNL A   1      40.552  37.246  40.952  1.00  0.00    -0.237 OA
ATOM    101  O   UNL A   1      38.367  37.995  40.093  1.00  0.00    -0.744 OA
ENDBRANCH  97  98
ENDBRANCH  65  90
ENDBRANCH  39  40
ENDBRANCH  31  34
ENDBRANCH  29  30
ENDBRANCH  28  29
ENDBRANCH  27  28
ENDBRANCH   1  27
TORSDOF 19
ENDMDL
