MODEL 1
REMARK VINA RESULT:     -11.8      0.000      0.000
REMARK SMILES CCc1ccc2c(c1)C=C(C(=O)NCCCCCCNC(=O)c1ccc(-c3c4nc(c(-c5c(F)cc(S(=O)(=O)[O-])cc5F)c5ccc([nH]5)c(-c5c(F)cc(S(=O)(=O)[O-])cc5F)c5nc(c(-c6c(F)cc(S(=O)(=O)[O-])cc6F)c6ccc3[nH]6)C=C5)C=C4)cc1)[C@H](C(F)(F)F)O2
REMARK SMILES IDX 17 1 16 2 15 3 14 4 13 5 11 6 12 7 10 9 3 10 4 11 8 12 5 13
REMARK SMILES IDX 7 14 6 15 9 16 94 17 89 18 2 19 1 20 90 21 91 22 92 23 93 24
REMARK SMILES IDX 18 25 19 26 20 27 21 28 22 30 23 31 24 32 88 33 25 34 87 35
REMARK SMILES IDX 26 36 27 37 28 38 81 39 29 40 86 41 80 42 82 43 30 44 85 45
REMARK SMILES IDX 79 46 78 47 31 49 65 50 44 51 64 52 45 53 48 54 63 55 83 56
REMARK SMILES IDX 46 57 47 58 62 60 84 61 49 62 32 63 33 64 42 65 34 66 35 67
REMARK SMILES IDX 41 68 43 69 36 70 37 71 38 72 39 73 40 74 66 75 67 76 76 77
REMARK SMILES IDX 68 78 69 79 75 80 77 81 70 82 71 83 72 84 73 85 74 86 50 87
REMARK SMILES IDX 51 88 60 89 52 90 53 91 59 92 61 93 54 94 55 95 56 96 57 97
REMARK SMILES IDX 58 98
REMARK H PARENT 13 8 20 29 82 48 48 59
REMARK Flexibility Score: inf
ROOT
ATOM      1  C   UNL A   1      36.276  23.397  25.773  1.00  0.00     0.002 C 
ENDROOT
BRANCH   1   2
ATOM      2  C   UNL A   1      35.367  22.218  25.403  1.00  0.00     0.002 C 
BRANCH   2   3
ATOM      3  C   UNL A   1      33.947  22.302  25.983  1.00  0.00     0.021 C 
BRANCH   3   4
ATOM      4  C   UNL A   1      32.859  22.358  24.901  1.00  0.00     0.116 C 
BRANCH   4   5
ATOM      5  N   UNL A   1      33.365  23.082  23.745  1.00  0.00    -0.352 N 
ATOM      6  C   UNL A   1      33.307  24.386  23.371  1.00  0.00     0.251 C 
ATOM      7  O   UNL A   1      33.650  24.672  22.226  1.00  0.00    -0.270 OA
ATOM      8  H   UNL A   1      33.847  22.510  23.104  1.00  0.00     0.163 HD
BRANCH   6   9
ATOM      9  C   UNL A   1      32.933  25.477  24.309  1.00  0.00     0.067 C 
ATOM     10  C   UNL A   1      33.979  29.283  27.112  1.00  0.00    -0.047 A 
ATOM     11  C   UNL A   1      32.618  29.619  27.135  1.00  0.00     0.007 A 
ATOM     12  C   UNL A   1      34.366  28.124  26.425  1.00  0.00     0.015 A 
ATOM     13  C   UNL A   1      31.671  28.819  26.488  1.00  0.00     0.047 A 
ATOM     14  C   UNL A   1      33.417  27.316  25.785  1.00  0.00     0.017 A 
ATOM     15  C   UNL A   1      32.074  27.672  25.809  1.00  0.00     0.128 A 
ATOM     16  C   UNL A   1      33.848  26.174  24.998  1.00  0.00     0.025 C 
ATOM     17  O   UNL A   1      31.111  26.995  25.124  1.00  0.00    -0.475 OA
ATOM     18  C   UNL A   1      31.445  25.681  24.582  1.00  0.00     0.314 C 
BRANCH  10  19
ATOM     19  C   UNL A   1      34.985  30.223  27.738  1.00  0.00     0.032 C 
ATOM     20  C   UNL A   1      34.578  31.691  27.779  1.00  0.00     0.009 C 
ENDBRANCH  10  19
BRANCH  18  21
ATOM     21  C   UNL A   1      30.467  25.414  23.414  1.00  0.00     0.429 C 
ATOM     22  F   UNL A   1      30.292  24.096  23.166  1.00  0.00    -0.167 F 
ATOM     23  F   UNL A   1      29.223  25.887  23.707  1.00  0.00    -0.167 F 
ATOM     24  F   UNL A   1      30.851  26.016  22.265  1.00  0.00    -0.167 F 
ENDBRANCH  18  21
ENDBRANCH   6   9
ENDBRANCH   4   5
ENDBRANCH   3   4
ENDBRANCH   2   3
ENDBRANCH   1   2
BRANCH   1  25
ATOM     25  C   UNL A   1      37.765  23.053  25.869  1.00  0.00     0.021 C 
BRANCH  25  26
ATOM     26  C   UNL A   1      38.611  24.128  26.544  1.00  0.00     0.116 C 
BRANCH  26  27
ATOM     27  N   UNL A   1      39.996  24.066  26.106  1.00  0.00    -0.352 N 
ATOM     28  C   UNL A   1      41.031  24.923  26.387  1.00  0.00     0.251 C 
ATOM     29  H   UNL A   1      40.224  23.302  25.529  1.00  0.00     0.163 HD
ATOM     30  O   UNL A   1      42.068  24.865  25.735  1.00  0.00    -0.269 OA
BRANCH  28  31
ATOM     31  C   UNL A   1      40.885  25.918  27.470  1.00  0.00     0.039 A 
ATOM     32  C   UNL A   1      39.899  25.727  28.441  1.00  0.00     0.014 A 
ATOM     33  C   UNL A   1      41.705  27.050  27.512  1.00  0.00     0.014 A 
ATOM     34  C   UNL A   1      39.760  26.654  29.475  1.00  0.00     0.010 A 
ATOM     35  C   UNL A   1      41.613  27.933  28.584  1.00  0.00     0.010 A 
ATOM     36  C   UNL A   1      40.630  27.754  29.567  1.00  0.00    -0.014 A 
BRANCH  36  37
ATOM     37  C   UNL A   1      40.504  28.748  30.663  1.00  0.00     0.031 A 
ATOM     38  C   UNL A   1      41.374  28.628  31.885  1.00  0.00     0.074 A 
ATOM     39  C   UNL A   1      39.571  29.719  30.584  1.00  0.00     0.049 A 
ATOM     40  N   UNL A   1      41.365  29.344  32.980  1.00  0.00    -0.248 NA
ATOM     41  C   UNL A   1      42.367  27.541  31.891  1.00  0.00     0.031 C 
ATOM     42  C   UNL A   1      38.641  29.911  29.468  1.00  0.00     0.029 A 
ATOM     43  N   UNL A   1      39.244  30.720  31.462  1.00  0.00    -0.354 N 
ATOM     44  C   UNL A   1      42.332  28.786  33.808  1.00  0.00     0.074 A 
ATOM     45  C   UNL A   1      42.872  27.639  33.112  1.00  0.00     0.031 C 
ATOM     46  C   UNL A   1      37.863  30.976  29.722  1.00  0.00     0.029 A 
ATOM     47  C   UNL A   1      38.212  31.520  31.030  1.00  0.00     0.049 A 
ATOM     48  H   UNL A   1      39.705  30.853  32.322  1.00  0.00     0.167 HD
ATOM     49  C   UNL A   1      42.748  29.205  35.026  1.00  0.00     0.037 A 
ATOM     50  C   UNL A   1      37.611  32.568  31.626  1.00  0.00     0.037 A 
ATOM     51  C   UNL A   1      42.231  30.370  35.694  1.00  0.00     0.049 A 
ATOM     52  C   UNL A   1      38.097  33.017  32.980  1.00  0.00     0.074 A 
ATOM     53  C   UNL A   1      42.628  30.916  36.902  1.00  0.00     0.029 A 
ATOM     54  N   UNL A   1      41.206  31.170  35.212  1.00  0.00    -0.354 N 
ATOM     55  N   UNL A   1      39.055  32.514  33.720  1.00  0.00    -0.248 NA
ATOM     56  C   UNL A   1      37.426  34.182  33.574  1.00  0.00     0.031 C 
ATOM     57  C   UNL A   1      41.813  32.019  37.172  1.00  0.00     0.029 A 
ATOM     58  C   UNL A   1      40.944  32.193  36.107  1.00  0.00     0.049 A 
ATOM     59  H   UNL A   1      40.734  31.030  34.359  1.00  0.00     0.167 HD
ATOM     60  C   UNL A   1      39.126  33.321  34.851  1.00  0.00     0.074 A 
ATOM     61  C   UNL A   1      38.120  34.350  34.692  1.00  0.00     0.031 C 
ATOM     62  C   UNL A   1      39.950  33.222  35.923  1.00  0.00     0.037 A 
BRANCH  49  63
ATOM     63  C   UNL A   1      43.822  28.407  35.715  1.00  0.00     0.058 A 
ATOM     64  C   UNL A   1      45.185  28.685  35.528  1.00  0.00     0.135 A 
ATOM     65  C   UNL A   1      43.481  27.381  36.613  1.00  0.00     0.135 A 
ATOM     66  F   UNL A   1      45.568  29.642  34.668  1.00  0.00    -0.206 F 
ATOM     67  C   UNL A   1      46.173  27.962  36.187  1.00  0.00     0.059 A 
ATOM     68  C   UNL A   1      44.452  26.665  37.307  1.00  0.00     0.059 A 
ATOM     69  F   UNL A   1      42.193  27.072  36.829  1.00  0.00    -0.206 F 
ATOM     70  C   UNL A   1      45.796  26.954  37.079  1.00  0.00     0.060 A 
BRANCH  70  71
ATOM     71  S   UNL A   1      47.091  26.040  37.941  1.00  0.00     0.124 S 
ATOM     72  O   UNL A   1      47.102  26.706  39.241  1.00  0.00    -0.237 OA
ATOM     73  O   UNL A   1      46.569  24.678  37.932  1.00  0.00    -0.237 OA
ATOM     74  O   UNL A   1      48.273  26.261  37.114  1.00  0.00    -0.744 OA
ENDBRANCH  70  71
ENDBRANCH  49  63
BRANCH  50  75
ATOM     75  C   UNL A   1      36.497  33.281  30.943  1.00  0.00     0.058 A 
ATOM     76  C   UNL A   1      36.746  34.147  29.869  1.00  0.00     0.135 A 
ATOM     77  C   UNL A   1      35.165  33.117  31.354  1.00  0.00     0.135 A 
ATOM     78  F   UNL A   1      38.003  34.341  29.441  1.00  0.00    -0.206 F 
ATOM     79  C   UNL A   1      35.720  34.849  29.244  1.00  0.00     0.059 A 
ATOM     80  C   UNL A   1      34.118  33.786  30.728  1.00  0.00     0.059 A 
ATOM     81  F   UNL A   1      34.870  32.284  32.365  1.00  0.00    -0.206 F 
ATOM     82  C   UNL A   1      34.408  34.662  29.682  1.00  0.00     0.060 A 
BRANCH  82  83
ATOM     83  S   UNL A   1      33.080  35.558  28.849  1.00  0.00     0.124 S 
ATOM     84  O   UNL A   1      33.832  36.501  28.029  1.00  0.00    -0.237 OA
ATOM     85  O   UNL A   1      32.393  34.490  28.130  1.00  0.00    -0.237 OA
ATOM     86  O   UNL A   1      32.327  36.144  29.956  1.00  0.00    -0.744 OA
ENDBRANCH  82  83
ENDBRANCH  50  75
BRANCH  62  87
ATOM     87  C   UNL A   1      39.836  34.278  36.986  1.00  0.00     0.058 A 
ATOM     88  C   UNL A   1      40.524  35.497  36.897  1.00  0.00     0.135 A 
ATOM     89  C   UNL A   1      38.980  34.086  38.084  1.00  0.00     0.135 A 
ATOM     90  F   UNL A   1      41.358  35.730  35.871  1.00  0.00    -0.206 F 
ATOM     91  C   UNL A   1      40.388  36.481  37.872  1.00  0.00     0.059 A 
ATOM     92  C   UNL A   1      38.807  35.066  39.055  1.00  0.00     0.059 A 
ATOM     93  F   UNL A   1      38.290  32.942  38.212  1.00  0.00    -0.206 F 
ATOM     94  C   UNL A   1      39.524  36.256  38.946  1.00  0.00     0.060 A 
BRANCH  94  95
ATOM     95  S   UNL A   1      39.330  37.554  40.186  1.00  0.00     0.124 S 
ATOM     96  O   UNL A   1      38.251  38.350  39.611  1.00  0.00    -0.237 OA
ATOM     97  O   UNL A   1      38.989  36.794  41.384  1.00  0.00    -0.237 OA
ATOM     98  O   UNL A   1      40.640  38.199  40.210  1.00  0.00    -0.744 OA
ENDBRANCH  94  95
ENDBRANCH  62  87
ENDBRANCH  36  37
ENDBRANCH  28  31
ENDBRANCH  26  27
ENDBRANCH  25  26
ENDBRANCH   1  25
TORSDOF 18
ENDMDL
MODEL 2
REMARK VINA RESULT:     -11.6      6.623     12.048
REMARK SMILES CCc1ccc2c(c1)C=C(C(=O)NCCCCCCNC(=O)c1ccc(-c3c4nc(c(-c5c(F)cc(S(=O)(=O)[O-])cc5F)c5ccc([nH]5)c(-c5c(F)cc(S(=O)(=O)[O-])cc5F)c5nc(c(-c6c(F)cc(S(=O)(=O)[O-])cc6F)c6ccc3[nH]6)C=C5)C=C4)cc1)[C@H](C(F)(F)F)O2
REMARK SMILES IDX 17 1 16 2 15 3 14 4 13 5 11 6 12 7 10 9 3 10 4 11 8 12 5 13
REMARK SMILES IDX 7 14 6 15 9 16 94 17 89 18 2 19 1 20 90 21 91 22 92 23 93 24
REMARK SMILES IDX 18 25 19 26 20 27 21 28 22 30 23 31 24 32 88 33 25 34 87 35
REMARK SMILES IDX 26 36 27 37 28 38 81 39 29 40 86 41 80 42 82 43 30 44 85 45
REMARK SMILES IDX 79 46 78 47 31 49 65 50 44 51 64 52 45 53 48 54 63 55 83 56
REMARK SMILES IDX 46 57 47 58 62 60 84 61 49 62 32 63 33 64 42 65 34 66 35 67
REMARK SMILES IDX 41 68 43 69 36 70 37 71 38 72 39 73 40 74 66 75 67 76 76 77
REMARK SMILES IDX 68 78 69 79 75 80 77 81 70 82 71 83 72 84 73 85 74 86 50 87
REMARK SMILES IDX 51 88 60 89 52 90 53 91 59 92 61 93 54 94 55 95 56 96 57 97
REMARK SMILES IDX 58 98
REMARK H PARENT 13 8 20 29 82 48 48 59
REMARK Flexibility Score: inf
ROOT
ATOM      1  C   UNL A   1      32.791  29.558  26.981  1.00  0.00     0.002 C 
ENDROOT
BRANCH   1   2
ATOM      2  C   UNL A   1      31.788  29.552  25.820  1.00  0.00     0.002 C 
BRANCH   2   3
ATOM      3  C   UNL A   1      32.297  28.871  24.542  1.00  0.00     0.021 C 
BRANCH   3   4
ATOM      4  C   UNL A   1      31.465  27.644  24.144  1.00  0.00     0.116 C 
BRANCH   4   5
ATOM      5  N   UNL A   1      31.129  26.881  25.336  1.00  0.00    -0.352 N 
ATOM      6  C   UNL A   1      31.524  25.667  25.801  1.00  0.00     0.251 C 
ATOM      7  O   UNL A   1      30.907  25.185  26.748  1.00  0.00    -0.270 OA
ATOM      8  H   UNL A   1      30.486  27.337  25.926  1.00  0.00     0.163 HD
BRANCH   6   9
ATOM      9  C   UNL A   1      32.714  24.950  25.272  1.00  0.00     0.067 C 
ATOM     10  C   UNL A   1      37.291  23.403  25.581  1.00  0.00    -0.047 A 
ATOM     11  C   UNL A   1      37.035  22.491  24.546  1.00  0.00     0.007 A 
ATOM     12  C   UNL A   1      36.262  24.271  25.971  1.00  0.00     0.015 A 
ATOM     13  C   UNL A   1      35.785  22.449  23.922  1.00  0.00     0.047 A 
ATOM     14  C   UNL A   1      35.012  24.237  25.339  1.00  0.00     0.017 A 
ATOM     15  C   UNL A   1      34.774  23.318  24.324  1.00  0.00     0.128 A 
ATOM     16  C   UNL A   1      33.929  25.076  25.822  1.00  0.00     0.025 C 
ATOM     17  O   UNL A   1      33.555  23.155  23.736  1.00  0.00    -0.475 OA
ATOM     18  C   UNL A   1      32.536  24.174  23.969  1.00  0.00     0.314 C 
BRANCH  10  19
ATOM     19  C   UNL A   1      38.621  23.355  26.299  1.00  0.00     0.032 C 
ATOM     20  C   UNL A   1      39.380  22.038  26.190  1.00  0.00     0.009 C 
ENDBRANCH  10  19
BRANCH  18  21
ATOM     21  C   UNL A   1      31.165  23.502  23.726  1.00  0.00     0.429 C 
ATOM     22  F   UNL A   1      30.656  22.927  24.839  1.00  0.00    -0.167 F 
ATOM     23  F   UNL A   1      30.235  24.423  23.348  1.00  0.00    -0.167 F 
ATOM     24  F   UNL A   1      31.207  22.569  22.747  1.00  0.00    -0.167 F 
ENDBRANCH  18  21
ENDBRANCH   6   9
ENDBRANCH   4   5
ENDBRANCH   3   4
ENDBRANCH   2   3
ENDBRANCH   1   2
BRANCH   1  25
ATOM     25  C   UNL A   1      34.261  29.485  26.559  1.00  0.00     0.021 C 
BRANCH  25  26
ATOM     26  C   UNL A   1      35.203  29.006  27.660  1.00  0.00     0.116 C 
BRANCH  26  27
ATOM     27  N   UNL A   1      35.182  29.904  28.803  1.00  0.00    -0.352 N 
ATOM     28  C   UNL A   1      36.193  30.212  29.680  1.00  0.00     0.251 C 
ATOM     29  H   UNL A   1      34.323  30.356  28.973  1.00  0.00     0.163 HD
ATOM     30  O   UNL A   1      35.937  30.788  30.731  1.00  0.00    -0.269 OA
BRANCH  28  31
ATOM     31  C   UNL A   1      37.586  29.839  29.352  1.00  0.00     0.039 A 
ATOM     32  C   UNL A   1      38.446  29.450  30.380  1.00  0.00     0.014 A 
ATOM     33  C   UNL A   1      38.046  29.899  28.032  1.00  0.00     0.014 A 
ATOM     34  C   UNL A   1      39.760  29.084  30.081  1.00  0.00     0.010 A 
ATOM     35  C   UNL A   1      39.332  29.464  27.727  1.00  0.00     0.010 A 
ATOM     36  C   UNL A   1      40.207  29.069  28.749  1.00  0.00    -0.014 A 
BRANCH  36  37
ATOM     37  C   UNL A   1      41.598  28.677  28.407  1.00  0.00     0.031 A 
ATOM     38  C   UNL A   1      42.683  29.721  28.372  1.00  0.00     0.074 A 
ATOM     39  C   UNL A   1      41.873  27.399  28.074  1.00  0.00     0.049 A 
ATOM     40  N   UNL A   1      43.937  29.598  28.024  1.00  0.00    -0.248 NA
ATOM     41  C   UNL A   1      42.299  31.092  28.750  1.00  0.00     0.031 C 
ATOM     42  C   UNL A   1      40.897  26.308  28.031  1.00  0.00     0.029 A 
ATOM     43  N   UNL A   1      43.050  26.805  27.698  1.00  0.00    -0.354 N 
ATOM     44  C   UNL A   1      44.486  30.872  28.122  1.00  0.00     0.074 A 
ATOM     45  C   UNL A   1      43.416  31.764  28.512  1.00  0.00     0.031 C 
ATOM     46  C   UNL A   1      41.521  25.174  27.670  1.00  0.00     0.029 A 
ATOM     47  C   UNL A   1      42.929  25.464  27.421  1.00  0.00     0.049 A 
ATOM     48  H   UNL A   1      43.903  27.293  27.634  1.00  0.00     0.167 HD
ATOM     49  C   UNL A   1      45.769  31.258  27.930  1.00  0.00     0.037 A 
ATOM     50  C   UNL A   1      43.848  24.571  27.005  1.00  0.00     0.037 A 
ATOM     51  C   UNL A   1      46.835  30.357  27.579  1.00  0.00     0.049 A 
ATOM     52  C   UNL A   1      45.271  25.026  26.803  1.00  0.00     0.074 A 
ATOM     53  C   UNL A   1      48.181  30.637  27.423  1.00  0.00     0.029 A 
ATOM     54  N   UNL A   1      46.678  29.001  27.334  1.00  0.00    -0.354 N 
ATOM     55  N   UNL A   1      45.784  26.223  26.961  1.00  0.00    -0.248 NA
ATOM     56  C   UNL A   1      46.240  24.008  26.375  1.00  0.00     0.031 C 
ATOM     57  C   UNL A   1      48.830  29.460  27.037  1.00  0.00     0.029 A 
ATOM     58  C   UNL A   1      47.898  28.435  27.008  1.00  0.00     0.049 A 
ATOM     59  H   UNL A   1      45.824  28.514  27.384  1.00  0.00     0.167 HD
ATOM     60  C   UNL A   1      47.141  26.094  26.686  1.00  0.00     0.074 A 
ATOM     61  C   UNL A   1      47.370  24.702  26.361  1.00  0.00     0.031 C 
ATOM     62  C   UNL A   1      48.111  27.041  26.704  1.00  0.00     0.037 A 
BRANCH  49  63
ATOM     63  C   UNL A   1      46.097  32.717  28.101  1.00  0.00     0.058 A 
ATOM     64  C   UNL A   1      46.560  33.232  29.323  1.00  0.00     0.135 A 
ATOM     65  C   UNL A   1      45.995  33.603  27.015  1.00  0.00     0.135 A 
ATOM     66  F   UNL A   1      46.660  32.435  30.399  1.00  0.00    -0.206 F 
ATOM     67  C   UNL A   1      46.887  34.575  29.469  1.00  0.00     0.059 A 
ATOM     68  C   UNL A   1      46.345  34.944  27.131  1.00  0.00     0.059 A 
ATOM     69  F   UNL A   1      45.557  33.164  25.825  1.00  0.00    -0.206 F 
ATOM     70  C   UNL A   1      46.780  35.425  28.366  1.00  0.00     0.060 A 
BRANCH  70  71
ATOM     71  S   UNL A   1      47.228  37.161  28.568  1.00  0.00     0.124 S 
ATOM     72  O   UNL A   1      45.915  37.792  28.664  1.00  0.00    -0.237 OA
ATOM     73  O   UNL A   1      48.011  37.139  29.799  1.00  0.00    -0.237 OA
ATOM     74  O   UNL A   1      47.981  37.462  27.355  1.00  0.00    -0.744 OA
ENDBRANCH  70  71
ENDBRANCH  49  63
BRANCH  50  75
ATOM     75  C   UNL A   1      43.463  23.153  26.769  1.00  0.00     0.058 A 
ATOM     76  C   UNL A   1      43.178  22.295  27.841  1.00  0.00     0.135 A 
ATOM     77  C   UNL A   1      43.380  22.626  25.471  1.00  0.00     0.135 A 
ATOM     78  F   UNL A   1      43.248  22.751  29.102  1.00  0.00    -0.206 F 
ATOM     79  C   UNL A   1      42.853  20.958  27.639  1.00  0.00     0.059 A 
ATOM     80  C   UNL A   1      43.030  21.299  25.241  1.00  0.00     0.059 A 
ATOM     81  F   UNL A   1      43.625  23.409  24.409  1.00  0.00    -0.206 F 
ATOM     82  C   UNL A   1      42.783  20.468  26.334  1.00  0.00     0.060 A 
BRANCH  82  83
ATOM     83  S   UNL A   1      42.335  18.737  26.080  1.00  0.00     0.124 S 
ATOM     84  O   UNL A   1      40.922  18.846  25.740  1.00  0.00    -0.237 OA
ATOM     85  O   UNL A   1      43.227  18.346  24.993  1.00  0.00    -0.237 OA
ATOM     86  O   UNL A   1      42.629  18.124  27.373  1.00  0.00    -0.744 OA
ENDBRANCH  82  83
ENDBRANCH  50  75
BRANCH  62  87
ATOM     87  C   UNL A   1      49.518  26.600  26.412  1.00  0.00     0.058 A 
ATOM     88  C   UNL A   1      50.311  25.962  27.377  1.00  0.00     0.135 A 
ATOM     89  C   UNL A   1      50.059  26.769  25.126  1.00  0.00     0.135 A 
ATOM     90  F   UNL A   1      49.845  25.779  28.623  1.00  0.00    -0.206 F 
ATOM     91  C   UNL A   1      51.602  25.530  27.087  1.00  0.00     0.059 A 
ATOM     92  C   UNL A   1      51.335  26.320  24.805  1.00  0.00     0.059 A 
ATOM     93  F   UNL A   1      49.338  27.363  24.162  1.00  0.00    -0.206 F 
ATOM     94  C   UNL A   1      52.103  25.711  25.796  1.00  0.00     0.060 A 
BRANCH  94  95
ATOM     95  S   UNL A   1      53.766  25.115  25.423  1.00  0.00     0.124 S 
ATOM     96  O   UNL A   1      54.540  25.706  26.510  1.00  0.00    -0.237 OA
ATOM     97  O   UNL A   1      53.598  23.666  25.479  1.00  0.00    -0.237 OA
ATOM     98  O   UNL A   1      54.032  25.660  24.095  1.00  0.00    -0.744 OA
ENDBRANCH  94  95
ENDBRANCH  62  87
ENDBRANCH  36  37
ENDBRANCH  28  31
ENDBRANCH  26  27
ENDBRANCH  25  26
ENDBRANCH   1  25
TORSDOF 18
ENDMDL
MODEL 3
REMARK VINA RESULT:     -11.6      0.292      1.539
REMARK SMILES CCc1ccc2c(c1)C=C(C(=O)NCCCCCCNC(=O)c1ccc(-c3c4nc(c(-c5c(F)cc(S(=O)(=O)[O-])cc5F)c5ccc([nH]5)c(-c5c(F)cc(S(=O)(=O)[O-])cc5F)c5nc(c(-c6c(F)cc(S(=O)(=O)[O-])cc6F)c6ccc3[nH]6)C=C5)C=C4)cc1)[C@H](C(F)(F)F)O2
REMARK SMILES IDX 17 1 16 2 15 3 14 4 13 5 11 6 12 7 10 9 3 10 4 11 8 12 5 13
REMARK SMILES IDX 7 14 6 15 9 16 94 17 89 18 2 19 1 20 90 21 91 22 92 23 93 24
REMARK SMILES IDX 18 25 19 26 20 27 21 28 22 30 23 31 24 32 88 33 25 34 87 35
REMARK SMILES IDX 26 36 27 37 28 38 81 39 29 40 86 41 80 42 82 43 30 44 85 45
REMARK SMILES IDX 79 46 78 47 31 49 65 50 44 51 64 52 45 53 48 54 63 55 83 56
REMARK SMILES IDX 46 57 47 58 62 60 84 61 49 62 32 63 33 64 42 65 34 66 35 67
REMARK SMILES IDX 41 68 43 69 36 70 37 71 38 72 39 73 40 74 66 75 67 76 76 77
REMARK SMILES IDX 68 78 69 79 75 80 77 81 70 82 71 83 72 84 73 85 74 86 50 87
REMARK SMILES IDX 51 88 60 89 52 90 53 91 59 92 61 93 54 94 55 95 56 96 57 97
REMARK SMILES IDX 58 98
REMARK H PARENT 13 8 20 29 82 48 48 59
REMARK Flexibility Score: inf
ROOT
ATOM      1  C   UNL A   1      36.387  23.340  26.105  1.00  0.00     0.002 C 
ENDROOT
BRANCH   1   2
ATOM      2  C   UNL A   1      35.547  22.072  25.908  1.00  0.00     0.002 C 
BRANCH   2   3
ATOM      3  C   UNL A   1      34.078  22.207  26.333  1.00  0.00     0.021 C 
BRANCH   3   4
ATOM      4  C   UNL A   1      33.098  22.066  25.161  1.00  0.00     0.116 C 
BRANCH   4   5
ATOM      5  N   UNL A   1      33.626  22.770  24.003  1.00  0.00    -0.352 N 
ATOM      6  C   UNL A   1      33.548  24.062  23.589  1.00  0.00     0.251 C 
ATOM      7  O   UNL A   1      33.924  24.325  22.449  1.00  0.00    -0.270 OA
ATOM      8  H   UNL A   1      34.146  22.194  23.396  1.00  0.00     0.163 HD
BRANCH   6   9
ATOM      9  C   UNL A   1      33.112  25.168  24.481  1.00  0.00     0.067 C 
ATOM     10  C   UNL A   1      33.950  29.104  27.172  1.00  0.00    -0.047 A 
ATOM     11  C   UNL A   1      32.577  29.387  27.156  1.00  0.00     0.007 A 
ATOM     12  C   UNL A   1      34.396  27.939  26.534  1.00  0.00     0.015 A 
ATOM     13  C   UNL A   1      31.676  28.529  26.518  1.00  0.00     0.047 A 
ATOM     14  C   UNL A   1      33.493  27.072  25.903  1.00  0.00     0.017 A 
ATOM     15  C   UNL A   1      32.137  27.377  25.887  1.00  0.00     0.128 A 
ATOM     16  C   UNL A   1      33.984  25.922  25.164  1.00  0.00     0.025 C 
ATOM     17  O   UNL A   1      31.215  26.640  25.206  1.00  0.00    -0.475 OA
ATOM     18  C   UNL A   1      31.611  25.323  24.717  1.00  0.00     0.314 C 
BRANCH  10  19
ATOM     19  C   UNL A   1      34.906  30.103  27.787  1.00  0.00     0.032 C 
ATOM     20  C   UNL A   1      34.453  31.557  27.745  1.00  0.00     0.009 C 
ENDBRANCH  10  19
BRANCH  18  21
ATOM     21  C   UNL A   1      30.670  24.978  23.539  1.00  0.00     0.429 C 
ATOM     22  F   UNL A   1      30.504  23.647  23.370  1.00  0.00    -0.167 F 
ATOM     23  F   UNL A   1      29.418  25.466  23.763  1.00  0.00    -0.167 F 
ATOM     24  F   UNL A   1      31.088  25.507  22.366  1.00  0.00    -0.167 F 
ENDBRANCH  18  21
ENDBRANCH   6   9
ENDBRANCH   4   5
ENDBRANCH   3   4
ENDBRANCH   2   3
ENDBRANCH   1   2
BRANCH   1  25
ATOM     25  C   UNL A   1      37.880  23.174  25.809  1.00  0.00     0.021 C 
BRANCH  25  26
ATOM     26  C   UNL A   1      38.788  24.029  26.687  1.00  0.00     0.116 C 
BRANCH  26  27
ATOM     27  N   UNL A   1      40.137  24.097  26.146  1.00  0.00    -0.352 N 
ATOM     28  C   UNL A   1      41.102  25.051  26.350  1.00  0.00     0.251 C 
ATOM     29  H   UNL A   1      40.393  23.355  25.552  1.00  0.00     0.163 HD
ATOM     30  O   UNL A   1      42.088  25.089  25.623  1.00  0.00    -0.269 OA
BRANCH  28  31
ATOM     31  C   UNL A   1      40.943  26.033  27.444  1.00  0.00     0.039 A 
ATOM     32  C   UNL A   1      39.980  25.804  28.429  1.00  0.00     0.014 A 
ATOM     33  C   UNL A   1      41.728  27.190  27.481  1.00  0.00     0.014 A 
ATOM     34  C   UNL A   1      39.828  26.719  29.473  1.00  0.00     0.010 A 
ATOM     35  C   UNL A   1      41.626  28.061  28.561  1.00  0.00     0.010 A 
ATOM     36  C   UNL A   1      40.665  27.845  29.559  1.00  0.00    -0.014 A 
BRANCH  36  37
ATOM     37  C   UNL A   1      40.525  28.826  30.664  1.00  0.00     0.031 A 
ATOM     38  C   UNL A   1      41.384  28.695  31.894  1.00  0.00     0.074 A 
ATOM     39  C   UNL A   1      39.590  29.795  30.587  1.00  0.00     0.049 A 
ATOM     40  N   UNL A   1      41.363  29.399  32.996  1.00  0.00    -0.248 NA
ATOM     41  C   UNL A   1      42.381  27.611  31.897  1.00  0.00     0.031 C 
ATOM     42  C   UNL A   1      38.670  29.997  29.465  1.00  0.00     0.029 A 
ATOM     43  N   UNL A   1      39.252  30.785  31.474  1.00  0.00    -0.354 N 
ATOM     44  C   UNL A   1      42.323  28.834  33.827  1.00  0.00     0.074 A 
ATOM     45  C   UNL A   1      42.874  27.696  33.124  1.00  0.00     0.031 C 
ATOM     46  C   UNL A   1      37.887  31.057  29.723  1.00  0.00     0.029 A 
ATOM     47  C   UNL A   1      38.222  31.587  31.040  1.00  0.00     0.049 A 
ATOM     48  H   UNL A   1      39.704  30.911  32.339  1.00  0.00     0.167 HD
ATOM     49  C   UNL A   1      42.727  29.241  35.054  1.00  0.00     0.037 A 
ATOM     50  C   UNL A   1      37.613  32.627  31.642  1.00  0.00     0.037 A 
ATOM     51  C   UNL A   1      42.200  30.397  35.729  1.00  0.00     0.049 A 
ATOM     52  C   UNL A   1      38.084  33.063  33.005  1.00  0.00     0.074 A 
ATOM     53  C   UNL A   1      42.585  30.931  36.947  1.00  0.00     0.029 A 
ATOM     54  N   UNL A   1      41.177  31.199  35.247  1.00  0.00    -0.354 N 
ATOM     55  N   UNL A   1      39.037  32.554  33.749  1.00  0.00    -0.248 NA
ATOM     56  C   UNL A   1      37.404  34.219  33.606  1.00  0.00     0.031 C 
ATOM     57  C   UNL A   1      41.764  32.028  37.221  1.00  0.00     0.029 A 
ATOM     58  C   UNL A   1      40.904  32.212  36.150  1.00  0.00     0.049 A 
ATOM     59  H   UNL A   1      40.714  31.068  34.388  1.00  0.00     0.167 HD
ATOM     60  C   UNL A   1      39.095  33.348  34.890  1.00  0.00     0.074 A 
ATOM     61  C   UNL A   1      38.087  34.377  34.732  1.00  0.00     0.031 C 
ATOM     62  C   UNL A   1      39.909  33.240  35.968  1.00  0.00     0.037 A 
BRANCH  49  63
ATOM     63  C   UNL A   1      43.796  28.438  35.744  1.00  0.00     0.058 A 
ATOM     64  C   UNL A   1      43.482  27.392  36.626  1.00  0.00     0.135 A 
ATOM     65  C   UNL A   1      45.154  28.686  35.482  1.00  0.00     0.135 A 
ATOM     66  F   UNL A   1      42.202  27.122  36.926  1.00  0.00    -0.206 F 
ATOM     67  C   UNL A   1      44.474  26.635  37.241  1.00  0.00     0.059 A 
ATOM     68  C   UNL A   1      46.162  27.922  36.062  1.00  0.00     0.059 A 
ATOM     69  F   UNL A   1      45.512  29.675  34.648  1.00  0.00    -0.206 F 
ATOM     70  C   UNL A   1      45.813  26.906  36.950  1.00  0.00     0.060 A 
BRANCH  70  71
ATOM     71  S   UNL A   1      47.086  25.901  37.741  1.00  0.00     0.124 S 
ATOM     72  O   UNL A   1      48.279  26.712  37.516  1.00  0.00    -0.237 OA
ATOM     73  O   UNL A   1      46.617  25.834  39.121  1.00  0.00    -0.237 OA
ATOM     74  O   UNL A   1      47.035  24.643  37.002  1.00  0.00    -0.744 OA
ENDBRANCH  70  71
ENDBRANCH  49  63
BRANCH  50  75
ATOM     75  C   UNL A   1      36.503  33.344  30.957  1.00  0.00     0.058 A 
ATOM     76  C   UNL A   1      35.176  33.203  31.392  1.00  0.00     0.135 A 
ATOM     77  C   UNL A   1      36.743  34.176  29.853  1.00  0.00     0.135 A 
ATOM     78  F   UNL A   1      34.894  32.415  32.441  1.00  0.00    -0.206 F 
ATOM     79  C   UNL A   1      34.124  33.837  30.740  1.00  0.00     0.059 A 
ATOM     80  C   UNL A   1      35.710  34.843  29.201  1.00  0.00     0.059 A 
ATOM     81  F   UNL A   1      37.996  34.360  29.408  1.00  0.00    -0.206 F 
ATOM     82  C   UNL A   1      34.401  34.655  29.643  1.00  0.00     0.060 A 
BRANCH  82  83
ATOM     83  S   UNL A   1      33.031  35.493  28.818  1.00  0.00     0.124 S 
ATOM     84  O   UNL A   1      33.731  36.522  28.058  1.00  0.00    -0.237 OA
ATOM     85  O   UNL A   1      32.436  34.414  28.036  1.00  0.00    -0.237 OA
ATOM     86  O   UNL A   1      32.216  35.974  29.930  1.00  0.00    -0.744 OA
ENDBRANCH  82  83
ENDBRANCH  50  75
BRANCH  62  87
ATOM     87  C   UNL A   1      39.782  34.284  37.042  1.00  0.00     0.058 A 
ATOM     88  C   UNL A   1      39.019  34.070  38.199  1.00  0.00     0.135 A 
ATOM     89  C   UNL A   1      40.482  35.498  36.933  1.00  0.00     0.135 A 
ATOM     90  F   UNL A   1      38.327  32.929  38.351  1.00  0.00    -0.206 F 
ATOM     91  C   UNL A   1      38.933  35.031  39.201  1.00  0.00     0.059 A 
ATOM     92  C   UNL A   1      40.434  36.461  37.935  1.00  0.00     0.059 A 
ATOM     93  F   UNL A   1      41.236  35.749  35.851  1.00  0.00    -0.206 F 
ATOM     94  C   UNL A   1      39.647  36.223  39.060  1.00  0.00     0.060 A 
BRANCH  94  95
ATOM     95  S   UNL A   1      39.553  37.448  40.383  1.00  0.00     0.124 S 
ATOM     96  O   UNL A   1      38.870  38.550  39.715  1.00  0.00    -0.237 OA
ATOM     97  O   UNL A   1      38.780  36.748  41.403  1.00  0.00    -0.237 OA
ATOM     98  O   UNL A   1      40.953  37.690  40.720  1.00  0.00    -0.744 OA
ENDBRANCH  94  95
ENDBRANCH  62  87
ENDBRANCH  36  37
ENDBRANCH  28  31
ENDBRANCH  26  27
ENDBRANCH  25  26
ENDBRANCH   1  25
TORSDOF 18
ENDMDL
