MODEL 1
REMARK VINA RESULT:     -11.0      0.000      0.000
REMARK SMILES O=C(NCCCCCCNC(=O)c1ccncc1-c1ccc(F)cc1F)c1ccc(-c2c3nc(c(-c4c(F)cc(S(=O)(=O)[O-])cc4F)c4ccc([nH]4)c(-c4c(F)cc(S(=O)(=O)[O-])cc4F)c4nc(c(-c5c(F)cc(S(=O)(=O)[O-])cc5F)c5ccc2[nH]5)C=C4)C=C3)cc1
REMARK SMILES IDX 5 1 4 2 3 3 1 4 2 5 27 7 28 8 92 9 29 10 91 11 30 12 31 13
REMARK SMILES IDX 32 14 85 15 33 16 90 17 84 18 86 19 34 20 89 21 83 22 82 23
REMARK SMILES IDX 35 25 69 26 48 27 68 28 49 29 52 30 67 31 87 32 50 33 51 34
REMARK SMILES IDX 66 36 88 37 53 38 36 39 37 40 46 41 38 42 39 43 45 44 47 45
REMARK SMILES IDX 40 46 41 47 42 48 43 49 44 50 70 51 71 52 80 53 72 54 73 55
REMARK SMILES IDX 79 56 81 57 74 58 75 59 76 60 77 61 78 62 54 63 55 64 64 65
REMARK SMILES IDX 56 66 57 67 63 68 65 69 58 70 59 71 60 72 61 73 62 74 6 75
REMARK SMILES IDX 7 76 8 77 9 78 10 79 11 80 12 82 13 83 14 84 18 85 15 86
REMARK SMILES IDX 17 87 16 88 19 89 20 90 25 91 21 92 24 93 26 94 22 95 23 96
REMARK H PARENT 3 6 86 24 52 35 10 81
REMARK Flexibility Score: inf
ROOT
ATOM      1  C   UNL A   1      32.617  27.011  26.727  1.00  0.00     0.021 C 
ENDROOT
BRANCH   1   2
ATOM      2  C   UNL A   1      33.798  27.972  26.710  1.00  0.00     0.116 C 
BRANCH   2   3
ATOM      3  N   UNL A   1      33.430  29.334  27.064  1.00  0.00    -0.352 N 
ATOM      4  O   UNL A   1      33.639  31.344  28.063  1.00  0.00    -0.269 OA
ATOM      5  C   UNL A   1      34.166  30.284  27.733  1.00  0.00     0.251 C 
ATOM      6  H   UNL A   1      32.529  29.614  26.786  1.00  0.00     0.163 HD
BRANCH   5   7
ATOM      7  C   UNL A   1      35.582  30.018  28.080  1.00  0.00     0.039 A 
ATOM      8  C   UNL A   1      36.595  30.199  27.137  1.00  0.00     0.014 A 
ATOM      9  C   UNL A   1      35.900  29.585  29.372  1.00  0.00     0.014 A 
ATOM     10  C   UNL A   1      37.898  29.814  27.439  1.00  0.00     0.010 A 
ATOM     11  C   UNL A   1      37.225  29.278  29.700  1.00  0.00     0.010 A 
ATOM     12  C   UNL A   1      38.232  29.362  28.727  1.00  0.00    -0.014 A 
BRANCH  12  13
ATOM     13  C   UNL A   1      39.653  29.051  29.034  1.00  0.00     0.031 A 
ATOM     14  C   UNL A   1      40.258  27.717  28.687  1.00  0.00     0.074 A 
ATOM     15  C   UNL A   1      40.418  30.020  29.579  1.00  0.00     0.049 A 
ATOM     16  N   UNL A   1      41.494  27.313  28.836  1.00  0.00    -0.248 NA
ATOM     17  C   UNL A   1      39.366  26.704  28.101  1.00  0.00     0.031 C 
ATOM     18  C   UNL A   1      39.937  31.349  29.970  1.00  0.00     0.029 A 
ATOM     19  N   UNL A   1      41.757  30.056  29.869  1.00  0.00    -0.354 N 
ATOM     20  C   UNL A   1      41.529  26.003  28.372  1.00  0.00     0.074 A 
ATOM     21  C   UNL A   1      40.184  25.668  27.960  1.00  0.00     0.031 C 
ATOM     22  C   UNL A   1      40.975  32.088  30.386  1.00  0.00     0.029 A 
ATOM     23  C   UNL A   1      42.183  31.273  30.349  1.00  0.00     0.049 A 
ATOM     24  H   UNL A   1      42.357  29.285  29.745  1.00  0.00     0.167 HD
ATOM     25  C   UNL A   1      42.591  25.164  28.290  1.00  0.00     0.037 A 
ATOM     26  C   UNL A   1      43.408  31.687  30.722  1.00  0.00     0.037 A 
ATOM     27  C   UNL A   1      43.931  25.510  28.691  1.00  0.00     0.049 A 
ATOM     28  C   UNL A   1      44.561  30.731  30.628  1.00  0.00     0.074 A 
ATOM     29  C   UNL A   1      45.073  24.726  28.642  1.00  0.00     0.029 A 
ATOM     30  N   UNL A   1      44.316  26.739  29.205  1.00  0.00    -0.354 N 
ATOM     31  N   UNL A   1      44.571  29.497  30.187  1.00  0.00    -0.248 NA
ATOM     32  C   UNL A   1      45.867  31.220  31.090  1.00  0.00     0.031 C 
ATOM     33  C   UNL A   1      46.140  25.472  29.155  1.00  0.00     0.029 A 
ATOM     34  C   UNL A   1      45.672  26.733  29.486  1.00  0.00     0.049 A 
ATOM     35  H   UNL A   1      43.712  27.503  29.350  1.00  0.00     0.167 HD
ATOM     36  C   UNL A   1      45.885  29.062  30.312  1.00  0.00     0.074 A 
ATOM     37  C   UNL A   1      46.645  30.174  30.846  1.00  0.00     0.031 C 
ATOM     38  C   UNL A   1      46.411  27.848  30.019  1.00  0.00     0.037 A 
BRANCH  25  39
ATOM     39  C   UNL A   1      42.360  23.782  27.742  1.00  0.00     0.058 A 
ATOM     40  C   UNL A   1      42.318  22.671  28.599  1.00  0.00     0.135 A 
ATOM     41  C   UNL A   1      42.270  23.549  26.361  1.00  0.00     0.135 A 
ATOM     42  F   UNL A   1      42.398  22.838  29.928  1.00  0.00    -0.206 F 
ATOM     43  C   UNL A   1      42.212  21.371  28.107  1.00  0.00     0.059 A 
ATOM     44  C   UNL A   1      42.145  22.262  25.848  1.00  0.00     0.059 A 
ATOM     45  F   UNL A   1      42.288  24.579  25.500  1.00  0.00    -0.206 F 
ATOM     46  C   UNL A   1      42.123  21.178  26.729  1.00  0.00     0.060 A 
BRANCH  46  47
ATOM     47  S   UNL A   1      41.994  19.514  26.040  1.00  0.00     0.124 S 
ATOM     48  O   UNL A   1      42.855  19.617  24.866  1.00  0.00    -0.237 OA
ATOM     49  O   UNL A   1      42.504  18.687  27.129  1.00  0.00    -0.237 OA
ATOM     50  O   UNL A   1      40.568  19.370  25.760  1.00  0.00    -0.744 OA
ENDBRANCH  46  47
ENDBRANCH  25  39
BRANCH  26  51
ATOM     51  C   UNL A   1      43.602  33.075  31.219  1.00  0.00     0.058 A 
ATOM     52  C   UNL A   1      43.550  33.367  32.591  1.00  0.00     0.135 A 
ATOM     53  C   UNL A   1      43.825  34.135  30.331  1.00  0.00     0.135 A 
ATOM     54  F   UNL A   1      43.320  32.388  33.479  1.00  0.00    -0.206 F 
ATOM     55  C   UNL A   1      43.703  34.664  33.067  1.00  0.00     0.059 A 
ATOM     56  C   UNL A   1      44.008  35.437  30.784  1.00  0.00     0.059 A 
ATOM     57  F   UNL A   1      43.885  33.904  29.010  1.00  0.00    -0.206 F 
ATOM     58  C   UNL A   1      43.944  35.691  32.156  1.00  0.00     0.060 A 
BRANCH  58  59
ATOM     59  S   UNL A   1      44.139  37.391  32.734  1.00  0.00     0.124 S 
ATOM     60  O   UNL A   1      45.475  37.348  33.319  1.00  0.00    -0.237 OA
ATOM     61  O   UNL A   1      44.007  38.154  31.497  1.00  0.00    -0.237 OA
ATOM     62  O   UNL A   1      43.038  37.550  33.680  1.00  0.00    -0.744 OA
ENDBRANCH  58  59
ENDBRANCH  26  51
BRANCH  38  63
ATOM     63  C   UNL A   1      47.883  27.667  30.260  1.00  0.00     0.058 A 
ATOM     64  C   UNL A   1      48.804  27.841  29.215  1.00  0.00     0.135 A 
ATOM     65  C   UNL A   1      48.376  27.292  31.518  1.00  0.00     0.135 A 
ATOM     66  F   UNL A   1      48.378  28.191  27.990  1.00  0.00    -0.206 F 
ATOM     67  C   UNL A   1      50.168  27.650  29.407  1.00  0.00     0.059 A 
ATOM     68  C   UNL A   1      49.738  27.119  31.740  1.00  0.00     0.059 A 
ATOM     69  F   UNL A   1      47.536  27.122  32.551  1.00  0.00    -0.206 F 
ATOM     70  C   UNL A   1      50.626  27.302  30.678  1.00  0.00     0.060 A 
BRANCH  70  71
ATOM     71  S   UNL A   1      52.390  27.057  30.974  1.00  0.00     0.124 S 
ATOM     72  O   UNL A   1      52.584  27.793  32.220  1.00  0.00    -0.237 OA
ATOM     73  O   UNL A   1      52.491  25.604  31.074  1.00  0.00    -0.237 OA
ATOM     74  O   UNL A   1      53.018  27.644  29.795  1.00  0.00    -0.744 OA
ENDBRANCH  70  71
ENDBRANCH  38  63
ENDBRANCH  12  13
ENDBRANCH   5   7
ENDBRANCH   2   3
ENDBRANCH   1   2
BRANCH   1  75
ATOM     75  C   UNL A   1      31.593  27.206  25.609  1.00  0.00     0.002 C 
BRANCH  75  76
ATOM     76  C   UNL A   1      32.144  27.716  24.274  1.00  0.00     0.002 C 
BRANCH  76  77
ATOM     77  C   UNL A   1      32.368  26.661  23.185  1.00  0.00     0.021 C 
BRANCH  77  78
ATOM     78  C   UNL A   1      33.620  25.800  23.341  1.00  0.00     0.116 C 
BRANCH  78  79
ATOM     79  N   UNL A   1      33.445  24.464  22.797  1.00  0.00    -0.352 N 
ATOM     80  C   UNL A   1      32.967  23.329  23.403  1.00  0.00     0.252 C 
ATOM     81  H   UNL A   1      33.707  24.357  21.854  1.00  0.00     0.163 HD
ATOM     82  O   UNL A   1      32.938  22.266  22.792  1.00  0.00    -0.269 OA
BRANCH  80  83
ATOM     83  C   UNL A   1      32.479  23.395  24.797  1.00  0.00     0.050 A 
ATOM     84  C   UNL A   1      31.110  23.609  24.999  1.00  0.00     0.034 A 
ATOM     85  C   UNL A   1      33.346  23.177  25.880  1.00  0.00     0.016 A 
ATOM     86  C   UNL A   1      30.644  23.654  26.298  1.00  0.00     0.112 A 
ATOM     87  C   UNL A   1      32.750  23.239  27.140  1.00  0.00     0.120 A 
ATOM     88  N   UNL A   1      31.436  23.484  27.373  1.00  0.00    -0.264 NA
BRANCH  85  89
ATOM     89  C   UNL A   1      34.783  22.893  25.755  1.00  0.00     0.020 A 
ATOM     90  C   UNL A   1      35.743  23.920  25.799  1.00  0.00     0.015 A 
ATOM     91  C   UNL A   1      35.247  21.574  25.602  1.00  0.00     0.134 A 
ATOM     92  C   UNL A   1      37.107  23.628  25.684  1.00  0.00     0.040 A 
ATOM     93  C   UNL A   1      36.600  21.275  25.488  1.00  0.00     0.079 A 
ATOM     94  F   UNL A   1      34.371  20.556  25.569  1.00  0.00    -0.206 F 
ATOM     95  C   UNL A   1      37.519  22.309  25.529  1.00  0.00     0.126 A 
ATOM     96  F   UNL A   1      38.827  22.036  25.425  1.00  0.00    -0.207 F 
ENDBRANCH  85  89
ENDBRANCH  80  83
ENDBRANCH  78  79
ENDBRANCH  77  78
ENDBRANCH  76  77
ENDBRANCH  75  76
ENDBRANCH   1  75
TORSDOF 17
ENDMDL
MODEL 2
REMARK VINA RESULT:     -10.9      1.122      2.054
REMARK SMILES O=C(NCCCCCCNC(=O)c1ccncc1-c1ccc(F)cc1F)c1ccc(-c2c3nc(c(-c4c(F)cc(S(=O)(=O)[O-])cc4F)c4ccc([nH]4)c(-c4c(F)cc(S(=O)(=O)[O-])cc4F)c4nc(c(-c5c(F)cc(S(=O)(=O)[O-])cc5F)c5ccc2[nH]5)C=C4)C=C3)cc1
REMARK SMILES IDX 5 1 4 2 3 3 1 4 2 5 27 7 28 8 92 9 29 10 91 11 30 12 31 13
REMARK SMILES IDX 32 14 85 15 33 16 90 17 84 18 86 19 34 20 89 21 83 22 82 23
REMARK SMILES IDX 35 25 69 26 48 27 68 28 49 29 52 30 67 31 87 32 50 33 51 34
REMARK SMILES IDX 66 36 88 37 53 38 36 39 37 40 46 41 38 42 39 43 45 44 47 45
REMARK SMILES IDX 40 46 41 47 42 48 43 49 44 50 70 51 71 52 80 53 72 54 73 55
REMARK SMILES IDX 79 56 81 57 74 58 75 59 76 60 77 61 78 62 54 63 55 64 64 65
REMARK SMILES IDX 56 66 57 67 63 68 65 69 58 70 59 71 60 72 61 73 62 74 6 75
REMARK SMILES IDX 7 76 8 77 9 78 10 79 11 80 12 82 13 83 14 84 18 85 15 86
REMARK SMILES IDX 17 87 16 88 19 89 20 90 25 91 21 92 24 93 26 94 22 95 23 96
REMARK H PARENT 3 6 86 24 52 35 10 81
REMARK Flexibility Score: inf
ROOT
ATOM      1  C   UNL A   1      32.718  27.316  26.471  1.00  0.00     0.021 C 
ENDROOT
BRANCH   1   2
ATOM      2  C   UNL A   1      33.991  28.047  26.878  1.00  0.00     0.116 C 
BRANCH   2   3
ATOM      3  N   UNL A   1      33.744  29.399  27.351  1.00  0.00    -0.352 N 
ATOM      4  O   UNL A   1      34.159  31.311  28.472  1.00  0.00    -0.269 OA
ATOM      5  C   UNL A   1      34.586  30.246  28.034  1.00  0.00     0.251 C 
ATOM      6  H   UNL A   1      32.849  29.760  27.155  1.00  0.00     0.163 HD
BRANCH   5   7
ATOM      7  C   UNL A   1      35.998  29.861  28.265  1.00  0.00     0.039 A 
ATOM      8  C   UNL A   1      36.405  29.338  29.493  1.00  0.00     0.014 A 
ATOM      9  C   UNL A   1      36.929  30.022  27.233  1.00  0.00     0.014 A 
ATOM     10  C   UNL A   1      37.757  29.112  29.736  1.00  0.00     0.010 A 
ATOM     11  C   UNL A   1      38.277  29.715  27.451  1.00  0.00     0.010 A 
ATOM     12  C   UNL A   1      38.707  29.284  28.715  1.00  0.00    -0.014 A 
BRANCH  12  13
ATOM     13  C   UNL A   1      40.128  28.941  28.989  1.00  0.00     0.031 A 
ATOM     14  C   UNL A   1      40.696  27.597  28.620  1.00  0.00     0.074 A 
ATOM     15  C   UNL A   1      40.924  29.890  29.523  1.00  0.00     0.049 A 
ATOM     16  N   UNL A   1      41.926  27.166  28.740  1.00  0.00    -0.248 NA
ATOM     17  C   UNL A   1      39.770  26.607  28.047  1.00  0.00     0.031 C 
ATOM     18  C   UNL A   1      40.480  31.226  29.933  1.00  0.00     0.029 A 
ATOM     19  N   UNL A   1      42.270  29.895  29.784  1.00  0.00    -0.354 N 
ATOM     20  C   UNL A   1      41.924  25.858  28.268  1.00  0.00     0.074 A 
ATOM     21  C   UNL A   1      40.563  25.555  27.882  1.00  0.00     0.031 C 
ATOM     22  C   UNL A   1      41.543  31.940  30.331  1.00  0.00     0.029 A 
ATOM     23  C   UNL A   1      42.732  31.100  30.262  1.00  0.00     0.049 A 
ATOM     24  H   UNL A   1      42.850  29.113  29.643  1.00  0.00     0.167 HD
ATOM     25  C   UNL A   1      42.965  24.998  28.157  1.00  0.00     0.037 A 
ATOM     26  C   UNL A   1      43.973  31.486  30.611  1.00  0.00     0.037 A 
ATOM     27  C   UNL A   1      44.321  25.312  28.531  1.00  0.00     0.049 A 
ATOM     28  C   UNL A   1      45.103  30.506  30.486  1.00  0.00     0.074 A 
ATOM     29  C   UNL A   1      45.444  24.505  28.452  1.00  0.00     0.029 A 
ATOM     30  N   UNL A   1      44.743  26.530  29.044  1.00  0.00    -0.354 N 
ATOM     31  N   UNL A   1      45.077  29.275  30.037  1.00  0.00    -0.248 NA
ATOM     32  C   UNL A   1      46.429  30.964  30.923  1.00  0.00     0.031 C 
ATOM     33  C   UNL A   1      46.538  25.224  28.946  1.00  0.00     0.029 A 
ATOM     34  C   UNL A   1      46.104  26.493  29.296  1.00  0.00     0.049 A 
ATOM     35  H   UNL A   1      44.158  27.306  29.207  1.00  0.00     0.167 HD
ATOM     36  C   UNL A   1      46.384  28.812  30.131  1.00  0.00     0.074 A 
ATOM     37  C   UNL A   1      47.179  29.903  30.655  1.00  0.00     0.031 C 
ATOM     38  C   UNL A   1      46.878  27.589  29.819  1.00  0.00     0.037 A 
BRANCH  25  39
ATOM     39  C   UNL A   1      42.693  23.625  27.606  1.00  0.00     0.058 A 
ATOM     40  C   UNL A   1      42.421  22.549  28.466  1.00  0.00     0.135 A 
ATOM     41  C   UNL A   1      42.790  23.357  26.232  1.00  0.00     0.135 A 
ATOM     42  F   UNL A   1      42.317  22.751  29.788  1.00  0.00    -0.206 F 
ATOM     43  C   UNL A   1      42.272  21.249  27.987  1.00  0.00     0.059 A 
ATOM     44  C   UNL A   1      42.625  22.070  25.728  1.00  0.00     0.059 A 
ATOM     45  F   UNL A   1      43.032  24.353  25.364  1.00  0.00    -0.206 F 
ATOM     46  C   UNL A   1      42.373  21.021  26.615  1.00  0.00     0.060 A 
BRANCH  46  47
ATOM     47  S   UNL A   1      42.196  19.353  25.945  1.00  0.00     0.124 S 
ATOM     48  O   UNL A   1      42.705  18.541  27.046  1.00  0.00    -0.237 OA
ATOM     49  O   UNL A   1      40.759  19.266  25.705  1.00  0.00    -0.237 OA
ATOM     50  O   UNL A   1      43.030  19.377  24.747  1.00  0.00    -0.744 OA
ENDBRANCH  46  47
ENDBRANCH  25  39
BRANCH  26  51
ATOM     51  C   UNL A   1      44.207  32.865  31.112  1.00  0.00     0.058 A 
ATOM     52  C   UNL A   1      44.456  33.926  30.227  1.00  0.00     0.135 A 
ATOM     53  C   UNL A   1      44.204  33.146  32.485  1.00  0.00     0.135 A 
ATOM     54  F   UNL A   1      44.487  33.704  28.903  1.00  0.00    -0.206 F 
ATOM     55  C   UNL A   1      44.703  35.216  30.683  1.00  0.00     0.059 A 
ATOM     56  C   UNL A   1      44.422  34.432  32.966  1.00  0.00     0.059 A 
ATOM     57  F   UNL A   1      43.969  32.164  33.370  1.00  0.00    -0.206 F 
ATOM     58  C   UNL A   1      44.672  35.461  32.055  1.00  0.00     0.060 A 
BRANCH  58  59
ATOM     59  S   UNL A   1      44.997  37.121  32.688  1.00  0.00     0.124 S 
ATOM     60  O   UNL A   1      46.402  37.295  32.340  1.00  0.00    -0.237 OA
ATOM     61  O   UNL A   1      44.045  37.930  31.933  1.00  0.00    -0.237 OA
ATOM     62  O   UNL A   1      44.708  36.997  34.114  1.00  0.00    -0.744 OA
ENDBRANCH  58  59
ENDBRANCH  26  51
BRANCH  38  63
ATOM     63  C   UNL A   1      48.350  27.376  30.026  1.00  0.00     0.058 A 
ATOM     64  C   UNL A   1      49.274  27.776  29.049  1.00  0.00     0.135 A 
ATOM     65  C   UNL A   1      48.842  26.746  31.180  1.00  0.00     0.135 A 
ATOM     66  F   UNL A   1      48.851  28.374  27.924  1.00  0.00    -0.206 F 
ATOM     67  C   UNL A   1      50.640  27.562  29.207  1.00  0.00     0.059 A 
ATOM     68  C   UNL A   1      50.205  26.543  31.370  1.00  0.00     0.059 A 
ATOM     69  F   UNL A   1      47.998  26.352  32.147  1.00  0.00    -0.206 F 
ATOM     70  C   UNL A   1      51.096  26.956  30.377  1.00  0.00     0.060 A 
BRANCH  70  71
ATOM     71  S   UNL A   1      52.860  26.671  30.628  1.00  0.00     0.124 S 
ATOM     72  O   UNL A   1      53.297  27.964  31.145  1.00  0.00    -0.237 OA
ATOM     73  O   UNL A   1      52.865  25.571  31.588  1.00  0.00    -0.237 OA
ATOM     74  O   UNL A   1      53.344  26.333  29.293  1.00  0.00    -0.744 OA
ENDBRANCH  70  71
ENDBRANCH  38  63
ENDBRANCH  12  13
ENDBRANCH   5   7
ENDBRANCH   2   3
ENDBRANCH   1   2
BRANCH   1  75
ATOM     75  C   UNL A   1      32.921  25.929  25.860  1.00  0.00     0.002 C 
BRANCH  75  76
ATOM     76  C   UNL A   1      31.708  24.995  25.896  1.00  0.00     0.002 C 
BRANCH  76  77
ATOM     77  C   UNL A   1      31.841  23.744  26.772  1.00  0.00     0.021 C 
BRANCH  77  78
ATOM     78  C   UNL A   1      33.266  23.253  27.018  1.00  0.00     0.116 C 
BRANCH  78  79
ATOM     79  N   UNL A   1      33.415  21.831  26.756  1.00  0.00    -0.352 N 
ATOM     80  C   UNL A   1      33.539  21.172  25.559  1.00  0.00     0.252 C 
ATOM     81  H   UNL A   1      33.431  21.257  27.555  1.00  0.00     0.163 HD
ATOM     82  O   UNL A   1      33.605  19.947  25.531  1.00  0.00    -0.269 OA
BRANCH  80  83
ATOM     83  C   UNL A   1      33.597  21.946  24.301  1.00  0.00     0.050 A 
ATOM     84  C   UNL A   1      32.420  22.060  23.551  1.00  0.00     0.034 A 
ATOM     85  C   UNL A   1      34.773  22.606  23.909  1.00  0.00     0.016 A 
ATOM     86  C   UNL A   1      32.462  22.796  22.384  1.00  0.00     0.112 A 
ATOM     87  C   UNL A   1      34.681  23.324  22.716  1.00  0.00     0.120 A 
ATOM     88  N   UNL A   1      33.570  23.422  21.945  1.00  0.00    -0.264 NA
BRANCH  85  89
ATOM     89  C   UNL A   1      36.034  22.584  24.664  1.00  0.00     0.020 A 
ATOM     90  C   UNL A   1      36.875  21.456  24.660  1.00  0.00     0.015 A 
ATOM     91  C   UNL A   1      36.450  23.703  25.407  1.00  0.00     0.134 A 
ATOM     92  C   UNL A   1      38.074  21.456  25.380  1.00  0.00     0.040 A 
ATOM     93  C   UNL A   1      37.641  23.713  26.125  1.00  0.00     0.079 A 
ATOM     94  F   UNL A   1      35.690  24.810  25.432  1.00  0.00    -0.206 F 
ATOM     95  C   UNL A   1      38.443  22.584  26.105  1.00  0.00     0.126 A 
ATOM     96  F   UNL A   1      39.595  22.581  26.788  1.00  0.00    -0.207 F 
ENDBRANCH  85  89
ENDBRANCH  80  83
ENDBRANCH  78  79
ENDBRANCH  77  78
ENDBRANCH  76  77
ENDBRANCH  75  76
ENDBRANCH   1  75
TORSDOF 17
ENDMDL
MODEL 3
REMARK VINA RESULT:     -10.6      4.935      9.720
REMARK SMILES O=C(NCCCCCCNC(=O)c1ccncc1-c1ccc(F)cc1F)c1ccc(-c2c3nc(c(-c4c(F)cc(S(=O)(=O)[O-])cc4F)c4ccc([nH]4)c(-c4c(F)cc(S(=O)(=O)[O-])cc4F)c4nc(c(-c5c(F)cc(S(=O)(=O)[O-])cc5F)c5ccc2[nH]5)C=C4)C=C3)cc1
REMARK SMILES IDX 5 1 4 2 3 3 1 4 2 5 27 7 28 8 92 9 29 10 91 11 30 12 31 13
REMARK SMILES IDX 32 14 85 15 33 16 90 17 84 18 86 19 34 20 89 21 83 22 82 23
REMARK SMILES IDX 35 25 69 26 48 27 68 28 49 29 52 30 67 31 87 32 50 33 51 34
REMARK SMILES IDX 66 36 88 37 53 38 36 39 37 40 46 41 38 42 39 43 45 44 47 45
REMARK SMILES IDX 40 46 41 47 42 48 43 49 44 50 70 51 71 52 80 53 72 54 73 55
REMARK SMILES IDX 79 56 81 57 74 58 75 59 76 60 77 61 78 62 54 63 55 64 64 65
REMARK SMILES IDX 56 66 57 67 63 68 65 69 58 70 59 71 60 72 61 73 62 74 6 75
REMARK SMILES IDX 7 76 8 77 9 78 10 79 11 80 12 82 13 83 14 84 18 85 15 86
REMARK SMILES IDX 17 87 16 88 19 89 20 90 25 91 21 92 24 93 26 94 22 95 23 96
REMARK H PARENT 3 6 86 24 52 35 10 81
REMARK Flexibility Score: inf
ROOT
ATOM      1  C   UNL A   1      40.408  22.149  27.540  1.00  0.00     0.021 C 
ENDROOT
BRANCH   1   2
ATOM      2  C   UNL A   1      41.674  22.989  27.432  1.00  0.00     0.116 C 
BRANCH   2   3
ATOM      3  N   UNL A   1      41.707  23.817  26.238  1.00  0.00    -0.352 N 
ATOM      4  O   UNL A   1      41.436  25.683  25.001  1.00  0.00    -0.269 OA
ATOM      5  C   UNL A   1      41.500  25.172  26.117  1.00  0.00     0.251 C 
ATOM      6  H   UNL A   1      41.906  23.342  25.399  1.00  0.00     0.163 HD
BRANCH   5   7
ATOM      7  C   UNL A   1      41.327  26.008  27.328  1.00  0.00     0.039 A 
ATOM      8  C   UNL A   1      40.217  25.842  28.158  1.00  0.00     0.014 A 
ATOM      9  C   UNL A   1      42.294  26.969  27.640  1.00  0.00     0.014 A 
ATOM     10  C   UNL A   1      40.003  26.727  29.211  1.00  0.00     0.010 A 
ATOM     11  C   UNL A   1      42.120  27.804  28.749  1.00  0.00     0.010 A 
ATOM     12  C   UNL A   1      40.957  27.709  29.528  1.00  0.00    -0.014 A 
BRANCH  12  13
ATOM     13  C   UNL A   1      40.733  28.571  30.719  1.00  0.00     0.031 A 
ATOM     14  C   UNL A   1      41.617  28.476  31.934  1.00  0.00     0.074 A 
ATOM     15  C   UNL A   1      39.751  29.494  30.665  1.00  0.00     0.049 A 
ATOM     16  N   UNL A   1      41.588  29.196  33.026  1.00  0.00    -0.248 NA
ATOM     17  C   UNL A   1      42.664  27.443  31.928  1.00  0.00     0.031 C 
ATOM     18  C   UNL A   1      38.823  29.669  29.544  1.00  0.00     0.029 A 
ATOM     19  N   UNL A   1      39.387  30.476  31.551  1.00  0.00    -0.354 N 
ATOM     20  C   UNL A   1      42.602  28.703  33.840  1.00  0.00     0.074 A 
ATOM     21  C   UNL A   1      43.213  27.603  33.126  1.00  0.00     0.031 C 
ATOM     22  C   UNL A   1      38.043  30.733  29.780  1.00  0.00     0.029 A 
ATOM     23  C   UNL A   1      38.371  31.281  31.090  1.00  0.00     0.049 A 
ATOM     24  H   UNL A   1      39.813  30.594  32.430  1.00  0.00     0.167 HD
ATOM     25  C   UNL A   1      42.991  29.137  35.063  1.00  0.00     0.037 A 
ATOM     26  C   UNL A   1      37.766  32.340  31.660  1.00  0.00     0.037 A 
ATOM     27  C   UNL A   1      42.385  30.243  35.762  1.00  0.00     0.049 A 
ATOM     28  C   UNL A   1      38.214  32.790  33.021  1.00  0.00     0.074 A 
ATOM     29  C   UNL A   1      42.714  30.758  37.006  1.00  0.00     0.029 A 
ATOM     30  N   UNL A   1      41.336  31.010  35.279  1.00  0.00    -0.354 N 
ATOM     31  N   UNL A   1      39.174  32.308  33.771  1.00  0.00    -0.248 NA
ATOM     32  C   UNL A   1      37.490  33.922  33.616  1.00  0.00     0.031 C 
ATOM     33  C   UNL A   1      41.843  31.817  37.287  1.00  0.00     0.029 A 
ATOM     34  C   UNL A   1      40.998  31.987  36.202  1.00  0.00     0.049 A 
ATOM     35  H   UNL A   1      40.895  30.879  34.409  1.00  0.00     0.167 HD
ATOM     36  C   UNL A   1      39.176  33.082  34.925  1.00  0.00     0.074 A 
ATOM     37  C   UNL A   1      38.138  34.079  34.762  1.00  0.00     0.031 C 
ATOM     38  C   UNL A   1      39.961  32.970  36.024  1.00  0.00     0.037 A 
BRANCH  25  39
ATOM     39  C   UNL A   1      44.130  28.424  35.738  1.00  0.00     0.058 A 
ATOM     40  C   UNL A   1      43.885  27.388  36.653  1.00  0.00     0.135 A 
ATOM     41  C   UNL A   1      45.461  28.827  35.546  1.00  0.00     0.135 A 
ATOM     42  F   UNL A   1      42.631  26.964  36.873  1.00  0.00    -0.206 F 
ATOM     43  C   UNL A   1      44.916  26.785  37.370  1.00  0.00     0.059 A 
ATOM     44  C   UNL A   1      46.510  28.226  36.236  1.00  0.00     0.059 A 
ATOM     45  F   UNL A   1      45.752  29.802  34.669  1.00  0.00    -0.206 F 
ATOM     46  C   UNL A   1      46.226  27.210  37.151  1.00  0.00     0.060 A 
BRANCH  46  47
ATOM     47  S   UNL A   1      47.598  26.467  38.062  1.00  0.00     0.124 S 
ATOM     48  O   UNL A   1      47.134  25.093  38.218  1.00  0.00    -0.237 OA
ATOM     49  O   UNL A   1      48.718  26.658  37.145  1.00  0.00    -0.237 OA
ATOM     50  O   UNL A   1      47.656  27.252  39.291  1.00  0.00    -0.744 OA
ENDBRANCH  46  47
ENDBRANCH  25  39
BRANCH  26  51
ATOM     51  C   UNL A   1      36.672  33.044  30.942  1.00  0.00     0.058 A 
ATOM     52  C   UNL A   1      36.943  33.881  29.849  1.00  0.00     0.135 A 
ATOM     53  C   UNL A   1      35.337  32.905  31.346  1.00  0.00     0.135 A 
ATOM     54  F   UNL A   1      38.208  34.060  29.436  1.00  0.00    -0.206 F 
ATOM     55  C   UNL A   1      35.932  34.567  29.185  1.00  0.00     0.059 A 
ATOM     56  C   UNL A   1      34.305  33.559  30.682  1.00  0.00     0.059 A 
ATOM     57  F   UNL A   1      35.028  32.114  32.384  1.00  0.00    -0.206 F 
ATOM     58  C   UNL A   1      34.613  34.389  29.602  1.00  0.00     0.060 A 
BRANCH  58  59
ATOM     59  S   UNL A   1      33.273  35.268  28.771  1.00  0.00     0.124 S 
ATOM     60  O   UNL A   1      32.519  35.789  29.906  1.00  0.00    -0.237 OA
ATOM     61  O   UNL A   1      33.997  36.256  27.978  1.00  0.00    -0.237 OA
ATOM     62  O   UNL A   1      32.612  34.219  28.000  1.00  0.00    -0.744 OA
ENDBRANCH  58  59
ENDBRANCH  26  51
BRANCH  38  63
ATOM     63  C   UNL A   1      39.732  33.961  37.129  1.00  0.00     0.058 A 
ATOM     64  C   UNL A   1      40.382  35.205  37.118  1.00  0.00     0.135 A 
ATOM     65  C   UNL A   1      38.894  33.664  38.214  1.00  0.00     0.135 A 
ATOM     66  F   UNL A   1      41.201  35.530  36.105  1.00  0.00    -0.206 F 
ATOM     67  C   UNL A   1      40.207  36.126  38.145  1.00  0.00     0.059 A 
ATOM     68  C   UNL A   1      38.686  34.579  39.240  1.00  0.00     0.059 A 
ATOM     69  F   UNL A   1      38.244  32.490  38.265  1.00  0.00    -0.206 F 
ATOM     70  C   UNL A   1      39.347  35.809  39.196  1.00  0.00     0.060 A 
BRANCH  70  71
ATOM     71  S   UNL A   1      39.082  36.981  40.543  1.00  0.00     0.124 S 
ATOM     72  O   UNL A   1      38.527  36.117  41.580  1.00  0.00    -0.237 OA
ATOM     73  O   UNL A   1      40.432  37.481  40.791  1.00  0.00    -0.237 OA
ATOM     74  O   UNL A   1      38.155  37.952  39.972  1.00  0.00    -0.744 OA
ENDBRANCH  70  71
ENDBRANCH  38  63
ENDBRANCH  12  13
ENDBRANCH   5   7
ENDBRANCH   2   3
ENDBRANCH   1   2
BRANCH   1  75
ATOM     75  C   UNL A   1      39.701  21.851  26.218  1.00  0.00     0.002 C 
BRANCH  75  76
ATOM     76  C   UNL A   1      38.271  22.384  26.087  1.00  0.00     0.002 C 
BRANCH  76  77
ATOM     77  C   UNL A   1      37.490  21.933  24.848  1.00  0.00     0.021 C 
BRANCH  77  78
ATOM     78  C   UNL A   1      36.456  20.832  25.078  1.00  0.00     0.116 C 
BRANCH  78  79
ATOM     79  N   UNL A   1      35.494  21.182  26.110  1.00  0.00    -0.352 N 
ATOM     80  C   UNL A   1      34.128  21.058  26.108  1.00  0.00     0.252 C 
ATOM     81  H   UNL A   1      35.880  21.562  26.931  1.00  0.00     0.163 HD
ATOM     82  O   UNL A   1      33.469  21.458  27.062  1.00  0.00    -0.269 OA
BRANCH  80  83
ATOM     83  C   UNL A   1      33.452  20.434  24.951  1.00  0.00     0.050 A 
ATOM     84  C   UNL A   1      33.338  19.039  24.938  1.00  0.00     0.034 A 
ATOM     85  C   UNL A   1      32.878  21.217  23.937  1.00  0.00     0.016 A 
ATOM     86  C   UNL A   1      32.693  18.449  23.869  1.00  0.00     0.112 A 
ATOM     87  C   UNL A   1      32.246  20.501  22.919  1.00  0.00     0.120 A 
ATOM     88  N   UNL A   1      32.153  19.149  22.854  1.00  0.00    -0.264 NA
BRANCH  85  89
ATOM     89  C   UNL A   1      32.904  22.687  23.901  1.00  0.00     0.020 A 
ATOM     90  C   UNL A   1      31.874  23.455  24.473  1.00  0.00     0.015 A 
ATOM     91  C   UNL A   1      33.974  23.375  23.301  1.00  0.00     0.134 A 
ATOM     92  C   UNL A   1      31.919  24.853  24.433  1.00  0.00     0.040 A 
ATOM     93  C   UNL A   1      34.027  24.763  23.258  1.00  0.00     0.079 A 
ATOM     94  F   UNL A   1      34.989  22.687  22.753  1.00  0.00    -0.206 F 
ATOM     95  C   UNL A   1      32.995  25.491  23.826  1.00  0.00     0.126 A 
ATOM     96  F   UNL A   1      33.035  26.830  23.795  1.00  0.00    -0.207 F 
ENDBRANCH  85  89
ENDBRANCH  80  83
ENDBRANCH  78  79
ENDBRANCH  77  78
ENDBRANCH  76  77
ENDBRANCH  75  76
ENDBRANCH   1  75
TORSDOF 17
ENDMDL
