MODEL 1
REMARK VINA RESULT:     -12.9      0.000      0.000
REMARK SMILES COc1ccc(N2C(=O)/C(=C/c3c(C(=O)NCCCCCCNC(=O)c4ccc(-c5c6nc(c(-c7c(F)cc(S(=O)(=O)[O-])cc7F)c7ccc([nH]7)c(-c7c(F)cc(S(=O)(=O)[O-])cc7F)c7nc(c(-c8c(F)cc(S(=O)(=O)[O-])cc8F)c8ccc5[nH]8)C=C7)C=C6)cc4)[nH]c4cc(OC)ccc34)SC2=S)cc1
REMARK SMILES IDX 19 1 18 2 17 3 16 4 14 5 15 6 13 8 12 9 100 10 92 11 93 12
REMARK SMILES IDX 99 13 94 15 98 16 95 17 11 18 7 19 8 20 102 21 9 22 10 23
REMARK SMILES IDX 101 24 103 25 6 26 3 27 4 28 105 29 5 30 104 31 2 32 1 33
REMARK SMILES IDX 96 34 97 35 20 36 21 37 22 38 23 39 24 40 25 42 26 43 27 44
REMARK SMILES IDX 91 45 28 46 90 47 29 48 30 49 31 50 84 51 32 52 89 53 83 54
REMARK SMILES IDX 85 55 33 56 88 57 82 58 81 59 34 61 68 62 47 63 67 64 48 65
REMARK SMILES IDX 51 66 66 67 86 68 49 69 50 70 65 72 87 73 52 74 35 75 36 76
REMARK SMILES IDX 45 77 37 78 38 79 44 80 46 81 39 82 40 83 41 84 42 85 43 86
REMARK SMILES IDX 69 87 70 88 79 89 71 90 72 91 78 92 80 93 73 94 74 95 75 96
REMARK SMILES IDX 76 97 77 98 53 99 54 100 63 101 55 102 56 103 62 104 64 105
REMARK SMILES IDX 57 106 58 107 59 108 60 109 61 110
REMARK H PARENT 16 7 92 14 23 41 85 60 51 71
REMARK Flexibility Score: inf
ROOT
ATOM      1  C   UNL A   1      38.154  22.317  25.450  1.00  0.00     0.002 C 
ENDROOT
BRANCH   1   2
ATOM      2  C   UNL A   1      37.551  23.624  25.981  1.00  0.00     0.021 C 
BRANCH   2   3
ATOM      3  C   UNL A   1      36.033  23.705  25.912  1.00  0.00     0.116 C 
BRANCH   3   4
ATOM      4  N   UNL A   1      35.379  23.258  27.125  1.00  0.00    -0.351 N 
ATOM      5  C   UNL A   1      34.360  22.342  27.199  1.00  0.00     0.268 C 
ATOM      6  O   UNL A   1      33.678  22.290  28.220  1.00  0.00    -0.268 OA
ATOM      7  H   UNL A   1      35.695  23.646  27.974  1.00  0.00     0.163 HD
BRANCH   5   8
ATOM      8  C   UNL A   1      34.047  21.580  26.015  1.00  0.00     0.112 A 
ATOM      9  C   UNL A   1      32.974  21.559  25.117  1.00  0.00     0.014 A 
ATOM     10  C   UNL A   1      33.033  20.242  24.494  1.00  0.00     0.008 A 
ATOM     11  N   UNL A   1      34.928  20.621  25.599  1.00  0.00    -0.350 N 
ATOM     12  C   UNL A   1      34.257  19.680  24.872  1.00  0.00     0.050 A 
ATOM     13  C   UNL A   1      32.195  19.414  23.701  1.00  0.00     0.015 A 
ATOM     14  H   UNL A   1      35.894  20.609  25.793  1.00  0.00     0.167 HD
ATOM     15  C   UNL A   1      34.663  18.380  24.568  1.00  0.00     0.073 A 
ATOM     16  C   UNL A   1      32.587  18.075  23.397  1.00  0.00     0.047 A 
ATOM     17  C   UNL A   1      33.804  17.563  23.843  1.00  0.00     0.120 A 
BRANCH   9  18
ATOM     18  C   UNL A   1      31.928  22.575  25.102  1.00  0.00     0.032 C 
ATOM     19  N   UNL A   1      31.408  25.778  23.431  1.00  0.00    -0.261 N 
ATOM     20  C   UNL A   1      30.980  24.826  24.368  1.00  0.00     0.270 C 
ATOM     21  C   UNL A   1      32.301  25.337  22.467  1.00  0.00     0.152 C 
ATOM     22  O   UNL A   1      30.200  24.990  25.294  1.00  0.00    -0.268 OA
ATOM     23  C   UNL A   1      31.740  23.532  24.158  1.00  0.00     0.081 C 
ATOM     24  S   UNL A   1      32.483  23.597  22.599  1.00  0.00    -0.054 SA
ATOM     25  S   UNL A   1      33.125  26.212  21.304  1.00  0.00    -0.051 S 
BRANCH  19  26
ATOM     26  C   UNL A   1      30.996  27.145  23.490  1.00  0.00     0.051 A 
ATOM     27  C   UNL A   1      29.995  29.759  23.865  1.00  0.00     0.119 A 
ATOM     28  C   UNL A   1      29.329  28.865  23.032  1.00  0.00     0.048 A 
ATOM     29  C   UNL A   1      31.141  29.341  24.540  1.00  0.00     0.048 A 
ATOM     30  C   UNL A   1      29.813  27.562  22.861  1.00  0.00     0.030 A 
ATOM     31  C   UNL A   1      31.648  28.043  24.345  1.00  0.00     0.030 A 
BRANCH  27  32
ATOM     32  O   UNL A   1      29.396  30.976  24.032  1.00  0.00    -0.497 OA
ATOM     33  C   UNL A   1      28.116  31.096  23.422  1.00  0.00     0.278 C 
ENDBRANCH  27  32
ENDBRANCH  19  26
ENDBRANCH   9  18
BRANCH  17  34
ATOM     34  O   UNL A   1      34.282  16.291  23.707  1.00  0.00    -0.497 OA
ATOM     35  C   UNL A   1      34.561  15.546  24.880  1.00  0.00     0.278 C 
ENDBRANCH  17  34
ENDBRANCH   5   8
ENDBRANCH   3   4
ENDBRANCH   2   3
ENDBRANCH   1   2
BRANCH   1  36
ATOM     36  C   UNL A   1      39.458  21.962  26.170  1.00  0.00     0.002 C 
BRANCH  36  37
ATOM     37  C   UNL A   1      39.939  22.765  27.375  1.00  0.00     0.021 C 
BRANCH  37  38
ATOM     38  C   UNL A   1      41.294  23.437  27.315  1.00  0.00     0.116 C 
BRANCH  38  39
ATOM     39  N   UNL A   1      41.456  24.321  26.166  1.00  0.00    -0.352 N 
ATOM     40  C   UNL A   1      41.307  25.691  26.087  1.00  0.00     0.251 C 
ATOM     41  H   UNL A   1      41.709  23.875  25.326  1.00  0.00     0.163 HD
ATOM     42  O   UNL A   1      41.366  26.253  24.997  1.00  0.00    -0.269 OA
BRANCH  40  43
ATOM     43  C   UNL A   1      41.048  26.477  27.316  1.00  0.00     0.039 A 
ATOM     44  C   UNL A   1      39.984  26.139  28.160  1.00  0.00     0.014 A 
ATOM     45  C   UNL A   1      41.882  27.538  27.654  1.00  0.00     0.014 A 
ATOM     46  C   UNL A   1      39.816  26.821  29.373  1.00  0.00     0.010 A 
ATOM     47  C   UNL A   1      41.821  28.089  28.924  1.00  0.00     0.010 A 
ATOM     48  C   UNL A   1      40.756  27.780  29.782  1.00  0.00    -0.014 A 
BRANCH  48  49
ATOM     49  C   UNL A   1      40.623  28.593  31.020  1.00  0.00     0.031 A 
ATOM     50  C   UNL A   1      39.565  29.673  31.049  1.00  0.00     0.074 A 
ATOM     51  C   UNL A   1      41.487  28.463  32.045  1.00  0.00     0.049 A 
ATOM     52  N   UNL A   1      39.426  30.683  31.866  1.00  0.00    -0.248 NA
ATOM     53  C   UNL A   1      38.575  29.652  29.955  1.00  0.00     0.031 C 
ATOM     54  C   UNL A   1      42.577  27.490  32.129  1.00  0.00     0.029 A 
ATOM     55  N   UNL A   1      41.594  29.179  33.212  1.00  0.00    -0.354 N 
ATOM     56  C   UNL A   1      38.381  31.443  31.345  1.00  0.00     0.074 A 
ATOM     57  C   UNL A   1      37.981  30.824  30.103  1.00  0.00     0.031 C 
ATOM     58  C   UNL A   1      43.226  27.654  33.295  1.00  0.00     0.029 A 
ATOM     59  C   UNL A   1      42.631  28.774  34.019  1.00  0.00     0.049 A 
ATOM     60  H   UNL A   1      40.983  29.915  33.449  1.00  0.00     0.167 HD
ATOM     61  C   UNL A   1      37.782  32.536  31.872  1.00  0.00     0.037 A 
ATOM     62  C   UNL A   1      43.056  29.262  35.202  1.00  0.00     0.037 A 
ATOM     63  C   UNL A   1      38.123  33.083  33.156  1.00  0.00     0.049 A 
ATOM     64  C   UNL A   1      42.334  30.442  35.803  1.00  0.00     0.074 A 
ATOM     65  C   UNL A   1      37.536  34.138  33.829  1.00  0.00     0.029 A 
ATOM     66  N   UNL A   1      39.127  32.588  33.977  1.00  0.00    -0.354 N 
ATOM     67  N   UNL A   1      41.337  31.139  35.309  1.00  0.00    -0.248 NA
ATOM     68  C   UNL A   1      42.789  30.897  37.123  1.00  0.00     0.031 C 
ATOM     69  C   UNL A   1      38.200  34.296  35.050  1.00  0.00     0.029 A 
ATOM     70  C   UNL A   1      39.171  33.313  35.155  1.00  0.00     0.049 A 
ATOM     71  H   UNL A   1      39.719  31.834  33.755  1.00  0.00     0.167 HD
ATOM     72  C   UNL A   1      41.023  32.090  36.275  1.00  0.00     0.074 A 
ATOM     73  C   UNL A   1      41.930  31.874  37.383  1.00  0.00     0.031 C 
ATOM     74  C   UNL A   1      40.069  33.054  36.252  1.00  0.00     0.037 A 
BRANCH  61  75
ATOM     75  C   UNL A   1      36.677  33.180  31.075  1.00  0.00     0.058 A 
ATOM     76  C   UNL A   1      36.947  34.021  29.981  1.00  0.00     0.135 A 
ATOM     77  C   UNL A   1      35.331  32.951  31.404  1.00  0.00     0.135 A 
ATOM     78  F   UNL A   1      38.215  34.290  29.633  1.00  0.00    -0.206 F 
ATOM     79  C   UNL A   1      35.928  34.646  29.273  1.00  0.00     0.059 A 
ATOM     80  C   UNL A   1      34.293  33.537  30.684  1.00  0.00     0.059 A 
ATOM     81  F   UNL A   1      35.012  32.157  32.438  1.00  0.00    -0.206 F 
ATOM     82  C   UNL A   1      34.602  34.398  29.632  1.00  0.00     0.060 A 
BRANCH  82  83
ATOM     83  S   UNL A   1      33.292  35.214  28.697  1.00  0.00     0.124 S 
ATOM     84  O   UNL A   1      34.063  36.042  27.775  1.00  0.00    -0.237 OA
ATOM     85  O   UNL A   1      32.586  34.086  28.098  1.00  0.00    -0.237 OA
ATOM     86  O   UNL A   1      32.548  35.942  29.721  1.00  0.00    -0.744 OA
ENDBRANCH  82  83
ENDBRANCH  61  75
BRANCH  62  87
ATOM     87  C   UNL A   1      44.187  28.615  35.919  1.00  0.00     0.058 A 
ATOM     88  C   UNL A   1      43.953  27.583  36.842  1.00  0.00     0.135 A 
ATOM     89  C   UNL A   1      45.519  29.004  35.702  1.00  0.00     0.135 A 
ATOM     90  F   UNL A   1      42.697  27.179  37.090  1.00  0.00    -0.206 F 
ATOM     91  C   UNL A   1      44.992  26.975  37.540  1.00  0.00     0.059 A 
ATOM     92  C   UNL A   1      46.578  28.393  36.370  1.00  0.00     0.059 A 
ATOM     93  F   UNL A   1      45.801  29.973  34.819  1.00  0.00    -0.206 F 
ATOM     94  C   UNL A   1      46.302  27.387  37.296  1.00  0.00     0.060 A 
BRANCH  94  95
ATOM     95  S   UNL A   1      47.646  26.561  38.179  1.00  0.00     0.124 S 
ATOM     96  O   UNL A   1      48.536  27.678  38.472  1.00  0.00    -0.237 OA
ATOM     97  O   UNL A   1      46.949  25.982  39.324  1.00  0.00    -0.237 OA
ATOM     98  O   UNL A   1      48.143  25.595  37.204  1.00  0.00    -0.744 OA
ENDBRANCH  94  95
ENDBRANCH  62  87
BRANCH  74  99
ATOM     99  C   UNL A   1      39.915  33.905  37.480  1.00  0.00     0.058 A 
ATOM    100  C   UNL A   1      40.629  35.101  37.646  1.00  0.00     0.135 A 
ATOM    101  C   UNL A   1      38.988  33.548  38.472  1.00  0.00     0.135 A 
ATOM    102  F   UNL A   1      41.528  35.485  36.725  1.00  0.00    -0.206 F 
ATOM    103  C   UNL A   1      40.447  35.903  38.767  1.00  0.00     0.059 A 
ATOM    104  C   UNL A   1      38.770  34.348  39.589  1.00  0.00     0.059 A 
ATOM    105  F   UNL A   1      38.269  32.420  38.353  1.00  0.00    -0.206 F 
ATOM    106  C   UNL A   1      39.513  35.519  39.732  1.00  0.00     0.060 A 
BRANCH 106 107
ATOM    107  S   UNL A   1      39.262  36.586  41.165  1.00  0.00     0.124 S 
ATOM    108  O   UNL A   1      38.760  37.805  40.540  1.00  0.00    -0.237 OA
ATOM    109  O   UNL A   1      38.292  35.830  41.951  1.00  0.00    -0.237 OA
ATOM    110  O   UNL A   1      40.595  36.683  41.754  1.00  0.00    -0.744 OA
ENDBRANCH 106 107
ENDBRANCH  74  99
ENDBRANCH  48  49
ENDBRANCH  40  43
ENDBRANCH  38  39
ENDBRANCH  37  38
ENDBRANCH  36  37
ENDBRANCH   1  36
TORSDOF 20
ENDMDL
MODEL 2
REMARK VINA RESULT:     -12.4      1.175      7.884
REMARK SMILES COc1ccc(N2C(=O)/C(=C/c3c(C(=O)NCCCCCCNC(=O)c4ccc(-c5c6nc(c(-c7c(F)cc(S(=O)(=O)[O-])cc7F)c7ccc([nH]7)c(-c7c(F)cc(S(=O)(=O)[O-])cc7F)c7nc(c(-c8c(F)cc(S(=O)(=O)[O-])cc8F)c8ccc5[nH]8)C=C7)C=C6)cc4)[nH]c4cc(OC)ccc34)SC2=S)cc1
REMARK SMILES IDX 19 1 18 2 17 3 16 4 14 5 15 6 13 8 12 9 100 10 92 11 93 12
REMARK SMILES IDX 99 13 94 15 98 16 95 17 11 18 7 19 8 20 102 21 9 22 10 23
REMARK SMILES IDX 101 24 103 25 6 26 3 27 4 28 105 29 5 30 104 31 2 32 1 33
REMARK SMILES IDX 96 34 97 35 20 36 21 37 22 38 23 39 24 40 25 42 26 43 27 44
REMARK SMILES IDX 91 45 28 46 90 47 29 48 30 49 31 50 84 51 32 52 89 53 83 54
REMARK SMILES IDX 85 55 33 56 88 57 82 58 81 59 34 61 68 62 47 63 67 64 48 65
REMARK SMILES IDX 51 66 66 67 86 68 49 69 50 70 65 72 87 73 52 74 35 75 36 76
REMARK SMILES IDX 45 77 37 78 38 79 44 80 46 81 39 82 40 83 41 84 42 85 43 86
REMARK SMILES IDX 69 87 70 88 79 89 71 90 72 91 78 92 80 93 73 94 74 95 75 96
REMARK SMILES IDX 76 97 77 98 53 99 54 100 63 101 55 102 56 103 62 104 64 105
REMARK SMILES IDX 57 106 58 107 59 108 60 109 61 110
REMARK H PARENT 16 7 92 14 23 41 85 60 51 71
REMARK Flexibility Score: inf
ROOT
ATOM      1  C   UNL A   1      37.402  22.282  24.664  1.00  0.00     0.002 C 
ENDROOT
BRANCH   1   2
ATOM      2  C   UNL A   1      36.972  23.725  24.962  1.00  0.00     0.021 C 
BRANCH   2   3
ATOM      3  C   UNL A   1      35.499  23.897  25.304  1.00  0.00     0.116 C 
BRANCH   3   4
ATOM      4  N   UNL A   1      35.148  23.369  26.607  1.00  0.00    -0.351 N 
ATOM      5  C   UNL A   1      34.352  22.277  26.845  1.00  0.00     0.268 C 
ATOM      6  O   UNL A   1      33.867  22.127  27.965  1.00  0.00    -0.268 OA
ATOM      7  H   UNL A   1      35.515  23.836  27.394  1.00  0.00     0.163 HD
BRANCH   5   8
ATOM      8  C   UNL A   1      34.008  21.434  25.728  1.00  0.00     0.112 A 
ATOM      9  C   UNL A   1      32.916  21.360  24.854  1.00  0.00     0.014 A 
ATOM     10  C   UNL A   1      32.949  20.000  24.330  1.00  0.00     0.008 A 
ATOM     11  N   UNL A   1      34.870  20.436  25.366  1.00  0.00    -0.350 N 
ATOM     12  C   UNL A   1      34.174  19.453  24.724  1.00  0.00     0.050 A 
ATOM     13  C   UNL A   1      32.086  19.126  23.616  1.00  0.00     0.015 A 
ATOM     14  H   UNL A   1      35.839  20.427  25.542  1.00  0.00     0.167 HD
ATOM     15  C   UNL A   1      34.559  18.128  24.510  1.00  0.00     0.073 A 
ATOM     16  C   UNL A   1      32.457  17.764  23.405  1.00  0.00     0.047 A 
ATOM     17  C   UNL A   1      33.677  17.271  23.863  1.00  0.00     0.120 A 
BRANCH   9  18
ATOM     18  C   UNL A   1      31.881  22.386  24.784  1.00  0.00     0.032 C 
ATOM     19  N   UNL A   1      31.601  25.735  23.361  1.00  0.00    -0.261 N 
ATOM     20  C   UNL A   1      31.045  24.705  24.135  1.00  0.00     0.270 C 
ATOM     21  C   UNL A   1      32.624  25.374  22.499  1.00  0.00     0.152 C 
ATOM     22  O   UNL A   1      30.139  24.792  24.950  1.00  0.00    -0.268 OA
ATOM     23  C   UNL A   1      31.829  23.427  23.917  1.00  0.00     0.081 C 
ATOM     24  S   UNL A   1      32.788  23.627  22.493  1.00  0.00    -0.054 SA
ATOM     25  S   UNL A   1      33.605  26.343  21.552  1.00  0.00    -0.051 S 
BRANCH  19  26
ATOM     26  C   UNL A   1      31.182  27.095  23.488  1.00  0.00     0.051 A 
ATOM     27  C   UNL A   1      30.139  29.676  23.965  1.00  0.00     0.119 A 
ATOM     28  C   UNL A   1      29.576  28.861  22.988  1.00  0.00     0.048 A 
ATOM     29  C   UNL A   1      31.201  29.194  24.729  1.00  0.00     0.048 A 
ATOM     30  C   UNL A   1      30.079  27.572  22.764  1.00  0.00     0.030 A 
ATOM     31  C   UNL A   1      31.729  27.912  24.485  1.00  0.00     0.030 A 
BRANCH  27  32
ATOM     32  O   UNL A   1      29.523  30.879  24.164  1.00  0.00    -0.497 OA
ATOM     33  C   UNL A   1      28.432  31.140  23.286  1.00  0.00     0.278 C 
ENDBRANCH  27  32
ENDBRANCH  19  26
ENDBRANCH   9  18
BRANCH  17  34
ATOM     34  O   UNL A   1      34.138  15.986  23.813  1.00  0.00    -0.497 OA
ATOM     35  C   UNL A   1      34.966  15.525  24.866  1.00  0.00     0.278 C 
ENDBRANCH  17  34
ENDBRANCH   5   8
ENDBRANCH   3   4
ENDBRANCH   2   3
ENDBRANCH   1   2
BRANCH   1  36
ATOM     36  C   UNL A   1      38.451  21.787  25.663  1.00  0.00     0.002 C 
BRANCH  36  37
ATOM     37  C   UNL A   1      39.215  22.761  26.555  1.00  0.00     0.021 C 
BRANCH  37  38
ATOM     38  C   UNL A   1      40.619  22.405  26.996  1.00  0.00     0.116 C 
BRANCH  38  39
ATOM     39  N   UNL A   1      41.641  22.730  26.009  1.00  0.00    -0.352 N 
ATOM     40  C   UNL A   1      42.391  23.881  25.870  1.00  0.00     0.251 C 
ATOM     41  H   UNL A   1      41.822  22.026  25.345  1.00  0.00     0.163 HD
ATOM     42  O   UNL A   1      43.124  24.022  24.896  1.00  0.00    -0.269 OA
BRANCH  40  43
ATOM     43  C   UNL A   1      42.288  24.955  26.886  1.00  0.00     0.039 A 
ATOM     44  C   UNL A   1      42.695  26.258  26.580  1.00  0.00     0.014 A 
ATOM     45  C   UNL A   1      41.756  24.679  28.142  1.00  0.00     0.014 A 
ATOM     46  C   UNL A   1      42.492  27.287  27.511  1.00  0.00     0.010 A 
ATOM     47  C   UNL A   1      41.397  25.718  28.984  1.00  0.00     0.010 A 
ATOM     48  C   UNL A   1      41.807  27.030  28.709  1.00  0.00    -0.014 A 
BRANCH  48  49
ATOM     49  C   UNL A   1      41.603  28.045  29.778  1.00  0.00     0.031 A 
ATOM     50  C   UNL A   1      42.513  27.997  30.984  1.00  0.00     0.074 A 
ATOM     51  C   UNL A   1      40.570  28.908  29.742  1.00  0.00     0.049 A 
ATOM     52  N   UNL A   1      42.379  28.563  32.154  1.00  0.00    -0.248 NA
ATOM     53  C   UNL A   1      43.699  27.126  30.877  1.00  0.00     0.031 C 
ATOM     54  C   UNL A   1      39.594  29.032  28.658  1.00  0.00     0.029 A 
ATOM     55  N   UNL A   1      40.156  29.835  30.665  1.00  0.00    -0.354 N 
ATOM     56  C   UNL A   1      43.420  28.065  32.932  1.00  0.00     0.074 A 
ATOM     57  C   UNL A   1      44.125  27.092  32.130  1.00  0.00     0.031 C 
ATOM     58  C   UNL A   1      38.710  29.997  28.968  1.00  0.00     0.029 A 
ATOM     59  C   UNL A   1      39.027  30.525  30.292  1.00  0.00     0.049 A 
ATOM     60  H   UNL A   1      40.625  29.993  31.517  1.00  0.00     0.167 HD
ATOM     61  C   UNL A   1      43.784  28.412  34.188  1.00  0.00     0.037 A 
ATOM     62  C   UNL A   1      38.324  31.469  30.951  1.00  0.00     0.037 A 
ATOM     63  C   UNL A   1      43.136  29.453  34.939  1.00  0.00     0.049 A 
ATOM     64  C   UNL A   1      38.782  31.888  32.326  1.00  0.00     0.074 A 
ATOM     65  C   UNL A   1      43.461  29.946  36.188  1.00  0.00     0.029 A 
ATOM     66  N   UNL A   1      42.046  30.183  34.487  1.00  0.00    -0.354 N 
ATOM     67  N   UNL A   1      39.779  31.421  33.042  1.00  0.00    -0.248 NA
ATOM     68  C   UNL A   1      38.026  32.965  32.978  1.00  0.00     0.031 C 
ATOM     69  C   UNL A   1      42.553  30.964  36.502  1.00  0.00     0.029 A 
ATOM     70  C   UNL A   1      41.689  31.130  35.430  1.00  0.00     0.049 A 
ATOM     71  H   UNL A   1      41.593  30.047  33.623  1.00  0.00     0.167 HD
ATOM     72  C   UNL A   1      39.791  32.174  34.212  1.00  0.00     0.074 A 
ATOM     73  C   UNL A   1      38.707  33.129  34.105  1.00  0.00     0.031 C 
ATOM     74  C   UNL A   1      40.623  32.087  35.281  1.00  0.00     0.037 A 
BRANCH  61  75
ATOM     75  C   UNL A   1      44.951  27.687  34.805  1.00  0.00     0.058 A 
ATOM     76  C   UNL A   1      44.785  26.480  35.506  1.00  0.00     0.135 A 
ATOM     77  C   UNL A   1      46.253  28.200  34.690  1.00  0.00     0.135 A 
ATOM     78  F   UNL A   1      43.561  25.952  35.665  1.00  0.00    -0.206 F 
ATOM     79  C   UNL A   1      45.859  25.834  36.109  1.00  0.00     0.059 A 
ATOM     80  C   UNL A   1      47.348  27.549  35.253  1.00  0.00     0.059 A 
ATOM     81  F   UNL A   1      46.473  29.348  34.030  1.00  0.00    -0.206 F 
ATOM     82  C   UNL A   1      47.137  26.376  35.976  1.00  0.00     0.060 A 
BRANCH  82  83
ATOM     83  S   UNL A   1      48.519  25.521  36.761  1.00  0.00     0.124 S 
ATOM     84  O   UNL A   1      48.503  26.106  38.098  1.00  0.00    -0.237 OA
ATOM     85  O   UNL A   1      48.110  24.122  36.677  1.00  0.00    -0.237 OA
ATOM     86  O   UNL A   1      49.662  25.887  35.929  1.00  0.00    -0.744 OA
ENDBRANCH  82  83
ENDBRANCH  61  75
BRANCH  62  87
ATOM     87  C   UNL A   1      37.146  32.114  30.311  1.00  0.00     0.058 A 
ATOM     88  C   UNL A   1      37.317  33.152  29.381  1.00  0.00     0.135 A 
ATOM     89  C   UNL A   1      35.833  31.714  30.606  1.00  0.00     0.135 A 
ATOM     90  F   UNL A   1      38.552  33.575  29.069  1.00  0.00    -0.206 F 
ATOM     91  C   UNL A   1      36.232  33.784  28.783  1.00  0.00     0.059 A 
ATOM     92  C   UNL A   1      34.732  32.315  30.001  1.00  0.00     0.059 A 
ATOM     93  F   UNL A   1      35.613  30.716  31.475  1.00  0.00    -0.206 F 
ATOM     94  C   UNL A   1      34.942  33.358  29.099  1.00  0.00     0.060 A 
BRANCH  94  95
ATOM     95  S   UNL A   1      33.542  34.161  28.284  1.00  0.00     0.124 S 
ATOM     96  O   UNL A   1      34.216  35.136  27.435  1.00  0.00    -0.237 OA
ATOM     97  O   UNL A   1      32.908  33.042  27.593  1.00  0.00    -0.237 OA
ATOM     98  O   UNL A   1      32.778  34.713  29.398  1.00  0.00    -0.744 OA
ENDBRANCH  94  95
ENDBRANCH  62  87
BRANCH  74  99
ATOM     99  C   UNL A   1      40.437  33.086  36.386  1.00  0.00     0.058 A 
ATOM    100  C   UNL A   1      41.208  34.256  36.463  1.00  0.00     0.135 A 
ATOM    101  C   UNL A   1      39.426  32.899  37.343  1.00  0.00     0.135 A 
ATOM    102  F   UNL A   1      42.187  34.480  35.572  1.00  0.00    -0.206 F 
ATOM    103  C   UNL A   1      40.999  35.195  37.467  1.00  0.00     0.059 A 
ATOM    104  C   UNL A   1      39.182  33.838  38.339  1.00  0.00     0.059 A 
ATOM    105  F   UNL A   1      38.652  31.802  37.303  1.00  0.00    -0.206 F 
ATOM    106  C   UNL A   1      39.981  34.978  38.399  1.00  0.00     0.060 A 
BRANCH 106 107
ATOM    107  S   UNL A   1      39.698  36.221  39.675  1.00  0.00     0.124 S 
ATOM    108  O   UNL A   1      41.034  36.370  40.243  1.00  0.00    -0.237 OA
ATOM    109  O   UNL A   1      39.208  37.358  38.901  1.00  0.00    -0.237 OA
ATOM    110  O   UNL A   1      38.709  35.594  40.547  1.00  0.00    -0.744 OA
ENDBRANCH 106 107
ENDBRANCH  74  99
ENDBRANCH  48  49
ENDBRANCH  40  43
ENDBRANCH  38  39
ENDBRANCH  37  38
ENDBRANCH  36  37
ENDBRANCH   1  36
TORSDOF 20
ENDMDL
MODEL 3
REMARK VINA RESULT:     -12.3      5.962      8.074
REMARK SMILES COc1ccc(N2C(=O)/C(=C/c3c(C(=O)NCCCCCCNC(=O)c4ccc(-c5c6nc(c(-c7c(F)cc(S(=O)(=O)[O-])cc7F)c7ccc([nH]7)c(-c7c(F)cc(S(=O)(=O)[O-])cc7F)c7nc(c(-c8c(F)cc(S(=O)(=O)[O-])cc8F)c8ccc5[nH]8)C=C7)C=C6)cc4)[nH]c4cc(OC)ccc34)SC2=S)cc1
REMARK SMILES IDX 19 1 18 2 17 3 16 4 14 5 15 6 13 8 12 9 100 10 92 11 93 12
REMARK SMILES IDX 99 13 94 15 98 16 95 17 11 18 7 19 8 20 102 21 9 22 10 23
REMARK SMILES IDX 101 24 103 25 6 26 3 27 4 28 105 29 5 30 104 31 2 32 1 33
REMARK SMILES IDX 96 34 97 35 20 36 21 37 22 38 23 39 24 40 25 42 26 43 27 44
REMARK SMILES IDX 91 45 28 46 90 47 29 48 30 49 31 50 84 51 32 52 89 53 83 54
REMARK SMILES IDX 85 55 33 56 88 57 82 58 81 59 34 61 68 62 47 63 67 64 48 65
REMARK SMILES IDX 51 66 66 67 86 68 49 69 50 70 65 72 87 73 52 74 35 75 36 76
REMARK SMILES IDX 45 77 37 78 38 79 44 80 46 81 39 82 40 83 41 84 42 85 43 86
REMARK SMILES IDX 69 87 70 88 79 89 71 90 72 91 78 92 80 93 73 94 74 95 75 96
REMARK SMILES IDX 76 97 77 98 53 99 54 100 63 101 55 102 56 103 62 104 64 105
REMARK SMILES IDX 57 106 58 107 59 108 60 109 61 110
REMARK H PARENT 16 7 92 14 23 41 85 60 51 71
REMARK Flexibility Score: inf
ROOT
ATOM      1  C   UNL A   1      37.565  22.641  25.672  1.00  0.00     0.002 C 
ENDROOT
BRANCH   1   2
ATOM      2  C   UNL A   1      36.862  23.992  25.485  1.00  0.00     0.021 C 
BRANCH   2   3
ATOM      3  C   UNL A   1      35.346  23.951  25.616  1.00  0.00     0.116 C 
BRANCH   3   4
ATOM      4  N   UNL A   1      34.895  23.390  26.874  1.00  0.00    -0.351 N 
ATOM      5  C   UNL A   1      34.102  22.280  27.021  1.00  0.00     0.268 C 
ATOM      6  O   UNL A   1      33.525  22.098  28.091  1.00  0.00    -0.268 OA
ATOM      7  H   UNL A   1      35.184  23.847  27.697  1.00  0.00     0.163 HD
BRANCH   5   8
ATOM      8  C   UNL A   1      33.870  21.455  25.862  1.00  0.00     0.112 A 
ATOM      9  C   UNL A   1      32.833  21.344  24.927  1.00  0.00     0.014 A 
ATOM     10  C   UNL A   1      32.977  20.006  24.366  1.00  0.00     0.008 A 
ATOM     11  N   UNL A   1      34.809  20.522  25.520  1.00  0.00    -0.350 N 
ATOM     12  C   UNL A   1      34.211  19.520  24.812  1.00  0.00     0.050 A 
ATOM     13  C   UNL A   1      32.209  19.106  23.581  1.00  0.00     0.015 A 
ATOM     14  H   UNL A   1      35.766  20.565  25.749  1.00  0.00     0.167 HD
ATOM     15  C   UNL A   1      34.687  18.229  24.581  1.00  0.00     0.073 A 
ATOM     16  C   UNL A   1      32.673  17.777  23.351  1.00  0.00     0.047 A 
ATOM     17  C   UNL A   1      33.895  17.342  23.861  1.00  0.00     0.120 A 
BRANCH   9  18
ATOM     18  C   UNL A   1      31.743  22.308  24.830  1.00  0.00     0.032 C 
ATOM     19  N   UNL A   1      31.367  25.726  23.608  1.00  0.00    -0.261 N 
ATOM     20  C   UNL A   1      30.814  24.613  24.259  1.00  0.00     0.270 C 
ATOM     21  C   UNL A   1      32.482  25.490  22.821  1.00  0.00     0.152 C 
ATOM     22  O   UNL A   1      29.837  24.588  24.992  1.00  0.00    -0.268 OA
ATOM     23  C   UNL A   1      31.697  23.403  24.031  1.00  0.00     0.081 C 
ATOM     24  S   UNL A   1      32.761  23.761  22.717  1.00  0.00    -0.054 SA
ATOM     25  S   UNL A   1      33.476  26.581  22.033  1.00  0.00    -0.051 S 
BRANCH  19  26
ATOM     26  C   UNL A   1      30.849  27.047  23.784  1.00  0.00     0.051 A 
ATOM     27  C   UNL A   1      30.025  29.746  23.887  1.00  0.00     0.119 A 
ATOM     28  C   UNL A   1      31.105  29.312  24.650  1.00  0.00     0.048 A 
ATOM     29  C   UNL A   1      29.376  28.844  23.045  1.00  0.00     0.048 A 
ATOM     30  C   UNL A   1      31.528  27.978  24.586  1.00  0.00     0.030 A 
ATOM     31  C   UNL A   1      29.778  27.496  23.002  1.00  0.00     0.030 A 
BRANCH  27  32
ATOM     32  O   UNL A   1      29.746  31.082  23.956  1.00  0.00    -0.497 OA
ATOM     33  C   UNL A   1      28.804  31.542  22.994  1.00  0.00     0.278 C 
ENDBRANCH  27  32
ENDBRANCH  19  26
ENDBRANCH   9  18
BRANCH  17  34
ATOM     34  O   UNL A   1      34.436  16.089  23.800  1.00  0.00    -0.497 OA
ATOM     35  C   UNL A   1      35.170  15.615  24.914  1.00  0.00     0.278 C 
ENDBRANCH  17  34
ENDBRANCH   5   8
ENDBRANCH   3   4
ENDBRANCH   2   3
ENDBRANCH   1   2
BRANCH   1  36
ATOM     36  C   UNL A   1      38.883  22.790  26.435  1.00  0.00     0.002 C 
BRANCH  36  37
ATOM     37  C   UNL A   1      39.788  21.589  26.693  1.00  0.00     0.021 C 
BRANCH  37  38
ATOM     38  C   UNL A   1      39.776  20.437  25.710  1.00  0.00     0.116 C 
BRANCH  38  39
ATOM     39  N   UNL A   1      40.676  19.349  26.075  1.00  0.00    -0.352 N 
ATOM     40  C   UNL A   1      42.002  19.400  26.455  1.00  0.00     0.251 C 
ATOM     41  H   UNL A   1      40.280  18.449  26.047  1.00  0.00     0.163 HD
ATOM     42  O   UNL A   1      42.637  18.361  26.608  1.00  0.00    -0.269 OA
BRANCH  40  43
ATOM     43  C   UNL A   1      42.665  20.712  26.649  1.00  0.00     0.039 A 
ATOM     44  C   UNL A   1      43.116  21.445  25.547  1.00  0.00     0.014 A 
ATOM     45  C   UNL A   1      42.813  21.235  27.930  1.00  0.00     0.014 A 
ATOM     46  C   UNL A   1      43.642  22.731  25.736  1.00  0.00     0.010 A 
ATOM     47  C   UNL A   1      43.166  22.564  28.097  1.00  0.00     0.010 A 
ATOM     48  C   UNL A   1      43.638  23.316  27.012  1.00  0.00    -0.014 A 
BRANCH  48  49
ATOM     49  C   UNL A   1      44.232  24.647  27.313  1.00  0.00     0.031 A 
ATOM     50  C   UNL A   1      43.301  25.757  27.743  1.00  0.00     0.074 A 
ATOM     51  C   UNL A   1      45.537  24.900  27.100  1.00  0.00     0.049 A 
ATOM     52  N   UNL A   1      43.506  27.046  27.791  1.00  0.00    -0.248 NA
ATOM     53  C   UNL A   1      41.923  25.361  28.091  1.00  0.00     0.031 C 
ATOM     54  C   UNL A   1      46.536  23.931  26.647  1.00  0.00     0.029 A 
ATOM     55  N   UNL A   1      46.244  26.072  27.215  1.00  0.00    -0.354 N 
ATOM     56  C   UNL A   1      42.273  27.610  28.108  1.00  0.00     0.074 A 
ATOM     57  C   UNL A   1      41.312  26.533  28.159  1.00  0.00     0.031 C 
ATOM     58  C   UNL A   1      47.730  24.541  26.548  1.00  0.00     0.029 A 
ATOM     59  C   UNL A   1      47.572  25.954  26.881  1.00  0.00     0.049 A 
ATOM     60  H   UNL A   1      45.836  26.919  27.511  1.00  0.00     0.167 HD
ATOM     61  C   UNL A   1      41.972  28.902  28.373  1.00  0.00     0.037 A 
ATOM     62  C   UNL A   1      48.546  26.886  26.840  1.00  0.00     0.037 A 
ATOM     63  C   UNL A   1      42.956  29.949  28.418  1.00  0.00     0.049 A 
ATOM     64  C   UNL A   1      48.204  28.311  27.199  1.00  0.00     0.074 A 
ATOM     65  C   UNL A   1      42.786  31.280  28.749  1.00  0.00     0.029 A 
ATOM     66  N   UNL A   1      44.306  29.768  28.153  1.00  0.00    -0.354 N 
ATOM     67  N   UNL A   1      47.038  28.826  27.514  1.00  0.00    -0.248 NA
ATOM     68  C   UNL A   1      49.309  29.278  27.204  1.00  0.00     0.031 C 
ATOM     69  C   UNL A   1      44.032  31.910  28.664  1.00  0.00     0.029 A 
ATOM     70  C   UNL A   1      44.983  30.963  28.320  1.00  0.00     0.049 A 
ATOM     71  H   UNL A   1      44.721  28.916  27.885  1.00  0.00     0.167 HD
ATOM     72  C   UNL A   1      47.278  30.168  27.792  1.00  0.00     0.074 A 
ATOM     73  C   UNL A   1      48.700  30.383  27.613  1.00  0.00     0.031 C 
ATOM     74  C   UNL A   1      46.405  31.138  28.163  1.00  0.00     0.037 A 
BRANCH  61  75
ATOM     75  C   UNL A   1      40.535  29.240  28.669  1.00  0.00     0.058 A 
ATOM     76  C   UNL A   1      40.065  29.388  29.986  1.00  0.00     0.135 A 
ATOM     77  C   UNL A   1      39.614  29.424  27.625  1.00  0.00     0.135 A 
ATOM     78  F   UNL A   1      40.896  29.205  31.024  1.00  0.00    -0.206 F 
ATOM     79  C   UNL A   1      38.729  29.660  30.257  1.00  0.00     0.059 A 
ATOM     80  C   UNL A   1      38.279  29.735  27.873  1.00  0.00     0.059 A 
ATOM     81  F   UNL A   1      40.004  29.297  26.347  1.00  0.00    -0.206 F 
ATOM     82  C   UNL A   1      37.843  29.832  29.194  1.00  0.00     0.060 A 
BRANCH  82  83
ATOM     83  S   UNL A   1      36.113  30.190  29.565  1.00  0.00     0.124 S 
ATOM     84  O   UNL A   1      35.433  29.501  28.473  1.00  0.00    -0.237 OA
ATOM     85  O   UNL A   1      35.949  29.598  30.889  1.00  0.00    -0.237 OA
ATOM     86  O   UNL A   1      36.052  31.648  29.522  1.00  0.00    -0.744 OA
ENDBRANCH  82  83
ENDBRANCH  61  75
BRANCH  62  87
ATOM     87  C   UNL A   1      49.940  26.502  26.489  1.00  0.00     0.058 A 
ATOM     88  C   UNL A   1      50.831  26.059  27.480  1.00  0.00     0.135 A 
ATOM     89  C   UNL A   1      50.414  26.564  25.169  1.00  0.00     0.135 A 
ATOM     90  F   UNL A   1      50.428  25.989  28.758  1.00  0.00    -0.206 F 
ATOM     91  C   UNL A   1      52.144  25.713  27.181  1.00  0.00     0.059 A 
ATOM     92  C   UNL A   1      51.718  26.199  24.842  1.00  0.00     0.059 A 
ATOM     93  F   UNL A   1      49.600  26.964  24.180  1.00  0.00    -0.206 F 
ATOM     94  C   UNL A   1      52.579  25.786  25.858  1.00  0.00     0.060 A 
BRANCH  94  95
ATOM     95  S   UNL A   1      54.276  25.293  25.477  1.00  0.00     0.124 S 
ATOM     96  O   UNL A   1      54.718  26.395  24.631  1.00  0.00    -0.237 OA
ATOM     97  O   UNL A   1      54.880  25.225  26.805  1.00  0.00    -0.237 OA
ATOM     98  O   UNL A   1      54.109  24.008  24.806  1.00  0.00    -0.744 OA
ENDBRANCH  94  95
ENDBRANCH  62  87
BRANCH  74  99
ATOM     99  C   UNL A   1      46.966  32.498  28.461  1.00  0.00     0.058 A 
ATOM    100  C   UNL A   1      47.029  33.504  27.485  1.00  0.00     0.135 A 
ATOM    101  C   UNL A   1      47.386  32.817  29.763  1.00  0.00     0.135 A 
ATOM    102  F   UNL A   1      46.641  33.247  26.225  1.00  0.00    -0.206 F 
ATOM    103  C   UNL A   1      47.511  34.773  27.783  1.00  0.00     0.059 A 
ATOM    104  C   UNL A   1      47.846  34.087  30.090  1.00  0.00     0.059 A 
ATOM    105  F   UNL A   1      47.332  31.893  30.736  1.00  0.00    -0.206 F 
ATOM    106  C   UNL A   1      47.916  35.056  29.090  1.00  0.00     0.060 A 
BRANCH 106 107
ATOM    107  S   UNL A   1      48.507  36.717  29.471  1.00  0.00     0.124 S 
ATOM    108  O   UNL A   1      47.577  37.543  28.708  1.00  0.00    -0.237 OA
ATOM    109  O   UNL A   1      48.362  36.774  30.923  1.00  0.00    -0.237 OA
ATOM    110  O   UNL A   1      49.884  36.707  28.986  1.00  0.00    -0.744 OA
ENDBRANCH 106 107
ENDBRANCH  74  99
ENDBRANCH  48  49
ENDBRANCH  40  43
ENDBRANCH  38  39
ENDBRANCH  37  38
ENDBRANCH  36  37
ENDBRANCH   1  36
TORSDOF 20
ENDMDL
