MODEL 1
REMARK VINA RESULT:     -11.4      0.000      0.000
REMARK SMILES C=CCN1C(=O)/C(=C/c2ccccn2)S/C1=[NH+]\c1ccc(C(=O)NCCCCCCNC(=O)c2ccc(-c3c4nc(c(-c5c(F)cc(S(=O)(=O)[O-])cc5F)c5ccc([nH]5)c(-c5c(F)cc(S(=O)(=O)[O-])cc5F)c5nc(c(-c6c(F)cc(S(=O)(=O)[O-])cc6F)c6ccc3[nH]6)C=C5)C=C4)cc2)cc1
REMARK SMILES IDX 27 1 26 2 25 3 24 4 22 5 23 6 21 8 18 9 19 10 101 11 20 12
REMARK SMILES IDX 100 13 17 14 4 15 5 16 16 17 6 18 7 19 15 20 8 21 3 23 2 24
REMARK SMILES IDX 1 25 9 26 10 27 14 28 11 29 13 30 12 31 28 32 29 33 30 34
REMARK SMILES IDX 31 35 32 36 33 38 34 39 35 40 99 41 36 42 98 43 37 44 38 45
REMARK SMILES IDX 39 46 92 47 40 48 97 49 91 50 93 51 41 52 96 53 90 54 89 55
REMARK SMILES IDX 42 57 76 58 55 59 75 60 56 61 59 62 74 63 94 64 57 65 58 66
REMARK SMILES IDX 73 68 95 69 60 70 43 71 44 72 53 73 45 74 46 75 52 76 54 77
REMARK SMILES IDX 47 78 48 79 49 80 50 81 51 82 77 83 78 84 87 85 79 86 80 87
REMARK SMILES IDX 86 88 88 89 81 90 82 91 83 92 84 93 85 94 61 95 62 96 71 97
REMARK SMILES IDX 63 98 64 99 70 100 72 101 65 102 66 103 67 104 68 105 69 106
REMARK H PARENT 24 7 17 22 31 37 93 56 59 67
REMARK Flexibility Score: inf
ROOT
ATOM      1  C   UNL A   1      44.799  22.555  24.044  1.00  0.00     0.002 C 
ENDROOT
BRANCH   1   2
ATOM      2  C   UNL A   1      44.162  21.702  25.148  1.00  0.00     0.021 C 
BRANCH   2   3
ATOM      3  C   UNL A   1      42.676  22.003  25.361  1.00  0.00     0.116 C 
BRANCH   3   4
ATOM      4  N   UNL A   1      42.201  21.337  26.559  1.00  0.00    -0.352 N 
ATOM      5  C   UNL A   1      40.949  21.192  27.096  1.00  0.00     0.251 C 
ATOM      6  O   UNL A   1      40.839  20.543  28.138  1.00  0.00    -0.269 OA
ATOM      7  H   UNL A   1      42.914  20.908  27.086  1.00  0.00     0.163 HD
BRANCH   5   8
ATOM      8  C   UNL A   1      39.722  21.728  26.447  1.00  0.00     0.040 A 
ATOM      9  C   UNL A   1      37.369  22.860  25.384  1.00  0.00     0.125 A 
ATOM     10  C   UNL A   1      38.195  23.613  26.218  1.00  0.00     0.052 A 
ATOM     11  C   UNL A   1      37.769  21.572  25.021  1.00  0.00     0.052 A 
ATOM     12  C   UNL A   1      39.360  23.049  26.751  1.00  0.00     0.018 A 
ATOM     13  C   UNL A   1      38.945  21.015  25.532  1.00  0.00     0.018 A 
BRANCH   9  14
ATOM     14  N   UNL A   1      36.204  23.421  24.845  1.00  0.00    -0.234 N 
ATOM     15  N   UNL A   1      34.034  23.178  24.011  1.00  0.00    -0.182 N 
ATOM     16  C   UNL A   1      32.986  22.294  23.856  1.00  0.00     0.349 C 
ATOM     17  C   UNL A   1      35.170  22.683  24.602  1.00  0.00     0.324 C 
ATOM     18  O   UNL A   1      31.839  22.564  23.512  1.00  0.00    -0.240 OA
ATOM     19  C   UNL A   1      33.413  20.925  24.242  1.00  0.00     0.111 C 
ATOM     20  S   UNL A   1      34.972  20.980  24.962  1.00  0.00     0.007 SA
ATOM     21  C   UNL A   1      32.658  19.845  24.000  1.00  0.00     0.052 C 
ATOM     22  H   UNL A   1      36.172  24.385  24.650  1.00  0.00     0.313 HD
BRANCH  15  23
ATOM     23  C   UNL A   1      33.882  24.591  23.707  1.00  0.00     0.275 C 
BRANCH  23  24
ATOM     24  C   UNL A   1      33.012  25.268  24.727  1.00  0.00     0.011 C 
ATOM     25  C   UNL A   1      33.342  25.379  26.022  1.00  0.00     0.008 C 
ENDBRANCH  23  24
ENDBRANCH  15  23
BRANCH  21  26
ATOM     26  C   UNL A   1      33.010  18.477  24.365  1.00  0.00     0.064 A 
ATOM     27  C   UNL A   1      32.477  17.871  25.499  1.00  0.00     0.028 A 
ATOM     28  N   UNL A   1      33.853  17.847  23.520  1.00  0.00    -0.257 NA
ATOM     29  C   UNL A   1      32.855  16.566  25.798  1.00  0.00     0.004 A 
ATOM     30  C   UNL A   1      34.206  16.581  23.837  1.00  0.00     0.111 A 
ATOM     31  C   UNL A   1      33.741  15.907  24.955  1.00  0.00     0.020 A 
ENDBRANCH  21  26
ENDBRANCH   9  14
ENDBRANCH   5   8
ENDBRANCH   3   4
ENDBRANCH   2   3
ENDBRANCH   1   2
BRANCH   1  32
ATOM     32  C   UNL A   1      45.766  23.634  24.550  1.00  0.00     0.002 C 
BRANCH  32  33
ATOM     33  C   UNL A   1      45.800  23.805  26.072  1.00  0.00     0.021 C 
BRANCH  33  34
ATOM     34  C   UNL A   1      44.893  24.912  26.600  1.00  0.00     0.116 C 
BRANCH  34  35
ATOM     35  N   UNL A   1      44.030  25.437  25.554  1.00  0.00    -0.352 N 
ATOM     36  C   UNL A   1      42.940  26.263  25.649  1.00  0.00     0.251 C 
ATOM     37  H   UNL A   1      44.265  25.157  24.639  1.00  0.00     0.163 HD
ATOM     38  O   UNL A   1      42.189  26.385  24.686  1.00  0.00    -0.269 OA
BRANCH  36  39
ATOM     39  C   UNL A   1      42.665  26.997  26.904  1.00  0.00     0.039 A 
ATOM     40  C   UNL A   1      43.322  28.207  27.129  1.00  0.00     0.014 A 
ATOM     41  C   UNL A   1      41.799  26.480  27.875  1.00  0.00     0.014 A 
ATOM     42  C   UNL A   1      43.083  28.916  28.307  1.00  0.00     0.010 A 
ATOM     43  C   UNL A   1      41.500  27.227  29.012  1.00  0.00     0.010 A 
ATOM     44  C   UNL A   1      42.149  28.447  29.248  1.00  0.00    -0.014 A 
BRANCH  44  45
ATOM     45  C   UNL A   1      41.848  29.244  30.466  1.00  0.00     0.031 A 
ATOM     46  C   UNL A   1      40.647  30.150  30.518  1.00  0.00     0.074 A 
ATOM     47  C   UNL A   1      42.675  29.154  31.526  1.00  0.00     0.049 A 
ATOM     48  N   UNL A   1      40.202  30.869  31.516  1.00  0.00    -0.248 NA
ATOM     49  C   UNL A   1      39.856  30.287  29.284  1.00  0.00     0.031 C 
ATOM     50  C   UNL A   1      43.909  28.363  31.569  1.00  0.00     0.029 A 
ATOM     51  N   UNL A   1      42.602  29.720  32.773  1.00  0.00    -0.354 N 
ATOM     52  C   UNL A   1      39.082  31.540  31.035  1.00  0.00     0.074 A 
ATOM     53  C   UNL A   1      38.955  31.192  29.637  1.00  0.00     0.031 C 
ATOM     54  C   UNL A   1      44.448  28.456  32.794  1.00  0.00     0.029 A 
ATOM     55  C   UNL A   1      43.623  29.338  33.611  1.00  0.00     0.049 A 
ATOM     56  H   UNL A   1      41.887  30.341  33.042  1.00  0.00     0.167 HD
ATOM     57  C   UNL A   1      38.226  32.349  31.703  1.00  0.00     0.037 A 
ATOM     58  C   UNL A   1      43.862  29.654  34.899  1.00  0.00     0.037 A 
ATOM     59  C   UNL A   1      38.357  32.681  33.101  1.00  0.00     0.049 A 
ATOM     60  C   UNL A   1      42.886  30.539  35.624  1.00  0.00     0.074 A 
ATOM     61  C   UNL A   1      37.517  33.452  33.885  1.00  0.00     0.029 A 
ATOM     62  N   UNL A   1      39.399  32.268  33.920  1.00  0.00    -0.354 N 
ATOM     63  N   UNL A   1      41.792  31.103  35.173  1.00  0.00    -0.248 NA
ATOM     64  C   UNL A   1      43.169  30.813  37.039  1.00  0.00     0.031 C 
ATOM     65  C   UNL A   1      38.077  33.547  35.165  1.00  0.00     0.029 A 
ATOM     66  C   UNL A   1      39.233  32.783  35.196  1.00  0.00     0.049 A 
ATOM     67  H   UNL A   1      40.146  31.693  33.637  1.00  0.00     0.167 HD
ATOM     68  C   UNL A   1      41.239  31.779  36.256  1.00  0.00     0.074 A 
ATOM     69  C   UNL A   1      42.110  31.530  37.388  1.00  0.00     0.031 C 
ATOM     70  C   UNL A   1      40.113  32.534  36.311  1.00  0.00     0.037 A 
BRANCH  57  71
ATOM     71  C   UNL A   1      37.066  32.930  30.935  1.00  0.00     0.058 A 
ATOM     72  C   UNL A   1      37.254  33.896  29.933  1.00  0.00     0.135 A 
ATOM     73  C   UNL A   1      35.756  32.487  31.174  1.00  0.00     0.135 A 
ATOM     74  F   UNL A   1      38.483  34.369  29.669  1.00  0.00    -0.206 F 
ATOM     75  C   UNL A   1      36.183  34.423  29.217  1.00  0.00     0.059 A 
ATOM     76  C   UNL A   1      34.672  32.977  30.448  1.00  0.00     0.059 A 
ATOM     77  F   UNL A   1      35.515  31.564  32.120  1.00  0.00    -0.206 F 
ATOM     78  C   UNL A   1      34.895  33.955  29.482  1.00  0.00     0.060 A 
BRANCH  78  79
ATOM     79  S   UNL A   1      33.518  34.643  28.537  1.00  0.00     0.124 S 
ATOM     80  O   UNL A   1      33.289  33.593  27.550  1.00  0.00    -0.237 OA
ATOM     81  O   UNL A   1      32.485  34.790  29.557  1.00  0.00    -0.237 OA
ATOM     82  O   UNL A   1      34.057  35.893  28.010  1.00  0.00    -0.744 OA
ENDBRANCH  78  79
ENDBRANCH  57  71
BRANCH  58  83
ATOM     83  C   UNL A   1      45.056  29.097  35.590  1.00  0.00     0.058 A 
ATOM     84  C   UNL A   1      46.278  29.787  35.596  1.00  0.00     0.135 A 
ATOM     85  C   UNL A   1      44.995  27.872  36.272  1.00  0.00     0.135 A 
ATOM     86  F   UNL A   1      46.390  30.961  34.957  1.00  0.00    -0.206 F 
ATOM     87  C   UNL A   1      47.403  29.273  36.235  1.00  0.00     0.059 A 
ATOM     88  C   UNL A   1      46.097  27.352  36.943  1.00  0.00     0.059 A 
ATOM     89  F   UNL A   1      43.845  27.183  36.315  1.00  0.00    -0.206 F 
ATOM     90  C   UNL A   1      47.300  28.054  36.909  1.00  0.00     0.060 A 
BRANCH  90  91
ATOM     91  S   UNL A   1      48.751  27.419  37.778  1.00  0.00     0.124 S 
ATOM     92  O   UNL A   1      49.030  28.502  38.714  1.00  0.00    -0.237 OA
ATOM     93  O   UNL A   1      48.240  26.184  38.363  1.00  0.00    -0.237 OA
ATOM     94  O   UNL A   1      49.729  27.240  36.709  1.00  0.00    -0.744 OA
ENDBRANCH  90  91
ENDBRANCH  58  83
BRANCH  70  95
ATOM     95  C   UNL A   1      39.744  33.114  37.652  1.00  0.00     0.058 A 
ATOM     96  C   UNL A   1      38.689  32.596  38.421  1.00  0.00     0.135 A 
ATOM     97  C   UNL A   1      40.456  34.207  38.171  1.00  0.00     0.135 A 
ATOM     98  F   UNL A   1      37.973  31.552  37.971  1.00  0.00    -0.206 F 
ATOM     99  C   UNL A   1      38.317  33.177  39.630  1.00  0.00     0.059 A 
ATOM    100  C   UNL A   1      40.125  34.780  39.395  1.00  0.00     0.059 A 
ATOM    101  F   UNL A   1      41.485  34.732  37.488  1.00  0.00    -0.206 F 
ATOM    102  C   UNL A   1      39.038  34.275  40.104  1.00  0.00     0.060 A 
BRANCH 102 103
ATOM    103  S   UNL A   1      38.532  35.034  41.662  1.00  0.00     0.124 S 
ATOM    104  O   UNL A   1      37.118  34.679  41.715  1.00  0.00    -0.237 OA
ATOM    105  O   UNL A   1      39.391  34.362  42.632  1.00  0.00    -0.237 OA
ATOM    106  O   UNL A   1      38.818  36.451  41.457  1.00  0.00    -0.744 OA
ENDBRANCH 102 103
ENDBRANCH  70  95
ENDBRANCH  44  45
ENDBRANCH  36  39
ENDBRANCH  34  35
ENDBRANCH  33  34
ENDBRANCH  32  33
ENDBRANCH   1  32
TORSDOF 20
ENDMDL
MODEL 2
REMARK VINA RESULT:     -11.3      3.894     10.910
REMARK SMILES C=CCN1C(=O)/C(=C/c2ccccn2)S/C1=[NH+]\c1ccc(C(=O)NCCCCCCNC(=O)c2ccc(-c3c4nc(c(-c5c(F)cc(S(=O)(=O)[O-])cc5F)c5ccc([nH]5)c(-c5c(F)cc(S(=O)(=O)[O-])cc5F)c5nc(c(-c6c(F)cc(S(=O)(=O)[O-])cc6F)c6ccc3[nH]6)C=C5)C=C4)cc2)cc1
REMARK SMILES IDX 27 1 26 2 25 3 24 4 22 5 23 6 21 8 18 9 19 10 101 11 20 12
REMARK SMILES IDX 100 13 17 14 4 15 5 16 16 17 6 18 7 19 15 20 8 21 3 23 2 24
REMARK SMILES IDX 1 25 9 26 10 27 14 28 11 29 13 30 12 31 28 32 29 33 30 34
REMARK SMILES IDX 31 35 32 36 33 38 34 39 35 40 99 41 36 42 98 43 37 44 38 45
REMARK SMILES IDX 39 46 92 47 40 48 97 49 91 50 93 51 41 52 96 53 90 54 89 55
REMARK SMILES IDX 42 57 76 58 55 59 75 60 56 61 59 62 74 63 94 64 57 65 58 66
REMARK SMILES IDX 73 68 95 69 60 70 43 71 44 72 53 73 45 74 46 75 52 76 54 77
REMARK SMILES IDX 47 78 48 79 49 80 50 81 51 82 77 83 78 84 87 85 79 86 80 87
REMARK SMILES IDX 86 88 88 89 81 90 82 91 83 92 84 93 85 94 61 95 62 96 71 97
REMARK SMILES IDX 63 98 64 99 70 100 72 101 65 102 66 103 67 104 68 105 69 106
REMARK H PARENT 24 7 17 22 31 37 93 56 59 67
REMARK Flexibility Score: inf
ROOT
ATOM      1  C   UNL A   1      41.889  19.859  27.310  1.00  0.00     0.002 C 
ENDROOT
BRANCH   1   2
ATOM      2  C   UNL A   1      42.788  18.900  26.520  1.00  0.00     0.021 C 
BRANCH   2   3
ATOM      3  C   UNL A   1      43.271  19.484  25.190  1.00  0.00     0.116 C 
BRANCH   3   4
ATOM      4  N   UNL A   1      44.689  19.222  25.019  1.00  0.00    -0.352 N 
ATOM      5  C   UNL A   1      45.787  20.040  25.070  1.00  0.00     0.251 C 
ATOM      6  O   UNL A   1      46.896  19.528  24.903  1.00  0.00    -0.269 OA
ATOM      7  H   UNL A   1      44.900  18.279  24.832  1.00  0.00     0.163 HD
BRANCH   5   8
ATOM      8  C   UNL A   1      45.702  21.494  25.376  1.00  0.00     0.040 A 
ATOM      9  C   UNL A   1      45.677  24.280  25.804  1.00  0.00     0.125 A 
ATOM     10  C   UNL A   1      45.872  23.769  24.521  1.00  0.00     0.052 A 
ATOM     11  C   UNL A   1      45.414  23.394  26.851  1.00  0.00     0.052 A 
ATOM     12  C   UNL A   1      45.891  22.386  24.309  1.00  0.00     0.018 A 
ATOM     13  C   UNL A   1      45.407  22.013  26.637  1.00  0.00     0.018 A 
BRANCH   9  14
ATOM     14  N   UNL A   1      45.654  25.664  26.021  1.00  0.00    -0.234 N 
ATOM     15  N   UNL A   1      46.772  27.708  26.205  1.00  0.00    -0.182 N 
ATOM     16  C   UNL A   1      47.984  28.342  26.022  1.00  0.00     0.349 C 
ATOM     17  C   UNL A   1      46.738  26.362  25.932  1.00  0.00     0.324 C 
ATOM     18  O   UNL A   1      48.193  29.551  26.044  1.00  0.00    -0.240 OA
ATOM     19  C   UNL A   1      49.038  27.344  25.709  1.00  0.00     0.111 C 
ATOM     20  S   UNL A   1      48.327  25.801  25.455  1.00  0.00     0.007 SA
ATOM     21  C   UNL A   1      50.339  27.664  25.682  1.00  0.00     0.052 C 
ATOM     22  H   UNL A   1      44.804  26.108  26.243  1.00  0.00     0.313 HD
BRANCH  15  23
ATOM     23  C   UNL A   1      45.567  28.457  26.518  1.00  0.00     0.275 C 
BRANCH  23  24
ATOM     24  C   UNL A   1      45.567  28.897  27.953  1.00  0.00     0.011 C 
ATOM     25  C   UNL A   1      46.108  28.178  28.947  1.00  0.00     0.008 C 
ENDBRANCH  23  24
ENDBRANCH  15  23
BRANCH  21  26
ATOM     26  C   UNL A   1      51.424  26.739  25.368  1.00  0.00     0.064 A 
ATOM     27  C   UNL A   1      52.104  26.807  24.156  1.00  0.00     0.028 A 
ATOM     28  N   UNL A   1      51.728  25.849  26.336  1.00  0.00    -0.257 NA
ATOM     29  C   UNL A   1      53.125  25.894  23.913  1.00  0.00     0.004 A 
ATOM     30  C   UNL A   1      52.722  24.971  26.071  1.00  0.00     0.111 A 
ATOM     31  C   UNL A   1      53.439  24.952  24.885  1.00  0.00     0.020 A 
ENDBRANCH  21  26
ENDBRANCH   9  14
ENDBRANCH   5   8
ENDBRANCH   3   4
ENDBRANCH   2   3
ENDBRANCH   1   2
BRANCH   1  32
ATOM     32  C   UNL A   1      40.951  20.712  26.446  1.00  0.00     0.002 C 
BRANCH  32  33
ATOM     33  C   UNL A   1      40.464  22.005  27.109  1.00  0.00     0.021 C 
BRANCH  33  34
ATOM     34  C   UNL A   1      41.574  23.004  27.425  1.00  0.00     0.116 C 
BRANCH  34  35
ATOM     35  N   UNL A   1      41.836  23.882  26.297  1.00  0.00    -0.352 N 
ATOM     36  C   UNL A   1      41.665  25.238  26.184  1.00  0.00     0.251 C 
ATOM     37  H   UNL A   1      42.190  23.437  25.493  1.00  0.00     0.163 HD
ATOM     38  O   UNL A   1      41.695  25.759  25.073  1.00  0.00    -0.269 OA
BRANCH  36  39
ATOM     39  C   UNL A   1      41.439  26.067  27.388  1.00  0.00     0.039 A 
ATOM     40  C   UNL A   1      42.314  27.123  27.647  1.00  0.00     0.014 A 
ATOM     41  C   UNL A   1      40.399  25.785  28.281  1.00  0.00     0.014 A 
ATOM     42  C   UNL A   1      42.125  27.917  28.779  1.00  0.00     0.010 A 
ATOM     43  C   UNL A   1      40.164  26.627  29.366  1.00  0.00     0.010 A 
ATOM     44  C   UNL A   1      41.032  27.694  29.636  1.00  0.00    -0.014 A 
BRANCH  44  45
ATOM     45  C   UNL A   1      40.797  28.589  30.798  1.00  0.00     0.031 A 
ATOM     46  C   UNL A   1      41.631  28.469  32.046  1.00  0.00     0.074 A 
ATOM     47  C   UNL A   1      39.814  29.508  30.726  1.00  0.00     0.049 A 
ATOM     48  N   UNL A   1      41.603  29.204  33.128  1.00  0.00    -0.248 NA
ATOM     49  C   UNL A   1      42.606  27.368  32.098  1.00  0.00     0.031 C 
ATOM     50  C   UNL A   1      38.894  29.672  29.597  1.00  0.00     0.029 A 
ATOM     51  N   UNL A   1      39.430  30.484  31.610  1.00  0.00    -0.354 N 
ATOM     52  C   UNL A   1      42.553  28.659  33.986  1.00  0.00     0.074 A 
ATOM     53  C   UNL A   1      43.094  27.492  33.323  1.00  0.00     0.031 C 
ATOM     54  C   UNL A   1      38.086  30.717  29.836  1.00  0.00     0.029 A 
ATOM     55  C   UNL A   1      38.404  31.273  31.147  1.00  0.00     0.049 A 
ATOM     56  H   UNL A   1      39.847  30.606  32.493  1.00  0.00     0.167 HD
ATOM     57  C   UNL A   1      42.955  29.106  35.200  1.00  0.00     0.037 A 
ATOM     58  C   UNL A   1      37.795  32.335  31.709  1.00  0.00     0.037 A 
ATOM     59  C   UNL A   1      42.416  30.277  35.845  1.00  0.00     0.049 A 
ATOM     60  C   UNL A   1      38.272  32.822  33.049  1.00  0.00     0.074 A 
ATOM     61  C   UNL A   1      42.787  30.843  37.053  1.00  0.00     0.029 A 
ATOM     62  N   UNL A   1      41.385  31.058  35.341  1.00  0.00    -0.354 N 
ATOM     63  N   UNL A   1      39.223  32.339  33.812  1.00  0.00    -0.248 NA
ATOM     64  C   UNL A   1      37.606  34.011  33.595  1.00  0.00     0.031 C 
ATOM     65  C   UNL A   1      41.948  31.935  37.302  1.00  0.00     0.029 A 
ATOM     66  C   UNL A   1      41.095  32.088  36.221  1.00  0.00     0.049 A 
ATOM     67  H   UNL A   1      40.927  30.902  34.484  1.00  0.00     0.167 HD
ATOM     68  C   UNL A   1      39.289  33.181  34.917  1.00  0.00     0.074 A 
ATOM     69  C   UNL A   1      38.295  34.216  34.708  1.00  0.00     0.031 C 
ATOM     70  C   UNL A   1      40.097  33.107  36.004  1.00  0.00     0.037 A 
BRANCH  57  71
ATOM     71  C   UNL A   1      44.034  28.329  35.910  1.00  0.00     0.058 A 
ATOM     72  C   UNL A   1      43.729  27.298  36.813  1.00  0.00     0.135 A 
ATOM     73  C   UNL A   1      45.390  28.590  35.653  1.00  0.00     0.135 A 
ATOM     74  F   UNL A   1      42.452  27.013  37.109  1.00  0.00    -0.206 F 
ATOM     75  C   UNL A   1      44.727  26.575  37.460  1.00  0.00     0.059 A 
ATOM     76  C   UNL A   1      46.406  27.858  36.264  1.00  0.00     0.059 A 
ATOM     77  F   UNL A   1      45.743  29.563  34.798  1.00  0.00    -0.206 F 
ATOM     78  C   UNL A   1      46.064  26.862  37.177  1.00  0.00     0.060 A 
BRANCH  78  79
ATOM     79  S   UNL A   1      47.346  25.907  38.017  1.00  0.00     0.124 S 
ATOM     80  O   UNL A   1      48.460  26.028  37.083  1.00  0.00    -0.237 OA
ATOM     81  O   UNL A   1      47.494  26.628  39.277  1.00  0.00    -0.237 OA
ATOM     82  O   UNL A   1      46.761  24.574  38.127  1.00  0.00    -0.744 OA
ENDBRANCH  78  79
ENDBRANCH  57  71
BRANCH  58  83
ATOM     83  C   UNL A   1      36.694  33.027  30.986  1.00  0.00     0.058 A 
ATOM     84  C   UNL A   1      36.961  33.908  29.927  1.00  0.00     0.135 A 
ATOM     85  C   UNL A   1      35.350  32.809  31.329  1.00  0.00     0.135 A 
ATOM     86  F   UNL A   1      38.229  34.152  29.561  1.00  0.00    -0.206 F 
ATOM     87  C   UNL A   1      35.940  34.564  29.248  1.00  0.00     0.059 A 
ATOM     88  C   UNL A   1      34.310  33.430  30.646  1.00  0.00     0.059 A 
ATOM     89  F   UNL A   1      35.039  31.960  32.320  1.00  0.00    -0.206 F 
ATOM     90  C   UNL A   1      34.616  34.315  29.614  1.00  0.00     0.060 A 
BRANCH  90  91
ATOM     91  S   UNL A   1      33.294  35.132  28.693  1.00  0.00     0.124 S 
ATOM     92  O   UNL A   1      34.042  36.100  27.900  1.00  0.00    -0.237 OA
ATOM     93  O   UNL A   1      32.703  34.021  27.955  1.00  0.00    -0.237 OA
ATOM     94  O   UNL A   1      32.451  35.694  29.746  1.00  0.00    -0.744 OA
ENDBRANCH  90  91
ENDBRANCH  58  83
BRANCH  70  95
ATOM     95  C   UNL A   1      39.962  34.200  37.032  1.00  0.00     0.058 A 
ATOM     96  C   UNL A   1      40.678  35.404  36.937  1.00  0.00     0.135 A 
ATOM     97  C   UNL A   1      39.103  34.036  38.131  1.00  0.00     0.135 A 
ATOM     98  F   UNL A   1      41.515  35.613  35.906  1.00  0.00    -0.206 F 
ATOM     99  C   UNL A   1      40.592  36.382  37.922  1.00  0.00     0.059 A 
ATOM    100  C   UNL A   1      38.973  35.017  39.110  1.00  0.00     0.059 A 
ATOM    101  F   UNL A   1      38.380  32.913  38.265  1.00  0.00    -0.206 F 
ATOM    102  C   UNL A   1      39.742  36.174  39.010  1.00  0.00     0.060 A 
BRANCH 102 103
ATOM    103  S   UNL A   1      39.655  37.440  40.295  1.00  0.00     0.124 S 
ATOM    104  O   UNL A   1      41.053  37.538  40.702  1.00  0.00    -0.237 OA
ATOM    105  O   UNL A   1      39.124  38.588  39.568  1.00  0.00    -0.237 OA
ATOM    106  O   UNL A   1      38.751  36.858  41.283  1.00  0.00    -0.744 OA
ENDBRANCH 102 103
ENDBRANCH  70  95
ENDBRANCH  44  45
ENDBRANCH  36  39
ENDBRANCH  34  35
ENDBRANCH  33  34
ENDBRANCH  32  33
ENDBRANCH   1  32
TORSDOF 20
ENDMDL
MODEL 3
REMARK VINA RESULT:     -10.8      5.256     12.589
REMARK SMILES C=CCN1C(=O)/C(=C/c2ccccn2)S/C1=[NH+]\c1ccc(C(=O)NCCCCCCNC(=O)c2ccc(-c3c4nc(c(-c5c(F)cc(S(=O)(=O)[O-])cc5F)c5ccc([nH]5)c(-c5c(F)cc(S(=O)(=O)[O-])cc5F)c5nc(c(-c6c(F)cc(S(=O)(=O)[O-])cc6F)c6ccc3[nH]6)C=C5)C=C4)cc2)cc1
REMARK SMILES IDX 27 1 26 2 25 3 24 4 22 5 23 6 21 8 18 9 19 10 101 11 20 12
REMARK SMILES IDX 100 13 17 14 4 15 5 16 16 17 6 18 7 19 15 20 8 21 3 23 2 24
REMARK SMILES IDX 1 25 9 26 10 27 14 28 11 29 13 30 12 31 28 32 29 33 30 34
REMARK SMILES IDX 31 35 32 36 33 38 34 39 35 40 99 41 36 42 98 43 37 44 38 45
REMARK SMILES IDX 39 46 92 47 40 48 97 49 91 50 93 51 41 52 96 53 90 54 89 55
REMARK SMILES IDX 42 57 76 58 55 59 75 60 56 61 59 62 74 63 94 64 57 65 58 66
REMARK SMILES IDX 73 68 95 69 60 70 43 71 44 72 53 73 45 74 46 75 52 76 54 77
REMARK SMILES IDX 47 78 48 79 49 80 50 81 51 82 77 83 78 84 87 85 79 86 80 87
REMARK SMILES IDX 86 88 88 89 81 90 82 91 83 92 84 93 85 94 61 95 62 96 71 97
REMARK SMILES IDX 63 98 64 99 70 100 72 101 65 102 66 103 67 104 68 105 69 106
REMARK H PARENT 24 7 17 22 31 37 93 56 59 67
REMARK Flexibility Score: inf
ROOT
ATOM      1  C   UNL A   1      35.831  34.301  31.149  1.00  0.00     0.002 C 
ENDROOT
BRANCH   1   2
ATOM      2  C   UNL A   1      36.663  34.246  32.436  1.00  0.00     0.021 C 
BRANCH   2   3
ATOM      3  C   UNL A   1      36.057  33.337  33.508  1.00  0.00     0.116 C 
BRANCH   3   4
ATOM      4  N   UNL A   1      36.108  31.953  33.072  1.00  0.00    -0.352 N 
ATOM      5  C   UNL A   1      37.027  30.957  33.276  1.00  0.00     0.251 C 
ATOM      6  O   UNL A   1      36.794  29.849  32.792  1.00  0.00    -0.269 OA
ATOM      7  H   UNL A   1      35.335  31.679  32.527  1.00  0.00     0.163 HD
BRANCH   5   8
ATOM      8  C   UNL A   1      38.251  31.141  34.102  1.00  0.00     0.040 A 
ATOM      9  C   UNL A   1      40.677  31.394  35.516  1.00  0.00     0.125 A 
ATOM     10  C   UNL A   1      40.671  31.424  34.122  1.00  0.00     0.052 A 
ATOM     11  C   UNL A   1      39.458  31.321  36.195  1.00  0.00     0.052 A 
ATOM     12  C   UNL A   1      39.468  31.292  33.419  1.00  0.00     0.018 A 
ATOM     13  C   UNL A   1      38.253  31.214  35.495  1.00  0.00     0.018 A 
BRANCH   9  14
ATOM     14  N   UNL A   1      41.877  31.530  36.225  1.00  0.00    -0.234 N 
ATOM     15  N   UNL A   1      43.796  30.582  37.166  1.00  0.00    -0.182 N 
ATOM     16  C   UNL A   1      44.550  29.429  37.250  1.00  0.00     0.349 C 
ATOM     17  C   UNL A   1      42.646  30.508  36.419  1.00  0.00     0.324 C 
ATOM     18  O   UNL A   1      45.679  29.320  37.718  1.00  0.00    -0.240 OA
ATOM     19  C   UNL A   1      43.825  28.300  36.614  1.00  0.00     0.111 C 
ATOM     20  S   UNL A   1      42.430  28.884  35.799  1.00  0.00     0.007 SA
ATOM     21  C   UNL A   1      44.237  27.030  36.730  1.00  0.00     0.052 C 
ATOM     22  H   UNL A   1      42.138  32.411  36.578  1.00  0.00     0.313 HD
BRANCH  15  23
ATOM     23  C   UNL A   1      44.277  31.841  37.708  1.00  0.00     0.275 C 
BRANCH  23  24
ATOM     24  C   UNL A   1      45.198  32.525  36.740  1.00  0.00     0.011 C 
ATOM     25  C   UNL A   1      45.503  33.829  36.805  1.00  0.00     0.008 C 
ENDBRANCH  23  24
ENDBRANCH  15  23
BRANCH  21  26
ATOM     26  C   UNL A   1      43.584  25.877  36.120  1.00  0.00     0.064 A 
ATOM     27  C   UNL A   1      42.319  25.464  36.527  1.00  0.00     0.028 A 
ATOM     28  N   UNL A   1      44.276  25.272  35.132  1.00  0.00    -0.257 NA
ATOM     29  C   UNL A   1      41.751  24.353  35.911  1.00  0.00     0.004 A 
ATOM     30  C   UNL A   1      43.701  24.192  34.554  1.00  0.00     0.111 A 
ATOM     31  C   UNL A   1      42.456  23.699  34.908  1.00  0.00     0.020 A 
ENDBRANCH  21  26
ENDBRANCH   9  14
ENDBRANCH   5   8
ENDBRANCH   3   4
ENDBRANCH   2   3
ENDBRANCH   1   2
BRANCH   1  32
ATOM     32  C   UNL A   1      36.568  33.822  29.892  1.00  0.00     0.002 C 
BRANCH  32  33
ATOM     33  C   UNL A   1      35.695  33.068  28.883  1.00  0.00     0.021 C 
BRANCH  33  34
ATOM     34  C   UNL A   1      34.574  32.246  29.513  1.00  0.00     0.116 C 
BRANCH  34  35
ATOM     35  N   UNL A   1      34.008  31.303  28.563  1.00  0.00    -0.352 N 
ATOM     36  C   UNL A   1      34.628  30.346  27.803  1.00  0.00     0.251 C 
ATOM     37  H   UNL A   1      33.031  31.359  28.450  1.00  0.00     0.163 HD
ATOM     38  O   UNL A   1      34.019  29.826  26.873  1.00  0.00    -0.269 OA
BRANCH  36  39
ATOM     39  C   UNL A   1      36.023  29.945  28.095  1.00  0.00     0.039 A 
ATOM     40  C   UNL A   1      36.983  30.092  27.093  1.00  0.00     0.014 A 
ATOM     41  C   UNL A   1      36.378  29.390  29.329  1.00  0.00     0.014 A 
ATOM     42  C   UNL A   1      38.304  29.717  27.342  1.00  0.00     0.010 A 
ATOM     43  C   UNL A   1      37.711  29.092  29.602  1.00  0.00     0.010 A 
ATOM     44  C   UNL A   1      38.687  29.238  28.608  1.00  0.00    -0.014 A 
BRANCH  44  45
ATOM     45  C   UNL A   1      40.109  28.910  28.885  1.00  0.00     0.031 A 
ATOM     46  C   UNL A   1      41.020  29.912  29.542  1.00  0.00     0.074 A 
ATOM     47  C   UNL A   1      40.581  27.698  28.528  1.00  0.00     0.049 A 
ATOM     48  N   UNL A   1      42.267  29.773  29.911  1.00  0.00    -0.248 NA
ATOM     49  C   UNL A   1      40.469  31.253  29.796  1.00  0.00     0.031 C 
ATOM     50  C   UNL A   1      39.812  26.669  27.823  1.00  0.00     0.029 A 
ATOM     51  N   UNL A   1      41.810  27.121  28.719  1.00  0.00    -0.354 N 
ATOM     52  C   UNL A   1      42.650  31.000  30.441  1.00  0.00     0.074 A 
ATOM     53  C   UNL A   1      41.521  31.892  30.286  1.00  0.00     0.031 C 
ATOM     54  C   UNL A   1      40.572  25.571  27.683  1.00  0.00     0.029 A 
ATOM     55  C   UNL A   1      41.889  25.828  28.255  1.00  0.00     0.049 A 
ATOM     56  H   UNL A   1      42.565  27.587  29.145  1.00  0.00     0.167 HD
ATOM     57  C   UNL A   1      43.822  31.344  31.027  1.00  0.00     0.037 A 
ATOM     58  C   UNL A   1      42.905  24.945  28.296  1.00  0.00     0.037 A 
ATOM     59  C   UNL A   1      44.936  30.443  31.185  1.00  0.00     0.049 A 
ATOM     60  C   UNL A   1      44.189  25.344  28.968  1.00  0.00     0.074 A 
ATOM     61  C   UNL A   1      46.151  30.676  31.807  1.00  0.00     0.029 A 
ATOM     62  N   UNL A   1      44.976  29.139  30.712  1.00  0.00    -0.354 N 
ATOM     63  N   UNL A   1      44.506  26.486  29.531  1.00  0.00    -0.248 NA
ATOM     64  C   UNL A   1      45.248  24.328  29.027  1.00  0.00     0.031 C 
ATOM     65  C   UNL A   1      46.943  29.531  31.666  1.00  0.00     0.029 A 
ATOM     66  C   UNL A   1      46.201  28.562  31.011  1.00  0.00     0.049 A 
ATOM     67  H   UNL A   1      44.243  28.689  30.234  1.00  0.00     0.167 HD
ATOM     68  C   UNL A   1      45.791  26.317  30.035  1.00  0.00     0.074 A 
ATOM     69  C   UNL A   1      46.180  24.954  29.730  1.00  0.00     0.031 C 
ATOM     70  C   UNL A   1      46.577  27.206  30.694  1.00  0.00     0.037 A 
BRANCH  57  71
ATOM     71  C   UNL A   1      43.960  32.753  31.544  1.00  0.00     0.058 A 
ATOM     72  C   UNL A   1      44.131  33.845  30.678  1.00  0.00     0.135 A 
ATOM     73  C   UNL A   1      43.880  33.020  32.921  1.00  0.00     0.135 A 
ATOM     74  F   UNL A   1      44.229  33.650  29.353  1.00  0.00    -0.206 F 
ATOM     75  C   UNL A   1      44.248  35.146  31.157  1.00  0.00     0.059 A 
ATOM     76  C   UNL A   1      43.962  34.318  33.421  1.00  0.00     0.059 A 
ATOM     77  F   UNL A   1      43.716  32.017  33.797  1.00  0.00    -0.206 F 
ATOM     78  C   UNL A   1      44.160  35.372  32.532  1.00  0.00     0.060 A 
BRANCH  78  79
ATOM     79  S   UNL A   1      44.304  37.068  33.136  1.00  0.00     0.124 S 
ATOM     80  O   UNL A   1      44.517  37.804  31.894  1.00  0.00    -0.237 OA
ATOM     81  O   UNL A   1      43.012  37.278  33.783  1.00  0.00    -0.237 OA
ATOM     82  O   UNL A   1      45.450  37.013  34.038  1.00  0.00    -0.744 OA
ENDBRANCH  78  79
ENDBRANCH  57  71
BRANCH  58  83
ATOM     83  C   UNL A   1      42.731  23.587  27.716  1.00  0.00     0.058 A 
ATOM     84  C   UNL A   1      42.921  23.353  26.345  1.00  0.00     0.135 A 
ATOM     85  C   UNL A   1      42.386  22.491  28.522  1.00  0.00     0.135 A 
ATOM     86  F   UNL A   1      43.250  24.367  25.530  1.00  0.00    -0.206 F 
ATOM     87  C   UNL A   1      42.756  22.088  25.790  1.00  0.00     0.059 A 
ATOM     88  C   UNL A   1      42.244  21.211  27.997  1.00  0.00     0.059 A 
ATOM     89  F   UNL A   1      42.213  22.656  29.842  1.00  0.00    -0.206 F 
ATOM     90  C   UNL A   1      42.419  21.021  26.627  1.00  0.00     0.060 A 
BRANCH  90  91
ATOM     91  S   UNL A   1      42.256  19.373  25.908  1.00  0.00     0.124 S 
ATOM     92  O   UNL A   1      42.799  18.533  26.970  1.00  0.00    -0.237 OA
ATOM     93  O   UNL A   1      40.817  19.276  25.688  1.00  0.00    -0.237 OA
ATOM     94  O   UNL A   1      43.063  19.456  24.693  1.00  0.00    -0.744 OA
ENDBRANCH  90  91
ENDBRANCH  58  83
BRANCH  70  95
ATOM     95  C   UNL A   1      47.924  26.715  31.158  1.00  0.00     0.058 A 
ATOM     96  C   UNL A   1      48.107  26.134  32.423  1.00  0.00     0.135 A 
ATOM     97  C   UNL A   1      49.047  26.832  30.323  1.00  0.00     0.135 A 
ATOM     98  F   UNL A   1      47.067  25.998  33.262  1.00  0.00    -0.206 F 
ATOM     99  C   UNL A   1      49.365  25.738  32.866  1.00  0.00     0.059 A 
ATOM    100  C   UNL A   1      50.308  26.409  30.732  1.00  0.00     0.059 A 
ATOM    101  F   UNL A   1      48.927  27.363  29.097  1.00  0.00    -0.206 F 
ATOM    102  C   UNL A   1      50.462  25.889  32.015  1.00  0.00     0.060 A 
BRANCH 102 103
ATOM    103  S   UNL A   1      52.093  25.394  32.609  1.00  0.00     0.124 S 
ATOM    104  O   UNL A   1      52.003  25.731  34.025  1.00  0.00    -0.237 OA
ATOM    105  O   UNL A   1      52.121  23.968  32.297  1.00  0.00    -0.237 OA
ATOM    106  O   UNL A   1      53.005  26.219  31.823  1.00  0.00    -0.744 OA
ENDBRANCH 102 103
ENDBRANCH  70  95
ENDBRANCH  44  45
ENDBRANCH  36  39
ENDBRANCH  34  35
ENDBRANCH  33  34
ENDBRANCH  32  33
ENDBRANCH   1  32
TORSDOF 20
ENDMDL
