MODEL 1
REMARK VINA RESULT:     -12.8      0.000      0.000
REMARK SMILES Cc1c(NCc2ccc(-c3ccc(Cl)cc3)o2)cccc1C(=O)NCCCCCCNC(=O)c1ccc(-c2c3nc(c(-c4c(F)cc(S(=O)(=O)[O-])cc4F)c4ccc([nH]4)c(-c4c(F)cc(S(=O)(=O)[O-])cc4F)c4nc(c(-c5c(F)cc(S(=O)(=O)[O-])cc5F)c5ccc2[nH]5)C=C4)C=C3)cc1
REMARK SMILES IDX 27 1 26 2 25 3 24 4 22 5 23 6 21 8 1 9 2 10 3 11 18 12 20 13
REMARK SMILES IDX 19 14 4 15 5 17 6 18 7 19 17 20 8 21 9 22 10 23 11 24 16 25
REMARK SMILES IDX 12 26 15 27 13 28 14 29 28 30 29 31 30 32 31 33 32 34 33 36
REMARK SMILES IDX 34 37 35 38 99 39 36 40 98 41 37 42 38 43 39 44 92 45 40 46
REMARK SMILES IDX 97 47 91 48 93 49 41 50 96 51 90 52 89 53 42 55 76 56 55 57
REMARK SMILES IDX 75 58 56 59 59 60 74 61 94 62 57 63 58 64 73 66 95 67 60 68
REMARK SMILES IDX 43 69 44 70 53 71 45 72 46 73 52 74 54 75 47 76 48 77 49 78
REMARK SMILES IDX 50 79 51 80 77 81 78 82 87 83 79 84 80 85 86 86 88 87 81 88
REMARK SMILES IDX 82 89 83 90 84 91 85 92 61 93 62 94 71 95 63 96 64 97 70 98
REMARK SMILES IDX 72 99 65 100 66 101 67 102 68 103 69 104
REMARK H PARENT 24 7 4 16 31 35 93 54 59 65
REMARK Flexibility Score: inf
ROOT
ATOM      1  C   UNL A   1      34.697  24.340  24.219  1.00  0.00     0.002 C 
ENDROOT
BRANCH   1   2
ATOM      2  C   UNL A   1      34.761  23.318  23.079  1.00  0.00     0.021 C 
BRANCH   2   3
ATOM      3  C   UNL A   1      33.421  23.013  22.387  1.00  0.00     0.116 C 
BRANCH   3   4
ATOM      4  N   UNL A   1      33.261  23.855  21.212  1.00  0.00    -0.352 N 
ATOM      5  C   UNL A   1      32.964  25.179  21.016  1.00  0.00     0.251 C 
ATOM      6  O   UNL A   1      32.913  25.565  19.844  1.00  0.00    -0.269 OA
ATOM      7  H   UNL A   1      33.396  23.365  20.369  1.00  0.00     0.163 HD
BRANCH   5   8
ATOM      8  C   UNL A   1      32.800  26.203  22.096  1.00  0.00     0.044 A 
ATOM      9  C   UNL A   1      30.637  25.301  23.099  1.00  0.00     0.047 C 
ATOM     10  C   UNL A   1      31.797  26.259  23.092  1.00  0.00    -0.015 A 
ATOM     11  C   UNL A   1      31.812  27.304  24.064  1.00  0.00     0.038 A 
ATOM     12  C   UNL A   1      32.711  28.365  23.895  1.00  0.00     0.026 A 
ATOM     13  C   UNL A   1      33.693  27.287  21.984  1.00  0.00     0.014 A 
ATOM     14  C   UNL A   1      33.632  28.370  22.853  1.00  0.00     0.003 A 
BRANCH  11  15
ATOM     15  N   UNL A   1      30.917  27.285  25.122  1.00  0.00    -0.378 N 
ATOM     16  H   UNL A   1      30.044  27.714  24.973  1.00  0.00     0.161 HD
BRANCH  15  17
ATOM     17  C   UNL A   1      31.145  26.691  26.433  1.00  0.00     0.188 C 
BRANCH  17  18
ATOM     18  C   UNL A   1      30.801  25.240  26.498  1.00  0.00     0.123 A 
ATOM     19  C   UNL A   1      29.663  24.554  26.869  1.00  0.00     0.048 A 
ATOM     20  O   UNL A   1      31.773  24.357  26.122  1.00  0.00    -0.459 OA
ATOM     21  C   UNL A   1      29.928  23.184  26.652  1.00  0.00     0.051 A 
ATOM     22  C   UNL A   1      31.233  23.105  26.212  1.00  0.00     0.134 A 
BRANCH  22  23
ATOM     23  C   UNL A   1      32.096  21.996  25.843  1.00  0.00     0.017 A 
ATOM     24  C   UNL A   1      33.299  21.777  26.529  1.00  0.00     0.013 A 
ATOM     25  C   UNL A   1      31.763  21.160  24.769  1.00  0.00     0.013 A 
ATOM     26  C   UNL A   1      34.156  20.740  26.148  1.00  0.00     0.021 A 
ATOM     27  C   UNL A   1      32.624  20.130  24.379  1.00  0.00     0.021 A 
ATOM     28  C   UNL A   1      33.816  19.925  25.071  1.00  0.00     0.041 A 
ATOM     29  Cl  UNL A   1      34.872  18.655  24.587  1.00  0.00    -0.084 Cl
ENDBRANCH  22  23
ENDBRANCH  17  18
ENDBRANCH  15  17
ENDBRANCH  11  15
ENDBRANCH   5   8
ENDBRANCH   3   4
ENDBRANCH   2   3
ENDBRANCH   1   2
BRANCH   1  30
ATOM     30  C   UNL A   1      35.636  24.097  25.410  1.00  0.00     0.002 C 
BRANCH  30  31
ATOM     31  C   UNL A   1      36.767  23.091  25.183  1.00  0.00     0.021 C 
BRANCH  31  32
ATOM     32  C   UNL A   1      38.160  23.711  25.153  1.00  0.00     0.116 C 
BRANCH  32  33
ATOM     33  N   UNL A   1      39.052  23.184  26.174  1.00  0.00    -0.352 N 
ATOM     34  C   UNL A   1      40.123  23.901  26.681  1.00  0.00     0.251 C 
ATOM     35  H   UNL A   1      38.886  22.277  26.520  1.00  0.00     0.163 HD
ATOM     36  O   UNL A   1      41.241  23.436  26.860  1.00  0.00    -0.269 OA
BRANCH  34  37
ATOM     37  C   UNL A   1      39.809  25.284  27.092  1.00  0.00     0.039 A 
ATOM     38  C   UNL A   1      40.429  26.340  26.418  1.00  0.00     0.014 A 
ATOM     39  C   UNL A   1      39.090  25.500  28.267  1.00  0.00     0.014 A 
ATOM     40  C   UNL A   1      40.439  27.609  27.000  1.00  0.00     0.010 A 
ATOM     41  C   UNL A   1      39.158  26.743  28.870  1.00  0.00     0.010 A 
ATOM     42  C   UNL A   1      39.863  27.791  28.259  1.00  0.00    -0.014 A 
BRANCH  42  43
ATOM     43  C   UNL A   1      40.030  29.006  29.057  1.00  0.00     0.031 A 
ATOM     44  C   UNL A   1      38.981  30.055  29.084  1.00  0.00     0.074 A 
ATOM     45  C   UNL A   1      41.121  29.146  29.841  1.00  0.00     0.049 A 
ATOM     46  N   UNL A   1      39.169  31.266  29.495  1.00  0.00    -0.248 NA
ATOM     47  C   UNL A   1      37.624  29.820  28.603  1.00  0.00     0.031 C 
ATOM     48  C   UNL A   1      41.313  30.106  30.925  1.00  0.00     0.029 A 
ATOM     49  N   UNL A   1      42.384  28.576  29.654  1.00  0.00    -0.354 N 
ATOM     50  C   UNL A   1      37.947  31.896  29.549  1.00  0.00     0.074 A 
ATOM     51  C   UNL A   1      37.017  30.956  28.961  1.00  0.00     0.031 C 
ATOM     52  C   UNL A   1      42.627  30.264  31.136  1.00  0.00     0.029 A 
ATOM     53  C   UNL A   1      43.328  29.526  30.100  1.00  0.00     0.049 A 
ATOM     54  H   UNL A   1      42.577  27.685  29.284  1.00  0.00     0.167 HD
ATOM     55  C   UNL A   1      37.825  33.105  30.169  1.00  0.00     0.037 A 
ATOM     56  C   UNL A   1      44.239  30.060  29.234  1.00  0.00     0.037 A 
ATOM     57  C   UNL A   1      39.111  33.628  30.614  1.00  0.00     0.049 A 
ATOM     58  C   UNL A   1      44.106  31.554  29.015  1.00  0.00     0.074 A 
ATOM     59  C   UNL A   1      39.802  33.602  31.815  1.00  0.00     0.029 A 
ATOM     60  N   UNL A   1      40.014  34.064  29.662  1.00  0.00    -0.354 N 
ATOM     61  N   UNL A   1      43.194  32.305  29.569  1.00  0.00    -0.248 NA
ATOM     62  C   UNL A   1      44.952  32.305  28.083  1.00  0.00     0.031 C 
ATOM     63  C   UNL A   1      41.151  33.975  31.558  1.00  0.00     0.029 A 
ATOM     64  C   UNL A   1      41.273  34.228  30.205  1.00  0.00     0.049 A 
ATOM     65  H   UNL A   1      39.788  34.235  28.719  1.00  0.00     0.167 HD
ATOM     66  C   UNL A   1      43.270  33.565  29.041  1.00  0.00     0.074 A 
ATOM     67  C   UNL A   1      44.403  33.530  28.138  1.00  0.00     0.031 C 
ATOM     68  C   UNL A   1      42.378  34.552  29.327  1.00  0.00     0.037 A 
BRANCH  55  69
ATOM     69  C   UNL A   1      36.493  33.701  30.558  1.00  0.00     0.058 A 
ATOM     70  C   UNL A   1      35.586  34.145  29.573  1.00  0.00     0.135 A 
ATOM     71  C   UNL A   1      36.080  33.912  31.887  1.00  0.00     0.135 A 
ATOM     72  F   UNL A   1      35.814  33.939  28.268  1.00  0.00    -0.206 F 
ATOM     73  C   UNL A   1      34.423  34.850  29.878  1.00  0.00     0.059 A 
ATOM     74  C   UNL A   1      34.951  34.667  32.219  1.00  0.00     0.059 A 
ATOM     75  F   UNL A   1      36.755  33.372  32.914  1.00  0.00    -0.206 F 
ATOM     76  C   UNL A   1      34.134  35.146  31.203  1.00  0.00     0.060 A 
BRANCH  76  77
ATOM     77  S   UNL A   1      32.710  36.193  31.567  1.00  0.00     0.124 S 
ATOM     78  O   UNL A   1      33.326  37.319  32.265  1.00  0.00    -0.237 OA
ATOM     79  O   UNL A   1      32.195  36.478  30.233  1.00  0.00    -0.237 OA
ATOM     80  O   UNL A   1      31.868  35.340  32.400  1.00  0.00    -0.744 OA
ENDBRANCH  76  77
ENDBRANCH  55  69
BRANCH  56  81
ATOM     81  C   UNL A   1      44.706  29.076  28.218  1.00  0.00     0.058 A 
ATOM     82  C   UNL A   1      45.646  28.109  28.627  1.00  0.00     0.135 A 
ATOM     83  C   UNL A   1      43.967  28.815  27.059  1.00  0.00     0.135 A 
ATOM     84  F   UNL A   1      46.398  28.322  29.719  1.00  0.00    -0.206 F 
ATOM     85  C   UNL A   1      45.717  26.859  28.020  1.00  0.00     0.059 A 
ATOM     86  C   UNL A   1      44.037  27.575  26.423  1.00  0.00     0.059 A 
ATOM     87  F   UNL A   1      43.065  29.704  26.615  1.00  0.00    -0.206 F 
ATOM     88  C   UNL A   1      44.854  26.580  26.965  1.00  0.00     0.060 A 
BRANCH  88  89
ATOM     89  S   UNL A   1      44.708  24.862  26.416  1.00  0.00     0.124 S 
ATOM     90  O   UNL A   1      44.261  24.191  27.631  1.00  0.00    -0.237 OA
ATOM     91  O   UNL A   1      43.713  24.962  25.346  1.00  0.00    -0.237 OA
ATOM     92  O   UNL A   1      46.058  24.537  25.974  1.00  0.00    -0.744 OA
ENDBRANCH  88  89
ENDBRANCH  56  81
BRANCH  68  93
ATOM     93  C   UNL A   1      42.513  35.927  28.768  1.00  0.00     0.058 A 
ATOM     94  C   UNL A   1      43.088  36.963  29.520  1.00  0.00     0.135 A 
ATOM     95  C   UNL A   1      41.959  36.270  27.521  1.00  0.00     0.135 A 
ATOM     96  F   UNL A   1      43.618  36.712  30.729  1.00  0.00    -0.206 F 
ATOM     97  C   UNL A   1      43.123  38.275  29.055  1.00  0.00     0.059 A 
ATOM     98  C   UNL A   1      41.956  37.579  27.049  1.00  0.00     0.059 A 
ATOM     99  F   UNL A   1      41.418  35.329  26.730  1.00  0.00    -0.206 F 
ATOM    100  C   UNL A   1      42.552  38.573  27.818  1.00  0.00     0.060 A 
BRANCH 100 101
ATOM    101  S   UNL A   1      42.551  40.278  27.228  1.00  0.00     0.124 S 
ATOM    102  O   UNL A   1      41.139  40.528  26.955  1.00  0.00    -0.237 OA
ATOM    103  O   UNL A   1      43.103  40.983  28.381  1.00  0.00    -0.237 OA
ATOM    104  O   UNL A   1      43.410  40.221  26.050  1.00  0.00    -0.744 OA
ENDBRANCH 100 101
ENDBRANCH  68  93
ENDBRANCH  42  43
ENDBRANCH  34  37
ENDBRANCH  32  33
ENDBRANCH  31  32
ENDBRANCH  30  31
ENDBRANCH   1  30
TORSDOF 20
ENDMDL
MODEL 2
REMARK VINA RESULT:     -12.3      2.160      3.646
REMARK SMILES Cc1c(NCc2ccc(-c3ccc(Cl)cc3)o2)cccc1C(=O)NCCCCCCNC(=O)c1ccc(-c2c3nc(c(-c4c(F)cc(S(=O)(=O)[O-])cc4F)c4ccc([nH]4)c(-c4c(F)cc(S(=O)(=O)[O-])cc4F)c4nc(c(-c5c(F)cc(S(=O)(=O)[O-])cc5F)c5ccc2[nH]5)C=C4)C=C3)cc1
REMARK SMILES IDX 27 1 26 2 25 3 24 4 22 5 23 6 21 8 1 9 2 10 3 11 18 12 20 13
REMARK SMILES IDX 19 14 4 15 5 17 6 18 7 19 17 20 8 21 9 22 10 23 11 24 16 25
REMARK SMILES IDX 12 26 15 27 13 28 14 29 28 30 29 31 30 32 31 33 32 34 33 36
REMARK SMILES IDX 34 37 35 38 99 39 36 40 98 41 37 42 38 43 39 44 92 45 40 46
REMARK SMILES IDX 97 47 91 48 93 49 41 50 96 51 90 52 89 53 42 55 76 56 55 57
REMARK SMILES IDX 75 58 56 59 59 60 74 61 94 62 57 63 58 64 73 66 95 67 60 68
REMARK SMILES IDX 43 69 44 70 53 71 45 72 46 73 52 74 54 75 47 76 48 77 49 78
REMARK SMILES IDX 50 79 51 80 77 81 78 82 87 83 79 84 80 85 86 86 88 87 81 88
REMARK SMILES IDX 82 89 83 90 84 91 85 92 61 93 62 94 71 95 63 96 64 97 70 98
REMARK SMILES IDX 72 99 65 100 66 101 67 102 68 103 69 104
REMARK H PARENT 24 7 4 16 31 35 93 54 59 65
REMARK Flexibility Score: inf
ROOT
ATOM      1  C   UNL A   1      35.164  23.580  24.746  1.00  0.00     0.002 C 
ENDROOT
BRANCH   1   2
ATOM      2  C   UNL A   1      34.920  23.419  23.241  1.00  0.00     0.021 C 
BRANCH   2   3
ATOM      3  C   UNL A   1      33.507  22.956  22.846  1.00  0.00     0.116 C 
BRANCH   3   4
ATOM      4  N   UNL A   1      32.948  23.851  21.845  1.00  0.00    -0.352 N 
ATOM      5  C   UNL A   1      32.705  25.199  21.795  1.00  0.00     0.251 C 
ATOM      6  O   UNL A   1      32.209  25.632  20.750  1.00  0.00    -0.269 OA
ATOM      7  H   UNL A   1      32.686  23.384  21.019  1.00  0.00     0.163 HD
BRANCH   5   8
ATOM      8  C   UNL A   1      33.081  26.191  22.852  1.00  0.00     0.044 A 
ATOM      9  C   UNL A   1      31.559  25.316  24.701  1.00  0.00     0.047 C 
ATOM     10  C   UNL A   1      32.631  26.241  24.192  1.00  0.00    -0.015 A 
ATOM     11  C   UNL A   1      33.119  27.253  25.073  1.00  0.00     0.038 A 
ATOM     12  C   UNL A   1      33.890  28.293  24.538  1.00  0.00     0.026 A 
ATOM     13  C   UNL A   1      33.872  27.252  22.371  1.00  0.00     0.014 A 
ATOM     14  C   UNL A   1      34.249  28.307  23.195  1.00  0.00     0.003 A 
BRANCH  11  15
ATOM     15  N   UNL A   1      32.791  27.223  26.419  1.00  0.00    -0.378 N 
ATOM     16  H   UNL A   1      32.515  26.353  26.789  1.00  0.00     0.161 HD
BRANCH  15  17
ATOM     17  C   UNL A   1      32.814  28.354  27.338  1.00  0.00     0.188 C 
BRANCH  17  18
ATOM     18  C   UNL A   1      32.142  29.573  26.800  1.00  0.00     0.123 A 
ATOM     19  C   UNL A   1      32.099  30.889  27.213  1.00  0.00     0.048 A 
ATOM     20  O   UNL A   1      31.404  29.419  25.661  1.00  0.00    -0.459 OA
ATOM     21  C   UNL A   1      31.346  31.591  26.246  1.00  0.00     0.051 A 
ATOM     22  C   UNL A   1      30.925  30.655  25.325  1.00  0.00     0.134 A 
BRANCH  22  23
ATOM     23  C   UNL A   1      30.111  30.732  24.124  1.00  0.00     0.017 A 
ATOM     24  C   UNL A   1      30.268  29.788  23.100  1.00  0.00     0.013 A 
ATOM     25  C   UNL A   1      29.193  31.776  23.953  1.00  0.00     0.013 A 
ATOM     26  C   UNL A   1      29.520  29.885  21.923  1.00  0.00     0.021 A 
ATOM     27  C   UNL A   1      28.453  31.883  22.771  1.00  0.00     0.021 A 
ATOM     28  C   UNL A   1      28.619  30.936  21.762  1.00  0.00     0.041 A 
ATOM     29  Cl  UNL A   1      27.706  31.070  20.311  1.00  0.00    -0.084 Cl
ENDBRANCH  22  23
ENDBRANCH  17  18
ENDBRANCH  15  17
ENDBRANCH  11  15
ENDBRANCH   5   8
ENDBRANCH   3   4
ENDBRANCH   2   3
ENDBRANCH   1   2
BRANCH   1  30
ATOM     30  C   UNL A   1      35.701  22.347  25.488  1.00  0.00     0.002 C 
BRANCH  30  31
ATOM     31  C   UNL A   1      37.222  22.180  25.506  1.00  0.00     0.021 C 
BRANCH  31  32
ATOM     32  C   UNL A   1      37.982  23.408  25.997  1.00  0.00     0.116 C 
BRANCH  32  33
ATOM     33  N   UNL A   1      39.198  23.084  26.727  1.00  0.00    -0.352 N 
ATOM     34  C   UNL A   1      40.263  23.961  26.840  1.00  0.00     0.251 C 
ATOM     35  H   UNL A   1      39.265  22.202  27.160  1.00  0.00     0.163 HD
ATOM     36  O   UNL A   1      41.436  23.643  26.698  1.00  0.00    -0.269 OA
BRANCH  34  37
ATOM     37  C   UNL A   1      39.900  25.334  27.246  1.00  0.00     0.039 A 
ATOM     38  C   UNL A   1      40.448  26.408  26.538  1.00  0.00     0.014 A 
ATOM     39  C   UNL A   1      39.214  25.532  28.443  1.00  0.00     0.014 A 
ATOM     40  C   UNL A   1      40.419  27.684  27.104  1.00  0.00     0.010 A 
ATOM     41  C   UNL A   1      39.245  26.786  29.029  1.00  0.00     0.010 A 
ATOM     42  C   UNL A   1      39.879  27.857  28.380  1.00  0.00    -0.014 A 
BRANCH  42  43
ATOM     43  C   UNL A   1      40.018  29.088  29.157  1.00  0.00     0.031 A 
ATOM     44  C   UNL A   1      38.946  30.115  29.165  1.00  0.00     0.074 A 
ATOM     45  C   UNL A   1      41.104  29.266  29.941  1.00  0.00     0.049 A 
ATOM     46  N   UNL A   1      39.107  31.336  29.555  1.00  0.00    -0.248 NA
ATOM     47  C   UNL A   1      37.596  29.840  28.686  1.00  0.00     0.031 C 
ATOM     48  C   UNL A   1      41.273  30.249  31.009  1.00  0.00     0.029 A 
ATOM     49  N   UNL A   1      42.380  28.721  29.765  1.00  0.00    -0.354 N 
ATOM     50  C   UNL A   1      37.870  31.940  29.596  1.00  0.00     0.074 A 
ATOM     51  C   UNL A   1      36.963  30.969  29.023  1.00  0.00     0.031 C 
ATOM     52  C   UNL A   1      42.583  30.440  31.218  1.00  0.00     0.029 A 
ATOM     53  C   UNL A   1      43.302  29.700  30.196  1.00  0.00     0.049 A 
ATOM     54  H   UNL A   1      42.593  27.829  29.411  1.00  0.00     0.167 HD
ATOM     55  C   UNL A   1      37.720  33.156  30.195  1.00  0.00     0.037 A 
ATOM     56  C   UNL A   1      44.202  30.239  29.322  1.00  0.00     0.037 A 
ATOM     57  C   UNL A   1      38.994  33.715  30.634  1.00  0.00     0.049 A 
ATOM     58  C   UNL A   1      44.037  31.726  29.077  1.00  0.00     0.074 A 
ATOM     59  C   UNL A   1      39.683  33.725  31.835  1.00  0.00     0.029 A 
ATOM     60  N   UNL A   1      39.888  34.154  29.675  1.00  0.00    -0.354 N 
ATOM     61  N   UNL A   1      43.107  32.466  29.617  1.00  0.00    -0.248 NA
ATOM     62  C   UNL A   1      44.867  32.479  28.134  1.00  0.00     0.031 C 
ATOM     63  C   UNL A   1      41.024  34.124  31.574  1.00  0.00     0.029 A 
ATOM     64  C   UNL A   1      41.143  34.356  30.217  1.00  0.00     0.049 A 
ATOM     65  H   UNL A   1      39.661  34.304  28.729  1.00  0.00     0.167 HD
ATOM     66  C   UNL A   1      43.156  33.718  29.067  1.00  0.00     0.074 A 
ATOM     67  C   UNL A   1      44.291  33.692  28.166  1.00  0.00     0.031 C 
ATOM     68  C   UNL A   1      42.242  34.689  29.335  1.00  0.00     0.037 A 
BRANCH  55  69
ATOM     69  C   UNL A   1      36.375  33.729  30.573  1.00  0.00     0.058 A 
ATOM     70  C   UNL A   1      35.484  34.191  29.580  1.00  0.00     0.135 A 
ATOM     71  C   UNL A   1      35.933  33.900  31.898  1.00  0.00     0.135 A 
ATOM     72  F   UNL A   1      35.741  34.021  28.275  1.00  0.00    -0.206 F 
ATOM     73  C   UNL A   1      34.308  34.876  29.880  1.00  0.00     0.059 A 
ATOM     74  C   UNL A   1      34.789  34.635  32.225  1.00  0.00     0.059 A 
ATOM     75  F   UNL A   1      36.591  33.339  32.923  1.00  0.00    -0.206 F 
ATOM     76  C   UNL A   1      33.988  35.133  31.206  1.00  0.00     0.060 A 
BRANCH  76  77
ATOM     77  S   UNL A   1      32.548  36.157  31.567  1.00  0.00     0.124 S 
ATOM     78  O   UNL A   1      31.764  35.290  32.444  1.00  0.00    -0.237 OA
ATOM     79  O   UNL A   1      33.154  37.320  32.203  1.00  0.00    -0.237 OA
ATOM     80  O   UNL A   1      31.961  36.390  30.251  1.00  0.00    -0.744 OA
ENDBRANCH  76  77
ENDBRANCH  55  69
BRANCH  56  81
ATOM     81  C   UNL A   1      44.693  29.248  28.324  1.00  0.00     0.058 A 
ATOM     82  C   UNL A   1      45.694  28.345  28.735  1.00  0.00     0.135 A 
ATOM     83  C   UNL A   1      43.937  28.911  27.195  1.00  0.00     0.135 A 
ATOM     84  F   UNL A   1      46.464  28.633  29.798  1.00  0.00    -0.206 F 
ATOM     85  C   UNL A   1      45.815  27.082  28.166  1.00  0.00     0.059 A 
ATOM     86  C   UNL A   1      44.055  27.656  26.597  1.00  0.00     0.059 A 
ATOM     87  F   UNL A   1      42.977  29.737  26.751  1.00  0.00    -0.206 F 
ATOM     88  C   UNL A   1      44.939  26.723  27.146  1.00  0.00     0.060 A 
BRANCH  88  89
ATOM     89  S   UNL A   1      44.870  24.984  26.655  1.00  0.00     0.124 S 
ATOM     90  O   UNL A   1      46.278  24.669  26.448  1.00  0.00    -0.237 OA
ATOM     91  O   UNL A   1      44.246  24.356  27.822  1.00  0.00    -0.237 OA
ATOM     92  O   UNL A   1      44.044  25.008  25.454  1.00  0.00    -0.744 OA
ENDBRANCH  88  89
ENDBRANCH  56  81
BRANCH  68  93
ATOM     93  C   UNL A   1      42.347  36.057  28.752  1.00  0.00     0.058 A 
ATOM     94  C   UNL A   1      41.897  36.327  27.450  1.00  0.00     0.135 A 
ATOM     95  C   UNL A   1      43.010  37.095  29.431  1.00  0.00     0.135 A 
ATOM     96  F   UNL A   1      41.274  35.377  26.735  1.00  0.00    -0.206 F 
ATOM     97  C   UNL A   1      42.086  37.571  26.853  1.00  0.00     0.059 A 
ATOM     98  C   UNL A   1      43.236  38.336  28.844  1.00  0.00     0.059 A 
ATOM     99  F   UNL A   1      43.442  36.923  30.692  1.00  0.00    -0.206 F 
ATOM    100  C   UNL A   1      42.759  38.569  27.558  1.00  0.00     0.060 A 
BRANCH 100 101
ATOM    101  S   UNL A   1      43.051  40.168  26.775  1.00  0.00     0.124 S 
ATOM    102  O   UNL A   1      41.761  40.472  26.162  1.00  0.00    -0.237 OA
ATOM    103  O   UNL A   1      43.410  40.991  27.925  1.00  0.00    -0.237 OA
ATOM    104  O   UNL A   1      44.132  39.884  25.836  1.00  0.00    -0.744 OA
ENDBRANCH 100 101
ENDBRANCH  68  93
ENDBRANCH  42  43
ENDBRANCH  34  37
ENDBRANCH  32  33
ENDBRANCH  31  32
ENDBRANCH  30  31
ENDBRANCH   1  30
TORSDOF 20
ENDMDL
MODEL 3
REMARK VINA RESULT:     -12.2      2.377      3.909
REMARK SMILES Cc1c(NCc2ccc(-c3ccc(Cl)cc3)o2)cccc1C(=O)NCCCCCCNC(=O)c1ccc(-c2c3nc(c(-c4c(F)cc(S(=O)(=O)[O-])cc4F)c4ccc([nH]4)c(-c4c(F)cc(S(=O)(=O)[O-])cc4F)c4nc(c(-c5c(F)cc(S(=O)(=O)[O-])cc5F)c5ccc2[nH]5)C=C4)C=C3)cc1
REMARK SMILES IDX 27 1 26 2 25 3 24 4 22 5 23 6 21 8 1 9 2 10 3 11 18 12 20 13
REMARK SMILES IDX 19 14 4 15 5 17 6 18 7 19 17 20 8 21 9 22 10 23 11 24 16 25
REMARK SMILES IDX 12 26 15 27 13 28 14 29 28 30 29 31 30 32 31 33 32 34 33 36
REMARK SMILES IDX 34 37 35 38 99 39 36 40 98 41 37 42 38 43 39 44 92 45 40 46
REMARK SMILES IDX 97 47 91 48 93 49 41 50 96 51 90 52 89 53 42 55 76 56 55 57
REMARK SMILES IDX 75 58 56 59 59 60 74 61 94 62 57 63 58 64 73 66 95 67 60 68
REMARK SMILES IDX 43 69 44 70 53 71 45 72 46 73 52 74 54 75 47 76 48 77 49 78
REMARK SMILES IDX 50 79 51 80 77 81 78 82 87 83 79 84 80 85 86 86 88 87 81 88
REMARK SMILES IDX 82 89 83 90 84 91 85 92 61 93 62 94 71 95 63 96 64 97 70 98
REMARK SMILES IDX 72 99 65 100 66 101 67 102 68 103 69 104
REMARK H PARENT 24 7 4 16 31 35 93 54 59 65
REMARK Flexibility Score: inf
ROOT
ATOM      1  C   UNL A   1      35.531  21.365  24.117  1.00  0.00     0.002 C 
ENDROOT
BRANCH   1   2
ATOM      2  C   UNL A   1      34.749  20.817  25.317  1.00  0.00     0.021 C 
BRANCH   2   3
ATOM      3  C   UNL A   1      33.584  19.874  24.973  1.00  0.00     0.116 C 
BRANCH   3   4
ATOM      4  N   UNL A   1      32.327  20.442  25.432  1.00  0.00    -0.352 N 
ATOM      5  C   UNL A   1      31.739  21.676  25.326  1.00  0.00     0.251 C 
ATOM      6  O   UNL A   1      30.628  21.804  25.850  1.00  0.00    -0.269 OA
ATOM      7  H   UNL A   1      31.774  19.797  25.930  1.00  0.00     0.163 HD
BRANCH   5   8
ATOM      8  C   UNL A   1      32.283  22.836  24.551  1.00  0.00     0.044 A 
ATOM      9  C   UNL A   1      32.487  24.480  26.488  1.00  0.00     0.047 C 
ATOM     10  C   UNL A   1      32.688  24.097  25.048  1.00  0.00    -0.015 A 
ATOM     11  C   UNL A   1      33.210  25.082  24.156  1.00  0.00     0.038 A 
ATOM     12  C   UNL A   1      33.131  24.848  22.777  1.00  0.00     0.026 A 
ATOM     13  C   UNL A   1      32.243  22.647  23.156  1.00  0.00     0.014 A 
ATOM     14  C   UNL A   1      32.633  23.650  22.276  1.00  0.00     0.003 A 
BRANCH  11  15
ATOM     15  N   UNL A   1      33.737  26.263  24.654  1.00  0.00    -0.378 N 
ATOM     16  H   UNL A   1      34.718  26.317  24.724  1.00  0.00     0.161 HD
BRANCH  15  17
ATOM     17  C   UNL A   1      32.980  27.432  25.084  1.00  0.00     0.188 C 
BRANCH  17  18
ATOM     18  C   UNL A   1      31.597  27.484  24.527  1.00  0.00     0.123 A 
ATOM     19  C   UNL A   1      30.565  26.569  24.470  1.00  0.00     0.048 A 
ATOM     20  O   UNL A   1      31.210  28.655  23.941  1.00  0.00    -0.459 OA
ATOM     21  C   UNL A   1      29.470  27.231  23.873  1.00  0.00     0.051 A 
ATOM     22  C   UNL A   1      29.910  28.497  23.549  1.00  0.00     0.134 A 
BRANCH  22  23
ATOM     23  C   UNL A   1      29.283  29.637  22.903  1.00  0.00     0.017 A 
ATOM     24  C   UNL A   1      28.605  29.479  21.687  1.00  0.00     0.013 A 
ATOM     25  C   UNL A   1      29.386  30.918  23.462  1.00  0.00     0.013 A 
ATOM     26  C   UNL A   1      28.039  30.580  21.038  1.00  0.00     0.021 A 
ATOM     27  C   UNL A   1      28.833  32.024  22.809  1.00  0.00     0.021 A 
ATOM     28  C   UNL A   1      28.161  31.849  21.601  1.00  0.00     0.041 A 
ATOM     29  Cl  UNL A   1      27.480  33.212  20.801  1.00  0.00    -0.084 Cl
ENDBRANCH  22  23
ENDBRANCH  17  18
ENDBRANCH  15  17
ENDBRANCH  11  15
ENDBRANCH   5   8
ENDBRANCH   3   4
ENDBRANCH   2   3
ENDBRANCH   1   2
BRANCH   1  30
ATOM     30  C   UNL A   1      36.545  22.480  24.412  1.00  0.00     0.002 C 
BRANCH  30  31
ATOM     31  C   UNL A   1      37.696  22.113  25.352  1.00  0.00     0.021 C 
BRANCH  31  32
ATOM     32  C   UNL A   1      38.157  23.254  26.253  1.00  0.00     0.116 C 
BRANCH  32  33
ATOM     33  N   UNL A   1      39.420  22.989  26.924  1.00  0.00    -0.352 N 
ATOM     34  C   UNL A   1      40.461  23.902  26.954  1.00  0.00     0.251 C 
ATOM     35  H   UNL A   1      39.539  22.123  27.378  1.00  0.00     0.163 HD
ATOM     36  O   UNL A   1      41.635  23.615  26.756  1.00  0.00    -0.269 OA
BRANCH  34  37
ATOM     37  C   UNL A   1      40.077  25.274  27.340  1.00  0.00     0.039 A 
ATOM     38  C   UNL A   1      40.585  26.345  26.599  1.00  0.00     0.014 A 
ATOM     39  C   UNL A   1      39.413  25.482  28.548  1.00  0.00     0.014 A 
ATOM     40  C   UNL A   1      40.540  27.631  27.140  1.00  0.00     0.010 A 
ATOM     41  C   UNL A   1      39.430  26.748  29.109  1.00  0.00     0.010 A 
ATOM     42  C   UNL A   1      40.025  27.819  28.424  1.00  0.00    -0.014 A 
BRANCH  42  43
ATOM     43  C   UNL A   1      40.154  29.068  29.173  1.00  0.00     0.031 A 
ATOM     44  C   UNL A   1      39.090  30.102  29.128  1.00  0.00     0.074 A 
ATOM     45  C   UNL A   1      41.222  29.259  29.979  1.00  0.00     0.049 A 
ATOM     46  N   UNL A   1      39.250  31.332  29.491  1.00  0.00    -0.248 NA
ATOM     47  C   UNL A   1      37.750  29.825  28.623  1.00  0.00     0.031 C 
ATOM     48  C   UNL A   1      41.372  30.267  31.025  1.00  0.00     0.029 A 
ATOM     49  N   UNL A   1      42.497  28.701  29.849  1.00  0.00    -0.354 N 
ATOM     50  C   UNL A   1      38.018  31.945  29.486  1.00  0.00     0.074 A 
ATOM     51  C   UNL A   1      37.117  30.967  28.915  1.00  0.00     0.031 C 
ATOM     52  C   UNL A   1      42.677  30.454  31.262  1.00  0.00     0.029 A 
ATOM     53  C   UNL A   1      43.416  29.684  30.278  1.00  0.00     0.049 A 
ATOM     54  H   UNL A   1      42.713  27.798  29.523  1.00  0.00     0.167 HD
ATOM     55  C   UNL A   1      37.862  33.177  30.050  1.00  0.00     0.037 A 
ATOM     56  C   UNL A   1      44.342  30.194  29.414  1.00  0.00     0.037 A 
ATOM     57  C   UNL A   1      39.129  33.738  30.506  1.00  0.00     0.049 A 
ATOM     58  C   UNL A   1      44.194  31.675  29.127  1.00  0.00     0.074 A 
ATOM     59  C   UNL A   1      39.788  33.775  31.724  1.00  0.00     0.029 A 
ATOM     60  N   UNL A   1      40.050  34.147  29.559  1.00  0.00    -0.354 N 
ATOM     61  N   UNL A   1      43.257  32.435  29.624  1.00  0.00    -0.248 NA
ATOM     62  C   UNL A   1      45.053  32.398  28.186  1.00  0.00     0.031 C 
ATOM     63  C   UNL A   1      41.138  34.157  31.486  1.00  0.00     0.029 A 
ATOM     64  C   UNL A   1      41.292  34.354  30.127  1.00  0.00     0.049 A 
ATOM     65  H   UNL A   1      39.847  34.274  28.604  1.00  0.00     0.167 HD
ATOM     66  C   UNL A   1      43.329  33.672  29.044  1.00  0.00     0.074 A 
ATOM     67  C   UNL A   1      44.485  33.616  28.173  1.00  0.00     0.031 C 
ATOM     68  C   UNL A   1      42.415  34.656  29.265  1.00  0.00     0.037 A 
BRANCH  55  69
ATOM     69  C   UNL A   1      36.512  33.769  30.379  1.00  0.00     0.058 A 
ATOM     70  C   UNL A   1      35.613  34.126  29.352  1.00  0.00     0.135 A 
ATOM     71  C   UNL A   1      36.074  34.059  31.685  1.00  0.00     0.135 A 
ATOM     72  F   UNL A   1      35.865  33.838  28.068  1.00  0.00    -0.206 F 
ATOM     73  C   UNL A   1      34.430  34.824  29.593  1.00  0.00     0.059 A 
ATOM     74  C   UNL A   1      34.923  34.810  31.948  1.00  0.00     0.059 A 
ATOM     75  F   UNL A   1      36.742  33.603  32.754  1.00  0.00    -0.206 F 
ATOM     76  C   UNL A   1      34.113  35.201  30.890  1.00  0.00     0.060 A 
BRANCH  76  77
ATOM     77  S   UNL A   1      32.663  36.239  31.162  1.00  0.00     0.124 S 
ATOM     78  O   UNL A   1      33.243  37.421  31.795  1.00  0.00    -0.237 OA
ATOM     79  O   UNL A   1      32.166  36.426  29.804  1.00  0.00    -0.237 OA
ATOM     80  O   UNL A   1      31.824  35.425  32.035  1.00  0.00    -0.744 OA
ENDBRANCH  76  77
ENDBRANCH  55  69
BRANCH  56  81
ATOM     81  C   UNL A   1      44.849  29.175  28.454  1.00  0.00     0.058 A 
ATOM     82  C   UNL A   1      45.861  28.301  28.900  1.00  0.00     0.135 A 
ATOM     83  C   UNL A   1      44.102  28.787  27.335  1.00  0.00     0.135 A 
ATOM     84  F   UNL A   1      46.623  28.638  29.954  1.00  0.00    -0.206 F 
ATOM     85  C   UNL A   1      46.002  27.020  28.377  1.00  0.00     0.059 A 
ATOM     86  C   UNL A   1      44.240  27.513  26.783  1.00  0.00     0.059 A 
ATOM     87  F   UNL A   1      43.133  29.582  26.859  1.00  0.00    -0.206 F 
ATOM     88  C   UNL A   1      45.134  26.613  27.368  1.00  0.00     0.060 A 
BRANCH  88  89
ATOM     89  S   UNL A   1      45.091  24.855  26.940  1.00  0.00     0.124 S 
ATOM     90  O   UNL A   1      44.454  24.876  25.629  1.00  0.00    -0.237 OA
ATOM     91  O   UNL A   1      46.511  24.499  26.949  1.00  0.00    -0.237 OA
ATOM     92  O   UNL A   1      44.302  24.269  28.017  1.00  0.00    -0.744 OA
ENDBRANCH  88  89
ENDBRANCH  56  81
BRANCH  68  93
ATOM     93  C   UNL A   1      42.545  36.009  28.650  1.00  0.00     0.058 A 
ATOM     94  C   UNL A   1      43.017  37.101  29.394  1.00  0.00     0.135 A 
ATOM     95  C   UNL A   1      42.084  36.269  27.347  1.00  0.00     0.135 A 
ATOM     96  F   UNL A   1      43.453  36.928  30.653  1.00  0.00    -0.206 F 
ATOM     97  C   UNL A   1      43.042  38.390  28.869  1.00  0.00     0.059 A 
ATOM     98  C   UNL A   1      42.072  37.554  26.812  1.00  0.00     0.059 A 
ATOM     99  F   UNL A   1      41.646  35.271  26.562  1.00  0.00    -0.206 F 
ATOM    100  C   UNL A   1      42.566  38.607  27.576  1.00  0.00     0.060 A 
BRANCH 100 101
ATOM    101  S   UNL A   1      42.550  40.281  26.903  1.00  0.00     0.124 S 
ATOM    102  O   UNL A   1      43.552  40.217  25.844  1.00  0.00    -0.237 OA
ATOM    103  O   UNL A   1      41.166  40.398  26.454  1.00  0.00    -0.237 OA
ATOM    104  O   UNL A   1      42.914  41.103  28.053  1.00  0.00    -0.744 OA
ENDBRANCH 100 101
ENDBRANCH  68  93
ENDBRANCH  42  43
ENDBRANCH  34  37
ENDBRANCH  32  33
ENDBRANCH  31  32
ENDBRANCH  30  31
ENDBRANCH   1  30
TORSDOF 20
ENDMDL
