MODEL 1
REMARK VINA RESULT:     -10.6      0.000      0.000
REMARK SMILES O=C(Cn1nc(-c2ccco2)ccc1=O)NCCCCCCNC(=O)c1ccc(-c2c3nc(c(-c4c(F)cc(S(=O)(=O)[O-])cc4F)c4ccc([nH]4)c(-c4c(F)cc(S(=O)(=O)[O-])cc4F)c4nc(c(-c5c(F)cc(S(=O)(=O)[O-])cc5F)c5ccc2[nH]5)C=C4)C=C3)cc1
REMARK SMILES IDX 20 1 19 2 18 3 17 4 16 5 1 6 2 7 3 9 4 10 5 11 14 12 6 13
REMARK SMILES IDX 13 14 15 15 12 16 7 17 8 18 11 19 9 20 10 21 21 22 22 23
REMARK SMILES IDX 23 24 24 25 25 27 26 28 27 29 91 30 28 31 90 32 29 33 30 34
REMARK SMILES IDX 31 35 84 36 32 37 89 38 83 39 85 40 33 41 88 42 82 43 81 44
REMARK SMILES IDX 34 46 68 47 47 48 67 49 48 50 51 51 66 52 86 53 49 54 50 55
REMARK SMILES IDX 65 57 87 58 52 59 35 60 36 61 45 62 37 63 38 64 44 65 46 66
REMARK SMILES IDX 39 67 40 68 41 69 42 70 43 71 69 72 70 73 79 74 71 75 72 76
REMARK SMILES IDX 78 77 80 78 73 79 74 80 75 81 76 82 77 83 53 84 54 85 63 86
REMARK SMILES IDX 55 87 56 88 62 89 64 90 57 91 58 92 59 93 60 94 61 95
REMARK H PARENT 16 8 23 26 85 45 51 56
REMARK Flexibility Score: inf
ROOT
ATOM      1  C   UNL A   1      32.702  29.584  25.244  1.00  0.00     0.002 C 
ENDROOT
BRANCH   1   2
ATOM      2  C   UNL A   1      31.585  28.966  24.395  1.00  0.00     0.002 C 
BRANCH   2   3
ATOM      3  C   UNL A   1      31.884  27.592  23.786  1.00  0.00     0.021 C 
BRANCH   3   4
ATOM      4  C   UNL A   1      30.852  26.510  24.094  1.00  0.00     0.116 C 
BRANCH   4   5
ATOM      5  N   UNL A   1      31.404  25.389  24.826  1.00  0.00    -0.354 N 
ATOM      6  O   UNL A   1      31.157  26.317  26.904  1.00  0.00    -0.273 OA
ATOM      7  C   UNL A   1      31.389  25.331  26.203  1.00  0.00     0.241 C 
ATOM      8  H   UNL A   1      31.805  24.644  24.324  1.00  0.00     0.163 HD
BRANCH   7   9
ATOM      9  C   UNL A   1      31.788  23.991  26.837  1.00  0.00     0.248 C 
BRANCH   9  10
ATOM     10  N   UNL A   1      32.664  23.135  26.038  1.00  0.00    -0.220 N 
ATOM     11  N   UNL A   1      34.026  23.382  26.141  1.00  0.00    -0.166 NA
ATOM     12  C   UNL A   1      32.154  21.955  25.506  1.00  0.00     0.267 A 
ATOM     13  C   UNL A   1      34.835  22.588  25.507  1.00  0.00     0.126 A 
ATOM     14  C   UNL A   1      33.091  21.171  24.677  1.00  0.00     0.076 A 
ATOM     15  O   UNL A   1      30.994  21.573  25.623  1.00  0.00    -0.268 OA
ATOM     16  C   UNL A   1      34.387  21.481  24.636  1.00  0.00     0.040 A 
BRANCH  13  17
ATOM     17  C   UNL A   1      36.258  22.744  25.689  1.00  0.00     0.154 A 
ATOM     18  C   UNL A   1      37.023  23.866  25.947  1.00  0.00     0.052 A 
ATOM     19  O   UNL A   1      37.065  21.639  25.653  1.00  0.00    -0.463 OA
ATOM     20  C   UNL A   1      38.361  23.422  26.082  1.00  0.00     0.043 A 
ATOM     21  C   UNL A   1      38.336  22.066  25.862  1.00  0.00     0.196 A 
ENDBRANCH  13  17
ENDBRANCH   9  10
ENDBRANCH   7   9
ENDBRANCH   4   5
ENDBRANCH   3   4
ENDBRANCH   2   3
ENDBRANCH   1   2
BRANCH   1  22
ATOM     22  C   UNL A   1      33.705  28.600  25.849  1.00  0.00     0.021 C 
BRANCH  22  23
ATOM     23  C   UNL A   1      33.839  28.643  27.367  1.00  0.00     0.116 C 
BRANCH  23  24
ATOM     24  N   UNL A   1      33.847  29.997  27.906  1.00  0.00    -0.352 N 
ATOM     25  C   UNL A   1      34.877  30.681  28.513  1.00  0.00     0.251 C 
ATOM     26  H   UNL A   1      33.000  30.491  27.826  1.00  0.00     0.163 HD
ATOM     27  O   UNL A   1      34.679  31.786  29.009  1.00  0.00    -0.269 OA
BRANCH  25  28
ATOM     28  C   UNL A   1      36.215  30.052  28.607  1.00  0.00     0.039 A 
ATOM     29  C   UNL A   1      36.647  29.475  29.804  1.00  0.00     0.014 A 
ATOM     30  C   UNL A   1      37.067  30.096  27.500  1.00  0.00     0.014 A 
ATOM     31  C   UNL A   1      37.983  29.110  29.948  1.00  0.00     0.010 A 
ATOM     32  C   UNL A   1      38.390  29.659  27.626  1.00  0.00     0.010 A 
ATOM     33  C   UNL A   1      38.876  29.221  28.868  1.00  0.00    -0.014 A 
BRANCH  33  34
ATOM     34  C   UNL A   1      40.319  28.925  29.075  1.00  0.00     0.031 A 
ATOM     35  C   UNL A   1      40.887  27.584  28.685  1.00  0.00     0.074 A 
ATOM     36  C   UNL A   1      41.135  29.887  29.548  1.00  0.00     0.049 A 
ATOM     37  N   UNL A   1      42.117  27.146  28.787  1.00  0.00    -0.248 NA
ATOM     38  C   UNL A   1      39.953  26.603  28.108  1.00  0.00     0.031 C 
ATOM     39  C   UNL A   1      40.713  31.234  29.939  1.00  0.00     0.029 A 
ATOM     40  N   UNL A   1      42.491  29.889  29.759  1.00  0.00    -0.354 N 
ATOM     41  C   UNL A   1      42.103  25.843  28.303  1.00  0.00     0.074 A 
ATOM     42  C   UNL A   1      40.736  25.547  27.934  1.00  0.00     0.031 C 
ATOM     43  C   UNL A   1      41.793  31.946  30.293  1.00  0.00     0.029 A 
ATOM     44  C   UNL A   1      42.975  31.094  30.210  1.00  0.00     0.049 A 
ATOM     45  H   UNL A   1      43.063  29.103  29.600  1.00  0.00     0.167 HD
ATOM     46  C   UNL A   1      43.135  24.975  28.166  1.00  0.00     0.037 A 
ATOM     47  C   UNL A   1      44.228  31.469  30.534  1.00  0.00     0.037 A 
ATOM     48  C   UNL A   1      44.501  25.280  28.507  1.00  0.00     0.049 A 
ATOM     49  C   UNL A   1      45.348  30.476  30.414  1.00  0.00     0.074 A 
ATOM     50  C   UNL A   1      45.618  24.470  28.393  1.00  0.00     0.029 A 
ATOM     51  N   UNL A   1      44.938  26.491  29.022  1.00  0.00    -0.354 N 
ATOM     52  N   UNL A   1      45.310  29.240  29.975  1.00  0.00    -0.248 NA
ATOM     53  C   UNL A   1      46.680  30.922  30.845  1.00  0.00     0.031 C 
ATOM     54  C   UNL A   1      46.726  25.180  28.869  1.00  0.00     0.029 A 
ATOM     55  C   UNL A   1      46.305  26.445  29.246  1.00  0.00     0.049 A 
ATOM     56  H   UNL A   1      44.363  27.269  29.203  1.00  0.00     0.167 HD
ATOM     57  C   UNL A   1      46.610  28.761  30.078  1.00  0.00     0.074 A 
ATOM     58  C   UNL A   1      47.416  29.847  30.597  1.00  0.00     0.031 C 
ATOM     59  C   UNL A   1      47.091  27.530  29.776  1.00  0.00     0.037 A 
BRANCH  46  60
ATOM     60  C   UNL A   1      42.831  23.606  27.626  1.00  0.00     0.058 A 
ATOM     61  C   UNL A   1      42.879  23.330  26.251  1.00  0.00     0.135 A 
ATOM     62  C   UNL A   1      42.537  22.544  28.497  1.00  0.00     0.135 A 
ATOM     63  F   UNL A   1      43.139  24.312  25.373  1.00  0.00    -0.206 F 
ATOM     64  C   UNL A   1      42.629  22.053  25.756  1.00  0.00     0.059 A 
ATOM     65  C   UNL A   1      42.304  21.255  28.026  1.00  0.00     0.059 A 
ATOM     66  F   UNL A   1      42.477  22.755  29.822  1.00  0.00    -0.206 F 
ATOM     67  C   UNL A   1      42.342  21.022  26.652  1.00  0.00     0.060 A 
BRANCH  67  68
ATOM     68  S   UNL A   1      42.026  19.371  25.994  1.00  0.00     0.124 S 
ATOM     69  O   UNL A   1      42.814  19.392  24.765  1.00  0.00    -0.237 OA
ATOM     70  O   UNL A   1      42.534  18.508  27.057  1.00  0.00    -0.237 OA
ATOM     71  O   UNL A   1      40.578  19.347  25.810  1.00  0.00    -0.744 OA
ENDBRANCH  67  68
ENDBRANCH  46  60
BRANCH  47  72
ATOM     72  C   UNL A   1      44.480  32.852  31.010  1.00  0.00     0.058 A 
ATOM     73  C   UNL A   1      44.743  33.890  30.105  1.00  0.00     0.135 A 
ATOM     74  C   UNL A   1      44.432  33.170  32.377  1.00  0.00     0.135 A 
ATOM     75  F   UNL A   1      44.808  33.632  28.790  1.00  0.00    -0.206 F 
ATOM     76  C   UNL A   1      44.948  35.196  30.536  1.00  0.00     0.059 A 
ATOM     77  C   UNL A   1      44.611  34.472  32.830  1.00  0.00     0.059 A 
ATOM     78  F   UNL A   1      44.172  32.212  33.280  1.00  0.00    -0.206 F 
ATOM     79  C   UNL A   1      44.874  35.478  31.901  1.00  0.00     0.060 A 
BRANCH  79  80
ATOM     80  S   UNL A   1      45.073  37.188  32.446  1.00  0.00     0.124 S 
ATOM     81  O   UNL A   1      43.878  37.814  31.890  1.00  0.00    -0.237 OA
ATOM     82  O   UNL A   1      45.104  37.047  33.898  1.00  0.00    -0.237 OA
ATOM     83  O   UNL A   1      46.338  37.588  31.837  1.00  0.00    -0.744 OA
ENDBRANCH  79  80
ENDBRANCH  47  72
BRANCH  59  84
ATOM     84  C   UNL A   1      48.557  27.291  30.002  1.00  0.00     0.058 A 
ATOM     85  C   UNL A   1      49.504  27.595  29.013  1.00  0.00     0.135 A 
ATOM     86  C   UNL A   1      49.022  26.799  31.231  1.00  0.00     0.135 A 
ATOM     87  F   UNL A   1      49.108  28.061  27.817  1.00  0.00    -0.206 F 
ATOM     88  C   UNL A   1      50.865  27.401  29.227  1.00  0.00     0.059 A 
ATOM     89  C   UNL A   1      50.380  26.617  31.475  1.00  0.00     0.059 A 
ATOM     90  F   UNL A   1      48.156  26.502  32.212  1.00  0.00    -0.206 F 
ATOM     91  C   UNL A   1      51.293  26.911  30.463  1.00  0.00     0.060 A 
BRANCH  91  92
ATOM     92  S   UNL A   1      53.064  26.693  30.739  1.00  0.00     0.124 S 
ATOM     93  O   UNL A   1      53.424  27.967  31.352  1.00  0.00    -0.237 OA
ATOM     94  O   UNL A   1      53.102  25.531  31.623  1.00  0.00    -0.237 OA
ATOM     95  O   UNL A   1      53.592  26.469  29.397  1.00  0.00    -0.744 OA
ENDBRANCH  91  92
ENDBRANCH  59  84
ENDBRANCH  33  34
ENDBRANCH  25  28
ENDBRANCH  23  24
ENDBRANCH  22  23
ENDBRANCH   1  22
TORSDOF 18
ENDMDL
MODEL 2
REMARK VINA RESULT:     -10.5      0.665      8.218
REMARK SMILES O=C(Cn1nc(-c2ccco2)ccc1=O)NCCCCCCNC(=O)c1ccc(-c2c3nc(c(-c4c(F)cc(S(=O)(=O)[O-])cc4F)c4ccc([nH]4)c(-c4c(F)cc(S(=O)(=O)[O-])cc4F)c4nc(c(-c5c(F)cc(S(=O)(=O)[O-])cc5F)c5ccc2[nH]5)C=C4)C=C3)cc1
REMARK SMILES IDX 20 1 19 2 18 3 17 4 16 5 1 6 2 7 3 9 4 10 5 11 14 12 6 13
REMARK SMILES IDX 13 14 15 15 12 16 7 17 8 18 11 19 9 20 10 21 21 22 22 23
REMARK SMILES IDX 23 24 24 25 25 27 26 28 27 29 91 30 28 31 90 32 29 33 30 34
REMARK SMILES IDX 31 35 84 36 32 37 89 38 83 39 85 40 33 41 88 42 82 43 81 44
REMARK SMILES IDX 34 46 68 47 47 48 67 49 48 50 51 51 66 52 86 53 49 54 50 55
REMARK SMILES IDX 65 57 87 58 52 59 35 60 36 61 45 62 37 63 38 64 44 65 46 66
REMARK SMILES IDX 39 67 40 68 41 69 42 70 43 71 69 72 70 73 79 74 71 75 72 76
REMARK SMILES IDX 78 77 80 78 73 79 74 80 75 81 76 82 77 83 53 84 54 85 63 86
REMARK SMILES IDX 55 87 56 88 62 89 64 90 57 91 58 92 59 93 60 94 61 95
REMARK H PARENT 16 8 23 26 85 45 51 56
REMARK Flexibility Score: inf
ROOT
ATOM      1  C   UNL A   1      32.614  29.414  24.933  1.00  0.00     0.002 C 
ENDROOT
BRANCH   1   2
ATOM      2  C   UNL A   1      31.480  28.739  24.155  1.00  0.00     0.002 C 
BRANCH   2   3
ATOM      3  C   UNL A   1      31.777  27.338  23.609  1.00  0.00     0.021 C 
BRANCH   3   4
ATOM      4  C   UNL A   1      30.777  26.260  24.017  1.00  0.00     0.116 C 
BRANCH   4   5
ATOM      5  N   UNL A   1      31.377  25.188  24.785  1.00  0.00    -0.354 N 
ATOM      6  O   UNL A   1      31.036  26.145  26.836  1.00  0.00    -0.273 OA
ATOM      7  C   UNL A   1      31.338  25.159  26.162  1.00  0.00     0.241 C 
ATOM      8  H   UNL A   1      31.829  24.456  24.307  1.00  0.00     0.163 HD
BRANCH   7   9
ATOM      9  C   UNL A   1      31.800  23.858  26.834  1.00  0.00     0.248 C 
BRANCH   9  10
ATOM     10  N   UNL A   1      32.682  23.002  26.042  1.00  0.00    -0.220 N 
ATOM     11  N   UNL A   1      34.042  23.265  26.139  1.00  0.00    -0.166 NA
ATOM     12  C   UNL A   1      32.183  21.811  25.525  1.00  0.00     0.267 A 
ATOM     13  C   UNL A   1      34.858  22.472  25.511  1.00  0.00     0.126 A 
ATOM     14  C   UNL A   1      33.126  21.027  24.702  1.00  0.00     0.076 A 
ATOM     15  O   UNL A   1      31.028  21.418  25.650  1.00  0.00    -0.268 OA
ATOM     16  C   UNL A   1      34.419  21.350  24.654  1.00  0.00     0.040 A 
BRANCH  13  17
ATOM     17  C   UNL A   1      36.279  22.644  25.687  1.00  0.00     0.154 A 
ATOM     18  C   UNL A   1      37.022  23.754  26.044  1.00  0.00     0.052 A 
ATOM     19  O   UNL A   1      37.111  21.569  25.530  1.00  0.00    -0.463 OA
ATOM     20  C   UNL A   1      38.372  23.333  26.115  1.00  0.00     0.043 A 
ATOM     21  C   UNL A   1      38.376  22.005  25.763  1.00  0.00     0.196 A 
ENDBRANCH  13  17
ENDBRANCH   9  10
ENDBRANCH   7   9
ENDBRANCH   4   5
ENDBRANCH   3   4
ENDBRANCH   2   3
ENDBRANCH   1   2
BRANCH   1  22
ATOM     22  C   UNL A   1      33.548  28.476  25.701  1.00  0.00     0.021 C 
BRANCH  22  23
ATOM     23  C   UNL A   1      33.499  28.595  27.220  1.00  0.00     0.116 C 
BRANCH  23  24
ATOM     24  N   UNL A   1      33.517  29.974  27.692  1.00  0.00    -0.352 N 
ATOM     25  C   UNL A   1      34.557  30.684  28.251  1.00  0.00     0.251 C 
ATOM     26  H   UNL A   1      32.670  30.465  27.599  1.00  0.00     0.163 HD
ATOM     27  O   UNL A   1      34.367  31.813  28.693  1.00  0.00    -0.269 OA
BRANCH  25  28
ATOM     28  C   UNL A   1      35.894  30.058  28.357  1.00  0.00     0.039 A 
ATOM     29  C   UNL A   1      36.299  29.440  29.543  1.00  0.00     0.014 A 
ATOM     30  C   UNL A   1      36.775  30.144  27.275  1.00  0.00     0.014 A 
ATOM     31  C   UNL A   1      37.632  29.076  29.709  1.00  0.00     0.010 A 
ATOM     32  C   UNL A   1      38.096  29.708  27.420  1.00  0.00     0.010 A 
ATOM     33  C   UNL A   1      38.552  29.228  28.657  1.00  0.00    -0.014 A 
BRANCH  33  34
ATOM     34  C   UNL A   1      39.991  28.930  28.891  1.00  0.00     0.031 A 
ATOM     35  C   UNL A   1      40.870  29.926  29.605  1.00  0.00     0.074 A 
ATOM     36  C   UNL A   1      40.492  27.735  28.525  1.00  0.00     0.049 A 
ATOM     37  N   UNL A   1      42.142  29.841  29.902  1.00  0.00    -0.248 NA
ATOM     38  C   UNL A   1      40.240  31.184  30.041  1.00  0.00     0.031 C 
ATOM     39  C   UNL A   1      39.739  26.676  27.849  1.00  0.00     0.029 A 
ATOM     40  N   UNL A   1      41.744  27.199  28.690  1.00  0.00    -0.354 N 
ATOM     41  C   UNL A   1      42.468  31.031  30.542  1.00  0.00     0.074 A 
ATOM     42  C   UNL A   1      41.267  31.837  30.566  1.00  0.00     0.031 C 
ATOM     43  C   UNL A   1      40.529  25.602  27.703  1.00  0.00     0.029 A 
ATOM     44  C   UNL A   1      41.857  25.912  28.222  1.00  0.00     0.049 A 
ATOM     45  H   UNL A   1      42.490  27.689  29.106  1.00  0.00     0.167 HD
ATOM     46  C   UNL A   1      43.655  31.414  31.073  1.00  0.00     0.037 A 
ATOM     47  C   UNL A   1      42.915  25.078  28.198  1.00  0.00     0.037 A 
ATOM     48  C   UNL A   1      44.843  30.600  31.074  1.00  0.00     0.049 A 
ATOM     49  C   UNL A   1      44.231  25.541  28.755  1.00  0.00     0.074 A 
ATOM     50  C   UNL A   1      46.090  30.896  31.599  1.00  0.00     0.029 A 
ATOM     51  N   UNL A   1      44.932  29.327  30.531  1.00  0.00    -0.354 N 
ATOM     52  N   UNL A   1      44.524  26.679  29.336  1.00  0.00    -0.248 NA
ATOM     53  C   UNL A   1      45.363  24.612  28.640  1.00  0.00     0.031 C 
ATOM     54  C   UNL A   1      46.941  29.816  31.344  1.00  0.00     0.029 A 
ATOM     55  C   UNL A   1      46.216  28.831  30.693  1.00  0.00     0.049 A 
ATOM     56  H   UNL A   1      44.193  28.846  30.094  1.00  0.00     0.167 HD
ATOM     57  C   UNL A   1      45.874  26.605  29.657  1.00  0.00     0.074 A 
ATOM     58  C   UNL A   1      46.334  25.300  29.227  1.00  0.00     0.031 C 
ATOM     59  C   UNL A   1      46.662  27.535  30.248  1.00  0.00     0.037 A 
BRANCH  46  60
ATOM     60  C   UNL A   1      43.734  32.778  31.698  1.00  0.00     0.058 A 
ATOM     61  C   UNL A   1      43.925  33.933  30.923  1.00  0.00     0.135 A 
ATOM     62  C   UNL A   1      43.568  32.940  33.083  1.00  0.00     0.135 A 
ATOM     63  F   UNL A   1      44.106  33.834  29.596  1.00  0.00    -0.206 F 
ATOM     64  C   UNL A   1      43.965  35.199  31.501  1.00  0.00     0.059 A 
ATOM     65  C   UNL A   1      43.584  34.198  33.680  1.00  0.00     0.059 A 
ATOM     66  F   UNL A   1      43.383  31.868  33.871  1.00  0.00    -0.206 F 
ATOM     67  C   UNL A   1      43.794  35.321  32.881  1.00  0.00     0.060 A 
BRANCH  67  68
ATOM     68  S   UNL A   1      43.844  36.970  33.613  1.00  0.00     0.124 S 
ATOM     69  O   UNL A   1      44.047  37.806  32.433  1.00  0.00    -0.237 OA
ATOM     70  O   UNL A   1      42.530  37.072  34.243  1.00  0.00    -0.237 OA
ATOM     71  O   UNL A   1      44.973  36.902  34.534  1.00  0.00    -0.744 OA
ENDBRANCH  67  68
ENDBRANCH  46  60
BRANCH  47  72
ATOM     72  C   UNL A   1      42.766  23.719  27.618  1.00  0.00     0.058 A 
ATOM     73  C   UNL A   1      43.125  23.459  26.288  1.00  0.00     0.135 A 
ATOM     74  C   UNL A   1      42.293  22.647  28.392  1.00  0.00     0.135 A 
ATOM     75  F   UNL A   1      43.573  24.454  25.507  1.00  0.00    -0.206 F 
ATOM     76  C   UNL A   1      43.021  22.183  25.743  1.00  0.00     0.059 A 
ATOM     77  C   UNL A   1      42.202  21.359  27.876  1.00  0.00     0.059 A 
ATOM     78  F   UNL A   1      41.948  22.845  29.673  1.00  0.00    -0.206 F 
ATOM     79  C   UNL A   1      42.565  21.138  26.548  1.00  0.00     0.060 A 
BRANCH  79  80
ATOM     80  S   UNL A   1      42.499  19.473  25.853  1.00  0.00     0.124 S 
ATOM     81  O   UNL A   1      43.120  18.687  26.914  1.00  0.00    -0.237 OA
ATOM     82  O   UNL A   1      41.065  19.275  25.666  1.00  0.00    -0.237 OA
ATOM     83  O   UNL A   1      43.273  19.594  24.620  1.00  0.00    -0.744 OA
ENDBRANCH  79  80
ENDBRANCH  47  72
BRANCH  59  84
ATOM     84  C   UNL A   1      48.106  27.178  30.462  1.00  0.00     0.058 A 
ATOM     85  C   UNL A   1      49.096  27.574  29.551  1.00  0.00     0.135 A 
ATOM     86  C   UNL A   1      48.508  26.474  31.607  1.00  0.00     0.135 A 
ATOM     87  F   UNL A   1      48.760  28.242  28.435  1.00  0.00    -0.206 F 
ATOM     88  C   UNL A   1      50.437  27.269  29.759  1.00  0.00     0.059 A 
ATOM     89  C   UNL A   1      49.846  26.177  31.847  1.00  0.00     0.059 A 
ATOM     90  F   UNL A   1      47.599  26.081  32.514  1.00  0.00    -0.206 F 
ATOM     91  C   UNL A   1      50.802  26.570  30.910  1.00  0.00     0.060 A 
BRANCH  91  92
ATOM     92  S   UNL A   1      52.550  26.207  31.184  1.00  0.00     0.124 S 
ATOM     93  O   UNL A   1      53.057  26.162  29.817  1.00  0.00    -0.237 OA
ATOM     94  O   UNL A   1      52.985  27.347  31.985  1.00  0.00    -0.237 OA
ATOM     95  O   UNL A   1      52.525  24.927  31.887  1.00  0.00    -0.744 OA
ENDBRANCH  91  92
ENDBRANCH  59  84
ENDBRANCH  33  34
ENDBRANCH  25  28
ENDBRANCH  23  24
ENDBRANCH  22  23
ENDBRANCH   1  22
TORSDOF 18
ENDMDL
MODEL 3
REMARK VINA RESULT:     -10.3      4.980      9.917
REMARK SMILES O=C(Cn1nc(-c2ccco2)ccc1=O)NCCCCCCNC(=O)c1ccc(-c2c3nc(c(-c4c(F)cc(S(=O)(=O)[O-])cc4F)c4ccc([nH]4)c(-c4c(F)cc(S(=O)(=O)[O-])cc4F)c4nc(c(-c5c(F)cc(S(=O)(=O)[O-])cc5F)c5ccc2[nH]5)C=C4)C=C3)cc1
REMARK SMILES IDX 20 1 19 2 18 3 17 4 16 5 1 6 2 7 3 9 4 10 5 11 14 12 6 13
REMARK SMILES IDX 13 14 15 15 12 16 7 17 8 18 11 19 9 20 10 21 21 22 22 23
REMARK SMILES IDX 23 24 24 25 25 27 26 28 27 29 91 30 28 31 90 32 29 33 30 34
REMARK SMILES IDX 31 35 84 36 32 37 89 38 83 39 85 40 33 41 88 42 82 43 81 44
REMARK SMILES IDX 34 46 68 47 47 48 67 49 48 50 51 51 66 52 86 53 49 54 50 55
REMARK SMILES IDX 65 57 87 58 52 59 35 60 36 61 45 62 37 63 38 64 44 65 46 66
REMARK SMILES IDX 39 67 40 68 41 69 42 70 43 71 69 72 70 73 79 74 71 75 72 76
REMARK SMILES IDX 78 77 80 78 73 79 74 80 75 81 76 82 77 83 53 84 54 85 63 86
REMARK SMILES IDX 55 87 56 88 62 89 64 90 57 91 58 92 59 93 60 94 61 95
REMARK H PARENT 16 8 23 26 85 45 51 56
REMARK Flexibility Score: inf
ROOT
ATOM      1  C   UNL A   1      35.927  23.922  25.304  1.00  0.00     0.002 C 
ENDROOT
BRANCH   1   2
ATOM      2  C   UNL A   1      35.156  23.312  26.479  1.00  0.00     0.002 C 
BRANCH   2   3
ATOM      3  C   UNL A   1      34.682  21.866  26.296  1.00  0.00     0.021 C 
BRANCH   3   4
ATOM      4  C   UNL A   1      33.183  21.649  26.484  1.00  0.00     0.116 C 
BRANCH   4   5
ATOM      5  N   UNL A   1      32.374  22.573  25.716  1.00  0.00    -0.354 N 
ATOM      6  O   UNL A   1      31.539  23.712  27.516  1.00  0.00    -0.273 OA
ATOM      7  C   UNL A   1      31.711  23.630  26.299  1.00  0.00     0.241 C 
ATOM      8  H   UNL A   1      32.295  22.441  24.743  1.00  0.00     0.163 HD
BRANCH   7   9
ATOM      9  C   UNL A   1      31.090  24.661  25.346  1.00  0.00     0.248 C 
BRANCH   9  10
ATOM     10  N   UNL A   1      32.000  25.672  24.809  1.00  0.00    -0.220 N 
ATOM     11  N   UNL A   1      32.284  26.747  25.640  1.00  0.00    -0.166 NA
ATOM     12  C   UNL A   1      32.769  25.364  23.691  1.00  0.00     0.267 A 
ATOM     13  C   UNL A   1      33.151  27.621  25.224  1.00  0.00     0.126 A 
ATOM     14  C   UNL A   1      33.630  26.454  23.187  1.00  0.00     0.076 A 
ATOM     15  O   UNL A   1      32.729  24.302  23.080  1.00  0.00    -0.268 OA
ATOM     16  C   UNL A   1      33.801  27.569  23.898  1.00  0.00     0.040 A 
BRANCH  13  17
ATOM     17  C   UNL A   1      33.558  28.684  26.111  1.00  0.00     0.154 A 
ATOM     18  C   UNL A   1      34.542  28.732  27.081  1.00  0.00     0.052 A 
ATOM     19  O   UNL A   1      32.943  29.903  26.024  1.00  0.00    -0.463 OA
ATOM     20  C   UNL A   1      34.532  30.046  27.606  1.00  0.00     0.043 A 
ATOM     21  C   UNL A   1      33.520  30.709  26.952  1.00  0.00     0.196 A 
ENDBRANCH  13  17
ENDBRANCH   9  10
ENDBRANCH   7   9
ENDBRANCH   4   5
ENDBRANCH   3   4
ENDBRANCH   2   3
ENDBRANCH   1   2
BRANCH   1  22
ATOM     22  C   UNL A   1      37.397  23.514  25.184  1.00  0.00     0.021 C 
BRANCH  22  23
ATOM     23  C   UNL A   1      38.256  23.773  26.417  1.00  0.00     0.116 C 
BRANCH  23  24
ATOM     24  N   UNL A   1      39.686  23.688  26.152  1.00  0.00    -0.352 N 
ATOM     25  C   UNL A   1      40.697  24.521  26.577  1.00  0.00     0.251 C 
ATOM     26  H   UNL A   1      39.968  22.930  25.591  1.00  0.00     0.163 HD
ATOM     27  O   UNL A   1      41.844  24.361  26.169  1.00  0.00    -0.269 OA
BRANCH  25  28
ATOM     28  C   UNL A   1      40.383  25.642  27.492  1.00  0.00     0.039 A 
ATOM     29  C   UNL A   1      41.039  26.868  27.367  1.00  0.00     0.014 A 
ATOM     30  C   UNL A   1      39.463  25.440  28.525  1.00  0.00     0.014 A 
ATOM     31  C   UNL A   1      40.914  27.821  28.374  1.00  0.00     0.010 A 
ATOM     32  C   UNL A   1      39.282  26.430  29.496  1.00  0.00     0.010 A 
ATOM     33  C   UNL A   1      40.052  27.603  29.463  1.00  0.00    -0.014 A 
BRANCH  33  34
ATOM     34  C   UNL A   1      40.014  28.588  30.578  1.00  0.00     0.031 A 
ATOM     35  C   UNL A   1      41.016  28.507  31.702  1.00  0.00     0.074 A 
ATOM     36  C   UNL A   1      39.123  29.597  30.545  1.00  0.00     0.049 A 
ATOM     37  N   UNL A   1      41.140  29.276  32.754  1.00  0.00    -0.248 NA
ATOM     38  C   UNL A   1      42.007  27.420  31.639  1.00  0.00     0.031 C 
ATOM     39  C   UNL A   1      38.117  29.800  29.500  1.00  0.00     0.029 A 
ATOM     40  N   UNL A   1      38.934  30.655  31.398  1.00  0.00    -0.354 N 
ATOM     41  C   UNL A   1      42.207  28.762  33.483  1.00  0.00     0.074 A 
ATOM     42  C   UNL A   1      42.679  27.596  32.769  1.00  0.00     0.031 C 
ATOM     43  C   UNL A   1      37.452  30.939  29.747  1.00  0.00     0.029 A 
ATOM     44  C   UNL A   1      37.943  31.518  30.994  1.00  0.00     0.049 A 
ATOM     45  H   UNL A   1      39.460  30.785  32.221  1.00  0.00     0.167 HD
ATOM     46  C   UNL A   1      42.753  29.224  34.634  1.00  0.00     0.037 A 
ATOM     47  C   UNL A   1      37.471  32.641  31.569  1.00  0.00     0.037 A 
ATOM     48  C   UNL A   1      42.301  30.402  35.329  1.00  0.00     0.049 A 
ATOM     49  C   UNL A   1      38.064  33.110  32.866  1.00  0.00     0.074 A 
ATOM     50  C   UNL A   1      42.798  30.956  36.496  1.00  0.00     0.029 A 
ATOM     51  N   UNL A   1      41.251  31.210  34.920  1.00  0.00    -0.354 N 
ATOM     52  N   UNL A   1      39.058  32.596  33.550  1.00  0.00    -0.248 NA
ATOM     53  C   UNL A   1      37.463  34.302  33.478  1.00  0.00     0.031 C 
ATOM     54  C   UNL A   1      42.028  32.082  36.811  1.00  0.00     0.029 A 
ATOM     55  C   UNL A   1      41.075  32.250  35.820  1.00  0.00     0.049 A 
ATOM     56  H   UNL A   1      40.710  31.067  34.110  1.00  0.00     0.167 HD
ATOM     57  C   UNL A   1      39.202  33.402  34.673  1.00  0.00     0.074 A 
ATOM     58  C   UNL A   1      38.209  34.452  34.565  1.00  0.00     0.031 C 
ATOM     59  C   UNL A   1      40.073  33.279  35.704  1.00  0.00     0.037 A 
BRANCH  46  60
ATOM     60  C   UNL A   1      43.902  28.455  35.222  1.00  0.00     0.058 A 
ATOM     61  C   UNL A   1      45.231  28.727  34.863  1.00  0.00     0.135 A 
ATOM     62  C   UNL A   1      43.676  27.466  36.194  1.00  0.00     0.135 A 
ATOM     63  F   UNL A   1      45.502  29.651  33.926  1.00  0.00    -0.206 F 
ATOM     64  C   UNL A   1      46.295  28.035  35.433  1.00  0.00     0.059 A 
ATOM     65  C   UNL A   1      44.727  26.776  36.793  1.00  0.00     0.059 A 
ATOM     66  F   UNL A   1      42.424  27.166  36.573  1.00  0.00    -0.206 F 
ATOM     67  C   UNL A   1      46.033  27.061  36.397  1.00  0.00     0.060 A 
BRANCH  67  68
ATOM     68  S   UNL A   1      47.426  26.177  37.131  1.00  0.00     0.124 S 
ATOM     69  O   UNL A   1      48.543  26.687  36.341  1.00  0.00    -0.237 OA
ATOM     70  O   UNL A   1      47.380  26.620  38.522  1.00  0.00    -0.237 OA
ATOM     71  O   UNL A   1      47.093  24.773  36.913  1.00  0.00    -0.744 OA
ENDBRANCH  67  68
ENDBRANCH  46  60
BRANCH  47  72
ATOM     72  C   UNL A   1      36.370  33.393  30.915  1.00  0.00     0.058 A 
ATOM     73  C   UNL A   1      35.065  33.352  31.426  1.00  0.00     0.135 A 
ATOM     74  C   UNL A   1      36.609  34.194  29.787  1.00  0.00     0.135 A 
ATOM     75  F   UNL A   1      34.788  32.592  32.497  1.00  0.00    -0.206 F 
ATOM     76  C   UNL A   1      34.033  34.078  30.843  1.00  0.00     0.059 A 
ATOM     77  C   UNL A   1      35.598  34.947  29.200  1.00  0.00     0.059 A 
ATOM     78  F   UNL A   1      37.844  34.275  29.270  1.00  0.00    -0.206 F 
ATOM     79  C   UNL A   1      34.311  34.879  29.733  1.00  0.00     0.060 A 
BRANCH  79  80
ATOM     80  S   UNL A   1      32.980  35.872  29.025  1.00  0.00     0.124 S 
ATOM     81  O   UNL A   1      32.234  36.257  30.218  1.00  0.00    -0.237 OA
ATOM     82  O   UNL A   1      33.716  36.942  28.358  1.00  0.00    -0.237 OA
ATOM     83  O   UNL A   1      32.304  34.937  28.130  1.00  0.00    -0.744 OA
ENDBRANCH  79  80
ENDBRANCH  47  72
BRANCH  59  84
ATOM     84  C   UNL A   1      39.991  34.305  36.799  1.00  0.00     0.058 A 
ATOM     85  C   UNL A   1      40.738  35.490  36.744  1.00  0.00     0.135 A 
ATOM     86  C   UNL A   1      39.124  34.123  37.888  1.00  0.00     0.135 A 
ATOM     87  F   UNL A   1      41.588  35.707  35.726  1.00  0.00    -0.206 F 
ATOM     88  C   UNL A   1      40.644  36.455  37.741  1.00  0.00     0.059 A 
ATOM     89  C   UNL A   1      38.998  35.084  38.886  1.00  0.00     0.059 A 
ATOM     90  F   UNL A   1      38.380  33.009  37.982  1.00  0.00    -0.206 F 
ATOM     91  C   UNL A   1      39.771  36.242  38.809  1.00  0.00     0.060 A 
BRANCH  91  92
ATOM     92  S   UNL A   1      39.635  37.516  40.082  1.00  0.00     0.124 S 
ATOM     93  O   UNL A   1      39.914  36.751  41.293  1.00  0.00    -0.237 OA
ATOM     94  O   UNL A   1      40.667  38.469  39.682  1.00  0.00    -0.237 OA
ATOM     95  O   UNL A   1      38.262  37.992  39.941  1.00  0.00    -0.744 OA
ENDBRANCH  91  92
ENDBRANCH  59  84
ENDBRANCH  33  34
ENDBRANCH  25  28
ENDBRANCH  23  24
ENDBRANCH  22  23
ENDBRANCH   1  22
TORSDOF 18
ENDMDL
