MODEL 1
REMARK VINA RESULT:     -12.8      0.000      0.000
REMARK SMILES Cc1ccc(OCCC(=O)N2C[C@H](O)C[C@@H]2C(=O)NCCCCCCNC(=O)c2ccc(-c3c4nc(c(-c5c(F)cc(S(=O)(=O)[O-])cc5F)c5ccc([nH]5)c(-c5c(F)cc(S(=O)(=O)[O-])cc5F)c5nc(c(-c6c(F)cc(S(=O)(=O)[O-])cc6F)c6ccc3[nH]6)C=C5)C=C4)cc2)cc1
REMARK SMILES IDX 21 1 20 2 19 3 17 4 18 5 16 7 11 8 12 9 13 10 15 11 9 12
REMARK SMILES IDX 10 13 8 14 7 15 6 16 5 17 1 18 2 19 3 20 96 21 4 22 95 23
REMARK SMILES IDX 14 24 22 26 23 27 24 28 25 29 26 30 27 31 28 33 29 34 30 35
REMARK SMILES IDX 94 36 31 37 93 38 32 39 33 40 34 41 87 42 35 43 92 44 86 45
REMARK SMILES IDX 88 46 36 47 91 48 85 49 84 50 37 52 71 53 50 54 70 55 51 56
REMARK SMILES IDX 54 57 69 58 89 59 52 60 53 61 68 63 90 64 55 65 38 66 39 67
REMARK SMILES IDX 48 68 40 69 41 70 47 71 49 72 42 73 43 74 44 75 45 76 46 77
REMARK SMILES IDX 72 78 73 79 82 80 74 81 75 82 81 83 83 84 76 85 77 86 78 87
REMARK SMILES IDX 79 88 80 89 56 90 57 91 66 92 58 93 59 94 65 95 67 96 60 97
REMARK SMILES IDX 61 98 62 99 63 100 64 101
REMARK H PARENT 19 6 14 25 26 32 88 51 54 62
REMARK Flexibility Score: inf
ROOT
ATOM      1  C   UNL A   1      34.838  24.277  23.766  1.00  0.00     0.021 C 
ENDROOT
BRANCH   1   2
ATOM      2  C   UNL A   1      33.889  25.370  24.262  1.00  0.00     0.116 C 
BRANCH   2   3
ATOM      3  N   UNL A   1      33.771  26.504  23.363  1.00  0.00    -0.354 N 
ATOM      4  C   UNL A   1      33.213  27.726  23.640  1.00  0.00     0.242 C 
ATOM      5  O   UNL A   1      33.750  28.714  23.123  1.00  0.00    -0.273 OA
ATOM      6  H   UNL A   1      34.129  26.383  22.454  1.00  0.00     0.163 HD
BRANCH   4   7
ATOM      7  C   UNL A   1      31.826  27.868  24.329  1.00  0.00     0.177 C 
ATOM      8  N   UNL A   1      30.706  27.118  23.772  1.00  0.00    -0.328 N 
ATOM      9  C   UNL A   1      29.965  27.928  22.811  1.00  0.00     0.152 C 
ATOM     10  C   UNL A   1      30.565  29.333  22.896  1.00  0.00     0.136 C 
ATOM     11  C   UNL A   1      31.370  29.327  24.193  1.00  0.00     0.069 C 
BRANCH   8  12
ATOM     12  C   UNL A   1      30.317  25.896  24.286  1.00  0.00     0.226 C 
ATOM     13  O   UNL A   1      30.015  24.949  23.558  1.00  0.00    -0.275 OA
BRANCH  12  14
ATOM     14  C   UNL A   1      30.146  25.791  25.793  1.00  0.00     0.141 C 
BRANCH  14  15
ATOM     15  C   UNL A   1      30.274  24.372  26.340  1.00  0.00     0.239 C 
BRANCH  15  16
ATOM     16  O   UNL A   1      31.611  24.040  26.741  1.00  0.00    -0.493 OA
BRANCH  16  17
ATOM     17  C   UNL A   1      32.115  22.852  26.288  1.00  0.00     0.119 A 
ATOM     18  C   UNL A   1      34.395  19.531  24.792  1.00  0.00     0.044 C 
ATOM     19  C   UNL A   1      33.549  20.633  25.355  1.00  0.00    -0.051 A 
ATOM     20  C   UNL A   1      33.847  21.188  26.603  1.00  0.00     0.007 A 
ATOM     21  C   UNL A   1      32.457  21.128  24.634  1.00  0.00     0.007 A 
ATOM     22  C   UNL A   1      33.120  22.284  27.076  1.00  0.00     0.046 A 
ATOM     23  C   UNL A   1      31.739  22.226  25.104  1.00  0.00     0.046 A 
ENDBRANCH  16  17
ENDBRANCH  15  16
ENDBRANCH  14  15
ENDBRANCH  12  14
ENDBRANCH   8  12
BRANCH  10  24
ATOM     24  O   UNL A   1      31.414  29.616  21.789  1.00  0.00    -0.391 OA
ATOM     25  H   UNL A   1      32.284  29.900  22.112  1.00  0.00     0.211 HD
ENDBRANCH  10  24
ENDBRANCH   4   7
ENDBRANCH   2   3
ENDBRANCH   1   2
BRANCH   1  26
ATOM     26  C   UNL A   1      35.880  23.798  24.785  1.00  0.00     0.002 C 
BRANCH  26  27
ATOM     27  C   UNL A   1      36.599  22.478  24.465  1.00  0.00     0.002 C 
BRANCH  27  28
ATOM     28  C   UNL A   1      37.884  22.211  25.252  1.00  0.00     0.021 C 
BRANCH  28  29
ATOM     29  C   UNL A   1      38.363  23.412  26.056  1.00  0.00     0.116 C 
BRANCH  29  30
ATOM     30  N   UNL A   1      39.708  23.245  26.583  1.00  0.00    -0.352 N 
ATOM     31  C   UNL A   1      40.569  24.232  27.042  1.00  0.00     0.251 C 
ATOM     32  H   UNL A   1      40.049  22.322  26.620  1.00  0.00     0.163 HD
ATOM     33  O   UNL A   1      41.750  24.051  27.243  1.00  0.00    -0.269 OA
BRANCH  31  34
ATOM     34  C   UNL A   1      39.932  25.504  27.441  1.00  0.00     0.039 A 
ATOM     35  C   UNL A   1      40.314  26.635  26.710  1.00  0.00     0.014 A 
ATOM     36  C   UNL A   1      39.285  25.609  28.671  1.00  0.00     0.014 A 
ATOM     37  C   UNL A   1      40.230  27.882  27.312  1.00  0.00     0.010 A 
ATOM     38  C   UNL A   1      39.272  26.840  29.295  1.00  0.00     0.010 A 
ATOM     39  C   UNL A   1      39.808  27.956  28.639  1.00  0.00    -0.014 A 
BRANCH  39  40
ATOM     40  C   UNL A   1      39.957  29.167  29.433  1.00  0.00     0.031 A 
ATOM     41  C   UNL A   1      38.934  30.225  29.331  1.00  0.00     0.074 A 
ATOM     42  C   UNL A   1      41.035  29.316  30.231  1.00  0.00     0.049 A 
ATOM     43  N   UNL A   1      39.108  31.457  29.668  1.00  0.00    -0.248 NA
ATOM     44  C   UNL A   1      37.635  29.969  28.724  1.00  0.00     0.031 C 
ATOM     45  C   UNL A   1      41.253  30.342  31.244  1.00  0.00     0.029 A 
ATOM     46  N   UNL A   1      42.281  28.696  30.079  1.00  0.00    -0.354 N 
ATOM     47  C   UNL A   1      37.891  32.097  29.567  1.00  0.00     0.074 A 
ATOM     48  C   UNL A   1      37.046  31.155  28.876  1.00  0.00     0.031 C 
ATOM     49  C   UNL A   1      42.574  30.480  31.437  1.00  0.00     0.029 A 
ATOM     50  C   UNL A   1      43.245  29.651  30.448  1.00  0.00     0.049 A 
ATOM     51  H   UNL A   1      42.449  27.775  29.773  1.00  0.00     0.167 HD
ATOM     52  C   UNL A   1      37.719  33.289  30.210  1.00  0.00     0.037 A 
ATOM     53  C   UNL A   1      44.161  30.114  29.550  1.00  0.00     0.037 A 
ATOM     54  C   UNL A   1      39.016  33.825  30.639  1.00  0.00     0.049 A 
ATOM     55  C   UNL A   1      44.084  31.606  29.313  1.00  0.00     0.074 A 
ATOM     56  C   UNL A   1      39.690  33.826  31.850  1.00  0.00     0.029 A 
ATOM     57  N   UNL A   1      39.957  34.186  29.674  1.00  0.00    -0.354 N 
ATOM     58  N   UNL A   1      43.040  32.343  29.584  1.00  0.00    -0.248 NA
ATOM     59  C   UNL A   1      45.189  32.386  28.766  1.00  0.00     0.031 C 
ATOM     60  C   UNL A   1      41.062  34.093  31.592  1.00  0.00     0.029 A 
ATOM     61  C   UNL A   1      41.218  34.296  30.231  1.00  0.00     0.049 A 
ATOM     62  H   UNL A   1      39.750  34.341  28.723  1.00  0.00     0.167 HD
ATOM     63  C   UNL A   1      43.302  33.652  29.258  1.00  0.00     0.074 A 
ATOM     64  C   UNL A   1      44.671  33.627  28.775  1.00  0.00     0.031 C 
ATOM     65  C   UNL A   1      42.374  34.646  29.413  1.00  0.00     0.037 A 
BRANCH  52  66
ATOM     66  C   UNL A   1      36.367  33.776  30.730  1.00  0.00     0.058 A 
ATOM     67  C   UNL A   1      35.371  34.232  29.834  1.00  0.00     0.135 A 
ATOM     68  C   UNL A   1      36.023  33.942  32.089  1.00  0.00     0.135 A 
ATOM     69  F   UNL A   1      35.490  34.057  28.511  1.00  0.00    -0.206 F 
ATOM     70  C   UNL A   1      34.212  34.903  30.248  1.00  0.00     0.059 A 
ATOM     71  C   UNL A   1      34.899  34.649  32.526  1.00  0.00     0.059 A 
ATOM     72  F   UNL A   1      36.726  33.381  33.073  1.00  0.00    -0.206 F 
ATOM     73  C   UNL A   1      34.003  35.145  31.598  1.00  0.00     0.060 A 
BRANCH  73  74
ATOM     74  S   UNL A   1      32.560  36.085  32.129  1.00  0.00     0.124 S 
ATOM     75  O   UNL A   1      33.107  36.906  33.205  1.00  0.00    -0.237 OA
ATOM     76  O   UNL A   1      32.194  36.796  30.909  1.00  0.00    -0.237 OA
ATOM     77  O   UNL A   1      31.618  35.053  32.556  1.00  0.00    -0.744 OA
ENDBRANCH  73  74
ENDBRANCH  52  66
BRANCH  53  78
ATOM     78  C   UNL A   1      44.621  29.092  28.572  1.00  0.00     0.058 A 
ATOM     79  C   UNL A   1      44.046  29.101  27.286  1.00  0.00     0.135 A 
ATOM     80  C   UNL A   1      45.820  28.383  28.734  1.00  0.00     0.135 A 
ATOM     81  F   UNL A   1      42.893  29.757  27.073  1.00  0.00    -0.206 F 
ATOM     82  C   UNL A   1      44.684  28.539  26.185  1.00  0.00     0.059 A 
ATOM     83  C   UNL A   1      46.479  27.808  27.642  1.00  0.00     0.059 A 
ATOM     84  F   UNL A   1      46.421  28.337  29.931  1.00  0.00    -0.206 F 
ATOM     85  C   UNL A   1      45.931  27.942  26.364  1.00  0.00     0.060 A 
BRANCH  85  86
ATOM     86  S   UNL A   1      46.851  27.431  24.892  1.00  0.00     0.124 S 
ATOM     87  O   UNL A   1      46.644  28.565  23.995  1.00  0.00    -0.237 OA
ATOM     88  O   UNL A   1      48.207  27.289  25.419  1.00  0.00    -0.237 OA
ATOM     89  O   UNL A   1      46.193  26.191  24.501  1.00  0.00    -0.744 OA
ENDBRANCH  85  86
ENDBRANCH  53  78
BRANCH  65  90
ATOM     90  C   UNL A   1      42.491  36.070  28.895  1.00  0.00     0.058 A 
ATOM     91  C   UNL A   1      43.286  37.069  29.487  1.00  0.00     0.135 A 
ATOM     92  C   UNL A   1      41.891  36.434  27.663  1.00  0.00     0.135 A 
ATOM     93  F   UNL A   1      44.007  36.829  30.590  1.00  0.00    -0.206 F 
ATOM     94  C   UNL A   1      43.422  38.348  28.937  1.00  0.00     0.059 A 
ATOM     95  C   UNL A   1      42.064  37.681  27.066  1.00  0.00     0.059 A 
ATOM     96  F   UNL A   1      41.123  35.574  26.975  1.00  0.00    -0.206 F 
ATOM     97  C   UNL A   1      42.813  38.645  27.722  1.00  0.00     0.060 A 
BRANCH  97  98
ATOM     98  S   UNL A   1      43.062  40.256  26.955  1.00  0.00     0.124 S 
ATOM     99  O   UNL A   1      43.265  41.108  28.122  1.00  0.00    -0.237 OA
ATOM    100  O   UNL A   1      44.240  40.041  26.120  1.00  0.00    -0.237 OA
ATOM    101  O   UNL A   1      41.818  40.468  26.223  1.00  0.00    -0.744 OA
ENDBRANCH  97  98
ENDBRANCH  65  90
ENDBRANCH  39  40
ENDBRANCH  31  34
ENDBRANCH  29  30
ENDBRANCH  28  29
ENDBRANCH  27  28
ENDBRANCH  26  27
ENDBRANCH   1  26
TORSDOF 22
ENDMDL
MODEL 2
REMARK VINA RESULT:     -12.3      4.830     11.506
REMARK SMILES Cc1ccc(OCCC(=O)N2C[C@H](O)C[C@@H]2C(=O)NCCCCCCNC(=O)c2ccc(-c3c4nc(c(-c5c(F)cc(S(=O)(=O)[O-])cc5F)c5ccc([nH]5)c(-c5c(F)cc(S(=O)(=O)[O-])cc5F)c5nc(c(-c6c(F)cc(S(=O)(=O)[O-])cc6F)c6ccc3[nH]6)C=C5)C=C4)cc2)cc1
REMARK SMILES IDX 21 1 20 2 19 3 17 4 18 5 16 7 11 8 12 9 13 10 15 11 9 12
REMARK SMILES IDX 10 13 8 14 7 15 6 16 5 17 1 18 2 19 3 20 96 21 4 22 95 23
REMARK SMILES IDX 14 24 22 26 23 27 24 28 25 29 26 30 27 31 28 33 29 34 30 35
REMARK SMILES IDX 94 36 31 37 93 38 32 39 33 40 34 41 87 42 35 43 92 44 86 45
REMARK SMILES IDX 88 46 36 47 91 48 85 49 84 50 37 52 71 53 50 54 70 55 51 56
REMARK SMILES IDX 54 57 69 58 89 59 52 60 53 61 68 63 90 64 55 65 38 66 39 67
REMARK SMILES IDX 48 68 40 69 41 70 47 71 49 72 42 73 43 74 44 75 45 76 46 77
REMARK SMILES IDX 72 78 73 79 82 80 74 81 75 82 81 83 83 84 76 85 77 86 78 87
REMARK SMILES IDX 79 88 80 89 56 90 57 91 66 92 58 93 59 94 65 95 67 96 60 97
REMARK SMILES IDX 61 98 62 99 63 100 64 101
REMARK H PARENT 19 6 14 25 26 32 88 51 54 62
REMARK Flexibility Score: inf
ROOT
ATOM      1  C   UNL A   1      31.528  27.252  26.842  1.00  0.00     0.021 C 
ENDROOT
BRANCH   1   2
ATOM      2  C   UNL A   1      30.724  26.405  25.853  1.00  0.00     0.116 C 
BRANCH   2   3
ATOM      3  N   UNL A   1      30.525  25.029  26.276  1.00  0.00    -0.354 N 
ATOM      4  C   UNL A   1      31.483  24.153  26.720  1.00  0.00     0.242 C 
ATOM      5  O   UNL A   1      31.148  23.371  27.619  1.00  0.00    -0.273 OA
ATOM      6  H   UNL A   1      29.603  24.687  26.238  1.00  0.00     0.163 HD
BRANCH   4   7
ATOM      7  C   UNL A   1      32.827  23.942  25.968  1.00  0.00     0.177 C 
ATOM      8  N   UNL A   1      32.800  23.924  24.510  1.00  0.00    -0.328 N 
ATOM      9  C   UNL A   1      32.664  22.559  24.011  1.00  0.00     0.152 C 
ATOM     10  C   UNL A   1      32.780  21.651  25.237  1.00  0.00     0.136 C 
ATOM     11  C   UNL A   1      33.362  22.549  26.325  1.00  0.00     0.069 C 
BRANCH   8  12
ATOM     12  C   UNL A   1      33.092  25.045  23.759  1.00  0.00     0.226 C 
ATOM     13  O   UNL A   1      34.023  25.800  24.048  1.00  0.00    -0.275 OA
BRANCH  12  14
ATOM     14  C   UNL A   1      32.142  25.398  22.626  1.00  0.00     0.141 C 
BRANCH  14  15
ATOM     15  C   UNL A   1      31.840  26.888  22.503  1.00  0.00     0.239 C 
BRANCH  15  16
ATOM     16  O   UNL A   1      30.507  27.159  22.047  1.00  0.00    -0.493 OA
BRANCH  16  17
ATOM     17  C   UNL A   1      29.851  28.205  22.635  1.00  0.00     0.119 A 
ATOM     18  C   UNL A   1      27.430  31.570  23.764  1.00  0.00     0.044 C 
ATOM     19  C   UNL A   1      28.274  30.372  23.453  1.00  0.00    -0.051 A 
ATOM     20  C   UNL A   1      27.678  29.145  23.143  1.00  0.00     0.007 A 
ATOM     21  C   UNL A   1      29.670  30.467  23.458  1.00  0.00     0.007 A 
ATOM     22  C   UNL A   1      28.466  28.060  22.752  1.00  0.00     0.046 A 
ATOM     23  C   UNL A   1      30.454  29.385  23.059  1.00  0.00     0.046 A 
ENDBRANCH  16  17
ENDBRANCH  15  16
ENDBRANCH  14  15
ENDBRANCH  12  14
ENDBRANCH   8  12
BRANCH  10  24
ATOM     24  O   UNL A   1      31.513  21.141  25.642  1.00  0.00    -0.391 OA
ATOM     25  H   UNL A   1      31.448  21.168  26.610  1.00  0.00     0.211 HD
ENDBRANCH  10  24
ENDBRANCH   4   7
ENDBRANCH   2   3
ENDBRANCH   1   2
BRANCH   1  26
ATOM     26  C   UNL A   1      31.480  28.766  26.601  1.00  0.00     0.002 C 
BRANCH  26  27
ATOM     27  C   UNL A   1      32.469  29.622  27.409  1.00  0.00     0.002 C 
BRANCH  27  28
ATOM     28  C   UNL A   1      33.901  29.091  27.489  1.00  0.00     0.021 C 
BRANCH  28  29
ATOM     29  C   UNL A   1      34.942  30.074  26.968  1.00  0.00     0.116 C 
BRANCH  29  30
ATOM     30  N   UNL A   1      35.427  30.985  27.993  1.00  0.00    -0.352 N 
ATOM     31  C   UNL A   1      36.331  30.714  29.011  1.00  0.00     0.251 C 
ATOM     32  H   UNL A   1      35.074  31.904  27.960  1.00  0.00     0.163 HD
ATOM     33  O   UNL A   1      36.508  31.444  29.962  1.00  0.00    -0.269 OA
BRANCH  31  34
ATOM     34  C   UNL A   1      37.209  29.546  28.795  1.00  0.00     0.039 A 
ATOM     35  C   UNL A   1      37.435  28.736  29.914  1.00  0.00     0.014 A 
ATOM     36  C   UNL A   1      38.019  29.477  27.664  1.00  0.00     0.014 A 
ATOM     37  C   UNL A   1      38.606  27.995  29.981  1.00  0.00     0.010 A 
ATOM     38  C   UNL A   1      39.218  28.799  27.763  1.00  0.00     0.010 A 
ATOM     39  C   UNL A   1      39.534  28.119  28.947  1.00  0.00    -0.014 A 
BRANCH  39  40
ATOM     40  C   UNL A   1      40.893  27.612  29.061  1.00  0.00     0.031 A 
ATOM     41  C   UNL A   1      41.180  26.223  28.655  1.00  0.00     0.074 A 
ATOM     42  C   UNL A   1      41.865  28.406  29.558  1.00  0.00     0.049 A 
ATOM     43  N   UNL A   1      42.207  25.539  29.030  1.00  0.00    -0.248 NA
ATOM     44  C   UNL A   1      40.237  25.458  27.851  1.00  0.00     0.031 C 
ATOM     45  C   UNL A   1      43.302  28.159  29.553  1.00  0.00     0.029 A 
ATOM     46  N   UNL A   1      41.696  29.499  30.417  1.00  0.00    -0.354 N 
ATOM     47  C   UNL A   1      42.200  24.352  28.330  1.00  0.00     0.074 A 
ATOM     48  C   UNL A   1      40.903  24.313  27.700  1.00  0.00     0.031 C 
ATOM     49  C   UNL A   1      43.862  28.865  30.547  1.00  0.00     0.029 A 
ATOM     50  C   UNL A   1      42.783  29.472  31.309  1.00  0.00     0.049 A 
ATOM     51  H   UNL A   1      40.962  30.156  30.400  1.00  0.00     0.167 HD
ATOM     52  C   UNL A   1      43.353  23.622  28.262  1.00  0.00     0.037 A 
ATOM     53  C   UNL A   1      42.592  29.296  32.648  1.00  0.00     0.037 A 
ATOM     54  C   UNL A   1      44.322  24.112  29.248  1.00  0.00     0.049 A 
ATOM     55  C   UNL A   1      43.267  28.062  33.204  1.00  0.00     0.074 A 
ATOM     56  C   UNL A   1      45.423  24.950  29.163  1.00  0.00     0.029 A 
ATOM     57  N   UNL A   1      44.026  24.000  30.608  1.00  0.00    -0.354 N 
ATOM     58  N   UNL A   1      43.647  27.041  32.483  1.00  0.00    -0.248 NA
ATOM     59  C   UNL A   1      43.581  27.892  34.619  1.00  0.00     0.031 C 
ATOM     60  C   UNL A   1      45.725  25.417  30.470  1.00  0.00     0.029 A 
ATOM     61  C   UNL A   1      44.835  24.833  31.358  1.00  0.00     0.049 A 
ATOM     62  H   UNL A   1      43.334  23.408  30.981  1.00  0.00     0.167 HD
ATOM     63  C   UNL A   1      44.230  26.096  33.293  1.00  0.00     0.074 A 
ATOM     64  C   UNL A   1      44.187  26.692  34.617  1.00  0.00     0.031 C 
ATOM     65  C   UNL A   1      44.701  24.905  32.809  1.00  0.00     0.037 A 
BRANCH  52  66
ATOM     66  C   UNL A   1      43.700  22.709  27.086  1.00  0.00     0.058 A 
ATOM     67  C   UNL A   1      42.942  21.542  26.831  1.00  0.00     0.135 A 
ATOM     68  C   UNL A   1      44.828  22.844  26.249  1.00  0.00     0.135 A 
ATOM     69  F   UNL A   1      41.784  21.309  27.464  1.00  0.00    -0.206 F 
ATOM     70  C   UNL A   1      43.341  20.548  25.926  1.00  0.00     0.059 A 
ATOM     71  C   UNL A   1      45.273  21.848  25.376  1.00  0.00     0.059 A 
ATOM     72  F   UNL A   1      45.535  23.974  26.187  1.00  0.00    -0.206 F 
ATOM     73  C   UNL A   1      44.533  20.690  25.230  1.00  0.00     0.060 A 
BRANCH  73  74
ATOM     74  S   UNL A   1      45.094  19.375  24.134  1.00  0.00     0.124 S 
ATOM     75  O   UNL A   1      44.610  18.179  24.816  1.00  0.00    -0.237 OA
ATOM     76  O   UNL A   1      44.421  19.712  22.884  1.00  0.00    -0.237 OA
ATOM     77  O   UNL A   1      46.546  19.536  24.122  1.00  0.00    -0.744 OA
ENDBRANCH  73  74
ENDBRANCH  52  66
BRANCH  53  78
ATOM     78  C   UNL A   1      41.354  29.933  33.173  1.00  0.00     0.058 A 
ATOM     79  C   UNL A   1      41.405  31.302  33.503  1.00  0.00     0.135 A 
ATOM     80  C   UNL A   1      40.086  29.358  33.012  1.00  0.00     0.135 A 
ATOM     81  F   UNL A   1      42.592  31.904  33.678  1.00  0.00    -0.206 F 
ATOM     82  C   UNL A   1      40.262  32.094  33.553  1.00  0.00     0.059 A 
ATOM     83  C   UNL A   1      38.923  30.134  33.059  1.00  0.00     0.059 A 
ATOM     84  F   UNL A   1      39.968  28.061  32.694  1.00  0.00    -0.206 F 
ATOM     85  C   UNL A   1      39.028  31.510  33.274  1.00  0.00     0.060 A 
BRANCH  85  86
ATOM     86  S   UNL A   1      37.589  32.596  33.109  1.00  0.00     0.124 S 
ATOM     87  O   UNL A   1      37.843  33.244  31.825  1.00  0.00    -0.237 OA
ATOM     88  O   UNL A   1      36.486  31.637  33.119  1.00  0.00    -0.237 OA
ATOM     89  O   UNL A   1      37.687  33.459  34.279  1.00  0.00    -0.744 OA
ENDBRANCH  85  86
ENDBRANCH  53  78
BRANCH  65  90
ATOM     90  C   UNL A   1      45.168  23.723  33.640  1.00  0.00     0.058 A 
ATOM     91  C   UNL A   1      46.502  23.499  34.028  1.00  0.00     0.135 A 
ATOM     92  C   UNL A   1      44.223  22.828  34.204  1.00  0.00     0.135 A 
ATOM     93  F   UNL A   1      47.486  24.335  33.668  1.00  0.00    -0.206 F 
ATOM     94  C   UNL A   1      46.878  22.435  34.854  1.00  0.00     0.059 A 
ATOM     95  C   UNL A   1      44.569  21.800  35.078  1.00  0.00     0.059 A 
ATOM     96  F   UNL A   1      42.911  22.934  33.939  1.00  0.00    -0.206 F 
ATOM     97  C   UNL A   1      45.906  21.593  35.381  1.00  0.00     0.060 A 
BRANCH  97  98
ATOM     98  S   UNL A   1      46.368  20.280  36.525  1.00  0.00     0.124 S 
ATOM     99  O   UNL A   1      45.650  20.676  37.732  1.00  0.00    -0.237 OA
ATOM    100  O   UNL A   1      45.870  19.079  35.861  1.00  0.00    -0.237 OA
ATOM    101  O   UNL A   1      47.822  20.393  36.586  1.00  0.00    -0.744 OA
ENDBRANCH  97  98
ENDBRANCH  65  90
ENDBRANCH  39  40
ENDBRANCH  31  34
ENDBRANCH  29  30
ENDBRANCH  28  29
ENDBRANCH  27  28
ENDBRANCH  26  27
ENDBRANCH   1  26
TORSDOF 22
ENDMDL
MODEL 3
REMARK VINA RESULT:     -12.2      1.126      3.019
REMARK SMILES Cc1ccc(OCCC(=O)N2C[C@H](O)C[C@@H]2C(=O)NCCCCCCNC(=O)c2ccc(-c3c4nc(c(-c5c(F)cc(S(=O)(=O)[O-])cc5F)c5ccc([nH]5)c(-c5c(F)cc(S(=O)(=O)[O-])cc5F)c5nc(c(-c6c(F)cc(S(=O)(=O)[O-])cc6F)c6ccc3[nH]6)C=C5)C=C4)cc2)cc1
REMARK SMILES IDX 21 1 20 2 19 3 17 4 18 5 16 7 11 8 12 9 13 10 15 11 9 12
REMARK SMILES IDX 10 13 8 14 7 15 6 16 5 17 1 18 2 19 3 20 96 21 4 22 95 23
REMARK SMILES IDX 14 24 22 26 23 27 24 28 25 29 26 30 27 31 28 33 29 34 30 35
REMARK SMILES IDX 94 36 31 37 93 38 32 39 33 40 34 41 87 42 35 43 92 44 86 45
REMARK SMILES IDX 88 46 36 47 91 48 85 49 84 50 37 52 71 53 50 54 70 55 51 56
REMARK SMILES IDX 54 57 69 58 89 59 52 60 53 61 68 63 90 64 55 65 38 66 39 67
REMARK SMILES IDX 48 68 40 69 41 70 47 71 49 72 42 73 43 74 44 75 45 76 46 77
REMARK SMILES IDX 72 78 73 79 82 80 74 81 75 82 81 83 83 84 76 85 77 86 78 87
REMARK SMILES IDX 79 88 80 89 56 90 57 91 66 92 58 93 59 94 65 95 67 96 60 97
REMARK SMILES IDX 61 98 62 99 63 100 64 101
REMARK H PARENT 19 6 14 25 26 32 88 51 54 62
REMARK Flexibility Score: inf
ROOT
ATOM      1  C   UNL A   1      35.172  21.583  26.519  1.00  0.00     0.021 C 
ENDROOT
BRANCH   1   2
ATOM      2  C   UNL A   1      34.528  22.900  26.958  1.00  0.00     0.116 C 
BRANCH   2   3
ATOM      3  N   UNL A   1      33.090  22.822  27.150  1.00  0.00    -0.354 N 
ATOM      4  C   UNL A   1      32.117  22.986  26.197  1.00  0.00     0.242 C 
ATOM      5  O   UNL A   1      31.112  22.272  26.299  1.00  0.00    -0.273 OA
ATOM      6  H   UNL A   1      32.779  22.631  28.064  1.00  0.00     0.163 HD
BRANCH   4   7
ATOM      7  C   UNL A   1      32.124  24.181  25.202  1.00  0.00     0.177 C 
ATOM      8  N   UNL A   1      30.855  24.587  24.611  1.00  0.00    -0.328 N 
ATOM      9  C   UNL A   1      30.644  23.923  23.328  1.00  0.00     0.152 C 
ATOM     10  C   UNL A   1      31.946  23.180  23.022  1.00  0.00     0.136 C 
ATOM     11  C   UNL A   1      32.967  23.785  23.983  1.00  0.00     0.069 C 
BRANCH   8  12
ATOM     12  C   UNL A   1      30.105  25.625  25.128  1.00  0.00     0.226 C 
ATOM     13  O   UNL A   1      29.816  25.687  26.325  1.00  0.00    -0.275 OA
BRANCH  12  14
ATOM     14  C   UNL A   1      29.532  26.634  24.147  1.00  0.00     0.141 C 
BRANCH  14  15
ATOM     15  C   UNL A   1      30.465  26.984  22.992  1.00  0.00     0.239 C 
BRANCH  15  16
ATOM     16  O   UNL A   1      30.915  28.347  23.021  1.00  0.00    -0.493 OA
BRANCH  16  17
ATOM     17  C   UNL A   1      31.777  28.692  24.024  1.00  0.00     0.119 A 
ATOM     18  C   UNL A   1      34.353  29.025  27.447  1.00  0.00     0.044 C 
ATOM     19  C   UNL A   1      33.504  28.967  26.213  1.00  0.00    -0.051 A 
ATOM     20  C   UNL A   1      33.817  28.080  25.179  1.00  0.00     0.007 A 
ATOM     21  C   UNL A   1      32.382  29.792  26.086  1.00  0.00     0.007 A 
ATOM     22  C   UNL A   1      32.964  27.956  24.079  1.00  0.00     0.046 A 
ATOM     23  C   UNL A   1      31.528  29.661  24.991  1.00  0.00     0.046 A 
ENDBRANCH  16  17
ENDBRANCH  15  16
ENDBRANCH  14  15
ENDBRANCH  12  14
ENDBRANCH   8  12
BRANCH  10  24
ATOM     24  O   UNL A   1      31.825  21.779  23.249  1.00  0.00    -0.391 OA
ATOM     25  H   UNL A   1      32.652  21.438  23.622  1.00  0.00     0.211 HD
ENDBRANCH  10  24
ENDBRANCH   4   7
ENDBRANCH   2   3
ENDBRANCH   1   2
BRANCH   1  26
ATOM     26  C   UNL A   1      35.570  21.507  25.039  1.00  0.00     0.002 C 
BRANCH  26  27
ATOM     27  C   UNL A   1      36.811  22.312  24.619  1.00  0.00     0.002 C 
BRANCH  27  28
ATOM     28  C   UNL A   1      38.058  22.112  25.482  1.00  0.00     0.021 C 
BRANCH  28  29
ATOM     29  C   UNL A   1      38.579  23.402  26.102  1.00  0.00     0.116 C 
BRANCH  29  30
ATOM     30  N   UNL A   1      39.953  23.296  26.567  1.00  0.00    -0.352 N 
ATOM     31  C   UNL A   1      40.799  24.324  26.958  1.00  0.00     0.251 C 
ATOM     32  H   UNL A   1      40.328  22.386  26.611  1.00  0.00     0.163 HD
ATOM     33  O   UNL A   1      41.994  24.191  27.106  1.00  0.00    -0.269 OA
BRANCH  31  34
ATOM     34  C   UNL A   1      40.136  25.584  27.355  1.00  0.00     0.039 A 
ATOM     35  C   UNL A   1      40.499  26.722  26.626  1.00  0.00     0.014 A 
ATOM     36  C   UNL A   1      39.483  25.676  28.583  1.00  0.00     0.014 A 
ATOM     37  C   UNL A   1      40.389  27.968  27.227  1.00  0.00     0.010 A 
ATOM     38  C   UNL A   1      39.445  26.906  29.208  1.00  0.00     0.010 A 
ATOM     39  C   UNL A   1      39.961  28.033  28.553  1.00  0.00    -0.014 A 
BRANCH  39  40
ATOM     40  C   UNL A   1      40.085  29.246  29.348  1.00  0.00     0.031 A 
ATOM     41  C   UNL A   1      39.042  30.285  29.243  1.00  0.00     0.074 A 
ATOM     42  C   UNL A   1      41.157  29.416  30.149  1.00  0.00     0.049 A 
ATOM     43  N   UNL A   1      39.191  31.520  29.580  1.00  0.00    -0.248 NA
ATOM     44  C   UNL A   1      37.751  30.004  28.631  1.00  0.00     0.031 C 
ATOM     45  C   UNL A   1      41.352  30.445  31.164  1.00  0.00     0.029 A 
ATOM     46  N   UNL A   1      42.415  28.820  30.001  1.00  0.00    -0.354 N 
ATOM     47  C   UNL A   1      37.963  32.136  29.475  1.00  0.00     0.074 A 
ATOM     48  C   UNL A   1      37.138  31.178  28.781  1.00  0.00     0.031 C 
ATOM     49  C   UNL A   1      42.669  30.609  31.361  1.00  0.00     0.029 A 
ATOM     50  C   UNL A   1      43.360  29.793  30.374  1.00  0.00     0.049 A 
ATOM     51  H   UNL A   1      42.602  27.902  29.697  1.00  0.00     0.167 HD
ATOM     52  C   UNL A   1      37.766  33.325  30.118  1.00  0.00     0.037 A 
ATOM     53  C   UNL A   1      44.269  30.274  29.479  1.00  0.00     0.037 A 
ATOM     54  C   UNL A   1      39.051  33.886  30.551  1.00  0.00     0.049 A 
ATOM     55  C   UNL A   1      44.164  31.763  29.242  1.00  0.00     0.074 A 
ATOM     56  C   UNL A   1      39.721  33.899  31.765  1.00  0.00     0.029 A 
ATOM     57  N   UNL A   1      39.988  34.264  29.589  1.00  0.00    -0.354 N 
ATOM     58  N   UNL A   1      43.106  32.481  29.510  1.00  0.00    -0.248 NA
ATOM     59  C   UNL A   1      45.256  32.565  28.699  1.00  0.00     0.031 C 
ATOM     60  C   UNL A   1      41.088  34.192  31.511  1.00  0.00     0.029 A 
ATOM     61  C   UNL A   1      41.245  34.398  30.151  1.00  0.00     0.049 A 
ATOM     62  H   UNL A   1      39.782  34.416  28.638  1.00  0.00     0.167 HD
ATOM     63  C   UNL A   1      43.344  33.794  29.185  1.00  0.00     0.074 A 
ATOM     64  C   UNL A   1      44.715  33.795  28.706  1.00  0.00     0.031 C 
ATOM     65  C   UNL A   1      42.397  34.771  29.336  1.00  0.00     0.037 A 
BRANCH  52  66
ATOM     66  C   UNL A   1      36.403  33.786  30.633  1.00  0.00     0.058 A 
ATOM     67  C   UNL A   1      35.425  34.285  29.740  1.00  0.00     0.135 A 
ATOM     68  C   UNL A   1      36.031  33.886  31.991  1.00  0.00     0.135 A 
ATOM     69  F   UNL A   1      35.571  34.173  28.413  1.00  0.00    -0.206 F 
ATOM     70  C   UNL A   1      34.257  34.935  30.163  1.00  0.00     0.059 A 
ATOM     71  C   UNL A   1      34.898  34.571  32.439  1.00  0.00     0.059 A 
ATOM     72  F   UNL A   1      36.715  33.278  32.961  1.00  0.00    -0.206 F 
ATOM     73  C   UNL A   1      34.021  35.111  31.519  1.00  0.00     0.060 A 
BRANCH  73  74
ATOM     74  S   UNL A   1      32.566  36.024  32.065  1.00  0.00     0.124 S 
ATOM     75  O   UNL A   1      32.118  36.656  30.827  1.00  0.00    -0.237 OA
ATOM     76  O   UNL A   1      31.713  34.959  32.581  1.00  0.00    -0.237 OA
ATOM     77  O   UNL A   1      33.096  36.941  33.071  1.00  0.00    -0.744 OA
ENDBRANCH  73  74
ENDBRANCH  52  66
BRANCH  53  78
ATOM     78  C   UNL A   1      44.752  29.260  28.503  1.00  0.00     0.058 A 
ATOM     79  C   UNL A   1      44.173  29.250  27.219  1.00  0.00     0.135 A 
ATOM     80  C   UNL A   1      45.969  28.582  28.663  1.00  0.00     0.135 A 
ATOM     81  F   UNL A   1      43.003  29.876  27.008  1.00  0.00    -0.206 F 
ATOM     82  C   UNL A   1      44.822  28.701  26.117  1.00  0.00     0.059 A 
ATOM     83  C   UNL A   1      46.639  28.021  27.570  1.00  0.00     0.059 A 
ATOM     84  F   UNL A   1      46.575  28.555  29.858  1.00  0.00    -0.206 F 
ATOM     85  C   UNL A   1      46.083  28.137  26.294  1.00  0.00     0.060 A 
BRANCH  85  86
ATOM     86  S   UNL A   1      47.012  27.645  24.821  1.00  0.00     0.124 S 
ATOM     87  O   UNL A   1      48.380  27.585  25.329  1.00  0.00    -0.237 OA
ATOM     88  O   UNL A   1      46.406  26.354  24.501  1.00  0.00    -0.237 OA
ATOM     89  O   UNL A   1      46.737  28.722  23.878  1.00  0.00    -0.744 OA
ENDBRANCH  85  86
ENDBRANCH  53  78
BRANCH  65  90
ATOM     90  C   UNL A   1      42.489  36.196  28.819  1.00  0.00     0.058 A 
ATOM     91  C   UNL A   1      43.118  37.252  29.504  1.00  0.00     0.135 A 
ATOM     92  C   UNL A   1      42.050  36.510  27.508  1.00  0.00     0.135 A 
ATOM     93  F   UNL A   1      43.687  37.070  30.703  1.00  0.00    -0.206 F 
ATOM     94  C   UNL A   1      43.243  38.535  28.959  1.00  0.00     0.059 A 
ATOM     95  C   UNL A   1      42.220  37.764  26.923  1.00  0.00     0.059 A 
ATOM     96  F   UNL A   1      41.451  35.595  26.730  1.00  0.00    -0.206 F 
ATOM     97  C   UNL A   1      42.798  38.781  27.666  1.00  0.00     0.060 A 
BRANCH  97  98
ATOM     98  S   UNL A   1      43.043  40.403  26.918  1.00  0.00     0.124 S 
ATOM     99  O   UNL A   1      41.680  40.759  26.538  1.00  0.00    -0.237 OA
ATOM    100  O   UNL A   1      43.617  41.182  28.011  1.00  0.00    -0.237 OA
ATOM    101  O   UNL A   1      43.956  40.122  25.815  1.00  0.00    -0.744 OA
ENDBRANCH  97  98
ENDBRANCH  65  90
ENDBRANCH  39  40
ENDBRANCH  31  34
ENDBRANCH  29  30
ENDBRANCH  28  29
ENDBRANCH  27  28
ENDBRANCH  26  27
ENDBRANCH   1  26
TORSDOF 22
ENDMDL
