MODEL 1
REMARK VINA RESULT:     -11.7      0.000      0.000
REMARK SMILES CN(C)S(=O)(=O)c1c[nH]c(C(=O)NCCCCCCNC(=O)c2ccc(-c3c4nc(c(-c5c(F)cc(S(=O)(=O)[O-])cc5F)c5ccc([nH]5)c(-c5c(F)cc(S(=O)(=O)[O-])cc5F)c5nc(c(-c6c(F)cc(S(=O)(=O)[O-])cc6F)c6ccc3[nH]6)C=C5)C=C4)cc2)c1
REMARK SMILES IDX 17 1 16 2 15 3 14 4 13 5 11 6 12 7 10 9 7 10 8 11 89 12 9 13
REMARK SMILES IDX 4 15 5 16 6 17 2 18 1 19 3 20 18 21 19 22 20 23 21 24 22 26
REMARK SMILES IDX 23 27 24 28 88 29 25 30 87 31 26 32 27 33 28 34 81 35 29 36
REMARK SMILES IDX 86 37 80 38 82 39 30 40 85 41 79 42 78 43 31 45 65 46 44 47
REMARK SMILES IDX 64 48 45 49 48 50 63 51 83 52 46 53 47 54 62 56 84 57 49 58
REMARK SMILES IDX 32 59 33 60 42 61 34 62 35 63 41 64 43 65 36 66 37 67 38 68
REMARK SMILES IDX 39 69 40 70 66 71 67 72 76 73 68 74 69 75 75 76 77 77 70 78
REMARK SMILES IDX 71 79 72 80 73 81 74 82 50 83 51 84 60 85 52 86 53 87 59 88
REMARK SMILES IDX 61 89 54 90 55 91 56 92 57 93 58 94
REMARK H PARENT 13 8 9 14 20 25 82 44 48 55
REMARK Flexibility Score: inf
ROOT
ATOM      1  C   UNL A   1      33.488  27.346  24.627  1.00  0.00     0.002 C 
ENDROOT
BRANCH   1   2
ATOM      2  C   UNL A   1      32.128  26.960  24.025  1.00  0.00     0.002 C 
BRANCH   2   3
ATOM      3  C   UNL A   1      31.032  26.623  25.045  1.00  0.00     0.021 C 
BRANCH   3   4
ATOM      4  C   UNL A   1      31.552  25.884  26.278  1.00  0.00     0.116 C 
BRANCH   4   5
ATOM      5  N   UNL A   1      30.646  24.826  26.675  1.00  0.00    -0.351 N 
ATOM      6  C   UNL A   1      30.839  23.489  26.892  1.00  0.00     0.267 C 
ATOM      7  O   UNL A   1      29.876  22.854  27.329  1.00  0.00    -0.268 OA
ATOM      8  H   UNL A   1      29.719  25.124  26.817  1.00  0.00     0.163 HD
BRANCH   6   9
ATOM      9  C   UNL A   1      32.119  22.842  26.684  1.00  0.00     0.105 A 
ATOM     10  C   UNL A   1      34.136  22.010  26.038  1.00  0.00     0.100 A 
ATOM     11  C   UNL A   1      34.000  21.782  27.389  1.00  0.00     0.104 A 
ATOM     12  C   UNL A   1      32.928  22.604  25.584  1.00  0.00     0.055 A 
ATOM     13  N   UNL A   1      32.767  22.248  27.756  1.00  0.00    -0.356 N 
ATOM     14  H   UNL A   1      32.390  22.171  28.662  1.00  0.00     0.166 HD
BRANCH  10  15
ATOM     15  S   UNL A   1      35.504  21.658  25.041  1.00  0.00     0.244 S 
ATOM     16  O   UNL A   1      35.296  22.434  23.847  1.00  0.00    -0.207 OA
ATOM     17  O   UNL A   1      35.567  20.207  25.032  1.00  0.00    -0.207 OA
BRANCH  15  18
ATOM     18  N   UNL A   1      36.920  22.249  25.808  1.00  0.00    -0.204 NA
ATOM     19  C   UNL A   1      38.136  21.553  25.320  1.00  0.00     0.124 C 
ATOM     20  C   UNL A   1      37.082  23.717  25.738  1.00  0.00     0.124 C 
ENDBRANCH  15  18
ENDBRANCH  10  15
ENDBRANCH   6   9
ENDBRANCH   4   5
ENDBRANCH   3   4
ENDBRANCH   2   3
ENDBRANCH   1   2
BRANCH   1  21
ATOM     21  C   UNL A   1      33.588  28.789  25.143  1.00  0.00     0.021 C 
BRANCH  21  22
ATOM     22  C   UNL A   1      34.223  28.892  26.530  1.00  0.00     0.116 C 
BRANCH  22  23
ATOM     23  N   UNL A   1      34.445  30.288  26.873  1.00  0.00    -0.352 N 
ATOM     24  C   UNL A   1      35.379  30.868  27.686  1.00  0.00     0.251 C 
ATOM     25  H   UNL A   1      33.820  30.919  26.450  1.00  0.00     0.163 HD
ATOM     26  O   UNL A   1      35.199  32.027  28.055  1.00  0.00    -0.269 OA
BRANCH  24  27
ATOM     27  C   UNL A   1      36.567  30.129  28.156  1.00  0.00     0.039 A 
ATOM     28  C   UNL A   1      37.703  30.152  27.337  1.00  0.00     0.014 A 
ATOM     29  C   UNL A   1      36.555  29.351  29.320  1.00  0.00     0.014 A 
ATOM     30  C   UNL A   1      38.845  29.453  27.711  1.00  0.00     0.010 A 
ATOM     31  C   UNL A   1      37.702  28.659  29.705  1.00  0.00     0.010 A 
ATOM     32  C   UNL A   1      38.853  28.729  28.908  1.00  0.00    -0.014 A 
BRANCH  32  33
ATOM     33  C   UNL A   1      40.133  28.147  29.375  1.00  0.00     0.031 A 
ATOM     34  C   UNL A   1      40.463  26.799  28.686  1.00  0.00     0.074 A 
ATOM     35  C   UNL A   1      40.787  28.846  30.346  1.00  0.00     0.049 A 
ATOM     36  N   UNL A   1      41.137  25.759  29.094  1.00  0.00    -0.248 NA
ATOM     37  C   UNL A   1      39.847  26.549  27.352  1.00  0.00     0.031 C 
ATOM     38  C   UNL A   1      40.336  30.125  30.937  1.00  0.00     0.029 A 
ATOM     39  N   UNL A   1      41.948  28.623  31.045  1.00  0.00    -0.354 N 
ATOM     40  C   UNL A   1      41.165  24.827  28.027  1.00  0.00     0.074 A 
ATOM     41  C   UNL A   1      40.252  25.319  27.037  1.00  0.00     0.031 C 
ATOM     42  C   UNL A   1      41.148  30.502  31.948  1.00  0.00     0.029 A 
ATOM     43  C   UNL A   1      42.204  29.525  32.110  1.00  0.00     0.049 A 
ATOM     44  H   UNL A   1      42.561  27.886  30.823  1.00  0.00     0.167 HD
ATOM     45  C   UNL A   1      42.029  23.774  27.924  1.00  0.00     0.037 A 
ATOM     46  C   UNL A   1      43.151  29.427  33.095  1.00  0.00     0.037 A 
ATOM     47  C   UNL A   1      42.967  23.734  28.999  1.00  0.00     0.049 A 
ATOM     48  C   UNL A   1      43.860  28.174  32.784  1.00  0.00     0.074 A 
ATOM     49  C   UNL A   1      43.164  23.030  30.161  1.00  0.00     0.029 A 
ATOM     50  N   UNL A   1      44.021  24.598  28.861  1.00  0.00    -0.354 N 
ATOM     51  N   UNL A   1      44.729  28.013  31.835  1.00  0.00    -0.248 NA
ATOM     52  C   UNL A   1      43.355  26.960  33.425  1.00  0.00     0.031 C 
ATOM     53  C   UNL A   1      44.274  23.642  30.808  1.00  0.00     0.029 A 
ATOM     54  C   UNL A   1      44.547  24.809  30.105  1.00  0.00     0.049 A 
ATOM     55  H   UNL A   1      44.341  24.995  28.020  1.00  0.00     0.167 HD
ATOM     56  C   UNL A   1      44.713  26.658  31.593  1.00  0.00     0.074 A 
ATOM     57  C   UNL A   1      43.937  26.044  32.661  1.00  0.00     0.031 C 
ATOM     58  C   UNL A   1      45.033  26.131  30.385  1.00  0.00     0.037 A 
BRANCH  45  59
ATOM     59  C   UNL A   1      42.384  22.885  26.739  1.00  0.00     0.058 A 
ATOM     60  C   UNL A   1      42.010  21.519  26.802  1.00  0.00     0.135 A 
ATOM     61  C   UNL A   1      43.392  23.197  25.809  1.00  0.00     0.135 A 
ATOM     62  F   UNL A   1      40.996  21.124  27.589  1.00  0.00    -0.206 F 
ATOM     63  C   UNL A   1      42.705  20.515  26.131  1.00  0.00     0.059 A 
ATOM     64  C   UNL A   1      44.064  22.207  25.079  1.00  0.00     0.059 A 
ATOM     65  F   UNL A   1      43.812  24.459  25.643  1.00  0.00    -0.206 F 
ATOM     66  C   UNL A   1      43.761  20.865  25.303  1.00  0.00     0.060 A 
BRANCH  66  67
ATOM     67  S   UNL A   1      44.747  19.545  24.558  1.00  0.00     0.124 S 
ATOM     68  O   UNL A   1      44.531  19.777  23.134  1.00  0.00    -0.237 OA
ATOM     69  O   UNL A   1      46.091  19.840  25.048  1.00  0.00    -0.237 OA
ATOM     70  O   UNL A   1      44.145  18.331  25.103  1.00  0.00    -0.744 OA
ENDBRANCH  66  67
ENDBRANCH  45  59
BRANCH  46  71
ATOM     71  C   UNL A   1      43.442  30.086  34.425  1.00  0.00     0.058 A 
ATOM     72  C   UNL A   1      42.614  30.073  35.556  1.00  0.00     0.135 A 
ATOM     73  C   UNL A   1      44.699  30.724  34.634  1.00  0.00     0.135 A 
ATOM     74  F   UNL A   1      41.347  29.650  35.478  1.00  0.00    -0.206 F 
ATOM     75  C   UNL A   1      43.055  30.503  36.822  1.00  0.00     0.059 A 
ATOM     76  C   UNL A   1      45.167  31.139  35.879  1.00  0.00     0.059 A 
ATOM     77  F   UNL A   1      45.554  30.941  33.624  1.00  0.00    -0.206 F 
ATOM     78  C   UNL A   1      44.350  30.991  36.983  1.00  0.00     0.060 A 
BRANCH  78  79
ATOM     79  S   UNL A   1      45.020  31.317  38.629  1.00  0.00     0.124 S 
ATOM     80  O   UNL A   1      46.442  31.485  38.352  1.00  0.00    -0.237 OA
ATOM     81  O   UNL A   1      44.303  32.523  39.030  1.00  0.00    -0.237 OA
ATOM     82  O   UNL A   1      44.662  30.115  39.378  1.00  0.00    -0.744 OA
ENDBRANCH  78  79
ENDBRANCH  46  71
BRANCH  58  83
ATOM     83  C   UNL A   1      45.409  27.141  29.324  1.00  0.00     0.058 A 
ATOM     84  C   UNL A   1      46.728  27.537  29.102  1.00  0.00     0.135 A 
ATOM     85  C   UNL A   1      44.426  27.771  28.532  1.00  0.00     0.135 A 
ATOM     86  F   UNL A   1      47.720  27.004  29.832  1.00  0.00    -0.206 F 
ATOM     87  C   UNL A   1      47.054  28.480  28.119  1.00  0.00     0.059 A 
ATOM     88  C   UNL A   1      44.719  28.694  27.535  1.00  0.00     0.059 A 
ATOM     89  F   UNL A   1      43.138  27.469  28.700  1.00  0.00    -0.206 F 
ATOM     90  C   UNL A   1      46.044  29.045  27.332  1.00  0.00     0.060 A 
BRANCH  90  91
ATOM     91  S   UNL A   1      46.472  30.234  26.043  1.00  0.00     0.124 S 
ATOM     92  O   UNL A   1      46.594  29.383  24.864  1.00  0.00    -0.237 OA
ATOM     93  O   UNL A   1      45.321  31.131  26.060  1.00  0.00    -0.237 OA
ATOM     94  O   UNL A   1      47.725  30.821  26.514  1.00  0.00    -0.744 OA
ENDBRANCH  90  91
ENDBRANCH  58  83
ENDBRANCH  32  33
ENDBRANCH  24  27
ENDBRANCH  22  23
ENDBRANCH  21  22
ENDBRANCH   1  21
TORSDOF 18
ENDMDL
MODEL 2
REMARK VINA RESULT:     -11.5      2.250      3.844
REMARK SMILES CN(C)S(=O)(=O)c1c[nH]c(C(=O)NCCCCCCNC(=O)c2ccc(-c3c4nc(c(-c5c(F)cc(S(=O)(=O)[O-])cc5F)c5ccc([nH]5)c(-c5c(F)cc(S(=O)(=O)[O-])cc5F)c5nc(c(-c6c(F)cc(S(=O)(=O)[O-])cc6F)c6ccc3[nH]6)C=C5)C=C4)cc2)c1
REMARK SMILES IDX 17 1 16 2 15 3 14 4 13 5 11 6 12 7 10 9 7 10 8 11 89 12 9 13
REMARK SMILES IDX 4 15 5 16 6 17 2 18 1 19 3 20 18 21 19 22 20 23 21 24 22 26
REMARK SMILES IDX 23 27 24 28 88 29 25 30 87 31 26 32 27 33 28 34 81 35 29 36
REMARK SMILES IDX 86 37 80 38 82 39 30 40 85 41 79 42 78 43 31 45 65 46 44 47
REMARK SMILES IDX 64 48 45 49 48 50 63 51 83 52 46 53 47 54 62 56 84 57 49 58
REMARK SMILES IDX 32 59 33 60 42 61 34 62 35 63 41 64 43 65 36 66 37 67 38 68
REMARK SMILES IDX 39 69 40 70 66 71 67 72 76 73 68 74 69 75 75 76 77 77 70 78
REMARK SMILES IDX 71 79 72 80 73 81 74 82 50 83 51 84 60 85 52 86 53 87 59 88
REMARK SMILES IDX 61 89 54 90 55 91 56 92 57 93 58 94
REMARK H PARENT 13 8 9 14 20 25 82 44 48 55
REMARK Flexibility Score: inf
ROOT
ATOM      1  C   UNL A   1      32.224  27.553  26.014  1.00  0.00     0.002 C 
ENDROOT
BRANCH   1   2
ATOM      2  C   UNL A   1      32.068  26.055  26.316  1.00  0.00     0.002 C 
BRANCH   2   3
ATOM      3  C   UNL A   1      32.297  25.119  25.120  1.00  0.00     0.021 C 
BRANCH   3   4
ATOM      4  C   UNL A   1      33.652  25.318  24.441  1.00  0.00     0.116 C 
BRANCH   4   5
ATOM      5  N   UNL A   1      33.565  25.070  23.017  1.00  0.00    -0.351 N 
ATOM      6  C   UNL A   1      33.025  25.798  21.992  1.00  0.00     0.267 C 
ATOM      7  O   UNL A   1      33.200  25.363  20.851  1.00  0.00    -0.268 OA
ATOM      8  H   UNL A   1      33.971  24.219  22.732  1.00  0.00     0.163 HD
BRANCH   6   9
ATOM      9  C   UNL A   1      32.332  27.052  22.207  1.00  0.00     0.105 A 
ATOM     10  C   UNL A   1      30.964  28.812  22.662  1.00  0.00     0.100 A 
ATOM     11  C   UNL A   1      32.247  29.297  22.546  1.00  0.00     0.104 A 
ATOM     12  C   UNL A   1      31.007  27.422  22.375  1.00  0.00     0.055 A 
ATOM     13  N   UNL A   1      33.053  28.236  22.231  1.00  0.00    -0.356 N 
ATOM     14  H   UNL A   1      34.018  28.305  22.045  1.00  0.00     0.166 HD
BRANCH  10  15
ATOM     15  S   UNL A   1      29.537  29.695  23.080  1.00  0.00     0.244 S 
ATOM     16  O   UNL A   1      29.918  30.487  24.220  1.00  0.00    -0.207 OA
ATOM     17  O   UNL A   1      28.501  28.679  23.142  1.00  0.00    -0.207 OA
BRANCH  15  18
ATOM     18  N   UNL A   1      29.152  30.772  21.801  1.00  0.00    -0.204 NA
ATOM     19  C   UNL A   1      27.965  30.312  21.039  1.00  0.00     0.124 C 
ATOM     20  C   UNL A   1      29.005  32.182  22.217  1.00  0.00     0.124 C 
ENDBRANCH  15  18
ENDBRANCH  10  15
ENDBRANCH   6   9
ENDBRANCH   4   5
ENDBRANCH   3   4
ENDBRANCH   2   3
ENDBRANCH   1   2
BRANCH   1  21
ATOM     21  C   UNL A   1      33.060  28.342  27.033  1.00  0.00     0.021 C 
BRANCH  21  22
ATOM     22  C   UNL A   1      34.328  28.950  26.433  1.00  0.00     0.116 C 
BRANCH  22  23
ATOM     23  N   UNL A   1      34.485  30.322  26.890  1.00  0.00    -0.352 N 
ATOM     24  C   UNL A   1      35.368  30.869  27.779  1.00  0.00     0.251 C 
ATOM     25  H   UNL A   1      33.852  30.963  26.493  1.00  0.00     0.163 HD
ATOM     26  O   UNL A   1      35.132  31.989  28.228  1.00  0.00    -0.269 OA
BRANCH  24  27
ATOM     27  C   UNL A   1      36.566  30.137  28.235  1.00  0.00     0.039 A 
ATOM     28  C   UNL A   1      37.689  30.158  27.397  1.00  0.00     0.014 A 
ATOM     29  C   UNL A   1      36.576  29.369  29.404  1.00  0.00     0.014 A 
ATOM     30  C   UNL A   1      38.839  29.465  27.757  1.00  0.00     0.010 A 
ATOM     31  C   UNL A   1      37.731  28.684  29.775  1.00  0.00     0.010 A 
ATOM     32  C   UNL A   1      38.869  28.750  28.960  1.00  0.00    -0.014 A 
BRANCH  32  33
ATOM     33  C   UNL A   1      40.158  28.176  29.409  1.00  0.00     0.031 A 
ATOM     34  C   UNL A   1      40.478  26.821  28.729  1.00  0.00     0.074 A 
ATOM     35  C   UNL A   1      40.829  28.887  30.361  1.00  0.00     0.049 A 
ATOM     36  N   UNL A   1      41.162  25.787  29.136  1.00  0.00    -0.248 NA
ATOM     37  C   UNL A   1      39.839  26.555  27.409  1.00  0.00     0.031 C 
ATOM     38  C   UNL A   1      40.385  30.171  30.946  1.00  0.00     0.029 A 
ATOM     39  N   UNL A   1      42.002  28.673  31.042  1.00  0.00    -0.354 N 
ATOM     40  C   UNL A   1      41.172  24.844  28.079  1.00  0.00     0.074 A 
ATOM     41  C   UNL A   1      40.241  25.323  27.100  1.00  0.00     0.031 C 
ATOM     42  C   UNL A   1      41.214  30.561  31.938  1.00  0.00     0.029 A 
ATOM     43  C   UNL A   1      42.275  29.588  32.091  1.00  0.00     0.049 A 
ATOM     44  H   UNL A   1      42.613  27.935  30.816  1.00  0.00     0.167 HD
ATOM     45  C   UNL A   1      42.037  23.791  27.972  1.00  0.00     0.037 A 
ATOM     46  C   UNL A   1      43.240  29.502  33.061  1.00  0.00     0.037 A 
ATOM     47  C   UNL A   1      42.993  23.764  29.030  1.00  0.00     0.049 A 
ATOM     48  C   UNL A   1      43.946  28.247  32.750  1.00  0.00     0.074 A 
ATOM     49  C   UNL A   1      43.213  23.073  30.196  1.00  0.00     0.029 A 
ATOM     50  N   UNL A   1      44.043  24.629  28.864  1.00  0.00    -0.354 N 
ATOM     51  N   UNL A   1      44.798  28.077  31.788  1.00  0.00    -0.248 NA
ATOM     52  C   UNL A   1      43.455  27.039  33.413  1.00  0.00     0.031 C 
ATOM     53  C   UNL A   1      44.333  23.694  30.816  1.00  0.00     0.029 A 
ATOM     54  C   UNL A   1      44.592  24.854  30.096  1.00  0.00     0.049 A 
ATOM     55  H   UNL A   1      44.348  25.017  28.013  1.00  0.00     0.167 HD
ATOM     56  C   UNL A   1      44.781  26.720  31.560  1.00  0.00     0.074 A 
ATOM     57  C   UNL A   1      44.025  26.116  32.649  1.00  0.00     0.031 C 
ATOM     58  C   UNL A   1      45.080  26.180  30.353  1.00  0.00     0.037 A 
BRANCH  45  59
ATOM     59  C   UNL A   1      42.373  22.890  26.790  1.00  0.00     0.058 A 
ATOM     60  C   UNL A   1      42.006  21.523  26.877  1.00  0.00     0.135 A 
ATOM     61  C   UNL A   1      43.360  23.196  25.836  1.00  0.00     0.135 A 
ATOM     62  F   UNL A   1      41.010  21.132  27.689  1.00  0.00    -0.206 F 
ATOM     63  C   UNL A   1      42.692  20.514  26.204  1.00  0.00     0.059 A 
ATOM     64  C   UNL A   1      44.021  22.200  25.105  1.00  0.00     0.059 A 
ATOM     65  F   UNL A   1      43.769  24.458  25.648  1.00  0.00    -0.206 F 
ATOM     66  C   UNL A   1      43.730  20.860  25.350  1.00  0.00     0.060 A 
BRANCH  66  67
ATOM     67  S   UNL A   1      44.707  19.535  24.601  1.00  0.00     0.124 S 
ATOM     68  O   UNL A   1      46.035  19.799  25.143  1.00  0.00    -0.237 OA
ATOM     69  O   UNL A   1      44.048  18.333  25.105  1.00  0.00    -0.237 OA
ATOM     70  O   UNL A   1      44.546  19.771  23.169  1.00  0.00    -0.744 OA
ENDBRANCH  66  67
ENDBRANCH  45  59
BRANCH  46  71
ATOM     71  C   UNL A   1      43.554  30.176  34.378  1.00  0.00     0.058 A 
ATOM     72  C   UNL A   1      42.651  30.413  35.423  1.00  0.00     0.135 A 
ATOM     73  C   UNL A   1      44.896  30.552  34.673  1.00  0.00     0.135 A 
ATOM     74  F   UNL A   1      41.334  30.258  35.246  1.00  0.00    -0.206 F 
ATOM     75  C   UNL A   1      43.067  30.828  36.703  1.00  0.00     0.059 A 
ATOM     76  C   UNL A   1      45.337  30.945  35.936  1.00  0.00     0.059 A 
ATOM     77  F   UNL A   1      45.858  30.516  33.740  1.00  0.00    -0.206 F 
ATOM     78  C   UNL A   1      44.418  31.046  36.962  1.00  0.00     0.060 A 
BRANCH  78  79
ATOM     79  S   UNL A   1      45.004  31.338  38.647  1.00  0.00     0.124 S 
ATOM     80  O   UNL A   1      43.911  30.799  39.448  1.00  0.00    -0.237 OA
ATOM     81  O   UNL A   1      46.253  30.581  38.683  1.00  0.00    -0.237 OA
ATOM     82  O   UNL A   1      45.167  32.789  38.696  1.00  0.00    -0.744 OA
ENDBRANCH  78  79
ENDBRANCH  46  71
BRANCH  58  83
ATOM     83  C   UNL A   1      45.435  27.179  29.274  1.00  0.00     0.058 A 
ATOM     84  C   UNL A   1      46.747  27.590  29.037  1.00  0.00     0.135 A 
ATOM     85  C   UNL A   1      44.438  27.784  28.480  1.00  0.00     0.135 A 
ATOM     86  F   UNL A   1      47.750  27.081  29.768  1.00  0.00    -0.206 F 
ATOM     87  C   UNL A   1      47.053  28.523  28.038  1.00  0.00     0.059 A 
ATOM     88  C   UNL A   1      44.711  28.696  27.467  1.00  0.00     0.059 A 
ATOM     89  F   UNL A   1      43.154  27.467  28.662  1.00  0.00    -0.206 F 
ATOM     90  C   UNL A   1      46.029  29.062  27.250  1.00  0.00     0.060 A 
BRANCH  90  91
ATOM     91  S   UNL A   1      46.433  30.237  25.940  1.00  0.00     0.124 S 
ATOM     92  O   UNL A   1      47.687  30.812  26.415  1.00  0.00    -0.237 OA
ATOM     93  O   UNL A   1      46.536  29.369  24.772  1.00  0.00    -0.237 OA
ATOM     94  O   UNL A   1      45.295  31.154  25.934  1.00  0.00    -0.744 OA
ENDBRANCH  90  91
ENDBRANCH  58  83
ENDBRANCH  32  33
ENDBRANCH  24  27
ENDBRANCH  22  23
ENDBRANCH  21  22
ENDBRANCH   1  21
TORSDOF 18
ENDMDL
MODEL 3
REMARK VINA RESULT:     -11.5      3.475      6.520
REMARK SMILES CN(C)S(=O)(=O)c1c[nH]c(C(=O)NCCCCCCNC(=O)c2ccc(-c3c4nc(c(-c5c(F)cc(S(=O)(=O)[O-])cc5F)c5ccc([nH]5)c(-c5c(F)cc(S(=O)(=O)[O-])cc5F)c5nc(c(-c6c(F)cc(S(=O)(=O)[O-])cc6F)c6ccc3[nH]6)C=C5)C=C4)cc2)c1
REMARK SMILES IDX 17 1 16 2 15 3 14 4 13 5 11 6 12 7 10 9 7 10 8 11 89 12 9 13
REMARK SMILES IDX 4 15 5 16 6 17 2 18 1 19 3 20 18 21 19 22 20 23 21 24 22 26
REMARK SMILES IDX 23 27 24 28 88 29 25 30 87 31 26 32 27 33 28 34 81 35 29 36
REMARK SMILES IDX 86 37 80 38 82 39 30 40 85 41 79 42 78 43 31 45 65 46 44 47
REMARK SMILES IDX 64 48 45 49 48 50 63 51 83 52 46 53 47 54 62 56 84 57 49 58
REMARK SMILES IDX 32 59 33 60 42 61 34 62 35 63 41 64 43 65 36 66 37 67 38 68
REMARK SMILES IDX 39 69 40 70 66 71 67 72 76 73 68 74 69 75 75 76 77 77 70 78
REMARK SMILES IDX 71 79 72 80 73 81 74 82 50 83 51 84 60 85 52 86 53 87 59 88
REMARK SMILES IDX 61 89 54 90 55 91 56 92 57 93 58 94
REMARK H PARENT 13 8 9 14 20 25 82 44 48 55
REMARK Flexibility Score: inf
ROOT
ATOM      1  C   UNL A   1      37.986  33.869  29.595  1.00  0.00     0.002 C 
ENDROOT
BRANCH   1   2
ATOM      2  C   UNL A   1      38.431  32.730  30.525  1.00  0.00     0.002 C 
BRANCH   2   3
ATOM      3  C   UNL A   1      38.965  33.173  31.895  1.00  0.00     0.021 C 
BRANCH   3   4
ATOM      4  C   UNL A   1      38.180  34.332  32.508  1.00  0.00     0.116 C 
BRANCH   4   5
ATOM      5  N   UNL A   1      37.700  33.997  33.833  1.00  0.00    -0.351 N 
ATOM      6  C   UNL A   1      36.448  34.016  34.385  1.00  0.00     0.267 C 
ATOM      7  O   UNL A   1      36.340  33.569  35.530  1.00  0.00    -0.268 OA
ATOM      8  H   UNL A   1      38.405  33.698  34.452  1.00  0.00     0.163 HD
BRANCH   6   9
ATOM      9  C   UNL A   1      35.282  34.477  33.658  1.00  0.00     0.105 A 
ATOM     10  C   UNL A   1      33.686  35.427  32.343  1.00  0.00     0.100 A 
ATOM     11  C   UNL A   1      33.167  34.261  32.859  1.00  0.00     0.104 A 
ATOM     12  C   UNL A   1      34.980  35.599  32.903  1.00  0.00     0.055 A 
ATOM     13  N   UNL A   1      34.120  33.722  33.681  1.00  0.00    -0.356 N 
ATOM     14  H   UNL A   1      33.996  32.906  34.218  1.00  0.00     0.166 HD
BRANCH  10  15
ATOM     15  S   UNL A   1      32.940  36.507  31.219  1.00  0.00     0.244 S 
ATOM     16  O   UNL A   1      33.388  37.816  31.615  1.00  0.00    -0.207 OA
ATOM     17  O   UNL A   1      31.540  36.119  31.236  1.00  0.00    -0.207 OA
BRANCH  15  18
ATOM     18  N   UNL A   1      33.560  36.196  29.650  1.00  0.00    -0.204 NA
ATOM     19  C   UNL A   1      32.993  34.951  29.076  1.00  0.00     0.124 C 
ATOM     20  C   UNL A   1      33.425  37.327  28.708  1.00  0.00     0.124 C 
ENDBRANCH  15  18
ENDBRANCH  10  15
ENDBRANCH   6   9
ENDBRANCH   4   5
ENDBRANCH   3   4
ENDBRANCH   2   3
ENDBRANCH   1   2
BRANCH   1  21
ATOM     21  C   UNL A   1      36.570  33.725  29.016  1.00  0.00     0.021 C 
BRANCH  21  22
ATOM     22  C   UNL A   1      35.724  32.679  29.742  1.00  0.00     0.116 C 
BRANCH  22  23
ATOM     23  N   UNL A   1      35.041  31.834  28.774  1.00  0.00    -0.352 N 
ATOM     24  C   UNL A   1      35.463  30.714  28.114  1.00  0.00     0.251 C 
ATOM     25  H   UNL A   1      34.122  32.115  28.560  1.00  0.00     0.163 HD
ATOM     26  O   UNL A   1      34.827  30.334  27.134  1.00  0.00    -0.269 OA
BRANCH  24  27
ATOM     27  C   UNL A   1      36.676  29.980  28.526  1.00  0.00     0.039 A 
ATOM     28  C   UNL A   1      37.779  30.027  27.663  1.00  0.00     0.014 A 
ATOM     29  C   UNL A   1      36.717  29.185  29.677  1.00  0.00     0.014 A 
ATOM     30  C   UNL A   1      38.941  29.334  27.980  1.00  0.00     0.010 A 
ATOM     31  C   UNL A   1      37.885  28.499  30.005  1.00  0.00     0.010 A 
ATOM     32  C   UNL A   1      39.003  28.592  29.165  1.00  0.00    -0.014 A 
BRANCH  32  33
ATOM     33  C   UNL A   1      40.306  28.016  29.572  1.00  0.00     0.031 A 
ATOM     34  C   UNL A   1      40.631  26.693  28.833  1.00  0.00     0.074 A 
ATOM     35  C   UNL A   1      40.983  28.697  30.540  1.00  0.00     0.049 A 
ATOM     36  N   UNL A   1      41.333  25.652  29.188  1.00  0.00    -0.248 NA
ATOM     37  C   UNL A   1      39.974  26.472  27.514  1.00  0.00     0.031 C 
ATOM     38  C   UNL A   1      40.534  29.951  31.183  1.00  0.00     0.029 A 
ATOM     39  N   UNL A   1      42.170  28.471  31.194  1.00  0.00    -0.354 N 
ATOM     40  C   UNL A   1      41.338  24.752  28.094  1.00  0.00     0.074 A 
ATOM     41  C   UNL A   1      40.385  25.258  27.150  1.00  0.00     0.031 C 
ATOM     42  C   UNL A   1      41.375  30.311  32.177  1.00  0.00     0.029 A 
ATOM     43  C   UNL A   1      42.449  29.346  32.275  1.00  0.00     0.049 A 
ATOM     44  H   UNL A   1      42.786  27.750  30.930  1.00  0.00     0.167 HD
ATOM     45  C   UNL A   1      42.213  23.715  27.932  1.00  0.00     0.037 A 
ATOM     46  C   UNL A   1      43.430  29.233  33.225  1.00  0.00     0.037 A 
ATOM     47  C   UNL A   1      43.186  23.657  28.973  1.00  0.00     0.049 A 
ATOM     48  C   UNL A   1      44.146  28.000  32.854  1.00  0.00     0.074 A 
ATOM     49  C   UNL A   1      43.432  22.924  30.107  1.00  0.00     0.029 A 
ATOM     50  N   UNL A   1      44.223  24.541  28.826  1.00  0.00    -0.354 N 
ATOM     51  N   UNL A   1      44.984  27.879  31.872  1.00  0.00    -0.248 NA
ATOM     52  C   UNL A   1      43.679  26.761  33.476  1.00  0.00     0.031 C 
ATOM     53  C   UNL A   1      44.554  23.533  30.734  1.00  0.00     0.029 A 
ATOM     54  C   UNL A   1      44.788  24.724  30.057  1.00  0.00     0.049 A 
ATOM     55  H   UNL A   1      44.509  24.967  27.986  1.00  0.00     0.167 HD
ATOM     56  C   UNL A   1      44.979  26.532  31.591  1.00  0.00     0.074 A 
ATOM     57  C   UNL A   1      44.248  25.876  32.667  1.00  0.00     0.031 C 
ATOM     58  C   UNL A   1      45.265  26.044  30.359  1.00  0.00     0.037 A 
BRANCH  45  59
ATOM     59  C   UNL A   1      42.540  22.866  26.710  1.00  0.00     0.058 A 
ATOM     60  C   UNL A   1      42.156  21.501  26.732  1.00  0.00     0.135 A 
ATOM     61  C   UNL A   1      43.533  23.203  25.773  1.00  0.00     0.135 A 
ATOM     62  F   UNL A   1      41.153  21.086  27.523  1.00  0.00    -0.206 F 
ATOM     63  C   UNL A   1      42.831  20.516  26.014  1.00  0.00     0.059 A 
ATOM     64  C   UNL A   1      44.184  22.234  24.997  1.00  0.00     0.059 A 
ATOM     65  F   UNL A   1      43.959  24.467  25.644  1.00  0.00    -0.206 F 
ATOM     66  C   UNL A   1      43.875  20.888  25.179  1.00  0.00     0.060 A 
BRANCH  66  67
ATOM     67  S   UNL A   1      44.837  19.587  24.371  1.00  0.00     0.124 S 
ATOM     68  O   UNL A   1      44.409  18.400  25.102  1.00  0.00    -0.237 OA
ATOM     69  O   UNL A   1      44.381  19.673  22.986  1.00  0.00    -0.237 OA
ATOM     70  O   UNL A   1      46.217  20.007  24.591  1.00  0.00    -0.744 OA
ENDBRANCH  66  67
ENDBRANCH  45  59
BRANCH  46  71
ATOM     71  C   UNL A   1      43.757  29.858  34.563  1.00  0.00     0.058 A 
ATOM     72  C   UNL A   1      42.886  29.983  35.654  1.00  0.00     0.135 A 
ATOM     73  C   UNL A   1      45.085  30.304  34.825  1.00  0.00     0.135 A 
ATOM     74  F   UNL A   1      41.575  29.752  35.521  1.00  0.00    -0.206 F 
ATOM     75  C   UNL A   1      43.330  30.358  36.937  1.00  0.00     0.059 A 
ATOM     76  C   UNL A   1      45.553  30.661  36.089  1.00  0.00     0.059 A 
ATOM     77  F   UNL A   1      46.007  30.379  33.854  1.00  0.00    -0.206 F 
ATOM     78  C   UNL A   1      44.675  30.650  37.155  1.00  0.00     0.060 A 
BRANCH  78  79
ATOM     79  S   UNL A   1      45.313  30.893  38.828  1.00  0.00     0.124 S 
ATOM     80  O   UNL A   1      44.881  29.672  39.499  1.00  0.00    -0.237 OA
ATOM     81  O   UNL A   1      46.750  31.021  38.603  1.00  0.00    -0.237 OA
ATOM     82  O   UNL A   1      44.649  32.120  39.262  1.00  0.00    -0.744 OA
ENDBRANCH  78  79
ENDBRANCH  46  71
BRANCH  58  83
ATOM     83  C   UNL A   1      45.591  27.090  29.315  1.00  0.00     0.058 A 
ATOM     84  C   UNL A   1      46.895  27.521  29.071  1.00  0.00     0.135 A 
ATOM     85  C   UNL A   1      44.574  27.718  28.566  1.00  0.00     0.135 A 
ATOM     86  F   UNL A   1      47.917  26.991  29.760  1.00  0.00    -0.206 F 
ATOM     87  C   UNL A   1      47.174  28.496  28.105  1.00  0.00     0.059 A 
ATOM     88  C   UNL A   1      44.820  28.673  27.587  1.00  0.00     0.059 A 
ATOM     89  F   UNL A   1      43.297  27.383  28.759  1.00  0.00    -0.206 F 
ATOM     90  C   UNL A   1      46.131  29.059  27.359  1.00  0.00     0.060 A 
BRANCH  90  91
ATOM     91  S   UNL A   1      46.500  30.290  26.091  1.00  0.00     0.124 S 
ATOM     92  O   UNL A   1      47.777  30.831  26.547  1.00  0.00    -0.237 OA
ATOM     93  O   UNL A   1      46.553  29.476  24.881  1.00  0.00    -0.237 OA
ATOM     94  O   UNL A   1      45.373  31.216  26.169  1.00  0.00    -0.744 OA
ENDBRANCH  90  91
ENDBRANCH  58  83
ENDBRANCH  32  33
ENDBRANCH  24  27
ENDBRANCH  22  23
ENDBRANCH  21  22
ENDBRANCH   1  21
TORSDOF 18
ENDMDL
