MODEL 1
REMARK VINA RESULT:     -12.0      0.000      0.000
REMARK SMILES C[C@@H]([C@H]1CC=CS1)n1nccc1NC(=O)CC1(CC(=O)NCCCCCCNC(=O)c2ccc(-c3c4nc(c(-c5c(F)cc(S(=O)(=O)[O-])cc5F)c5ccc([nH]5)c(-c5c(F)cc(S(=O)(=O)[O-])cc5F)c5nc(c(-c6c(F)cc(S(=O)(=O)[O-])cc6F)c6ccc3[nH]6)C=C5)C=C4)cc2)CCCCC1
REMARK SMILES IDX 23 1 22 2 21 3 19 4 20 5 18 7 17 8 97 9 101 10 98 11 100 12
REMARK SMILES IDX 99 13 16 14 14 15 13 16 15 18 12 19 8 20 9 21 10 22 11 23
REMARK SMILES IDX 2 24 1 25 3 26 4 27 7 28 5 29 6 30 24 31 25 32 26 33 27 34
REMARK SMILES IDX 28 35 29 36 30 38 31 39 32 40 96 41 33 42 95 43 34 44 35 45
REMARK SMILES IDX 36 46 89 47 37 48 94 49 88 50 90 51 38 52 93 53 87 54 86 55
REMARK SMILES IDX 39 57 73 58 52 59 72 60 53 61 56 62 71 63 91 64 54 65 55 66
REMARK SMILES IDX 70 68 92 69 57 70 40 71 41 72 50 73 42 74 43 75 49 76 51 77
REMARK SMILES IDX 44 78 45 79 46 80 47 81 48 82 74 83 75 84 84 85 76 86 77 87
REMARK SMILES IDX 83 88 85 89 78 90 79 91 80 92 81 93 82 94 58 95 59 96 68 97
REMARK SMILES IDX 60 98 61 99 67 100 69 101 62 102 63 103 64 104 65 105 66 106
REMARK H PARENT 21 6 13 17 28 37 90 56 56 67
REMARK Flexibility Score: inf
ROOT
ATOM      1  C   UNL A   1      38.754  21.986  26.413  1.00  0.00     0.021 C 
ENDROOT
BRANCH   1   2
ATOM      2  C   UNL A   1      37.918  23.124  25.828  1.00  0.00     0.116 C 
BRANCH   2   3
ATOM      3  N   UNL A   1      37.510  22.836  24.475  1.00  0.00    -0.356 N 
ATOM      4  C   UNL A   1      36.394  23.226  23.812  1.00  0.00     0.220 C 
ATOM      5  O   UNL A   1      36.298  22.943  22.618  1.00  0.00    -0.275 OA
ATOM      6  H   UNL A   1      38.133  22.275  23.958  1.00  0.00     0.163 HD
BRANCH   4   7
ATOM      7  C   UNL A   1      35.298  24.020  24.507  1.00  0.00     0.107 C 
BRANCH   7   8
ATOM      8  C   UNL A   1      33.906  23.355  24.739  1.00  0.00    -0.012 C 
ATOM      9  C   UNL A   1      33.509  23.623  26.218  1.00  0.00     0.008 C 
ATOM     10  C   UNL A   1      33.895  21.805  24.603  1.00  0.00     0.008 C 
ATOM     11  C   UNL A   1      34.346  22.889  27.270  1.00  0.00     0.001 C 
ATOM     12  C   UNL A   1      34.750  21.051  25.621  1.00  0.00     0.001 C 
ATOM     13  C   UNL A   1      34.321  21.382  27.040  1.00  0.00     0.000 C 
BRANCH   8  14
ATOM     14  C   UNL A   1      32.839  23.868  23.712  1.00  0.00     0.108 C 
BRANCH  14  15
ATOM     15  C   UNL A   1      33.270  24.813  22.609  1.00  0.00     0.226 C 
ATOM     16  N   UNL A   1      33.395  26.223  22.800  1.00  0.00    -0.311 N 
ATOM     17  H   UNL A   1      33.823  26.727  22.070  1.00  0.00     0.171 HD
ATOM     18  O   UNL A   1      33.591  24.451  21.495  1.00  0.00    -0.275 OA
BRANCH  16  19
ATOM     19  C   UNL A   1      32.983  26.959  23.889  1.00  0.00     0.131 A 
ATOM     20  N   UNL A   1      31.813  27.684  24.021  1.00  0.00    -0.246 N 
ATOM     21  N   UNL A   1      31.951  28.638  24.965  1.00  0.00    -0.179 NA
ATOM     22  C   UNL A   1      32.985  28.223  25.694  1.00  0.00     0.137 A 
ATOM     23  C   UNL A   1      33.637  27.134  25.091  1.00  0.00     0.068 A 
BRANCH  20  24
ATOM     24  C   UNL A   1      30.574  27.602  23.244  1.00  0.00     0.120 C 
ATOM     25  C   UNL A   1      29.621  26.529  23.805  1.00  0.00     0.034 C 
BRANCH  24  26
ATOM     26  C   UNL A   1      29.776  28.932  23.132  1.00  0.00     0.079 C 
ATOM     27  C   UNL A   1      30.198  29.904  22.011  1.00  0.00     0.045 C 
ATOM     28  S   UNL A   1      27.950  28.711  22.999  1.00  0.00    -0.128 SA
ATOM     29  C   UNL A   1      28.955  30.515  21.443  1.00  0.00    -0.019 C 
ATOM     30  C   UNL A   1      27.795  30.003  21.862  1.00  0.00     0.037 C 
ENDBRANCH  24  26
ENDBRANCH  20  24
ENDBRANCH  16  19
ENDBRANCH  14  15
ENDBRANCH   8  14
ENDBRANCH   7   8
ENDBRANCH   4   7
ENDBRANCH   2   3
ENDBRANCH   1   2
BRANCH   1  31
ATOM     31  C   UNL A   1      40.215  22.353  26.644  1.00  0.00     0.002 C 
BRANCH  31  32
ATOM     32  C   UNL A   1      40.900  21.564  27.767  1.00  0.00     0.002 C 
BRANCH  32  33
ATOM     33  C   UNL A   1      41.647  20.292  27.336  1.00  0.00     0.021 C 
BRANCH  33  34
ATOM     34  C   UNL A   1      41.568  20.023  25.840  1.00  0.00     0.116 C 
BRANCH  34  35
ATOM     35  N   UNL A   1      42.890  19.739  25.291  1.00  0.00    -0.352 N 
ATOM     36  C   UNL A   1      43.912  20.599  24.969  1.00  0.00     0.251 C 
ATOM     37  H   UNL A   1      43.077  18.787  25.126  1.00  0.00     0.163 HD
ATOM     38  O   UNL A   1      44.809  20.227  24.220  1.00  0.00    -0.269 OA
BRANCH  36  39
ATOM     39  C   UNL A   1      43.921  21.962  25.524  1.00  0.00     0.039 A 
ATOM     40  C   UNL A   1      43.158  22.968  24.921  1.00  0.00     0.014 A 
ATOM     41  C   UNL A   1      44.716  22.240  26.636  1.00  0.00     0.014 A 
ATOM     42  C   UNL A   1      43.148  24.238  25.485  1.00  0.00     0.010 A 
ATOM     43  C   UNL A   1      44.617  23.460  27.259  1.00  0.00     0.010 A 
ATOM     44  C   UNL A   1      43.870  24.471  26.664  1.00  0.00    -0.014 A 
BRANCH  44  45
ATOM     45  C   UNL A   1      43.708  25.728  27.389  1.00  0.00     0.031 A 
ATOM     46  C   UNL A   1      44.735  26.742  27.031  1.00  0.00     0.074 A 
ATOM     47  C   UNL A   1      42.593  26.029  28.089  1.00  0.00     0.049 A 
ATOM     48  N   UNL A   1      45.707  27.180  27.762  1.00  0.00    -0.248 NA
ATOM     49  C   UNL A   1      44.816  27.176  25.624  1.00  0.00     0.031 C 
ATOM     50  C   UNL A   1      41.380  25.213  28.217  1.00  0.00     0.029 A 
ATOM     51  N   UNL A   1      42.244  27.180  28.729  1.00  0.00    -0.354 N 
ATOM     52  C   UNL A   1      46.322  28.167  26.997  1.00  0.00     0.074 A 
ATOM     53  C   UNL A   1      45.927  27.915  25.639  1.00  0.00     0.031 C 
ATOM     54  C   UNL A   1      40.365  25.981  28.668  1.00  0.00     0.029 A 
ATOM     55  C   UNL A   1      40.882  27.296  29.003  1.00  0.00     0.049 A 
ATOM     56  H   UNL A   1      42.900  27.872  28.977  1.00  0.00     0.167 HD
ATOM     57  C   UNL A   1      46.797  29.303  27.587  1.00  0.00     0.037 A 
ATOM     58  C   UNL A   1      40.221  28.405  29.428  1.00  0.00     0.037 A 
ATOM     59  C   UNL A   1      46.932  29.112  29.015  1.00  0.00     0.049 A 
ATOM     60  C   UNL A   1      41.240  29.317  30.009  1.00  0.00     0.074 A 
ATOM     61  C   UNL A   1      47.573  28.197  29.828  1.00  0.00     0.029 A 
ATOM     62  N   UNL A   1      46.014  29.744  29.818  1.00  0.00    -0.354 N 
ATOM     63  N   UNL A   1      41.919  29.052  31.091  1.00  0.00    -0.248 NA
ATOM     64  C   UNL A   1      41.828  30.325  29.140  1.00  0.00     0.031 C 
ATOM     65  C   UNL A   1      46.695  28.003  30.937  1.00  0.00     0.029 A 
ATOM     66  C   UNL A   1      45.609  28.866  30.785  1.00  0.00     0.049 A 
ATOM     67  H   UNL A   1      45.700  30.672  29.716  1.00  0.00     0.167 HD
ATOM     68  C   UNL A   1      43.203  29.501  30.820  1.00  0.00     0.074 A 
ATOM     69  C   UNL A   1      43.058  30.375  29.659  1.00  0.00     0.031 C 
ATOM     70  C   UNL A   1      44.289  28.885  31.376  1.00  0.00     0.037 A 
BRANCH  57  71
ATOM     71  C   UNL A   1      46.672  30.696  26.982  1.00  0.00     0.058 A 
ATOM     72  C   UNL A   1      47.805  31.540  27.005  1.00  0.00     0.135 A 
ATOM     73  C   UNL A   1      45.450  31.347  26.690  1.00  0.00     0.135 A 
ATOM     74  F   UNL A   1      49.027  31.035  27.242  1.00  0.00    -0.206 F 
ATOM     75  C   UNL A   1      47.712  32.928  26.893  1.00  0.00     0.059 A 
ATOM     76  C   UNL A   1      45.345  32.722  26.523  1.00  0.00     0.059 A 
ATOM     77  F   UNL A   1      44.275  30.714  26.636  1.00  0.00    -0.206 F 
ATOM     78  C   UNL A   1      46.469  33.510  26.679  1.00  0.00     0.060 A 
BRANCH  78  79
ATOM     79  S   UNL A   1      46.314  35.302  26.656  1.00  0.00     0.124 S 
ATOM     80  O   UNL A   1      47.485  35.678  25.874  1.00  0.00    -0.237 OA
ATOM     81  O   UNL A   1      45.020  35.483  26.010  1.00  0.00    -0.237 OA
ATOM     82  O   UNL A   1      46.360  35.656  28.073  1.00  0.00    -0.744 OA
ENDBRANCH  78  79
ENDBRANCH  57  71
BRANCH  58  83
ATOM     83  C   UNL A   1      38.841  28.856  29.088  1.00  0.00     0.058 A 
ATOM     84  C   UNL A   1      37.840  28.956  30.074  1.00  0.00     0.135 A 
ATOM     85  C   UNL A   1      38.545  29.467  27.853  1.00  0.00     0.135 A 
ATOM     86  F   UNL A   1      38.033  28.414  31.287  1.00  0.00    -0.206 F 
ATOM     87  C   UNL A   1      36.652  29.675  29.872  1.00  0.00     0.059 A 
ATOM     88  C   UNL A   1      37.365  30.172  27.623  1.00  0.00     0.059 A 
ATOM     89  F   UNL A   1      39.439  29.489  26.853  1.00  0.00    -0.206 F 
ATOM     90  C   UNL A   1      36.435  30.302  28.646  1.00  0.00     0.060 A 
BRANCH  90  91
ATOM     91  S   UNL A   1      35.015  31.402  28.426  1.00  0.00     0.124 S 
ATOM     92  O   UNL A   1      33.993  30.485  27.935  1.00  0.00    -0.237 OA
ATOM     93  O   UNL A   1      34.815  31.927  29.772  1.00  0.00    -0.237 OA
ATOM     94  O   UNL A   1      35.494  32.381  27.451  1.00  0.00    -0.744 OA
ENDBRANCH  90  91
ENDBRANCH  58  83
BRANCH  70  95
ATOM     95  C   UNL A   1      44.072  28.005  32.579  1.00  0.00     0.058 A 
ATOM     96  C   UNL A   1      43.896  28.460  33.897  1.00  0.00     0.135 A 
ATOM     97  C   UNL A   1      43.917  26.629  32.351  1.00  0.00     0.135 A 
ATOM     98  F   UNL A   1      43.921  29.769  34.188  1.00  0.00    -0.206 F 
ATOM     99  C   UNL A   1      43.635  27.578  34.948  1.00  0.00     0.059 A 
ATOM    100  C   UNL A   1      43.622  25.737  33.374  1.00  0.00     0.059 A 
ATOM    101  F   UNL A   1      44.013  26.140  31.103  1.00  0.00    -0.206 F 
ATOM    102  C   UNL A   1      43.501  26.216  34.676  1.00  0.00     0.060 A 
BRANCH 102 103
ATOM    103  S   UNL A   1      43.119  25.080  36.024  1.00  0.00     0.124 S 
ATOM    104  O   UNL A   1      43.244  25.942  37.195  1.00  0.00    -0.237 OA
ATOM    105  O   UNL A   1      41.764  24.645  35.698  1.00  0.00    -0.237 OA
ATOM    106  O   UNL A   1      44.143  24.044  35.899  1.00  0.00    -0.744 OA
ENDBRANCH 102 103
ENDBRANCH  70  95
ENDBRANCH  44  45
ENDBRANCH  36  39
ENDBRANCH  34  35
ENDBRANCH  33  34
ENDBRANCH  32  33
ENDBRANCH  31  32
ENDBRANCH   1  31
TORSDOF 22
ENDMDL
MODEL 2
REMARK VINA RESULT:     -11.2      3.218      9.600
REMARK SMILES C[C@@H]([C@H]1CC=CS1)n1nccc1NC(=O)CC1(CC(=O)NCCCCCCNC(=O)c2ccc(-c3c4nc(c(-c5c(F)cc(S(=O)(=O)[O-])cc5F)c5ccc([nH]5)c(-c5c(F)cc(S(=O)(=O)[O-])cc5F)c5nc(c(-c6c(F)cc(S(=O)(=O)[O-])cc6F)c6ccc3[nH]6)C=C5)C=C4)cc2)CCCCC1
REMARK SMILES IDX 23 1 22 2 21 3 19 4 20 5 18 7 17 8 97 9 101 10 98 11 100 12
REMARK SMILES IDX 99 13 16 14 14 15 13 16 15 18 12 19 8 20 9 21 10 22 11 23
REMARK SMILES IDX 2 24 1 25 3 26 4 27 7 28 5 29 6 30 24 31 25 32 26 33 27 34
REMARK SMILES IDX 28 35 29 36 30 38 31 39 32 40 96 41 33 42 95 43 34 44 35 45
REMARK SMILES IDX 36 46 89 47 37 48 94 49 88 50 90 51 38 52 93 53 87 54 86 55
REMARK SMILES IDX 39 57 73 58 52 59 72 60 53 61 56 62 71 63 91 64 54 65 55 66
REMARK SMILES IDX 70 68 92 69 57 70 40 71 41 72 50 73 42 74 43 75 49 76 51 77
REMARK SMILES IDX 44 78 45 79 46 80 47 81 48 82 74 83 75 84 84 85 76 86 77 87
REMARK SMILES IDX 83 88 85 89 78 90 79 91 80 92 81 93 82 94 58 95 59 96 68 97
REMARK SMILES IDX 60 98 61 99 67 100 69 101 62 102 63 103 64 104 65 105 66 106
REMARK H PARENT 21 6 13 17 28 37 90 56 56 67
REMARK Flexibility Score: inf
ROOT
ATOM      1  C   UNL A   1      32.659  30.746  27.237  1.00  0.00     0.021 C 
ENDROOT
BRANCH   1   2
ATOM      2  C   UNL A   1      32.145  29.827  26.130  1.00  0.00     0.116 C 
BRANCH   2   3
ATOM      3  N   UNL A   1      31.636  28.589  26.667  1.00  0.00    -0.356 N 
ATOM      4  C   UNL A   1      31.704  27.337  26.152  1.00  0.00     0.220 C 
ATOM      5  O   UNL A   1      31.283  26.404  26.836  1.00  0.00    -0.275 OA
ATOM      6  H   UNL A   1      31.172  28.665  27.531  1.00  0.00     0.163 HD
BRANCH   4   7
ATOM      7  C   UNL A   1      32.311  27.076  24.781  1.00  0.00     0.107 C 
BRANCH   7   8
ATOM      8  C   UNL A   1      31.438  26.402  23.678  1.00  0.00    -0.012 C 
ATOM      9  C   UNL A   1      31.600  27.247  22.383  1.00  0.00     0.008 C 
ATOM     10  C   UNL A   1      29.909  26.409  23.964  1.00  0.00     0.008 C 
ATOM     11  C   UNL A   1      30.970  28.642  22.422  1.00  0.00     0.001 C 
ATOM     12  C   UNL A   1      29.261  27.791  24.040  1.00  0.00     0.001 C 
ATOM     13  C   UNL A   1      29.483  28.565  22.752  1.00  0.00     0.000 C 
BRANCH   8  14
ATOM     14  C   UNL A   1      31.816  24.894  23.481  1.00  0.00     0.108 C 
BRANCH  14  15
ATOM     15  C   UNL A   1      33.209  24.537  23.005  1.00  0.00     0.226 C 
ATOM     16  N   UNL A   1      34.054  23.616  23.698  1.00  0.00    -0.311 N 
ATOM     17  H   UNL A   1      34.875  23.339  23.230  1.00  0.00     0.171 HD
ATOM     18  O   UNL A   1      33.703  24.959  21.979  1.00  0.00    -0.275 OA
BRANCH  16  19
ATOM     19  C   UNL A   1      33.850  23.072  24.946  1.00  0.00     0.131 A 
ATOM     20  N   UNL A   1      33.916  21.738  25.304  1.00  0.00    -0.246 N 
ATOM     21  N   UNL A   1      33.209  21.514  26.431  1.00  0.00    -0.179 NA
ATOM     22  C   UNL A   1      33.101  22.719  26.989  1.00  0.00     0.137 A 
ATOM     23  C   UNL A   1      33.542  23.731  26.119  1.00  0.00     0.068 A 
BRANCH  20  24
ATOM     24  C   UNL A   1      34.536  20.614  24.598  1.00  0.00     0.120 C 
ATOM     25  C   UNL A   1      35.943  20.306  25.144  1.00  0.00     0.034 C 
BRANCH  24  26
ATOM     26  C   UNL A   1      33.719  19.291  24.619  1.00  0.00     0.079 C 
ATOM     27  C   UNL A   1      32.541  19.184  23.629  1.00  0.00     0.045 C 
ATOM     28  S   UNL A   1      34.740  17.768  24.413  1.00  0.00    -0.128 SA
ATOM     29  C   UNL A   1      32.511  17.783  23.103  1.00  0.00    -0.019 C 
ATOM     30  C   UNL A   1      33.544  17.002  23.429  1.00  0.00     0.037 C 
ENDBRANCH  24  26
ENDBRANCH  20  24
ENDBRANCH  16  19
ENDBRANCH  14  15
ENDBRANCH   8  14
ENDBRANCH   7   8
ENDBRANCH   4   7
ENDBRANCH   2   3
ENDBRANCH   1   2
BRANCH   1  31
ATOM     31  C   UNL A   1      34.157  30.625  27.490  1.00  0.00     0.002 C 
BRANCH  31  32
ATOM     32  C   UNL A   1      34.848  31.942  27.866  1.00  0.00     0.002 C 
BRANCH  32  33
ATOM     33  C   UNL A   1      33.933  33.170  27.992  1.00  0.00     0.021 C 
BRANCH  33  34
ATOM     34  C   UNL A   1      34.636  34.389  28.572  1.00  0.00     0.116 C 
BRANCH  34  35
ATOM     35  N   UNL A   1      34.125  34.702  29.902  1.00  0.00    -0.352 N 
ATOM     36  C   UNL A   1      34.413  34.121  31.114  1.00  0.00     0.251 C 
ATOM     37  H   UNL A   1      33.476  35.441  29.937  1.00  0.00     0.163 HD
ATOM     38  O   UNL A   1      33.656  34.285  32.064  1.00  0.00    -0.269 OA
BRANCH  36  39
ATOM     39  C   UNL A   1      35.628  33.305  31.262  1.00  0.00     0.039 A 
ATOM     40  C   UNL A   1      35.529  31.911  31.338  1.00  0.00     0.014 A 
ATOM     41  C   UNL A   1      36.868  33.937  31.349  1.00  0.00     0.014 A 
ATOM     42  C   UNL A   1      36.692  31.156  31.435  1.00  0.00     0.010 A 
ATOM     43  C   UNL A   1      38.020  33.189  31.329  1.00  0.00     0.010 A 
ATOM     44  C   UNL A   1      37.936  31.803  31.415  1.00  0.00    -0.014 A 
BRANCH  44  45
ATOM     45  C   UNL A   1      39.167  31.027  31.304  1.00  0.00     0.031 A 
ATOM     46  C   UNL A   1      39.817  30.775  32.616  1.00  0.00     0.074 A 
ATOM     47  C   UNL A   1      39.520  30.377  30.173  1.00  0.00     0.049 A 
ATOM     48  N   UNL A   1      40.922  31.275  33.065  1.00  0.00    -0.248 NA
ATOM     49  C   UNL A   1      39.049  30.037  33.637  1.00  0.00     0.031 C 
ATOM     50  C   UNL A   1      38.758  30.297  28.922  1.00  0.00     0.029 A 
ATOM     51  N   UNL A   1      40.568  29.540  29.935  1.00  0.00    -0.354 N 
ATOM     52  C   UNL A   1      41.125  30.663  34.298  1.00  0.00     0.074 A 
ATOM     53  C   UNL A   1      39.841  30.161  34.703  1.00  0.00     0.031 C 
ATOM     54  C   UNL A   1      39.232  29.282  28.169  1.00  0.00     0.029 A 
ATOM     55  C   UNL A   1      40.418  28.738  28.805  1.00  0.00     0.049 A 
ATOM     56  H   UNL A   1      41.364  29.505  30.514  1.00  0.00     0.167 HD
ATOM     57  C   UNL A   1      42.382  30.308  34.695  1.00  0.00     0.037 A 
ATOM     58  C   UNL A   1      41.184  27.674  28.445  1.00  0.00     0.037 A 
ATOM     59  C   UNL A   1      43.376  31.004  33.906  1.00  0.00     0.049 A 
ATOM     60  C   UNL A   1      42.471  27.803  29.176  1.00  0.00     0.074 A 
ATOM     61  C   UNL A   1      43.641  32.325  33.601  1.00  0.00     0.029 A 
ATOM     62  N   UNL A   1      44.063  30.262  32.975  1.00  0.00    -0.354 N 
ATOM     63  N   UNL A   1      43.332  28.761  28.965  1.00  0.00    -0.248 NA
ATOM     64  C   UNL A   1      42.601  27.125  30.456  1.00  0.00     0.031 C 
ATOM     65  C   UNL A   1      44.081  32.315  32.243  1.00  0.00     0.029 A 
ATOM     66  C   UNL A   1      44.140  30.987  31.817  1.00  0.00     0.049 A 
ATOM     67  H   UNL A   1      44.436  29.362  33.116  1.00  0.00     0.167 HD
ATOM     68  C   UNL A   1      43.794  29.104  30.227  1.00  0.00     0.074 A 
ATOM     69  C   UNL A   1      43.398  27.992  31.087  1.00  0.00     0.031 C 
ATOM     70  C   UNL A   1      44.182  30.386  30.503  1.00  0.00     0.037 A 
BRANCH  57  71
ATOM     71  C   UNL A   1      42.714  29.012  35.425  1.00  0.00     0.058 A 
ATOM     72  C   UNL A   1      43.613  29.068  36.514  1.00  0.00     0.135 A 
ATOM     73  C   UNL A   1      42.466  27.713  34.924  1.00  0.00     0.135 A 
ATOM     74  F   UNL A   1      43.907  30.242  37.096  1.00  0.00    -0.206 F 
ATOM     75  C   UNL A   1      44.314  27.952  36.969  1.00  0.00     0.059 A 
ATOM     76  C   UNL A   1      43.115  26.580  35.398  1.00  0.00     0.059 A 
ATOM     77  F   UNL A   1      41.654  27.466  33.892  1.00  0.00    -0.206 F 
ATOM     78  C   UNL A   1      44.076  26.714  36.383  1.00  0.00     0.060 A 
BRANCH  78  79
ATOM     79  S   UNL A   1      45.060  25.290  36.871  1.00  0.00     0.124 S 
ATOM     80  O   UNL A   1      44.914  24.430  35.704  1.00  0.00    -0.237 OA
ATOM     81  O   UNL A   1      46.374  25.890  37.073  1.00  0.00    -0.237 OA
ATOM     82  O   UNL A   1      44.392  24.828  38.085  1.00  0.00    -0.744 OA
ENDBRANCH  78  79
ENDBRANCH  57  71
BRANCH  58  83
ATOM     83  C   UNL A   1      40.768  26.410  27.770  1.00  0.00     0.058 A 
ATOM     84  C   UNL A   1      41.546  25.838  26.745  1.00  0.00     0.135 A 
ATOM     85  C   UNL A   1      39.756  25.586  28.301  1.00  0.00     0.135 A 
ATOM     86  F   UNL A   1      42.542  26.542  26.183  1.00  0.00    -0.206 F 
ATOM     87  C   UNL A   1      41.377  24.512  26.321  1.00  0.00     0.059 A 
ATOM     88  C   UNL A   1      39.557  24.271  27.884  1.00  0.00     0.059 A 
ATOM     89  F   UNL A   1      38.984  25.996  29.319  1.00  0.00    -0.206 F 
ATOM     90  C   UNL A   1      40.392  23.727  26.918  1.00  0.00     0.060 A 
BRANCH  90  91
ATOM     91  S   UNL A   1      40.284  21.960  26.539  1.00  0.00     0.124 S 
ATOM     92  O   UNL A   1      41.415  21.771  25.639  1.00  0.00    -0.237 OA
ATOM     93  O   UNL A   1      40.404  21.350  27.859  1.00  0.00    -0.237 OA
ATOM     94  O   UNL A   1      38.966  21.827  25.919  1.00  0.00    -0.744 OA
ENDBRANCH  90  91
ENDBRANCH  58  83
BRANCH  70  95
ATOM     95  C   UNL A   1      44.492  31.301  29.348  1.00  0.00     0.058 A 
ATOM     96  C   UNL A   1      45.696  31.315  28.622  1.00  0.00     0.135 A 
ATOM     97  C   UNL A   1      43.456  32.127  28.885  1.00  0.00     0.135 A 
ATOM     98  F   UNL A   1      46.700  30.481  28.930  1.00  0.00    -0.206 F 
ATOM     99  C   UNL A   1      45.878  32.154  27.521  1.00  0.00     0.059 A 
ATOM    100  C   UNL A   1      43.602  32.944  27.770  1.00  0.00     0.059 A 
ATOM    101  F   UNL A   1      42.261  32.114  29.499  1.00  0.00    -0.206 F 
ATOM    102  C   UNL A   1      44.824  32.967  27.104  1.00  0.00     0.060 A 
BRANCH 102 103
ATOM    103  S   UNL A   1      45.041  34.019  25.654  1.00  0.00     0.124 S 
ATOM    104  O   UNL A   1      44.462  33.202  24.593  1.00  0.00    -0.237 OA
ATOM    105  O   UNL A   1      44.288  35.216  26.016  1.00  0.00    -0.237 OA
ATOM    106  O   UNL A   1      46.489  34.203  25.579  1.00  0.00    -0.744 OA
ENDBRANCH 102 103
ENDBRANCH  70  95
ENDBRANCH  44  45
ENDBRANCH  36  39
ENDBRANCH  34  35
ENDBRANCH  33  34
ENDBRANCH  32  33
ENDBRANCH  31  32
ENDBRANCH   1  31
TORSDOF 22
ENDMDL
MODEL 3
REMARK VINA RESULT:     -11.1      1.687      2.427
REMARK SMILES C[C@@H]([C@H]1CC=CS1)n1nccc1NC(=O)CC1(CC(=O)NCCCCCCNC(=O)c2ccc(-c3c4nc(c(-c5c(F)cc(S(=O)(=O)[O-])cc5F)c5ccc([nH]5)c(-c5c(F)cc(S(=O)(=O)[O-])cc5F)c5nc(c(-c6c(F)cc(S(=O)(=O)[O-])cc6F)c6ccc3[nH]6)C=C5)C=C4)cc2)CCCCC1
REMARK SMILES IDX 23 1 22 2 21 3 19 4 20 5 18 7 17 8 97 9 101 10 98 11 100 12
REMARK SMILES IDX 99 13 16 14 14 15 13 16 15 18 12 19 8 20 9 21 10 22 11 23
REMARK SMILES IDX 2 24 1 25 3 26 4 27 7 28 5 29 6 30 24 31 25 32 26 33 27 34
REMARK SMILES IDX 28 35 29 36 30 38 31 39 32 40 96 41 33 42 95 43 34 44 35 45
REMARK SMILES IDX 36 46 89 47 37 48 94 49 88 50 90 51 38 52 93 53 87 54 86 55
REMARK SMILES IDX 39 57 73 58 52 59 72 60 53 61 56 62 71 63 91 64 54 65 55 66
REMARK SMILES IDX 70 68 92 69 57 70 40 71 41 72 50 73 42 74 43 75 49 76 51 77
REMARK SMILES IDX 44 78 45 79 46 80 47 81 48 82 74 83 75 84 84 85 76 86 77 87
REMARK SMILES IDX 83 88 85 89 78 90 79 91 80 92 81 93 82 94 58 95 59 96 68 97
REMARK SMILES IDX 60 98 61 99 67 100 69 101 62 102 63 103 64 104 65 105 66 106
REMARK H PARENT 21 6 13 17 28 37 90 56 56 67
REMARK Flexibility Score: inf
ROOT
ATOM      1  C   UNL A   1      38.085  23.523  25.972  1.00  0.00     0.021 C 
ENDROOT
BRANCH   1   2
ATOM      2  C   UNL A   1      36.954  22.620  25.484  1.00  0.00     0.116 C 
BRANCH   2   3
ATOM      3  N   UNL A   1      36.136  22.162  26.580  1.00  0.00    -0.356 N 
ATOM      4  C   UNL A   1      34.829  21.804  26.586  1.00  0.00     0.220 C 
ATOM      5  O   UNL A   1      34.356  21.345  27.626  1.00  0.00    -0.275 OA
ATOM      6  H   UNL A   1      36.594  22.099  27.449  1.00  0.00     0.163 HD
BRANCH   4   7
ATOM      7  C   UNL A   1      33.967  21.934  25.338  1.00  0.00     0.107 C 
BRANCH   7   8
ATOM      8  C   UNL A   1      33.227  23.279  25.060  1.00  0.00    -0.012 C 
ATOM      9  C   UNL A   1      31.940  22.938  24.258  1.00  0.00     0.008 C 
ATOM     10  C   UNL A   1      34.007  24.273  24.151  1.00  0.00     0.008 C 
ATOM     11  C   UNL A   1      32.165  22.444  22.826  1.00  0.00     0.001 C 
ATOM     12  C   UNL A   1      34.273  23.789  22.726  1.00  0.00     0.001 C 
ATOM     13  C   UNL A   1      32.973  23.452  22.017  1.00  0.00     0.000 C 
BRANCH   8  14
ATOM     14  C   UNL A   1      32.939  24.066  26.383  1.00  0.00     0.108 C 
BRANCH  14  15
ATOM     15  C   UNL A   1      31.575  24.694  26.588  1.00  0.00     0.226 C 
ATOM     16  N   UNL A   1      31.292  26.056  26.265  1.00  0.00    -0.311 N 
ATOM     17  H   UNL A   1      30.344  26.325  26.293  1.00  0.00     0.171 HD
ATOM     18  O   UNL A   1      30.604  24.087  26.993  1.00  0.00    -0.275 OA
BRANCH  16  19
ATOM     19  C   UNL A   1      32.193  27.038  25.918  1.00  0.00     0.131 A 
ATOM     20  N   UNL A   1      32.327  27.663  24.692  1.00  0.00    -0.246 N 
ATOM     21  N   UNL A   1      33.564  28.183  24.558  1.00  0.00    -0.179 NA
ATOM     22  C   UNL A   1      34.011  28.279  25.809  1.00  0.00     0.137 A 
ATOM     23  C   UNL A   1      33.158  27.622  26.713  1.00  0.00     0.068 A 
BRANCH  20  24
ATOM     24  C   UNL A   1      31.383  27.732  23.574  1.00  0.00     0.120 C 
ATOM     25  C   UNL A   1      31.124  26.342  22.962  1.00  0.00     0.034 C 
BRANCH  24  26
ATOM     26  C   UNL A   1      30.004  28.365  23.914  1.00  0.00     0.079 C 
ATOM     27  C   UNL A   1      29.665  29.706  23.229  1.00  0.00     0.045 C 
ATOM     28  S   UNL A   1      28.567  27.240  23.643  1.00  0.00    -0.128 SA
ATOM     29  C   UNL A   1      28.212  29.682  22.871  1.00  0.00    -0.019 C 
ATOM     30  C   UNL A   1      27.576  28.519  23.036  1.00  0.00     0.037 C 
ENDBRANCH  24  26
ENDBRANCH  20  24
ENDBRANCH  16  19
ENDBRANCH  14  15
ENDBRANCH   8  14
ENDBRANCH   7   8
ENDBRANCH   4   7
ENDBRANCH   2   3
ENDBRANCH   1   2
BRANCH   1  31
ATOM     31  C   UNL A   1      39.235  22.768  26.627  1.00  0.00     0.002 C 
BRANCH  31  32
ATOM     32  C   UNL A   1      39.632  21.469  25.914  1.00  0.00     0.002 C 
BRANCH  32  33
ATOM     33  C   UNL A   1      40.337  20.413  26.781  1.00  0.00     0.021 C 
BRANCH  33  34
ATOM     34  C   UNL A   1      41.689  20.870  27.308  1.00  0.00     0.116 C 
BRANCH  34  35
ATOM     35  N   UNL A   1      42.683  20.899  26.241  1.00  0.00    -0.352 N 
ATOM     36  C   UNL A   1      43.288  21.972  25.632  1.00  0.00     0.251 C 
ATOM     37  H   UNL A   1      42.961  20.017  25.905  1.00  0.00     0.163 HD
ATOM     38  O   UNL A   1      43.838  21.827  24.546  1.00  0.00    -0.269 OA
BRANCH  36  39
ATOM     39  C   UNL A   1      43.270  23.290  26.288  1.00  0.00     0.039 A 
ATOM     40  C   UNL A   1      42.449  24.308  25.789  1.00  0.00     0.014 A 
ATOM     41  C   UNL A   1      44.095  23.515  27.389  1.00  0.00     0.014 A 
ATOM     42  C   UNL A   1      42.416  25.531  26.448  1.00  0.00     0.010 A 
ATOM     43  C   UNL A   1      43.977  24.680  28.106  1.00  0.00     0.010 A 
ATOM     44  C   UNL A   1      43.172  25.704  27.616  1.00  0.00    -0.014 A 
BRANCH  44  45
ATOM     45  C   UNL A   1      42.993  26.896  28.438  1.00  0.00     0.031 A 
ATOM     46  C   UNL A   1      44.084  27.891  28.266  1.00  0.00     0.074 A 
ATOM     47  C   UNL A   1      41.832  27.182  29.067  1.00  0.00     0.049 A 
ATOM     48  N   UNL A   1      45.003  28.218  29.114  1.00  0.00    -0.248 NA
ATOM     49  C   UNL A   1      44.304  28.446  26.917  1.00  0.00     0.031 C 
ATOM     50  C   UNL A   1      40.584  26.413  29.015  1.00  0.00     0.029 A 
ATOM     51  N   UNL A   1      41.471  28.285  29.780  1.00  0.00    -0.354 N 
ATOM     52  C   UNL A   1      45.719  29.242  28.500  1.00  0.00     0.074 A 
ATOM     53  C   UNL A   1      45.436  29.131  27.095  1.00  0.00     0.031 C 
ATOM     54  C   UNL A   1      39.562  27.181  29.449  1.00  0.00     0.029 A 
ATOM     55  C   UNL A   1      40.095  28.436  29.948  1.00  0.00     0.049 A 
ATOM     56  H   UNL A   1      42.126  28.922  30.146  1.00  0.00     0.167 HD
ATOM     57  C   UNL A   1      46.181  30.297  29.231  1.00  0.00     0.037 A 
ATOM     58  C   UNL A   1      39.440  29.530  30.417  1.00  0.00     0.037 A 
ATOM     59  C   UNL A   1      46.183  29.973  30.641  1.00  0.00     0.049 A 
ATOM     60  C   UNL A   1      40.436  30.341  31.165  1.00  0.00     0.074 A 
ATOM     61  C   UNL A   1      46.715  28.961  31.416  1.00  0.00     0.029 A 
ATOM     62  N   UNL A   1      45.221  30.571  31.420  1.00  0.00    -0.354 N 
ATOM     63  N   UNL A   1      41.007  29.949  32.271  1.00  0.00    -0.248 NA
ATOM     64  C   UNL A   1      41.135  31.396  30.447  1.00  0.00     0.031 C 
ATOM     65  C   UNL A   1      45.737  28.707  32.424  1.00  0.00     0.029 A 
ATOM     66  C   UNL A   1      44.700  29.627  32.262  1.00  0.00     0.049 A 
ATOM     67  H   UNL A   1      44.951  31.517  31.378  1.00  0.00     0.167 HD
ATOM     68  C   UNL A   1      42.325  30.364  32.153  1.00  0.00     0.074 A 
ATOM     69  C   UNL A   1      42.315  31.344  31.070  1.00  0.00     0.031 C 
ATOM     70  C   UNL A   1      43.335  29.652  32.739  1.00  0.00     0.037 A 
BRANCH  57  71
ATOM     71  C   UNL A   1      46.160  31.744  28.750  1.00  0.00     0.058 A 
ATOM     72  C   UNL A   1      44.962  32.249  28.197  1.00  0.00     0.135 A 
ATOM     73  C   UNL A   1      47.308  32.534  28.507  1.00  0.00     0.135 A 
ATOM     74  F   UNL A   1      43.799  31.604  28.384  1.00  0.00    -0.206 F 
ATOM     75  C   UNL A   1      44.932  33.360  27.354  1.00  0.00     0.059 A 
ATOM     76  C   UNL A   1      47.290  33.674  27.713  1.00  0.00     0.059 A 
ATOM     77  F   UNL A   1      48.529  32.210  28.943  1.00  0.00    -0.206 F 
ATOM     78  C   UNL A   1      46.112  34.050  27.098  1.00  0.00     0.060 A 
BRANCH  78  79
ATOM     79  S   UNL A   1      46.113  35.407  25.917  1.00  0.00     0.124 S 
ATOM     80  O   UNL A   1      45.904  34.693  24.663  1.00  0.00    -0.237 OA
ATOM     81  O   UNL A   1      44.999  36.218  26.393  1.00  0.00    -0.237 OA
ATOM     82  O   UNL A   1      47.437  35.999  26.095  1.00  0.00    -0.744 OA
ENDBRANCH  78  79
ENDBRANCH  57  71
BRANCH  58  83
ATOM     83  C   UNL A   1      38.112  30.071  30.005  1.00  0.00     0.058 A 
ATOM     84  C   UNL A   1      37.198  30.568  30.955  1.00  0.00     0.135 A 
ATOM     85  C   UNL A   1      37.822  30.375  28.660  1.00  0.00     0.135 A 
ATOM     86  F   UNL A   1      37.394  30.339  32.263  1.00  0.00    -0.206 F 
ATOM     87  C   UNL A   1      36.105  31.373  30.600  1.00  0.00     0.059 A 
ATOM     88  C   UNL A   1      36.732  31.158  28.282  1.00  0.00     0.059 A 
ATOM     89  F   UNL A   1      38.645  30.007  27.667  1.00  0.00    -0.206 F 
ATOM     90  C   UNL A   1      35.896  31.683  29.257  1.00  0.00     0.060 A 
BRANCH  90  91
ATOM     91  S   UNL A   1      34.621  32.880  28.788  1.00  0.00     0.124 S 
ATOM     92  O   UNL A   1      35.411  33.945  28.182  1.00  0.00    -0.237 OA
ATOM     93  O   UNL A   1      33.783  32.105  27.881  1.00  0.00    -0.237 OA
ATOM     94  O   UNL A   1      33.993  33.221  30.065  1.00  0.00    -0.744 OA
ENDBRANCH  90  91
ENDBRANCH  58  83
BRANCH  70  95
ATOM     95  C   UNL A   1      42.980  28.678  33.831  1.00  0.00     0.058 A 
ATOM     96  C   UNL A   1      42.656  29.024  35.154  1.00  0.00     0.135 A 
ATOM     97  C   UNL A   1      42.851  27.327  33.472  1.00  0.00     0.135 A 
ATOM     98  F   UNL A   1      42.649  30.304  35.554  1.00  0.00    -0.206 F 
ATOM     99  C   UNL A   1      42.275  28.061  36.091  1.00  0.00     0.059 A 
ATOM    100  C   UNL A   1      42.439  26.357  34.378  1.00  0.00     0.059 A 
ATOM    101  F   UNL A   1      43.087  26.942  32.207  1.00  0.00    -0.206 F 
ATOM    102  C   UNL A   1      42.171  26.728  35.692  1.00  0.00     0.060 A 
BRANCH 102 103
ATOM    103  S   UNL A   1      41.636  25.488  36.889  1.00  0.00     0.124 S 
ATOM    104  O   UNL A   1      41.274  24.367  36.027  1.00  0.00    -0.237 OA
ATOM    105  O   UNL A   1      42.831  25.300  37.706  1.00  0.00    -0.237 OA
ATOM    106  O   UNL A   1      40.518  26.134  37.574  1.00  0.00    -0.744 OA
ENDBRANCH 102 103
ENDBRANCH  70  95
ENDBRANCH  44  45
ENDBRANCH  36  39
ENDBRANCH  34  35
ENDBRANCH  33  34
ENDBRANCH  32  33
ENDBRANCH  31  32
ENDBRANCH   1  31
TORSDOF 22
ENDMDL
