MODEL 1
REMARK VINA RESULT:     -12.1      0.000      0.000
REMARK SMILES CC(=O)Nc1ccc(/C=C2/CCc3oc(C(=O)NCCCCCCNC(=O)c4ccc(-c5c6nc(c(-c7c(F)cc(S(=O)(=O)[O-])cc7F)c7ccc([nH]7)c(-c7c(F)cc(S(=O)(=O)[O-])cc7F)c7nc(c(-c8c(F)cc(S(=O)(=O)[O-])cc8F)c8ccc5[nH]8)C=C7)C=C6)cc4)c(C)c3C2=O)cc1
REMARK SMILES IDX 22 1 21 2 20 3 19 4 18 5 16 6 17 7 15 9 9 10 10 11 11 12
REMARK SMILES IDX 97 13 12 14 96 15 98 16 13 17 94 18 14 19 95 20 8 21 5 22
REMARK SMILES IDX 6 23 100 24 7 25 99 26 4 27 1 28 2 29 3 30 23 32 24 33 25 34
REMARK SMILES IDX 26 35 27 37 28 38 29 39 93 40 30 41 92 42 31 43 32 44 33 45
REMARK SMILES IDX 86 46 34 47 91 48 85 49 87 50 35 51 90 52 84 53 83 54 36 56
REMARK SMILES IDX 70 57 49 58 69 59 50 60 53 61 68 62 88 63 51 64 52 65 67 67
REMARK SMILES IDX 89 68 54 69 37 70 38 71 47 72 39 73 40 74 46 75 48 76 41 77
REMARK SMILES IDX 42 78 43 79 44 80 45 81 71 82 72 83 81 84 73 85 74 86 80 87
REMARK SMILES IDX 82 88 75 89 76 90 77 91 78 92 79 93 55 94 56 95 65 96 57 97
REMARK SMILES IDX 58 98 64 99 66 100 59 101 60 102 61 103 62 104 63 105
REMARK H PARENT 18 8 4 31 25 36 87 55 53 66
REMARK Flexibility Score: inf
ROOT
ATOM      1  C   UNL A   1      41.929  22.189  27.916  1.00  0.00     0.002 C 
ENDROOT
BRANCH   1   2
ATOM      2  C   UNL A   1      40.432  22.533  27.994  1.00  0.00     0.002 C 
BRANCH   2   3
ATOM      3  C   UNL A   1      39.895  23.447  26.892  1.00  0.00     0.021 C 
BRANCH   3   4
ATOM      4  C   UNL A   1      38.694  22.894  26.131  1.00  0.00     0.116 C 
BRANCH   4   5
ATOM      5  N   UNL A   1      38.922  21.547  25.630  1.00  0.00    -0.349 N 
ATOM      6  C   UNL A   1      38.079  20.633  25.031  1.00  0.00     0.287 C 
ATOM      7  O   UNL A   1      38.600  19.567  24.691  1.00  0.00    -0.266 OA
ATOM      8  H   UNL A   1      39.847  21.230  25.738  1.00  0.00     0.163 HD
BRANCH   6   9
ATOM      9  C   UNL A   1      36.669  20.924  24.823  1.00  0.00     0.195 A 
ATOM     10  C   UNL A   1      31.366  22.750  25.117  1.00  0.00     0.016 C 
ATOM     11  C   UNL A   1      32.216  21.899  24.506  1.00  0.00     0.001 C 
ATOM     12  C   UNL A   1      32.104  20.387  24.680  1.00  0.00     0.048 C 
ATOM     13  C   UNL A   1      33.430  22.311  23.719  1.00  0.00     0.192 C 
ATOM     14  C   UNL A   1      33.307  19.836  25.471  1.00  0.00     0.081 C 
ATOM     15  C   UNL A   1      34.620  21.669  24.234  1.00  0.00     0.067 A 
ATOM     16  O   UNL A   1      33.410  23.075  22.760  1.00  0.00    -0.289 OA
ATOM     17  C   UNL A   1      34.521  20.552  25.023  1.00  0.00     0.116 A 
ATOM     18  C   UNL A   1      36.018  21.944  24.120  1.00  0.00     0.012 A 
ATOM     19  O   UNL A   1      35.728  20.122  25.411  1.00  0.00    -0.455 OA
ATOM     20  C   UNL A   1      36.616  23.101  23.403  1.00  0.00     0.049 C 
BRANCH  10  21
ATOM     21  C   UNL A   1      31.360  24.223  25.255  1.00  0.00    -0.025 A 
ATOM     22  C   UNL A   1      31.157  27.048  25.419  1.00  0.00     0.041 A 
ATOM     23  C   UNL A   1      31.868  26.330  26.373  1.00  0.00     0.027 A 
ATOM     24  C   UNL A   1      30.577  26.363  24.356  1.00  0.00     0.027 A 
ATOM     25  C   UNL A   1      31.928  24.935  26.313  1.00  0.00     0.010 A 
ATOM     26  C   UNL A   1      30.687  24.967  24.271  1.00  0.00     0.010 A 
BRANCH  22  27
ATOM     27  N   UNL A   1      31.111  28.438  25.576  1.00  0.00    -0.326 N 
ATOM     28  C   UNL A   1      32.948  29.064  24.032  1.00  0.00     0.114 C 
ATOM     29  C   UNL A   1      31.944  29.409  25.098  1.00  0.00     0.221 C 
ATOM     30  O   UNL A   1      31.802  30.571  25.483  1.00  0.00    -0.275 OA
ATOM     31  H   UNL A   1      30.357  28.770  26.117  1.00  0.00     0.169 HD
ENDBRANCH  22  27
ENDBRANCH  10  21
ENDBRANCH   6   9
ENDBRANCH   4   5
ENDBRANCH   3   4
ENDBRANCH   2   3
ENDBRANCH   1   2
BRANCH   1  32
ATOM     32  C   UNL A   1      42.306  20.856  27.249  1.00  0.00     0.021 C 
BRANCH  32  33
ATOM     33  C   UNL A   1      42.849  21.007  25.839  1.00  0.00     0.116 C 
BRANCH  33  34
ATOM     34  N   UNL A   1      44.304  20.826  25.761  1.00  0.00    -0.352 N 
ATOM     35  C   UNL A   1      45.289  21.802  25.741  1.00  0.00     0.251 C 
ATOM     36  H   UNL A   1      44.620  19.895  25.717  1.00  0.00     0.163 HD
ATOM     37  O   UNL A   1      46.415  21.555  25.323  1.00  0.00    -0.269 OA
BRANCH  35  38
ATOM     38  C   UNL A   1      44.950  23.140  26.254  1.00  0.00     0.039 A 
ATOM     39  C   UNL A   1      44.172  24.066  25.550  1.00  0.00     0.014 A 
ATOM     40  C   UNL A   1      45.416  23.433  27.526  1.00  0.00     0.014 A 
ATOM     41  C   UNL A   1      43.826  25.262  26.182  1.00  0.00     0.010 A 
ATOM     42  C   UNL A   1      44.853  24.453  28.227  1.00  0.00     0.010 A 
ATOM     43  C   UNL A   1      44.174  25.439  27.528  1.00  0.00    -0.014 A 
BRANCH  43  44
ATOM     44  C   UNL A   1      43.847  26.629  28.299  1.00  0.00     0.031 A 
ATOM     45  C   UNL A   1      44.842  27.730  28.188  1.00  0.00     0.074 A 
ATOM     46  C   UNL A   1      42.588  26.806  28.771  1.00  0.00     0.049 A 
ATOM     47  N   UNL A   1      45.609  28.217  29.105  1.00  0.00    -0.248 NA
ATOM     48  C   UNL A   1      45.133  28.251  26.840  1.00  0.00     0.031 C 
ATOM     49  C   UNL A   1      41.414  25.929  28.590  1.00  0.00     0.029 A 
ATOM     50  N   UNL A   1      42.048  27.876  29.408  1.00  0.00    -0.354 N 
ATOM     51  C   UNL A   1      46.305  29.265  28.502  1.00  0.00     0.074 A 
ATOM     52  C   UNL A   1      46.144  29.087  27.085  1.00  0.00     0.031 C 
ATOM     53  C   UNL A   1      40.283  26.604  28.892  1.00  0.00     0.029 A 
ATOM     54  C   UNL A   1      40.656  27.877  29.471  1.00  0.00     0.049 A 
ATOM     55  H   UNL A   1      42.597  28.594  29.798  1.00  0.00     0.167 HD
ATOM     56  C   UNL A   1      46.731  30.344  29.220  1.00  0.00     0.037 A 
ATOM     57  C   UNL A   1      39.873  28.869  29.962  1.00  0.00     0.037 A 
ATOM     58  C   UNL A   1      46.615  30.085  30.633  1.00  0.00     0.049 A 
ATOM     59  C   UNL A   1      40.754  29.713  30.806  1.00  0.00     0.074 A 
ATOM     60  C   UNL A   1      47.234  29.249  31.537  1.00  0.00     0.029 A 
ATOM     61  N   UNL A   1      45.435  30.489  31.208  1.00  0.00    -0.354 N 
ATOM     62  N   UNL A   1      41.339  29.290  31.894  1.00  0.00    -0.248 NA
ATOM     63  C   UNL A   1      41.329  30.912  30.216  1.00  0.00     0.031 C 
ATOM     64  C   UNL A   1      46.220  28.888  32.473  1.00  0.00     0.029 A 
ATOM     65  C   UNL A   1      45.043  29.563  32.139  1.00  0.00     0.049 A 
ATOM     66  H   UNL A   1      44.946  31.315  30.985  1.00  0.00     0.167 HD
ATOM     67  C   UNL A   1      42.576  29.914  31.901  1.00  0.00     0.074 A 
ATOM     68  C   UNL A   1      42.459  30.992  30.923  1.00  0.00     0.031 C 
ATOM     69  C   UNL A   1      43.656  29.313  32.483  1.00  0.00     0.037 A 
BRANCH  56  70
ATOM     70  C   UNL A   1      46.859  31.758  28.688  1.00  0.00     0.058 A 
ATOM     71  C   UNL A   1      45.715  32.407  28.172  1.00  0.00     0.135 A 
ATOM     72  C   UNL A   1      48.087  32.401  28.412  1.00  0.00     0.135 A 
ATOM     73  F   UNL A   1      44.491  31.890  28.364  1.00  0.00    -0.206 F 
ATOM     74  C   UNL A   1      45.792  33.561  27.388  1.00  0.00     0.059 A 
ATOM     75  C   UNL A   1      48.181  33.581  27.681  1.00  0.00     0.059 A 
ATOM     76  F   UNL A   1      49.267  31.869  28.749  1.00  0.00    -0.206 F 
ATOM     77  C   UNL A   1      47.035  34.133  27.137  1.00  0.00     0.060 A 
BRANCH  77  78
ATOM     78  S   UNL A   1      47.154  35.566  26.051  1.00  0.00     0.124 S 
ATOM     79  O   UNL A   1      48.267  36.293  26.649  1.00  0.00    -0.237 OA
ATOM     80  O   UNL A   1      47.414  34.945  24.757  1.00  0.00    -0.237 OA
ATOM     81  O   UNL A   1      45.843  36.197  26.185  1.00  0.00    -0.744 OA
ENDBRANCH  77  78
ENDBRANCH  56  70
BRANCH  57  82
ATOM     82  C   UNL A   1      38.534  29.325  29.508  1.00  0.00     0.058 A 
ATOM     83  C   UNL A   1      37.506  29.596  30.429  1.00  0.00     0.135 A 
ATOM     84  C   UNL A   1      38.338  29.803  28.197  1.00  0.00     0.135 A 
ATOM     85  F   UNL A   1      37.620  29.189  31.702  1.00  0.00    -0.206 F 
ATOM     86  C   UNL A   1      36.379  30.353  30.089  1.00  0.00     0.059 A 
ATOM     87  C   UNL A   1      37.222  30.558  27.832  1.00  0.00     0.059 A 
ATOM     88  F   UNL A   1      39.282  29.633  27.259  1.00  0.00    -0.206 F 
ATOM     89  C   UNL A   1      36.258  30.852  28.792  1.00  0.00     0.060 A 
BRANCH  89  90
ATOM     90  S   UNL A   1      34.906  31.994  28.404  1.00  0.00     0.124 S 
ATOM     91  O   UNL A   1      34.486  32.426  29.732  1.00  0.00    -0.237 OA
ATOM     92  O   UNL A   1      35.577  33.000  27.589  1.00  0.00    -0.237 OA
ATOM     93  O   UNL A   1      33.950  31.153  27.688  1.00  0.00    -0.744 OA
ENDBRANCH  89  90
ENDBRANCH  57  82
BRANCH  69  94
ATOM     94  C   UNL A   1      43.393  28.172  33.435  1.00  0.00     0.058 A 
ATOM     95  C   UNL A   1      43.509  26.809  33.110  1.00  0.00     0.135 A 
ATOM     96  C   UNL A   1      43.159  28.490  34.780  1.00  0.00     0.135 A 
ATOM     97  F   UNL A   1      43.813  26.421  31.865  1.00  0.00    -0.206 F 
ATOM     98  C   UNL A   1      43.381  25.806  34.075  1.00  0.00     0.059 A 
ATOM     99  C   UNL A   1      43.057  27.511  35.763  1.00  0.00     0.059 A 
ATOM    100  F   UNL A   1      43.089  29.776  35.161  1.00  0.00    -0.206 F 
ATOM    101  C   UNL A   1      43.162  26.170  35.404  1.00  0.00     0.060 A 
BRANCH 101 102
ATOM    102  S   UNL A   1      43.098  24.886  36.674  1.00  0.00     0.124 S 
ATOM    103  O   UNL A   1      43.917  25.461  37.734  1.00  0.00    -0.237 OA
ATOM    104  O   UNL A   1      41.668  24.792  36.958  1.00  0.00    -0.237 OA
ATOM    105  O   UNL A   1      43.669  23.718  36.006  1.00  0.00    -0.744 OA
ENDBRANCH 101 102
ENDBRANCH  69  94
ENDBRANCH  43  44
ENDBRANCH  35  38
ENDBRANCH  33  34
ENDBRANCH  32  33
ENDBRANCH   1  32
TORSDOF 18
ENDMDL
MODEL 2
REMARK VINA RESULT:     -12.0      2.749      9.527
REMARK SMILES CC(=O)Nc1ccc(/C=C2/CCc3oc(C(=O)NCCCCCCNC(=O)c4ccc(-c5c6nc(c(-c7c(F)cc(S(=O)(=O)[O-])cc7F)c7ccc([nH]7)c(-c7c(F)cc(S(=O)(=O)[O-])cc7F)c7nc(c(-c8c(F)cc(S(=O)(=O)[O-])cc8F)c8ccc5[nH]8)C=C7)C=C6)cc4)c(C)c3C2=O)cc1
REMARK SMILES IDX 22 1 21 2 20 3 19 4 18 5 16 6 17 7 15 9 9 10 10 11 11 12
REMARK SMILES IDX 97 13 12 14 96 15 98 16 13 17 94 18 14 19 95 20 8 21 5 22
REMARK SMILES IDX 6 23 100 24 7 25 99 26 4 27 1 28 2 29 3 30 23 32 24 33 25 34
REMARK SMILES IDX 26 35 27 37 28 38 29 39 93 40 30 41 92 42 31 43 32 44 33 45
REMARK SMILES IDX 86 46 34 47 91 48 85 49 87 50 35 51 90 52 84 53 83 54 36 56
REMARK SMILES IDX 70 57 49 58 69 59 50 60 53 61 68 62 88 63 51 64 52 65 67 67
REMARK SMILES IDX 89 68 54 69 37 70 38 71 47 72 39 73 40 74 46 75 48 76 41 77
REMARK SMILES IDX 42 78 43 79 44 80 45 81 71 82 72 83 81 84 73 85 74 86 80 87
REMARK SMILES IDX 82 88 75 89 76 90 77 91 78 92 79 93 55 94 56 95 65 96 57 97
REMARK SMILES IDX 58 98 64 99 66 100 59 101 60 102 61 103 62 104 63 105
REMARK H PARENT 18 8 4 31 25 36 87 55 53 66
REMARK Flexibility Score: inf
ROOT
ATOM      1  C   UNL A   1      36.052  30.869  27.882  1.00  0.00     0.002 C 
ENDROOT
BRANCH   1   2
ATOM      2  C   UNL A   1      35.859  29.343  27.871  1.00  0.00     0.002 C 
BRANCH   2   3
ATOM      3  C   UNL A   1      34.889  28.796  26.823  1.00  0.00     0.021 C 
BRANCH   3   4
ATOM      4  C   UNL A   1      33.489  28.493  27.345  1.00  0.00     0.116 C 
BRANCH   4   5
ATOM      5  N   UNL A   1      32.479  29.379  26.786  1.00  0.00    -0.349 N 
ATOM      6  C   UNL A   1      31.702  29.288  25.650  1.00  0.00     0.287 C 
ATOM      7  O   UNL A   1      30.906  30.215  25.470  1.00  0.00    -0.266 OA
ATOM      8  H   UNL A   1      32.322  30.193  27.316  1.00  0.00     0.163 HD
BRANCH   6   9
ATOM      9  C   UNL A   1      31.827  28.166  24.732  1.00  0.00     0.195 A 
ATOM     10  C   UNL A   1      33.255  23.462  22.016  1.00  0.00     0.016 C 
ATOM     11  C   UNL A   1      32.542  24.606  21.958  1.00  0.00     0.001 C 
ATOM     12  C   UNL A   1      32.895  25.725  20.984  1.00  0.00     0.048 C 
ATOM     13  C   UNL A   1      31.436  24.981  22.907  1.00  0.00     0.192 C 
ATOM     14  C   UNL A   1      33.410  26.967  21.738  1.00  0.00     0.081 C 
ATOM     15  C   UNL A   1      31.699  26.263  23.523  1.00  0.00     0.067 A 
ATOM     16  O   UNL A   1      30.440  24.298  23.116  1.00  0.00    -0.289 OA
ATOM     17  C   UNL A   1      32.599  27.133  22.964  1.00  0.00     0.116 A 
ATOM     18  C   UNL A   1      31.208  26.911  24.700  1.00  0.00     0.012 A 
ATOM     19  O   UNL A   1      32.713  28.250  23.692  1.00  0.00    -0.455 OA
ATOM     20  C   UNL A   1      30.247  26.328  25.672  1.00  0.00     0.049 C 
BRANCH  10  21
ATOM     21  C   UNL A   1      33.236  22.324  22.960  1.00  0.00    -0.025 A 
ATOM     22  C   UNL A   1      33.123  20.020  24.612  1.00  0.00     0.041 A 
ATOM     23  C   UNL A   1      34.062  21.017  24.847  1.00  0.00     0.027 A 
ATOM     24  C   UNL A   1      32.210  20.186  23.574  1.00  0.00     0.027 A 
ATOM     25  C   UNL A   1      34.142  22.129  24.005  1.00  0.00     0.010 A 
ATOM     26  C   UNL A   1      32.262  21.332  22.766  1.00  0.00     0.010 A 
BRANCH  22  27
ATOM     27  N   UNL A   1      33.135  18.919  25.477  1.00  0.00    -0.326 N 
ATOM     28  C   UNL A   1      33.840  17.169  23.868  1.00  0.00     0.114 C 
ATOM     29  C   UNL A   1      33.320  17.592  25.214  1.00  0.00     0.221 C 
ATOM     30  O   UNL A   1      33.142  16.767  26.113  1.00  0.00    -0.275 OA
ATOM     31  H   UNL A   1      32.987  19.136  26.426  1.00  0.00     0.169 HD
ENDBRANCH  22  27
ENDBRANCH  10  21
ENDBRANCH   6   9
ENDBRANCH   4   5
ENDBRANCH   3   4
ENDBRANCH   2   3
ENDBRANCH   1   2
BRANCH   1  32
ATOM     32  C   UNL A   1      34.809  31.729  28.162  1.00  0.00     0.021 C 
BRANCH  32  33
ATOM     33  C   UNL A   1      35.122  33.080  28.780  1.00  0.00     0.116 C 
BRANCH  33  34
ATOM     34  N   UNL A   1      34.551  33.245  30.122  1.00  0.00    -0.352 N 
ATOM     35  C   UNL A   1      34.847  32.531  31.274  1.00  0.00     0.251 C 
ATOM     36  H   UNL A   1      33.871  33.951  30.217  1.00  0.00     0.163 HD
ATOM     37  O   UNL A   1      34.073  32.514  32.224  1.00  0.00    -0.269 OA
BRANCH  35  38
ATOM     38  C   UNL A   1      36.128  31.808  31.331  1.00  0.00     0.039 A 
ATOM     39  C   UNL A   1      36.231  30.414  31.387  1.00  0.00     0.014 A 
ATOM     40  C   UNL A   1      37.268  32.597  31.280  1.00  0.00     0.014 A 
ATOM     41  C   UNL A   1      37.500  29.835  31.328  1.00  0.00     0.010 A 
ATOM     42  C   UNL A   1      38.459  32.033  30.944  1.00  0.00     0.010 A 
ATOM     43  C   UNL A   1      38.608  30.664  31.103  1.00  0.00    -0.014 A 
BRANCH  43  44
ATOM     44  C   UNL A   1      39.976  30.175  30.998  1.00  0.00     0.031 A 
ATOM     45  C   UNL A   1      40.646  29.932  32.304  1.00  0.00     0.074 A 
ATOM     46  C   UNL A   1      40.427  29.674  29.822  1.00  0.00     0.049 A 
ATOM     47  N   UNL A   1      41.662  30.545  32.812  1.00  0.00    -0.248 NA
ATOM     48  C   UNL A   1      40.004  28.986  33.234  1.00  0.00     0.031 C 
ATOM     49  C   UNL A   1      39.688  29.516  28.554  1.00  0.00     0.029 A 
ATOM     50  N   UNL A   1      41.612  29.075  29.537  1.00  0.00    -0.354 N 
ATOM     51  C   UNL A   1      41.931  29.899  34.020  1.00  0.00     0.074 A 
ATOM     52  C   UNL A   1      40.761  29.122  34.325  1.00  0.00     0.031 C 
ATOM     53  C   UNL A   1      40.351  28.668  27.736  1.00  0.00     0.029 A 
ATOM     54  C   UNL A   1      41.641  28.383  28.328  1.00  0.00     0.049 A 
ATOM     55  H   UNL A   1      42.390  29.127  30.137  1.00  0.00     0.167 HD
ATOM     56  C   UNL A   1      43.193  29.845  34.533  1.00  0.00     0.037 A 
ATOM     57  C   UNL A   1      42.662  27.624  27.860  1.00  0.00     0.037 A 
ATOM     58  C   UNL A   1      44.062  30.752  33.829  1.00  0.00     0.049 A 
ATOM     59  C   UNL A   1      43.865  28.028  28.627  1.00  0.00     0.074 A 
ATOM     60  C   UNL A   1      44.177  32.121  33.715  1.00  0.00     0.029 A 
ATOM     61  N   UNL A   1      44.744  30.207  32.769  1.00  0.00    -0.354 N 
ATOM     62  N   UNL A   1      44.393  29.222  28.575  1.00  0.00    -0.248 NA
ATOM     63  C   UNL A   1      44.243  27.231  29.784  1.00  0.00     0.031 C 
ATOM     64  C   UNL A   1      44.613  32.354  32.377  1.00  0.00     0.029 A 
ATOM     65  C   UNL A   1      44.805  31.121  31.749  1.00  0.00     0.049 A 
ATOM     66  H   UNL A   1      45.129  29.301  32.745  1.00  0.00     0.167 HD
ATOM     67  C   UNL A   1      44.834  29.475  29.864  1.00  0.00     0.074 A 
ATOM     68  C   UNL A   1      44.835  28.172  30.524  1.00  0.00     0.031 C 
ATOM     69  C   UNL A   1      44.874  30.752  30.348  1.00  0.00     0.037 A 
BRANCH  56  70
ATOM     70  C   UNL A   1      43.753  28.710  35.370  1.00  0.00     0.058 A 
ATOM     71  C   UNL A   1      44.321  28.999  36.632  1.00  0.00     0.135 A 
ATOM     72  C   UNL A   1      44.004  27.407  34.885  1.00  0.00     0.135 A 
ATOM     73  F   UNL A   1      44.157  30.207  37.195  1.00  0.00    -0.206 F 
ATOM     74  C   UNL A   1      45.128  28.090  37.320  1.00  0.00     0.059 A 
ATOM     75  C   UNL A   1      44.759  26.468  35.581  1.00  0.00     0.059 A 
ATOM     76  F   UNL A   1      43.617  27.007  33.668  1.00  0.00    -0.206 F 
ATOM     77  C   UNL A   1      45.352  26.829  36.778  1.00  0.00     0.060 A 
BRANCH  77  78
ATOM     78  S   UNL A   1      46.466  25.685  37.611  1.00  0.00     0.124 S 
ATOM     79  O   UNL A   1      45.777  24.414  37.419  1.00  0.00    -0.237 OA
ATOM     80  O   UNL A   1      47.703  25.864  36.860  1.00  0.00    -0.237 OA
ATOM     81  O   UNL A   1      46.495  26.186  38.983  1.00  0.00    -0.744 OA
ENDBRANCH  77  78
ENDBRANCH  56  70
BRANCH  57  82
ATOM     82  C   UNL A   1      42.616  26.377  27.053  1.00  0.00     0.058 A 
ATOM     83  C   UNL A   1      43.215  26.309  25.783  1.00  0.00     0.135 A 
ATOM     84  C   UNL A   1      42.263  25.147  27.643  1.00  0.00     0.135 A 
ATOM     85  F   UNL A   1      43.594  27.434  25.158  1.00  0.00    -0.206 F 
ATOM     86  C   UNL A   1      43.506  25.091  25.159  1.00  0.00     0.059 A 
ATOM     87  C   UNL A   1      42.541  23.919  27.040  1.00  0.00     0.059 A 
ATOM     88  F   UNL A   1      41.728  25.106  28.873  1.00  0.00    -0.206 F 
ATOM     89  C   UNL A   1      43.189  23.898  25.808  1.00  0.00     0.060 A 
BRANCH  89  90
ATOM     90  S   UNL A   1      43.743  22.327  25.098  1.00  0.00     0.124 S 
ATOM     91  O   UNL A   1      44.890  22.004  25.938  1.00  0.00    -0.237 OA
ATOM     92  O   UNL A   1      42.568  21.480  25.269  1.00  0.00    -0.237 OA
ATOM     93  O   UNL A   1      44.059  22.675  23.715  1.00  0.00    -0.744 OA
ENDBRANCH  89  90
ENDBRANCH  57  82
BRANCH  69  94
ATOM     94  C   UNL A   1      44.806  31.881  29.349  1.00  0.00     0.058 A 
ATOM     95  C   UNL A   1      43.636  32.577  28.998  1.00  0.00     0.135 A 
ATOM     96  C   UNL A   1      46.017  32.372  28.843  1.00  0.00     0.135 A 
ATOM     97  F   UNL A   1      42.447  32.224  29.503  1.00  0.00    -0.206 F 
ATOM     98  C   UNL A   1      43.666  33.700  28.167  1.00  0.00     0.059 A 
ATOM     99  C   UNL A   1      46.076  33.505  28.038  1.00  0.00     0.059 A 
ATOM    100  F   UNL A   1      47.174  31.781  29.184  1.00  0.00    -0.206 F 
ATOM    101  C   UNL A   1      44.896  34.162  27.697  1.00  0.00     0.060 A 
BRANCH 101 102
ATOM    102  S   UNL A   1      44.955  35.671  26.707  1.00  0.00     0.124 S 
ATOM    103  O   UNL A   1      43.591  35.757  26.197  1.00  0.00    -0.237 OA
ATOM    104  O   UNL A   1      45.328  36.683  27.692  1.00  0.00    -0.237 OA
ATOM    105  O   UNL A   1      45.979  35.383  25.706  1.00  0.00    -0.744 OA
ENDBRANCH 101 102
ENDBRANCH  69  94
ENDBRANCH  43  44
ENDBRANCH  35  38
ENDBRANCH  33  34
ENDBRANCH  32  33
ENDBRANCH   1  32
TORSDOF 18
ENDMDL
MODEL 3
REMARK VINA RESULT:     -11.8      1.751      2.278
REMARK SMILES CC(=O)Nc1ccc(/C=C2/CCc3oc(C(=O)NCCCCCCNC(=O)c4ccc(-c5c6nc(c(-c7c(F)cc(S(=O)(=O)[O-])cc7F)c7ccc([nH]7)c(-c7c(F)cc(S(=O)(=O)[O-])cc7F)c7nc(c(-c8c(F)cc(S(=O)(=O)[O-])cc8F)c8ccc5[nH]8)C=C7)C=C6)cc4)c(C)c3C2=O)cc1
REMARK SMILES IDX 22 1 21 2 20 3 19 4 18 5 16 6 17 7 15 9 9 10 10 11 11 12
REMARK SMILES IDX 97 13 12 14 96 15 98 16 13 17 94 18 14 19 95 20 8 21 5 22
REMARK SMILES IDX 6 23 100 24 7 25 99 26 4 27 1 28 2 29 3 30 23 32 24 33 25 34
REMARK SMILES IDX 26 35 27 37 28 38 29 39 93 40 30 41 92 42 31 43 32 44 33 45
REMARK SMILES IDX 86 46 34 47 91 48 85 49 87 50 35 51 90 52 84 53 83 54 36 56
REMARK SMILES IDX 70 57 49 58 69 59 50 60 53 61 68 62 88 63 51 64 52 65 67 67
REMARK SMILES IDX 89 68 54 69 37 70 38 71 47 72 39 73 40 74 46 75 48 76 41 77
REMARK SMILES IDX 42 78 43 79 44 80 45 81 71 82 72 83 81 84 73 85 74 86 80 87
REMARK SMILES IDX 82 88 75 89 76 90 77 91 78 92 79 93 55 94 56 95 65 96 57 97
REMARK SMILES IDX 58 98 64 99 66 100 59 101 60 102 61 103 62 104 63 105
REMARK H PARENT 18 8 4 31 25 36 87 55 53 66
REMARK Flexibility Score: inf
ROOT
ATOM      1  C   UNL A   1      41.310  23.572  27.961  1.00  0.00     0.002 C 
ENDROOT
BRANCH   1   2
ATOM      2  C   UNL A   1      39.810  23.914  27.940  1.00  0.00     0.002 C 
BRANCH   2   3
ATOM      3  C   UNL A   1      39.302  24.627  26.686  1.00  0.00     0.021 C 
BRANCH   3   4
ATOM      4  C   UNL A   1      37.897  24.227  26.248  1.00  0.00     0.116 C 
BRANCH   4   5
ATOM      5  N   UNL A   1      37.891  23.041  25.404  1.00  0.00    -0.349 N 
ATOM      6  C   UNL A   1      36.862  22.335  24.817  1.00  0.00     0.287 C 
ATOM      7  O   UNL A   1      37.201  21.371  24.125  1.00  0.00    -0.266 OA
ATOM      8  H   UNL A   1      38.786  22.677  25.218  1.00  0.00     0.163 HD
BRANCH   6   9
ATOM      9  C   UNL A   1      35.471  22.715  25.014  1.00  0.00     0.195 A 
ATOM     10  C   UNL A   1      30.618  25.367  25.990  1.00  0.00     0.016 C 
ATOM     11  C   UNL A   1      31.215  24.170  25.822  1.00  0.00     0.001 C 
ATOM     12  C   UNL A   1      31.329  23.161  26.961  1.00  0.00     0.048 C 
ATOM     13  C   UNL A   1      31.951  23.740  24.581  1.00  0.00     0.192 C 
ATOM     14  C   UNL A   1      32.797  22.990  27.397  1.00  0.00     0.081 C 
ATOM     15  C   UNL A   1      33.301  23.332  24.899  1.00  0.00     0.067 A 
ATOM     16  O   UNL A   1      31.463  23.723  23.457  1.00  0.00    -0.289 OA
ATOM     17  C   UNL A   1      33.645  23.001  26.185  1.00  0.00     0.116 A 
ATOM     18  C   UNL A   1      34.494  23.181  24.126  1.00  0.00     0.012 A 
ATOM     19  O   UNL A   1      34.938  22.670  26.273  1.00  0.00    -0.455 OA
ATOM     20  C   UNL A   1      34.630  23.483  22.677  1.00  0.00     0.049 C 
BRANCH  10  21
ATOM     21  C   UNL A   1      30.530  26.565  25.127  1.00  0.00    -0.025 A 
ATOM     22  C   UNL A   1      30.153  28.820  23.446  1.00  0.00     0.041 A 
ATOM     23  C   UNL A   1      31.133  28.824  24.431  1.00  0.00     0.027 A 
ATOM     24  C   UNL A   1      29.382  27.675  23.270  1.00  0.00     0.027 A 
ATOM     25  C   UNL A   1      31.286  27.729  25.285  1.00  0.00     0.010 A 
ATOM     26  C   UNL A   1      29.577  26.557  24.095  1.00  0.00     0.010 A 
BRANCH  22  27
ATOM     27  N   UNL A   1      30.037  29.973  22.660  1.00  0.00    -0.326 N 
ATOM     28  C   UNL A   1      27.809  30.744  23.427  1.00  0.00     0.114 C 
ATOM     29  C   UNL A   1      28.983  30.823  22.490  1.00  0.00     0.221 C 
ATOM     30  O   UNL A   1      29.048  31.702  21.628  1.00  0.00    -0.275 OA
ATOM     31  H   UNL A   1      30.845  30.207  22.147  1.00  0.00     0.169 HD
ENDBRANCH  22  27
ENDBRANCH  10  21
ENDBRANCH   6   9
ENDBRANCH   4   5
ENDBRANCH   3   4
ENDBRANCH   2   3
ENDBRANCH   1   2
BRANCH   1  32
ATOM     32  C   UNL A   1      41.755  22.333  27.170  1.00  0.00     0.021 C 
BRANCH  32  33
ATOM     33  C   UNL A   1      41.666  22.500  25.663  1.00  0.00     0.116 C 
BRANCH  33  34
ATOM     34  N   UNL A   1      42.979  22.514  25.007  1.00  0.00    -0.352 N 
ATOM     35  C   UNL A   1      43.809  23.599  24.772  1.00  0.00     0.251 C 
ATOM     36  H   UNL A   1      43.313  21.641  24.694  1.00  0.00     0.163 HD
ATOM     37  O   UNL A   1      44.690  23.548  23.922  1.00  0.00    -0.269 OA
BRANCH  35  38
ATOM     38  C   UNL A   1      43.613  24.810  25.586  1.00  0.00     0.039 A 
ATOM     39  C   UNL A   1      42.614  25.758  25.339  1.00  0.00     0.014 A 
ATOM     40  C   UNL A   1      44.466  24.950  26.671  1.00  0.00     0.014 A 
ATOM     41  C   UNL A   1      42.456  26.811  26.243  1.00  0.00     0.010 A 
ATOM     42  C   UNL A   1      44.132  25.800  27.679  1.00  0.00     0.010 A 
ATOM     43  C   UNL A   1      43.226  26.815  27.415  1.00  0.00    -0.014 A 
BRANCH  43  44
ATOM     44  C   UNL A   1      43.132  27.843  28.441  1.00  0.00     0.031 A 
ATOM     45  C   UNL A   1      44.140  28.931  28.317  1.00  0.00     0.074 A 
ATOM     46  C   UNL A   1      42.012  27.944  29.198  1.00  0.00     0.049 A 
ATOM     47  N   UNL A   1      45.107  29.226  29.120  1.00  0.00    -0.248 NA
ATOM     48  C   UNL A   1      44.168  29.693  27.056  1.00  0.00     0.031 C 
ATOM     49  C   UNL A   1      40.782  27.133  29.120  1.00  0.00     0.029 A 
ATOM     50  N   UNL A   1      41.676  28.882  30.120  1.00  0.00    -0.354 N 
ATOM     51  C   UNL A   1      45.716  30.360  28.580  1.00  0.00     0.074 A 
ATOM     52  C   UNL A   1      45.252  30.454  27.223  1.00  0.00     0.031 C 
ATOM     53  C   UNL A   1      39.777  27.754  29.777  1.00  0.00     0.029 A 
ATOM     54  C   UNL A   1      40.331  28.890  30.482  1.00  0.00     0.049 A 
ATOM     55  H   UNL A   1      42.333  29.507  30.505  1.00  0.00     0.167 HD
ATOM     56  C   UNL A   1      46.340  31.278  29.372  1.00  0.00     0.037 A 
ATOM     57  C   UNL A   1      39.724  29.783  31.303  1.00  0.00     0.037 A 
ATOM     58  C   UNL A   1      46.511  30.760  30.705  1.00  0.00     0.049 A 
ATOM     59  C   UNL A   1      40.806  30.441  32.074  1.00  0.00     0.074 A 
ATOM     60  C   UNL A   1      47.260  29.761  31.288  1.00  0.00     0.029 A 
ATOM     61  N   UNL A   1      45.501  31.064  31.586  1.00  0.00    -0.354 N 
ATOM     62  N   UNL A   1      41.584  29.812  32.915  1.00  0.00    -0.248 NA
ATOM     63  C   UNL A   1      41.308  31.721  31.600  1.00  0.00     0.031 C 
ATOM     64  C   UNL A   1      46.448  29.243  32.340  1.00  0.00     0.029 A 
ATOM     65  C   UNL A   1      45.265  29.984  32.397  1.00  0.00     0.049 A 
ATOM     66  H   UNL A   1      45.022  31.923  31.627  1.00  0.00     0.167 HD
ATOM     67  C   UNL A   1      42.826  30.407  32.766  1.00  0.00     0.074 A 
ATOM     68  C   UNL A   1      42.564  31.652  32.049  1.00  0.00     0.031 C 
ATOM     69  C   UNL A   1      43.971  29.693  32.982  1.00  0.00     0.037 A 
BRANCH  56  70
ATOM     70  C   UNL A   1      46.430  32.766  29.090  1.00  0.00     0.058 A 
ATOM     71  C   UNL A   1      45.239  33.511  28.934  1.00  0.00     0.135 A 
ATOM     72  C   UNL A   1      47.611  33.437  28.699  1.00  0.00     0.135 A 
ATOM     73  F   UNL A   1      44.051  32.979  29.265  1.00  0.00    -0.206 F 
ATOM     74  C   UNL A   1      45.218  34.790  28.372  1.00  0.00     0.059 A 
ATOM     75  C   UNL A   1      47.617  34.731  28.190  1.00  0.00     0.059 A 
ATOM     76  F   UNL A   1      48.808  32.840  28.697  1.00  0.00    -0.206 F 
ATOM     77  C   UNL A   1      46.415  35.387  27.990  1.00  0.00     0.060 A 
BRANCH  77  78
ATOM     78  S   UNL A   1      46.390  36.995  27.180  1.00  0.00     0.124 S 
ATOM     79  O   UNL A   1      45.111  37.530  27.632  1.00  0.00    -0.237 OA
ATOM     80  O   UNL A   1      47.582  37.631  27.730  1.00  0.00    -0.237 OA
ATOM     81  O   UNL A   1      46.466  36.656  25.761  1.00  0.00    -0.744 OA
ENDBRANCH  77  78
ENDBRANCH  56  70
BRANCH  57  82
ATOM     82  C   UNL A   1      38.345  30.334  31.240  1.00  0.00     0.058 A 
ATOM     83  C   UNL A   1      37.563  30.474  32.400  1.00  0.00     0.135 A 
ATOM     84  C   UNL A   1      37.892  31.022  30.096  1.00  0.00     0.135 A 
ATOM     85  F   UNL A   1      37.932  29.863  33.537  1.00  0.00    -0.206 F 
ATOM     86  C   UNL A   1      36.433  31.298  32.444  1.00  0.00     0.059 A 
ATOM     87  C   UNL A   1      36.767  31.848  30.114  1.00  0.00     0.059 A 
ATOM     88  F   UNL A   1      38.595  30.986  28.953  1.00  0.00    -0.206 F 
ATOM     89  C   UNL A   1      36.057  32.003  31.302  1.00  0.00     0.060 A 
BRANCH  89  90
ATOM     90  S   UNL A   1      34.720  33.220  31.410  1.00  0.00     0.124 S 
ATOM     91  O   UNL A   1      34.162  33.174  30.064  1.00  0.00    -0.237 OA
ATOM     92  O   UNL A   1      33.883  32.665  32.467  1.00  0.00    -0.237 OA
ATOM     93  O   UNL A   1      35.417  34.457  31.756  1.00  0.00    -0.744 OA
ENDBRANCH  89  90
ENDBRANCH  57  82
BRANCH  69  94
ATOM     94  C   UNL A   1      43.852  28.397  33.745  1.00  0.00     0.058 A 
ATOM     95  C   UNL A   1      43.656  27.133  33.161  1.00  0.00     0.135 A 
ATOM     96  C   UNL A   1      44.102  28.431  35.124  1.00  0.00     0.135 A 
ATOM     97  F   UNL A   1      43.493  27.003  31.839  1.00  0.00    -0.206 F 
ATOM     98  C   UNL A   1      43.690  25.957  33.916  1.00  0.00     0.059 A 
ATOM     99  C   UNL A   1      44.169  27.272  35.891  1.00  0.00     0.059 A 
ATOM    100  F   UNL A   1      44.348  29.603  35.731  1.00  0.00    -0.206 F 
ATOM    101  C   UNL A   1      43.956  26.038  35.283  1.00  0.00     0.060 A 
BRANCH 101 102
ATOM    102  S   UNL A   1      44.103  24.517  36.247  1.00  0.00     0.124 S 
ATOM    103  O   UNL A   1      43.292  23.583  35.474  1.00  0.00    -0.237 OA
ATOM    104  O   UNL A   1      45.542  24.269  36.233  1.00  0.00    -0.237 OA
ATOM    105  O   UNL A   1      43.557  24.886  37.551  1.00  0.00    -0.744 OA
ENDBRANCH 101 102
ENDBRANCH  69  94
ENDBRANCH  43  44
ENDBRANCH  35  38
ENDBRANCH  33  34
ENDBRANCH  32  33
ENDBRANCH   1  32
TORSDOF 18
ENDMDL
