MODEL 1
REMARK VINA RESULT:     -11.4      0.000      0.000
REMARK SMILES COc1ccccc1[C@@H]1CN(C(=O)CCc2cc(Cl)no2)C[C@H]1C(=O)NCCCCCCNC(=O)c1ccc(-c2c3nc(c(-c4c(F)cc(S(=O)(=O)[O-])cc4F)c4ccc([nH]4)c(-c4c(F)cc(S(=O)(=O)[O-])cc4F)c4nc(c(-c5c(F)cc(S(=O)(=O)[O-])cc5F)c5ccc2[nH]5)C=C4)C=C3)cc1
REMARK SMILES IDX 29 1 28 2 27 3 26 4 24 5 25 6 23 8 9 9 10 10 11 11 22 12
REMARK SMILES IDX 8 13 3 14 4 15 5 16 7 17 6 18 2 19 1 20 12 21 13 22 14 23
REMARK SMILES IDX 15 24 16 25 17 26 21 27 18 28 20 29 19 30 30 31 31 32 32 33
REMARK SMILES IDX 33 34 34 35 35 37 36 38 37 39 101 40 38 41 100 42 39 43
REMARK SMILES IDX 40 44 41 45 94 46 42 47 99 48 93 49 95 50 43 51 98 52 92 53
REMARK SMILES IDX 91 54 44 56 78 57 57 58 77 59 58 60 61 61 76 62 96 63 59 64
REMARK SMILES IDX 60 65 75 67 97 68 62 69 45 70 46 71 55 72 47 73 48 74 54 75
REMARK SMILES IDX 56 76 49 77 50 78 51 79 52 80 53 81 79 82 80 83 89 84 81 85
REMARK SMILES IDX 82 86 88 87 90 88 83 89 84 90 85 91 86 92 87 93 63 94 64 95
REMARK SMILES IDX 73 96 65 97 66 98 72 99 74 100 67 101 68 102 69 103 70 104
REMARK SMILES IDX 71 105
REMARK H PARENT 26 7 33 36 95 55 61 66
REMARK Flexibility Score: inf
ROOT
ATOM      1  C   UNL A   1      35.789  30.146  27.131  1.00  0.00     0.002 C 
ENDROOT
BRANCH   1   2
ATOM      2  C   UNL A   1      34.715  29.226  27.712  1.00  0.00     0.021 C 
BRANCH   2   3
ATOM      3  C   UNL A   1      33.782  28.635  26.663  1.00  0.00     0.116 C 
BRANCH   3   4
ATOM      4  N   UNL A   1      34.267  28.900  25.325  1.00  0.00    -0.356 N 
ATOM      5  C   UNL A   1      33.912  28.366  24.132  1.00  0.00     0.225 C 
ATOM      6  O   UNL A   1      34.496  28.783  23.128  1.00  0.00    -0.275 OA
ATOM      7  H   UNL A   1      34.974  29.584  25.273  1.00  0.00     0.163 HD
BRANCH   5   8
ATOM      8  C   UNL A   1      32.826  27.320  24.008  1.00  0.00     0.107 C 
ATOM      9  C   UNL A   1      31.959  27.441  22.744  1.00  0.00     0.057 C 
ATOM     10  C   UNL A   1      31.717  26.011  22.293  1.00  0.00     0.128 C 
ATOM     11  N   UNL A   1      32.806  25.229  22.840  1.00  0.00    -0.341 N 
ATOM     12  C   UNL A   1      33.388  25.892  23.999  1.00  0.00     0.133 C 
BRANCH   9  13
ATOM     13  C   UNL A   1      30.687  28.266  22.761  1.00  0.00    -0.000 A 
ATOM     14  C   UNL A   1      29.502  28.022  23.481  1.00  0.00     0.122 A 
ATOM     15  C   UNL A   1      28.379  28.845  23.273  1.00  0.00     0.047 A 
ATOM     16  C   UNL A   1      28.381  29.865  22.324  1.00  0.00     0.004 A 
ATOM     17  C   UNL A   1      30.654  29.310  21.797  1.00  0.00     0.008 A 
ATOM     18  C   UNL A   1      29.516  30.082  21.565  1.00  0.00     0.001 A 
BRANCH  14  19
ATOM     19  O   UNL A   1      29.165  26.897  24.181  1.00  0.00    -0.496 OA
ATOM     20  C   UNL A   1      27.896  26.306  24.008  1.00  0.00     0.278 C 
ENDBRANCH  14  19
ENDBRANCH   9  13
BRANCH  11  21
ATOM     21  C   UNL A   1      33.195  23.965  22.462  1.00  0.00     0.223 C 
ATOM     22  O   UNL A   1      33.547  23.722  21.304  1.00  0.00    -0.275 OA
BRANCH  21  23
ATOM     23  C   UNL A   1      33.139  22.842  23.490  1.00  0.00     0.108 C 
BRANCH  23  24
ATOM     24  C   UNL A   1      31.973  21.879  23.288  1.00  0.00     0.088 C 
BRANCH  24  25
ATOM     25  C   UNL A   1      32.264  20.490  23.723  1.00  0.00     0.138 A 
ATOM     26  C   UNL A   1      32.704  19.347  23.093  1.00  0.00     0.089 A 
ATOM     27  O   UNL A   1      32.037  20.214  25.039  1.00  0.00    -0.360 OA
ATOM     28  C   UNL A   1      32.659  18.366  24.101  1.00  0.00     0.172 A 
ATOM     29  N   UNL A   1      32.291  18.874  25.280  1.00  0.00    -0.068 NA
ATOM     30  Cl  UNL A   1      32.978  16.718  23.911  1.00  0.00    -0.058 Cl
ENDBRANCH  24  25
ENDBRANCH  23  24
ENDBRANCH  21  23
ENDBRANCH  11  21
ENDBRANCH   5   8
ENDBRANCH   3   4
ENDBRANCH   2   3
ENDBRANCH   1   2
BRANCH   1  31
ATOM     31  C   UNL A   1      36.147  31.367  27.994  1.00  0.00     0.002 C 
BRANCH  31  32
ATOM     32  C   UNL A   1      35.164  32.546  27.952  1.00  0.00     0.021 C 
BRANCH  32  33
ATOM     33  C   UNL A   1      34.075  32.465  29.004  1.00  0.00     0.116 C 
BRANCH  33  34
ATOM     34  N   UNL A   1      34.132  33.585  29.941  1.00  0.00    -0.352 N 
ATOM     35  C   UNL A   1      34.872  33.700  31.106  1.00  0.00     0.251 C 
ATOM     36  H   UNL A   1      33.568  34.361  29.716  1.00  0.00     0.163 HD
ATOM     37  O   UNL A   1      34.559  34.493  31.974  1.00  0.00    -0.269 OA
BRANCH  35  38
ATOM     38  C   UNL A   1      36.061  32.841  31.254  1.00  0.00     0.039 A 
ATOM     39  C   UNL A   1      35.975  31.494  31.617  1.00  0.00     0.014 A 
ATOM     40  C   UNL A   1      37.292  33.427  30.986  1.00  0.00     0.014 A 
ATOM     41  C   UNL A   1      37.146  30.740  31.653  1.00  0.00     0.010 A 
ATOM     42  C   UNL A   1      38.382  32.638  30.778  1.00  0.00     0.010 A 
ATOM     43  C   UNL A   1      38.346  31.327  31.227  1.00  0.00    -0.014 A 
BRANCH  43  44
ATOM     44  C   UNL A   1      39.600  30.592  31.150  1.00  0.00     0.031 A 
ATOM     45  C   UNL A   1      40.233  30.350  32.473  1.00  0.00     0.074 A 
ATOM     46  C   UNL A   1      39.964  29.957  30.012  1.00  0.00     0.049 A 
ATOM     47  N   UNL A   1      41.338  30.841  32.926  1.00  0.00    -0.248 NA
ATOM     48  C   UNL A   1      39.449  29.625  33.490  1.00  0.00     0.031 C 
ATOM     49  C   UNL A   1      39.227  29.869  28.741  1.00  0.00     0.029 A 
ATOM     50  N   UNL A   1      41.022  29.135  29.783  1.00  0.00    -0.354 N 
ATOM     51  C   UNL A   1      41.518  30.263  34.180  1.00  0.00     0.074 A 
ATOM     52  C   UNL A   1      40.233  29.748  34.564  1.00  0.00     0.031 C 
ATOM     53  C   UNL A   1      39.723  28.863  27.988  1.00  0.00     0.029 A 
ATOM     54  C   UNL A   1      40.917  28.353  28.631  1.00  0.00     0.049 A 
ATOM     55  H   UNL A   1      41.802  29.095  30.382  1.00  0.00     0.167 HD
ATOM     56  C   UNL A   1      42.768  29.997  34.654  1.00  0.00     0.037 A 
ATOM     57  C   UNL A   1      41.743  27.338  28.266  1.00  0.00     0.037 A 
ATOM     58  C   UNL A   1      43.761  30.719  33.891  1.00  0.00     0.049 A 
ATOM     59  C   UNL A   1      43.004  27.528  29.031  1.00  0.00     0.074 A 
ATOM     60  C   UNL A   1      43.998  32.053  33.618  1.00  0.00     0.029 A 
ATOM     61  N   UNL A   1      44.461  30.014  32.938  1.00  0.00    -0.354 N 
ATOM     62  N   UNL A   1      43.797  28.555  28.870  1.00  0.00    -0.248 NA
ATOM     63  C   UNL A   1      43.115  26.852  30.315  1.00  0.00     0.031 C 
ATOM     64  C   UNL A   1      44.409  32.083  32.253  1.00  0.00     0.029 A 
ATOM     65  C   UNL A   1      44.488  30.767  31.793  1.00  0.00     0.049 A 
ATOM     66  H   UNL A   1      44.870  29.127  33.059  1.00  0.00     0.167 HD
ATOM     67  C   UNL A   1      44.184  28.914  30.154  1.00  0.00     0.074 A 
ATOM     68  C   UNL A   1      43.785  27.787  30.996  1.00  0.00     0.031 C 
ATOM     69  C   UNL A   1      44.516  30.205  30.459  1.00  0.00     0.037 A 
BRANCH  56  70
ATOM     70  C   UNL A   1      43.134  28.790  35.498  1.00  0.00     0.058 A 
ATOM     71  C   UNL A   1      43.900  28.993  36.668  1.00  0.00     0.135 A 
ATOM     72  C   UNL A   1      43.035  27.445  35.075  1.00  0.00     0.135 A 
ATOM     73  F   UNL A   1      44.045  30.223  37.188  1.00  0.00    -0.206 F 
ATOM     74  C   UNL A   1      44.611  27.965  37.288  1.00  0.00     0.059 A 
ATOM     75  C   UNL A   1      43.694  26.398  35.708  1.00  0.00     0.059 A 
ATOM     76  F   UNL A   1      42.372  27.074  33.974  1.00  0.00    -0.206 F 
ATOM     77  C   UNL A   1      44.521  26.674  36.781  1.00  0.00     0.060 A 
BRANCH  77  78
ATOM     78  S   UNL A   1      45.539  25.369  37.489  1.00  0.00     0.124 S 
ATOM     79  O   UNL A   1      44.855  25.124  38.752  1.00  0.00    -0.237 OA
ATOM     80  O   UNL A   1      45.423  24.320  36.481  1.00  0.00    -0.237 OA
ATOM     81  O   UNL A   1      46.855  25.993  37.591  1.00  0.00    -0.744 OA
ENDBRANCH  77  78
ENDBRANCH  56  70
BRANCH  57  82
ATOM     82  C   UNL A   1      41.375  26.045  27.622  1.00  0.00     0.058 A 
ATOM     83  C   UNL A   1      42.246  25.393  26.729  1.00  0.00     0.135 A 
ATOM     84  C   UNL A   1      40.287  25.278  28.090  1.00  0.00     0.135 A 
ATOM     85  F   UNL A   1      43.319  26.038  26.247  1.00  0.00    -0.206 F 
ATOM     86  C   UNL A   1      42.079  24.050  26.362  1.00  0.00     0.059 A 
ATOM     87  C   UNL A   1      40.096  23.943  27.734  1.00  0.00     0.059 A 
ATOM     88  F   UNL A   1      39.424  25.777  28.989  1.00  0.00    -0.206 F 
ATOM     89  C   UNL A   1      41.010  23.327  26.889  1.00  0.00     0.060 A 
BRANCH  89  90
ATOM     90  S   UNL A   1      40.884  21.548  26.573  1.00  0.00     0.124 S 
ATOM     91  O   UNL A   1      41.216  20.985  27.876  1.00  0.00    -0.237 OA
ATOM     92  O   UNL A   1      39.496  21.406  26.149  1.00  0.00    -0.237 OA
ATOM     93  O   UNL A   1      41.878  21.325  25.524  1.00  0.00    -0.744 OA
ENDBRANCH  89  90
ENDBRANCH  57  82
BRANCH  69  94
ATOM     94  C   UNL A   1      44.729  31.179  29.325  1.00  0.00     0.058 A 
ATOM     95  C   UNL A   1      45.894  31.255  28.538  1.00  0.00     0.135 A 
ATOM     96  C   UNL A   1      43.633  31.951  28.914  1.00  0.00     0.135 A 
ATOM     97  F   UNL A   1      46.954  30.479  28.799  1.00  0.00    -0.206 F 
ATOM     98  C   UNL A   1      45.974  32.086  27.417  1.00  0.00     0.059 A 
ATOM     99  C   UNL A   1      43.680  32.761  27.783  1.00  0.00     0.059 A 
ATOM    100  F   UNL A   1      42.472  31.876  29.584  1.00  0.00    -0.206 F 
ATOM    101  C   UNL A   1      44.859  32.834  27.045  1.00  0.00     0.060 A 
BRANCH 101 102
ATOM    102  S   UNL A   1      44.933  33.855  25.557  1.00  0.00     0.124 S 
ATOM    103  O   UNL A   1      44.401  32.954  24.540  1.00  0.00    -0.237 OA
ATOM    104  O   UNL A   1      44.082  34.989  25.908  1.00  0.00    -0.237 OA
ATOM    105  O   UNL A   1      46.353  34.170  25.430  1.00  0.00    -0.744 OA
ENDBRANCH 101 102
ENDBRANCH  69  94
ENDBRANCH  43  44
ENDBRANCH  35  38
ENDBRANCH  33  34
ENDBRANCH  32  33
ENDBRANCH  31  32
ENDBRANCH   1  31
TORSDOF 22
ENDMDL
MODEL 2
REMARK VINA RESULT:     -11.4      3.146      9.373
REMARK SMILES COc1ccccc1[C@@H]1CN(C(=O)CCc2cc(Cl)no2)C[C@H]1C(=O)NCCCCCCNC(=O)c1ccc(-c2c3nc(c(-c4c(F)cc(S(=O)(=O)[O-])cc4F)c4ccc([nH]4)c(-c4c(F)cc(S(=O)(=O)[O-])cc4F)c4nc(c(-c5c(F)cc(S(=O)(=O)[O-])cc5F)c5ccc2[nH]5)C=C4)C=C3)cc1
REMARK SMILES IDX 29 1 28 2 27 3 26 4 24 5 25 6 23 8 9 9 10 10 11 11 22 12
REMARK SMILES IDX 8 13 3 14 4 15 5 16 7 17 6 18 2 19 1 20 12 21 13 22 14 23
REMARK SMILES IDX 15 24 16 25 17 26 21 27 18 28 20 29 19 30 30 31 31 32 32 33
REMARK SMILES IDX 33 34 34 35 35 37 36 38 37 39 101 40 38 41 100 42 39 43
REMARK SMILES IDX 40 44 41 45 94 46 42 47 99 48 93 49 95 50 43 51 98 52 92 53
REMARK SMILES IDX 91 54 44 56 78 57 57 58 77 59 58 60 61 61 76 62 96 63 59 64
REMARK SMILES IDX 60 65 75 67 97 68 62 69 45 70 46 71 55 72 47 73 48 74 54 75
REMARK SMILES IDX 56 76 49 77 50 78 51 79 52 80 53 81 79 82 80 83 89 84 81 85
REMARK SMILES IDX 82 86 88 87 90 88 83 89 84 90 85 91 86 92 87 93 63 94 64 95
REMARK SMILES IDX 73 96 65 97 66 98 72 99 74 100 67 101 68 102 69 103 70 104
REMARK SMILES IDX 71 105
REMARK H PARENT 26 7 33 36 95 55 61 66
REMARK Flexibility Score: inf
ROOT
ATOM      1  C   UNL A   1      37.173  22.812  25.438  1.00  0.00     0.002 C 
ENDROOT
BRANCH   1   2
ATOM      2  C   UNL A   1      36.277  22.553  24.226  1.00  0.00     0.021 C 
BRANCH   2   3
ATOM      3  C   UNL A   1      35.111  23.526  24.107  1.00  0.00     0.116 C 
BRANCH   3   4
ATOM      4  N   UNL A   1      34.696  23.677  22.728  1.00  0.00    -0.356 N 
ATOM      5  C   UNL A   1      33.482  23.523  22.148  1.00  0.00     0.225 C 
ATOM      6  O   UNL A   1      33.407  23.719  20.931  1.00  0.00    -0.275 OA
ATOM      7  H   UNL A   1      35.417  23.933  22.109  1.00  0.00     0.163 HD
BRANCH   5   8
ATOM      8  C   UNL A   1      32.248  23.158  22.943  1.00  0.00     0.107 C 
ATOM      9  C   UNL A   1      32.532  22.532  24.318  1.00  0.00     0.057 C 
ATOM     10  C   UNL A   1      31.484  23.123  25.246  1.00  0.00     0.128 C 
ATOM     11  N   UNL A   1      31.076  24.374  24.641  1.00  0.00    -0.341 N 
ATOM     12  C   UNL A   1      31.345  24.370  23.210  1.00  0.00     0.133 C 
BRANCH   9  13
ATOM     13  C   UNL A   1      32.653  21.027  24.466  1.00  0.00    -0.000 A 
ATOM     14  C   UNL A   1      33.314  20.304  25.477  1.00  0.00     0.122 A 
ATOM     15  C   UNL A   1      33.416  18.903  25.377  1.00  0.00     0.047 A 
ATOM     16  C   UNL A   1      32.936  18.209  24.269  1.00  0.00     0.004 A 
ATOM     17  C   UNL A   1      32.180  20.289  23.347  1.00  0.00     0.008 A 
ATOM     18  C   UNL A   1      32.337  18.908  23.238  1.00  0.00     0.001 A 
BRANCH  14  19
ATOM     19  O   UNL A   1      34.145  20.791  26.448  1.00  0.00    -0.496 OA
ATOM     20  C   UNL A   1      33.629  21.597  27.484  1.00  0.00     0.278 C 
ENDBRANCH  14  19
ENDBRANCH   9  13
BRANCH  11  21
ATOM     21  C   UNL A   1      30.392  25.405  25.244  1.00  0.00     0.223 C 
ATOM     22  O   UNL A   1      29.840  25.255  26.337  1.00  0.00    -0.275 OA
BRANCH  21  23
ATOM     23  C   UNL A   1      30.281  26.737  24.513  1.00  0.00     0.108 C 
BRANCH  23  24
ATOM     24  C   UNL A   1      28.922  26.968  23.856  1.00  0.00     0.088 C 
BRANCH  24  25
ATOM     25  C   UNL A   1      28.860  28.200  23.031  1.00  0.00     0.138 A 
ATOM     26  C   UNL A   1      27.942  29.213  22.867  1.00  0.00     0.089 A 
ATOM     27  O   UNL A   1      29.920  28.420  22.203  1.00  0.00    -0.360 OA
ATOM     28  C   UNL A   1      28.494  30.008  21.845  1.00  0.00     0.172 A 
ATOM     29  N   UNL A   1      29.693  29.565  21.457  1.00  0.00    -0.068 NA
ATOM     30  Cl  UNL A   1      27.770  31.350  21.117  1.00  0.00    -0.058 Cl
ENDBRANCH  24  25
ENDBRANCH  23  24
ENDBRANCH  21  23
ENDBRANCH  11  21
ENDBRANCH   5   8
ENDBRANCH   3   4
ENDBRANCH   2   3
ENDBRANCH   1   2
BRANCH   1  31
ATOM     31  C   UNL A   1      38.349  21.837  25.608  1.00  0.00     0.002 C 
BRANCH  31  32
ATOM     32  C   UNL A   1      39.533  22.333  26.450  1.00  0.00     0.021 C 
BRANCH  32  33
ATOM     33  C   UNL A   1      40.595  21.276  26.684  1.00  0.00     0.116 C 
BRANCH  33  34
ATOM     34  N   UNL A   1      41.739  21.438  25.789  1.00  0.00    -0.352 N 
ATOM     35  C   UNL A   1      42.449  22.590  25.496  1.00  0.00     0.251 C 
ATOM     36  H   UNL A   1      42.046  20.620  25.334  1.00  0.00     0.163 HD
ATOM     37  O   UNL A   1      43.115  22.675  24.481  1.00  0.00    -0.269 OA
BRANCH  35  38
ATOM     38  C   UNL A   1      42.384  23.704  26.458  1.00  0.00     0.039 A 
ATOM     39  C   UNL A   1      43.013  23.658  27.705  1.00  0.00     0.014 A 
ATOM     40  C   UNL A   1      41.684  24.835  26.058  1.00  0.00     0.014 A 
ATOM     41  C   UNL A   1      42.965  24.791  28.516  1.00  0.00     0.010 A 
ATOM     42  C   UNL A   1      41.854  26.006  26.732  1.00  0.00     0.010 A 
ATOM     43  C   UNL A   1      42.382  25.962  28.012  1.00  0.00    -0.014 A 
BRANCH  43  44
ATOM     44  C   UNL A   1      42.363  27.215  28.753  1.00  0.00     0.031 A 
ATOM     45  C   UNL A   1      43.468  28.140  28.392  1.00  0.00     0.074 A 
ATOM     46  C   UNL A   1      41.272  27.584  29.465  1.00  0.00     0.049 A 
ATOM     47  N   UNL A   1      44.463  28.512  29.126  1.00  0.00    -0.248 NA
ATOM     48  C   UNL A   1      43.589  28.553  26.982  1.00  0.00     0.031 C 
ATOM     49  C   UNL A   1      39.992  26.872  29.608  1.00  0.00     0.029 A 
ATOM     50  N   UNL A   1      41.020  28.751  30.116  1.00  0.00    -0.354 N 
ATOM     51  C   UNL A   1      45.179  29.422  28.352  1.00  0.00     0.074 A 
ATOM     52  C   UNL A   1      44.753  29.208  26.998  1.00  0.00     0.031 C 
ATOM     53  C   UNL A   1      39.044  27.713  30.075  1.00  0.00     0.029 A 
ATOM     54  C   UNL A   1      39.678  28.965  30.434  1.00  0.00     0.049 A 
ATOM     55  H   UNL A   1      41.730  29.393  30.346  1.00  0.00     0.167 HD
ATOM     56  C   UNL A   1      45.834  30.469  28.932  1.00  0.00     0.037 A 
ATOM     57  C   UNL A   1      39.138  30.111  30.925  1.00  0.00     0.037 A 
ATOM     58  C   UNL A   1      45.979  30.248  30.353  1.00  0.00     0.049 A 
ATOM     59  C   UNL A   1      40.265  30.895  31.497  1.00  0.00     0.074 A 
ATOM     60  C   UNL A   1      46.568  29.270  31.131  1.00  0.00     0.029 A 
ATOM     61  N   UNL A   1      45.111  30.914  31.188  1.00  0.00    -0.354 N 
ATOM     62  N   UNL A   1      40.968  30.499  32.526  1.00  0.00    -0.248 NA
ATOM     63  C   UNL A   1      40.928  31.850  30.623  1.00  0.00     0.031 C 
ATOM     64  C   UNL A   1      45.678  29.084  32.229  1.00  0.00     0.029 A 
ATOM     65  C   UNL A   1      44.644  30.016  32.112  1.00  0.00     0.049 A 
ATOM     66  H   UNL A   1      44.868  31.866  31.130  1.00  0.00     0.167 HD
ATOM     67  C   UNL A   1      42.283  30.808  32.203  1.00  0.00     0.074 A 
ATOM     68  C   UNL A   1      42.186  31.699  31.047  1.00  0.00     0.031 C 
ATOM     69  C   UNL A   1      43.326  30.083  32.708  1.00  0.00     0.037 A 
BRANCH  56  70
ATOM     70  C   UNL A   1      45.961  31.853  28.322  1.00  0.00     0.058 A 
ATOM     71  C   UNL A   1      47.237  32.459  28.285  1.00  0.00     0.135 A 
ATOM     72  C   UNL A   1      44.879  32.722  28.053  1.00  0.00     0.135 A 
ATOM     73  F   UNL A   1      48.347  31.731  28.496  1.00  0.00    -0.206 F 
ATOM     74  C   UNL A   1      47.411  33.833  28.123  1.00  0.00     0.059 A 
ATOM     75  C   UNL A   1      45.035  34.085  27.837  1.00  0.00     0.059 A 
ATOM     76  F   UNL A   1      43.602  32.324  28.072  1.00  0.00    -0.206 F 
ATOM     77  C   UNL A   1      46.298  34.641  27.925  1.00  0.00     0.060 A 
BRANCH  77  78
ATOM     78  S   UNL A   1      46.500  36.428  27.850  1.00  0.00     0.124 S 
ATOM     79  O   UNL A   1      45.903  36.838  29.115  1.00  0.00    -0.237 OA
ATOM     80  O   UNL A   1      47.950  36.561  27.750  1.00  0.00    -0.237 OA
ATOM     81  O   UNL A   1      45.756  36.797  26.650  1.00  0.00    -0.744 OA
ENDBRANCH  77  78
ENDBRANCH  56  70
BRANCH  57  82
ATOM     82  C   UNL A   1      37.821  30.721  30.585  1.00  0.00     0.058 A 
ATOM     83  C   UNL A   1      36.888  31.059  31.583  1.00  0.00     0.135 A 
ATOM     84  C   UNL A   1      37.568  31.249  29.301  1.00  0.00     0.135 A 
ATOM     85  F   UNL A   1      37.057  30.619  32.839  1.00  0.00    -0.206 F 
ATOM     86  C   UNL A   1      35.800  31.909  31.337  1.00  0.00     0.059 A 
ATOM     87  C   UNL A   1      36.488  32.090  29.031  1.00  0.00     0.059 A 
ATOM     88  F   UNL A   1      38.420  31.040  28.286  1.00  0.00    -0.206 F 
ATOM     89  C   UNL A   1      35.622  32.438  30.060  1.00  0.00     0.060 A 
BRANCH  89  90
ATOM     90  S   UNL A   1      34.334  33.678  29.770  1.00  0.00     0.124 S 
ATOM     91  O   UNL A   1      35.067  34.711  29.047  1.00  0.00    -0.237 OA
ATOM     92  O   UNL A   1      33.352  32.929  28.995  1.00  0.00    -0.237 OA
ATOM     93  O   UNL A   1      33.912  34.042  31.121  1.00  0.00    -0.744 OA
ENDBRANCH  89  90
ENDBRANCH  57  82
BRANCH  69  94
ATOM     94  C   UNL A   1      43.051  29.121  33.839  1.00  0.00     0.058 A 
ATOM     95  C   UNL A   1      42.982  29.478  35.199  1.00  0.00     0.135 A 
ATOM     96  C   UNL A   1      42.674  27.813  33.506  1.00  0.00     0.135 A 
ATOM     97  F   UNL A   1      43.229  30.734  35.596  1.00  0.00    -0.206 F 
ATOM     98  C   UNL A   1      42.590  28.566  36.183  1.00  0.00     0.059 A 
ATOM     99  C   UNL A   1      42.249  26.897  34.465  1.00  0.00     0.059 A 
ATOM    100  F   UNL A   1      42.657  27.427  32.220  1.00  0.00    -0.206 F 
ATOM    101  C   UNL A   1      42.222  27.277  35.805  1.00  0.00     0.060 A 
BRANCH 101 102
ATOM    102  S   UNL A   1      41.646  26.115  37.062  1.00  0.00     0.124 S 
ATOM    103  O   UNL A   1      42.693  26.215  38.074  1.00  0.00    -0.237 OA
ATOM    104  O   UNL A   1      40.348  26.670  37.436  1.00  0.00    -0.237 OA
ATOM    105  O   UNL A   1      41.587  24.842  36.350  1.00  0.00    -0.744 OA
ENDBRANCH 101 102
ENDBRANCH  69  94
ENDBRANCH  43  44
ENDBRANCH  35  38
ENDBRANCH  33  34
ENDBRANCH  32  33
ENDBRANCH  31  32
ENDBRANCH   1  31
TORSDOF 22
ENDMDL
MODEL 3
REMARK VINA RESULT:     -10.2      6.091     11.067
REMARK SMILES COc1ccccc1[C@@H]1CN(C(=O)CCc2cc(Cl)no2)C[C@H]1C(=O)NCCCCCCNC(=O)c1ccc(-c2c3nc(c(-c4c(F)cc(S(=O)(=O)[O-])cc4F)c4ccc([nH]4)c(-c4c(F)cc(S(=O)(=O)[O-])cc4F)c4nc(c(-c5c(F)cc(S(=O)(=O)[O-])cc5F)c5ccc2[nH]5)C=C4)C=C3)cc1
REMARK SMILES IDX 29 1 28 2 27 3 26 4 24 5 25 6 23 8 9 9 10 10 11 11 22 12
REMARK SMILES IDX 8 13 3 14 4 15 5 16 7 17 6 18 2 19 1 20 12 21 13 22 14 23
REMARK SMILES IDX 15 24 16 25 17 26 21 27 18 28 20 29 19 30 30 31 31 32 32 33
REMARK SMILES IDX 33 34 34 35 35 37 36 38 37 39 101 40 38 41 100 42 39 43
REMARK SMILES IDX 40 44 41 45 94 46 42 47 99 48 93 49 95 50 43 51 98 52 92 53
REMARK SMILES IDX 91 54 44 56 78 57 57 58 77 59 58 60 61 61 76 62 96 63 59 64
REMARK SMILES IDX 60 65 75 67 97 68 62 69 45 70 46 71 55 72 47 73 48 74 54 75
REMARK SMILES IDX 56 76 49 77 50 78 51 79 52 80 53 81 79 82 80 83 89 84 81 85
REMARK SMILES IDX 82 86 88 87 90 88 83 89 84 90 85 91 86 92 87 93 63 94 64 95
REMARK SMILES IDX 73 96 65 97 66 98 72 99 74 100 67 101 68 102 69 103 70 104
REMARK SMILES IDX 71 105
REMARK H PARENT 26 7 33 36 95 55 61 66
REMARK Flexibility Score: inf
ROOT
ATOM      1  C   UNL A   1      45.660  25.865  33.982  1.00  0.00     0.002 C 
ENDROOT
BRANCH   1   2
ATOM      2  C   UNL A   1      45.009  26.606  32.813  1.00  0.00     0.021 C 
BRANCH   2   3
ATOM      3  C   UNL A   1      44.847  25.752  31.561  1.00  0.00     0.116 C 
BRANCH   3   4
ATOM      4  N   UNL A   1      46.043  25.790  30.746  1.00  0.00    -0.356 N 
ATOM      5  C   UNL A   1      46.222  25.554  29.425  1.00  0.00     0.225 C 
ATOM      6  O   UNL A   1      47.368  25.661  28.980  1.00  0.00    -0.275 OA
ATOM      7  H   UNL A   1      46.864  26.028  31.235  1.00  0.00     0.163 HD
BRANCH   5   8
ATOM      8  C   UNL A   1      45.072  25.202  28.506  1.00  0.00     0.107 C 
ATOM      9  C   UNL A   1      44.528  26.378  27.679  1.00  0.00     0.057 C 
ATOM     10  C   UNL A   1      44.223  25.791  26.311  1.00  0.00     0.128 C 
ATOM     11  N   UNL A   1      45.062  24.618  26.183  1.00  0.00    -0.341 N 
ATOM     12  C   UNL A   1      45.447  24.111  27.493  1.00  0.00     0.133 C 
BRANCH   9  13
ATOM     13  C   UNL A   1      43.391  27.229  28.210  1.00  0.00    -0.000 A 
ATOM     14  C   UNL A   1      42.164  26.802  28.751  1.00  0.00     0.122 A 
ATOM     15  C   UNL A   1      41.181  27.754  29.084  1.00  0.00     0.047 A 
ATOM     16  C   UNL A   1      41.360  29.112  28.834  1.00  0.00     0.004 A 
ATOM     17  C   UNL A   1      43.539  28.622  27.963  1.00  0.00     0.008 A 
ATOM     18  C   UNL A   1      42.535  29.545  28.249  1.00  0.00     0.001 A 
BRANCH  14  19
ATOM     19  O   UNL A   1      41.646  25.536  28.753  1.00  0.00    -0.496 OA
ATOM     20  C   UNL A   1      40.913  25.068  27.643  1.00  0.00     0.278 C 
ENDBRANCH  14  19
ENDBRANCH   9  13
BRANCH  11  21
ATOM     21  C   UNL A   1      45.371  23.937  25.027  1.00  0.00     0.223 C 
ATOM     22  O   UNL A   1      46.434  24.135  24.433  1.00  0.00    -0.275 OA
BRANCH  21  23
ATOM     23  C   UNL A   1      44.351  22.961  24.457  1.00  0.00     0.108 C 
BRANCH  23  24
ATOM     24  C   UNL A   1      44.972  21.704  23.853  1.00  0.00     0.088 C 
BRANCH  24  25
ATOM     25  C   UNL A   1      44.634  20.459  24.587  1.00  0.00     0.138 A 
ATOM     26  C   UNL A   1      43.577  20.049  25.369  1.00  0.00     0.089 A 
ATOM     27  O   UNL A   1      45.561  19.461  24.532  1.00  0.00    -0.360 OA
ATOM     28  C   UNL A   1      43.967  18.776  25.825  1.00  0.00     0.172 A 
ATOM     29  N   UNL A   1      45.138  18.395  25.309  1.00  0.00    -0.068 NA
ATOM     30  Cl  UNL A   1      43.128  17.805  26.924  1.00  0.00    -0.058 Cl
ENDBRANCH  24  25
ENDBRANCH  23  24
ENDBRANCH  21  23
ENDBRANCH  11  21
ENDBRANCH   5   8
ENDBRANCH   3   4
ENDBRANCH   2   3
ENDBRANCH   1   2
BRANCH   1  31
ATOM     31  C   UNL A   1      45.429  24.346  34.009  1.00  0.00     0.002 C 
BRANCH  31  32
ATOM     32  C   UNL A   1      44.121  23.864  34.654  1.00  0.00     0.021 C 
BRANCH  32  33
ATOM     33  C   UNL A   1      43.946  24.327  36.087  1.00  0.00     0.116 C 
BRANCH  33  34
ATOM     34  N   UNL A   1      42.587  24.100  36.576  1.00  0.00    -0.352 N 
ATOM     35  C   UNL A   1      41.563  25.018  36.735  1.00  0.00     0.251 C 
ATOM     36  H   UNL A   1      42.371  23.173  36.827  1.00  0.00     0.163 HD
ATOM     37  O   UNL A   1      40.629  24.794  37.484  1.00  0.00    -0.269 OA
BRANCH  35  38
ATOM     38  C   UNL A   1      41.630  26.268  35.957  1.00  0.00     0.039 A 
ATOM     39  C   UNL A   1      41.211  26.349  34.626  1.00  0.00     0.014 A 
ATOM     40  C   UNL A   1      42.108  27.391  36.620  1.00  0.00     0.014 A 
ATOM     41  C   UNL A   1      41.236  27.592  33.996  1.00  0.00     0.010 A 
ATOM     42  C   UNL A   1      41.893  28.628  36.091  1.00  0.00     0.010 A 
ATOM     43  C   UNL A   1      41.578  28.726  34.745  1.00  0.00    -0.014 A 
BRANCH  43  44
ATOM     44  C   UNL A   1      41.549  30.073  34.195  1.00  0.00     0.031 A 
ATOM     45  C   UNL A   1      42.734  30.405  33.362  1.00  0.00     0.074 A 
ATOM     46  C   UNL A   1      40.411  30.807  34.213  1.00  0.00     0.049 A 
ATOM     47  N   UNL A   1      43.666  31.263  33.613  1.00  0.00    -0.248 NA
ATOM     48  C   UNL A   1      43.024  29.544  32.200  1.00  0.00     0.031 C 
ATOM     49  C   UNL A   1      39.087  30.423  34.728  1.00  0.00     0.029 A 
ATOM     50  N   UNL A   1      40.156  32.019  33.653  1.00  0.00    -0.354 N 
ATOM     51  C   UNL A   1      44.507  31.239  32.503  1.00  0.00     0.074 A 
ATOM     52  C   UNL A   1      44.213  30.013  31.814  1.00  0.00     0.031 C 
ATOM     53  C   UNL A   1      38.142  31.257  34.241  1.00  0.00     0.029 A 
ATOM     54  C   UNL A   1      38.802  32.334  33.532  1.00  0.00     0.049 A 
ATOM     55  H   UNL A   1      40.872  32.627  33.357  1.00  0.00     0.167 HD
ATOM     56  C   UNL A   1      45.153  32.367  32.091  1.00  0.00     0.037 A 
ATOM     57  C   UNL A   1      38.276  33.391  32.861  1.00  0.00     0.037 A 
ATOM     58  C   UNL A   1      45.136  33.367  33.135  1.00  0.00     0.049 A 
ATOM     59  C   UNL A   1      39.377  34.378  32.703  1.00  0.00     0.074 A 
ATOM     60  C   UNL A   1      45.588  33.419  34.440  1.00  0.00     0.029 A 
ATOM     61  N   UNL A   1      44.223  34.389  33.016  1.00  0.00    -0.354 N 
ATOM     62  N   UNL A   1      39.946  34.989  33.709  1.00  0.00    -0.248 NA
ATOM     63  C   UNL A   1      40.178  34.299  31.491  1.00  0.00     0.031 C 
ATOM     64  C   UNL A   1      44.578  34.132  35.151  1.00  0.00     0.029 A 
ATOM     65  C   UNL A   1      43.614  34.553  34.233  1.00  0.00     0.049 A 
ATOM     66  H   UNL A   1      44.038  34.909  32.201  1.00  0.00     0.167 HD
ATOM     67  C   UNL A   1      41.302  34.987  33.409  1.00  0.00     0.074 A 
ATOM     68  C   UNL A   1      41.375  34.607  31.999  1.00  0.00     0.031 C 
ATOM     69  C   UNL A   1      42.246  34.999  34.398  1.00  0.00     0.037 A 
BRANCH  56  70
ATOM     70  C   UNL A   1      45.416  32.731  30.641  1.00  0.00     0.058 A 
ATOM     71  C   UNL A   1      44.328  32.740  29.740  1.00  0.00     0.135 A 
ATOM     72  C   UNL A   1      46.693  32.777  30.037  1.00  0.00     0.135 A 
ATOM     73  F   UNL A   1      43.063  32.729  30.194  1.00  0.00    -0.206 F 
ATOM     74  C   UNL A   1      44.497  32.670  28.358  1.00  0.00     0.059 A 
ATOM     75  C   UNL A   1      46.883  32.760  28.660  1.00  0.00     0.059 A 
ATOM     76  F   UNL A   1      47.832  32.748  30.736  1.00  0.00    -0.206 F 
ATOM     77  C   UNL A   1      45.783  32.654  27.830  1.00  0.00     0.060 A 
BRANCH  77  78
ATOM     78  S   UNL A   1      46.012  32.427  26.059  1.00  0.00     0.124 S 
ATOM     79  O   UNL A   1      46.684  33.669  25.695  1.00  0.00    -0.237 OA
ATOM     80  O   UNL A   1      46.828  31.218  26.015  1.00  0.00    -0.237 OA
ATOM     81  O   UNL A   1      44.647  32.277  25.563  1.00  0.00    -0.744 OA
ENDBRANCH  77  78
ENDBRANCH  56  70
BRANCH  57  82
ATOM     82  C   UNL A   1      37.036  33.426  32.034  1.00  0.00     0.058 A 
ATOM     83  C   UNL A   1      35.994  34.332  32.307  1.00  0.00     0.135 A 
ATOM     84  C   UNL A   1      36.969  32.769  30.786  1.00  0.00     0.135 A 
ATOM     85  F   UNL A   1      35.985  35.017  33.460  1.00  0.00    -0.206 F 
ATOM     86  C   UNL A   1      34.978  34.610  31.381  1.00  0.00     0.059 A 
ATOM     87  C   UNL A   1      35.964  33.024  29.853  1.00  0.00     0.059 A 
ATOM     88  F   UNL A   1      37.936  31.926  30.395  1.00  0.00    -0.206 F 
ATOM     89  C   UNL A   1      34.986  33.965  30.146  1.00  0.00     0.060 A 
BRANCH  89  90
ATOM     90  S   UNL A   1      33.791  34.446  28.872  1.00  0.00     0.124 S 
ATOM     91  O   UNL A   1      32.661  34.897  29.673  1.00  0.00    -0.237 OA
ATOM     92  O   UNL A   1      34.515  35.483  28.144  1.00  0.00    -0.237 OA
ATOM     93  O   UNL A   1      33.576  33.205  28.131  1.00  0.00    -0.744 OA
ENDBRANCH  89  90
ENDBRANCH  57  82
BRANCH  69  94
ATOM     94  C   UNL A   1      41.804  35.299  35.810  1.00  0.00     0.058 A 
ATOM     95  C   UNL A   1      41.270  34.351  36.705  1.00  0.00     0.135 A 
ATOM     96  C   UNL A   1      42.097  36.568  36.330  1.00  0.00     0.135 A 
ATOM     97  F   UNL A   1      41.052  33.086  36.320  1.00  0.00    -0.206 F 
ATOM     98  C   UNL A   1      41.008  34.663  38.041  1.00  0.00     0.059 A 
ATOM     99  C   UNL A   1      41.874  36.891  37.666  1.00  0.00     0.059 A 
ATOM    100  F   UNL A   1      42.666  37.497  35.546  1.00  0.00    -0.206 F 
ATOM    101  C   UNL A   1      41.317  35.937  38.514  1.00  0.00     0.060 A 
BRANCH 101 102
ATOM    102  S   UNL A   1      41.047  36.325  40.257  1.00  0.00     0.124 S 
ATOM    103  O   UNL A   1      39.610  36.117  40.398  1.00  0.00    -0.237 OA
ATOM    104  O   UNL A   1      41.898  35.350  40.934  1.00  0.00    -0.237 OA
ATOM    105  O   UNL A   1      41.492  37.711  40.372  1.00  0.00    -0.744 OA
ENDBRANCH 101 102
ENDBRANCH  69  94
ENDBRANCH  43  44
ENDBRANCH  35  38
ENDBRANCH  33  34
ENDBRANCH  32  33
ENDBRANCH  31  32
ENDBRANCH   1  31
TORSDOF 22
ENDMDL
