MODEL 1
REMARK VINA RESULT:     -11.6      0.000      0.000
REMARK SMILES COc1ccc(C(=O)Nc2cc(C(=O)NCCCCCCNC(=O)c3ccc(-c4c5nc(c(-c6c(F)cc(S(=O)(=O)[O-])cc6F)c6ccc([nH]6)c(-c6c(F)cc(S(=O)(=O)[O-])cc6F)c6nc(c(-c7c(F)cc(S(=O)(=O)[O-])cc7F)c7ccc4[nH]7)C=C6)C=C5)cc3)c(Cl)cc2Cl)cc1Cl
REMARK SMILES IDX 18 1 17 2 16 3 15 4 13 5 14 6 12 8 10 9 11 10 94 11 93 12
REMARK SMILES IDX 95 13 91 14 92 15 9 16 7 17 8 18 6 20 3 21 4 22 97 23 5 24
REMARK SMILES IDX 96 25 98 26 2 27 1 28 19 29 20 30 21 31 22 32 23 33 24 35
REMARK SMILES IDX 25 36 26 37 90 38 27 39 89 40 28 41 29 42 30 43 83 44 31 45
REMARK SMILES IDX 88 46 82 47 84 48 32 49 87 50 81 51 80 52 33 54 67 55 46 56
REMARK SMILES IDX 66 57 47 58 50 59 65 60 85 61 48 62 49 63 64 65 86 66 51 67
REMARK SMILES IDX 34 68 35 69 44 70 36 71 37 72 43 73 45 74 38 75 39 76 40 77
REMARK SMILES IDX 41 78 42 79 68 80 69 81 78 82 70 83 71 84 77 85 79 86 72 87
REMARK SMILES IDX 73 88 74 89 75 90 76 91 52 92 53 93 62 94 54 95 55 96 61 97
REMARK SMILES IDX 63 98 56 99 57 100 58 101 59 102 60 103
REMARK H PARENT 15 7 9 19 22 34 84 53 50 64
REMARK Flexibility Score: inf
ROOT
ATOM      1  C   UNL A   1      34.965  31.343  27.871  1.00  0.00     0.002 C 
ENDROOT
BRANCH   1   2
ATOM      2  C   UNL A   1      33.453  31.466  27.650  1.00  0.00     0.021 C 
BRANCH   2   3
ATOM      3  C   UNL A   1      32.800  30.461  26.701  1.00  0.00     0.116 C 
BRANCH   3   4
ATOM      4  N   UNL A   1      33.724  29.739  25.847  1.00  0.00    -0.352 N 
ATOM      5  C   UNL A   1      33.495  28.806  24.864  1.00  0.00     0.252 C 
ATOM      6  O   UNL A   1      34.452  28.384  24.213  1.00  0.00    -0.269 OA
ATOM      7  H   UNL A   1      34.674  29.952  25.997  1.00  0.00     0.163 HD
BRANCH   5   8
ATOM      8  C   UNL A   1      32.167  28.183  24.624  1.00  0.00     0.060 A 
ATOM      9  C   UNL A   1      30.561  26.527  25.465  1.00  0.00     0.061 A 
ATOM     10  C   UNL A   1      31.803  27.172  25.542  1.00  0.00     0.043 A 
ATOM     11  C   UNL A   1      29.703  26.851  24.405  1.00  0.00     0.066 A 
ATOM     12  C   UNL A   1      30.071  27.812  23.462  1.00  0.00     0.044 A 
ATOM     13  Cl  UNL A   1      28.144  26.116  24.259  1.00  0.00    -0.082 Cl
ATOM     14  C   UNL A   1      31.314  28.452  23.549  1.00  0.00     0.055 A 
ATOM     15  Cl  UNL A   1      31.748  29.443  22.206  1.00  0.00    -0.083 Cl
BRANCH   9  16
ATOM     16  N   UNL A   1      30.138  25.563  26.406  1.00  0.00    -0.321 N 
ATOM     17  C   UNL A   1      30.393  24.215  26.536  1.00  0.00     0.255 C 
ATOM     18  O   UNL A   1      29.677  23.541  27.277  1.00  0.00    -0.269 OA
ATOM     19  H   UNL A   1      29.546  25.924  27.104  1.00  0.00     0.170 HD
BRANCH  17  20
ATOM     20  C   UNL A   1      31.576  23.565  25.905  1.00  0.00     0.041 A 
ATOM     21  C   UNL A   1      33.848  22.301  24.805  1.00  0.00     0.137 A 
ATOM     22  C   UNL A   1      33.966  23.185  25.888  1.00  0.00     0.049 A 
ATOM     23  C   UNL A   1      32.579  22.075  24.262  1.00  0.00     0.083 A 
ATOM     24  C   UNL A   1      32.842  23.806  26.442  1.00  0.00     0.018 A 
ATOM     25  C   UNL A   1      31.473  22.769  24.762  1.00  0.00     0.038 A 
ATOM     26  Cl  UNL A   1      32.219  20.893  23.053  1.00  0.00    -0.080 Cl
BRANCH  21  27
ATOM     27  O   UNL A   1      35.035  21.723  24.451  1.00  0.00    -0.495 OA
ATOM     28  C   UNL A   1      36.194  22.123  25.172  1.00  0.00     0.278 C 
ENDBRANCH  21  27
ENDBRANCH  17  20
ENDBRANCH   9  16
ENDBRANCH   5   8
ENDBRANCH   3   4
ENDBRANCH   2   3
ENDBRANCH   1   2
BRANCH   1  29
ATOM     29  C   UNL A   1      35.799  32.625  27.807  1.00  0.00     0.002 C 
BRANCH  29  30
ATOM     30  C   UNL A   1      35.785  33.529  29.041  1.00  0.00     0.021 C 
BRANCH  30  31
ATOM     31  C   UNL A   1      36.786  33.191  30.141  1.00  0.00     0.116 C 
BRANCH  31  32
ATOM     32  N   UNL A   1      36.302  32.178  31.062  1.00  0.00    -0.352 N 
ATOM     33  C   UNL A   1      36.821  30.945  31.365  1.00  0.00     0.251 C 
ATOM     34  H   UNL A   1      35.475  32.412  31.543  1.00  0.00     0.163 HD
ATOM     35  O   UNL A   1      36.170  30.178  32.081  1.00  0.00    -0.269 OA
BRANCH  33  36
ATOM     36  C   UNL A   1      38.133  30.512  30.831  1.00  0.00     0.039 A 
ATOM     37  C   UNL A   1      38.278  30.356  29.449  1.00  0.00     0.014 A 
ATOM     38  C   UNL A   1      39.208  30.217  31.675  1.00  0.00     0.014 A 
ATOM     39  C   UNL A   1      39.504  29.949  28.914  1.00  0.00     0.010 A 
ATOM     40  C   UNL A   1      40.451  29.884  31.136  1.00  0.00     0.010 A 
ATOM     41  C   UNL A   1      40.610  29.730  29.751  1.00  0.00    -0.014 A 
BRANCH  41  42
ATOM     42  C   UNL A   1      41.925  29.319  29.191  1.00  0.00     0.031 A 
ATOM     43  C   UNL A   1      43.038  30.324  29.049  1.00  0.00     0.074 A 
ATOM     44  C   UNL A   1      42.105  28.054  28.761  1.00  0.00     0.049 A 
ATOM     45  N   UNL A   1      44.241  30.164  28.558  1.00  0.00    -0.248 NA
ATOM     46  C   UNL A   1      42.753  31.698  29.490  1.00  0.00     0.031 C 
ATOM     47  C   UNL A   1      41.088  27.001  28.788  1.00  0.00     0.029 A 
ATOM     48  N   UNL A   1      43.202  27.440  28.212  1.00  0.00    -0.354 N 
ATOM     49  C   UNL A   1      44.846  31.414  28.613  1.00  0.00     0.074 A 
ATOM     50  C   UNL A   1      43.859  32.334  29.135  1.00  0.00     0.031 C 
ATOM     51  C   UNL A   1      41.614  25.868  28.296  1.00  0.00     0.029 A 
ATOM     52  C   UNL A   1      42.994  26.119  27.892  1.00  0.00     0.049 A 
ATOM     53  H   UNL A   1      44.059  27.902  28.061  1.00  0.00     0.167 HD
ATOM     54  C   UNL A   1      46.113  31.762  28.281  1.00  0.00     0.037 A 
ATOM     55  C   UNL A   1      43.820  25.211  27.335  1.00  0.00     0.037 A 
ATOM     56  C   UNL A   1      47.099  30.835  27.789  1.00  0.00     0.049 A 
ATOM     57  C   UNL A   1      45.232  25.608  27.005  1.00  0.00     0.074 A 
ATOM     58  C   UNL A   1      48.431  31.070  27.495  1.00  0.00     0.029 A 
ATOM     59  N   UNL A   1      46.861  29.495  27.514  1.00  0.00    -0.354 N 
ATOM     60  N   UNL A   1      45.812  26.777  27.137  1.00  0.00    -0.248 NA
ATOM     61  C   UNL A   1      46.108  24.560  26.463  1.00  0.00     0.031 C 
ATOM     62  C   UNL A   1      48.986  29.885  26.997  1.00  0.00     0.029 A 
ATOM     63  C   UNL A   1      48.015  28.897  27.033  1.00  0.00     0.049 A 
ATOM     64  H   UNL A   1      45.999  29.037  27.642  1.00  0.00     0.167 HD
ATOM     65  C   UNL A   1      47.127  26.600  26.719  1.00  0.00     0.074 A 
ATOM     66  C   UNL A   1      47.259  25.208  26.342  1.00  0.00     0.031 C 
ATOM     67  C   UNL A   1      48.133  27.509  26.658  1.00  0.00     0.037 A 
BRANCH  54  68
ATOM     68  C   UNL A   1      46.500  33.209  28.433  1.00  0.00     0.058 A 
ATOM     69  C   UNL A   1      46.366  34.128  27.379  1.00  0.00     0.135 A 
ATOM     70  C   UNL A   1      47.005  33.688  29.654  1.00  0.00     0.135 A 
ATOM     71  F   UNL A   1      45.900  33.725  26.186  1.00  0.00    -0.206 F 
ATOM     72  C   UNL A   1      46.757  35.456  27.515  1.00  0.00     0.059 A 
ATOM     73  C   UNL A   1      47.373  35.020  29.821  1.00  0.00     0.059 A 
ATOM     74  F   UNL A   1      47.152  32.856  30.697  1.00  0.00    -0.206 F 
ATOM     75  C   UNL A   1      47.267  35.891  28.739  1.00  0.00     0.060 A 
BRANCH  75  76
ATOM     76  S   UNL A   1      47.791  37.611  28.894  1.00  0.00     0.124 S 
ATOM     77  O   UNL A   1      46.573  38.321  28.515  1.00  0.00    -0.237 OA
ATOM     78  O   UNL A   1      48.164  37.700  30.303  1.00  0.00    -0.237 OA
ATOM     79  O   UNL A   1      48.898  37.716  27.949  1.00  0.00    -0.744 OA
ENDBRANCH  75  76
ENDBRANCH  54  68
BRANCH  55  80
ATOM     80  C   UNL A   1      43.331  23.828  27.089  1.00  0.00     0.058 A 
ATOM     81  C   UNL A   1      43.320  22.871  28.115  1.00  0.00     0.135 A 
ATOM     82  C   UNL A   1      42.824  23.449  25.836  1.00  0.00     0.135 A 
ATOM     83  F   UNL A   1      43.800  23.183  29.329  1.00  0.00    -0.206 F 
ATOM     84  C   UNL A   1      42.828  21.586  27.908  1.00  0.00     0.059 A 
ATOM     85  C   UNL A   1      42.305  22.178  25.611  1.00  0.00     0.059 A 
ATOM     86  F   UNL A   1      42.798  24.333  24.826  1.00  0.00    -0.206 F 
ATOM     87  C   UNL A   1      42.316  21.252  26.653  1.00  0.00     0.060 A 
BRANCH  87  88
ATOM     88  S   UNL A   1      41.610  19.605  26.417  1.00  0.00     0.124 S 
ATOM     89  O   UNL A   1      40.193  19.911  26.267  1.00  0.00    -0.237 OA
ATOM     90  O   UNL A   1      42.297  19.149  25.212  1.00  0.00    -0.237 OA
ATOM     91  O   UNL A   1      41.980  18.904  27.643  1.00  0.00    -0.744 OA
ENDBRANCH  87  88
ENDBRANCH  55  80
BRANCH  67  92
ATOM     92  C   UNL A   1      49.478  27.020  26.193  1.00  0.00     0.058 A 
ATOM     93  C   UNL A   1      49.878  27.118  24.851  1.00  0.00     0.135 A 
ATOM     94  C   UNL A   1      50.396  26.485  27.112  1.00  0.00     0.135 A 
ATOM     95  F   UNL A   1      49.038  27.618  23.929  1.00  0.00    -0.206 F 
ATOM     96  C   UNL A   1      51.129  26.675  24.431  1.00  0.00     0.059 A 
ATOM     97  C   UNL A   1      51.662  26.063  26.719  1.00  0.00     0.059 A 
ATOM     98  F   UNL A   1      50.069  26.380  28.410  1.00  0.00    -0.206 F 
ATOM     99  C   UNL A   1      52.013  26.147  25.374  1.00  0.00     0.060 A 
BRANCH  99 100
ATOM    100  S   UNL A   1      53.640  25.595  24.820  1.00  0.00     0.124 S 
ATOM    101  O   UNL A   1      53.559  24.157  25.059  1.00  0.00    -0.237 OA
ATOM    102  O   UNL A   1      53.652  26.006  23.419  1.00  0.00    -0.237 OA
ATOM    103  O   UNL A   1      54.560  26.324  25.688  1.00  0.00    -0.744 OA
ENDBRANCH  99 100
ENDBRANCH  67  92
ENDBRANCH  41  42
ENDBRANCH  33  36
ENDBRANCH  31  32
ENDBRANCH  30  31
ENDBRANCH  29  30
ENDBRANCH   1  29
TORSDOF 19
ENDMDL
MODEL 2
REMARK VINA RESULT:     -11.3      0.593      8.014
REMARK SMILES COc1ccc(C(=O)Nc2cc(C(=O)NCCCCCCNC(=O)c3ccc(-c4c5nc(c(-c6c(F)cc(S(=O)(=O)[O-])cc6F)c6ccc([nH]6)c(-c6c(F)cc(S(=O)(=O)[O-])cc6F)c6nc(c(-c7c(F)cc(S(=O)(=O)[O-])cc7F)c7ccc4[nH]7)C=C6)C=C5)cc3)c(Cl)cc2Cl)cc1Cl
REMARK SMILES IDX 18 1 17 2 16 3 15 4 13 5 14 6 12 8 10 9 11 10 94 11 93 12
REMARK SMILES IDX 95 13 91 14 92 15 9 16 7 17 8 18 6 20 3 21 4 22 97 23 5 24
REMARK SMILES IDX 96 25 98 26 2 27 1 28 19 29 20 30 21 31 22 32 23 33 24 35
REMARK SMILES IDX 25 36 26 37 90 38 27 39 89 40 28 41 29 42 30 43 83 44 31 45
REMARK SMILES IDX 88 46 82 47 84 48 32 49 87 50 81 51 80 52 33 54 67 55 46 56
REMARK SMILES IDX 66 57 47 58 50 59 65 60 85 61 48 62 49 63 64 65 86 66 51 67
REMARK SMILES IDX 34 68 35 69 44 70 36 71 37 72 43 73 45 74 38 75 39 76 40 77
REMARK SMILES IDX 41 78 42 79 68 80 69 81 78 82 70 83 71 84 77 85 79 86 72 87
REMARK SMILES IDX 73 88 74 89 75 90 76 91 52 92 53 93 62 94 54 95 55 96 61 97
REMARK SMILES IDX 63 98 56 99 57 100 58 101 59 102 60 103
REMARK H PARENT 15 7 9 19 22 34 84 53 50 64
REMARK Flexibility Score: inf
ROOT
ATOM      1  C   UNL A   1      35.130  31.248  27.734  1.00  0.00     0.002 C 
ENDROOT
BRANCH   1   2
ATOM      2  C   UNL A   1      33.605  31.312  27.598  1.00  0.00     0.021 C 
BRANCH   2   3
ATOM      3  C   UNL A   1      32.930  30.226  26.760  1.00  0.00     0.116 C 
BRANCH   3   4
ATOM      4  N   UNL A   1      33.760  29.661  25.712  1.00  0.00    -0.352 N 
ATOM      5  C   UNL A   1      33.439  28.835  24.661  1.00  0.00     0.252 C 
ATOM      6  O   UNL A   1      34.316  28.547  23.846  1.00  0.00    -0.269 OA
ATOM      7  H   UNL A   1      34.711  29.910  25.763  1.00  0.00     0.163 HD
BRANCH   5   8
ATOM      8  C   UNL A   1      32.119  28.168  24.521  1.00  0.00     0.060 A 
ATOM      9  C   UNL A   1      30.644  26.447  25.466  1.00  0.00     0.061 A 
ATOM     10  C   UNL A   1      31.866  27.134  25.451  1.00  0.00     0.043 A 
ATOM     11  C   UNL A   1      29.692  26.753  24.484  1.00  0.00     0.066 A 
ATOM     12  C   UNL A   1      29.948  27.738  23.529  1.00  0.00     0.044 A 
ATOM     13  Cl  UNL A   1      28.152  25.964  24.455  1.00  0.00    -0.082 Cl
ATOM     14  C   UNL A   1      31.172  28.421  23.523  1.00  0.00     0.055 A 
ATOM     15  Cl  UNL A   1      31.459  29.442  22.165  1.00  0.00    -0.083 Cl
BRANCH   9  16
ATOM     16  N   UNL A   1      30.334  25.457  26.423  1.00  0.00    -0.321 N 
ATOM     17  C   UNL A   1      30.647  24.118  26.513  1.00  0.00     0.255 C 
ATOM     18  O   UNL A   1      30.018  23.409  27.299  1.00  0.00    -0.269 OA
ATOM     19  H   UNL A   1      29.786  25.787  27.172  1.00  0.00     0.170 HD
BRANCH  17  20
ATOM     20  C   UNL A   1      31.799  23.520  25.782  1.00  0.00     0.041 A 
ATOM     21  C   UNL A   1      34.022  22.357  24.487  1.00  0.00     0.137 A 
ATOM     22  C   UNL A   1      34.193  23.259  25.549  1.00  0.00     0.049 A 
ATOM     23  C   UNL A   1      32.722  22.063  24.064  1.00  0.00     0.083 A 
ATOM     24  C   UNL A   1      33.095  23.830  26.199  1.00  0.00     0.018 A 
ATOM     25  C   UNL A   1      31.633  22.707  24.658  1.00  0.00     0.038 A 
ATOM     26  Cl  UNL A   1      32.313  20.850  22.902  1.00  0.00    -0.080 Cl
BRANCH  21  27
ATOM     27  O   UNL A   1      35.199  21.834  24.030  1.00  0.00    -0.495 OA
ATOM     28  C   UNL A   1      36.314  22.715  23.949  1.00  0.00     0.278 C 
ENDBRANCH  21  27
ENDBRANCH  17  20
ENDBRANCH   9  16
ENDBRANCH   5   8
ENDBRANCH   3   4
ENDBRANCH   2   3
ENDBRANCH   1   2
BRANCH   1  29
ATOM     29  C   UNL A   1      35.888  32.573  27.859  1.00  0.00     0.002 C 
BRANCH  29  30
ATOM     30  C   UNL A   1      35.802  33.302  29.202  1.00  0.00     0.021 C 
BRANCH  30  31
ATOM     31  C   UNL A   1      36.810  32.884  30.266  1.00  0.00     0.116 C 
BRANCH  31  32
ATOM     32  N   UNL A   1      36.342  31.790  31.099  1.00  0.00    -0.352 N 
ATOM     33  C   UNL A   1      36.886  30.548  31.307  1.00  0.00     0.251 C 
ATOM     34  H   UNL A   1      35.505  31.967  31.589  1.00  0.00     0.163 HD
ATOM     35  O   UNL A   1      36.247  29.712  31.952  1.00  0.00    -0.269 OA
BRANCH  33  36
ATOM     36  C   UNL A   1      38.212  30.188  30.753  1.00  0.00     0.039 A 
ATOM     37  C   UNL A   1      38.376  30.164  29.365  1.00  0.00     0.014 A 
ATOM     38  C   UNL A   1      39.281  29.833  31.582  1.00  0.00     0.014 A 
ATOM     39  C   UNL A   1      39.616  29.829  28.811  1.00  0.00     0.010 A 
ATOM     40  C   UNL A   1      40.536  29.572  31.031  1.00  0.00     0.010 A 
ATOM     41  C   UNL A   1      40.715  29.551  29.639  1.00  0.00    -0.014 A 
BRANCH  41  42
ATOM     42  C   UNL A   1      42.044  29.216  29.062  1.00  0.00     0.031 A 
ATOM     43  C   UNL A   1      42.314  27.833  28.529  1.00  0.00     0.074 A 
ATOM     44  C   UNL A   1      43.027  30.139  29.061  1.00  0.00     0.049 A 
ATOM     45  N   UNL A   1      43.414  27.343  28.016  1.00  0.00    -0.248 NA
ATOM     46  C   UNL A   1      41.211  26.862  28.610  1.00  0.00     0.031 C 
ATOM     47  C   UNL A   1      42.912  31.494  29.602  1.00  0.00     0.029 A 
ATOM     48  N   UNL A   1      44.317  30.075  28.599  1.00  0.00    -0.354 N 
ATOM     49  C   UNL A   1      43.143  26.009  27.733  1.00  0.00     0.074 A 
ATOM     50  C   UNL A   1      41.792  25.752  28.181  1.00  0.00     0.031 C 
ATOM     51  C   UNL A   1      44.075  32.140  29.423  1.00  0.00     0.029 A 
ATOM     52  C   UNL A   1      45.028  31.237  28.783  1.00  0.00     0.049 A 
ATOM     53  H   UNL A   1      44.699  29.272  28.175  1.00  0.00     0.167 HD
ATOM     54  C   UNL A   1      43.937  25.088  27.135  1.00  0.00     0.037 A 
ATOM     55  C   UNL A   1      46.303  31.544  28.474  1.00  0.00     0.037 A 
ATOM     56  C   UNL A   1      45.271  25.359  26.665  1.00  0.00     0.049 A 
ATOM     57  C   UNL A   1      47.157  30.519  27.780  1.00  0.00     0.074 A 
ATOM     58  C   UNL A   1      46.130  24.518  25.979  1.00  0.00     0.029 A 
ATOM     59  N   UNL A   1      45.944  26.561  26.836  1.00  0.00    -0.354 N 
ATOM     60  N   UNL A   1      46.858  29.285  27.448  1.00  0.00    -0.248 NA
ATOM     61  C   UNL A   1      48.518  30.929  27.406  1.00  0.00     0.031 C 
ATOM     62  C   UNL A   1      47.339  25.195  25.777  1.00  0.00     0.029 A 
ATOM     63  C   UNL A   1      47.214  26.477  26.288  1.00  0.00     0.049 A 
ATOM     64  H   UNL A   1      45.573  27.357  27.280  1.00  0.00     0.167 HD
ATOM     65  C   UNL A   1      47.983  28.780  26.804  1.00  0.00     0.074 A 
ATOM     66  C   UNL A   1      48.963  29.846  26.782  1.00  0.00     0.031 C 
ATOM     67  C   UNL A   1      48.183  27.547  26.275  1.00  0.00     0.037 A 
BRANCH  54  68
ATOM     68  C   UNL A   1      43.383  23.699  26.961  1.00  0.00     0.058 A 
ATOM     69  C   UNL A   1      43.349  22.776  28.021  1.00  0.00     0.135 A 
ATOM     70  C   UNL A   1      42.869  23.285  25.722  1.00  0.00     0.135 A 
ATOM     71  F   UNL A   1      43.837  23.112  29.226  1.00  0.00    -0.206 F 
ATOM     72  C   UNL A   1      42.867  21.483  27.846  1.00  0.00     0.059 A 
ATOM     73  C   UNL A   1      42.353  22.006  25.533  1.00  0.00     0.059 A 
ATOM     74  F   UNL A   1      42.872  24.125  24.675  1.00  0.00    -0.206 F 
ATOM     75  C   UNL A   1      42.377  21.105  26.595  1.00  0.00     0.060 A 
BRANCH  75  76
ATOM     76  S   UNL A   1      41.776  19.417  26.378  1.00  0.00     0.124 S 
ATOM     77  O   UNL A   1      42.049  18.841  27.691  1.00  0.00    -0.237 OA
ATOM     78  O   UNL A   1      40.367  19.624  26.058  1.00  0.00    -0.237 OA
ATOM     79  O   UNL A   1      42.595  18.902  25.285  1.00  0.00    -0.744 OA
ENDBRANCH  75  76
ENDBRANCH  54  68
BRANCH  55  80
ATOM     80  C   UNL A   1      46.831  32.897  28.792  1.00  0.00     0.058 A 
ATOM     81  C   UNL A   1      47.389  33.179  30.048  1.00  0.00     0.135 A 
ATOM     82  C   UNL A   1      46.828  33.922  27.833  1.00  0.00     0.135 A 
ATOM     83  F   UNL A   1      47.409  32.235  31.001  1.00  0.00    -0.206 F 
ATOM     84  C   UNL A   1      47.923  34.430  30.345  1.00  0.00     0.059 A 
ATOM     85  C   UNL A   1      47.377  35.173  28.097  1.00  0.00     0.059 A 
ATOM     86  F   UNL A   1      46.320  33.698  26.611  1.00  0.00    -0.206 F 
ATOM     87  C   UNL A   1      47.918  35.418  29.359  1.00  0.00     0.060 A 
BRANCH  87  88
ATOM     88  S   UNL A   1      48.682  37.014  29.729  1.00  0.00     0.124 S 
ATOM     89  O   UNL A   1      49.280  36.758  31.033  1.00  0.00    -0.237 OA
ATOM     90  O   UNL A   1      49.614  37.171  28.616  1.00  0.00    -0.237 OA
ATOM     91  O   UNL A   1      47.549  37.936  29.723  1.00  0.00    -0.744 OA
ENDBRANCH  87  88
ENDBRANCH  55  80
BRANCH  67  92
ATOM     92  C   UNL A   1      49.502  27.290  25.599  1.00  0.00     0.058 A 
ATOM     93  C   UNL A   1      50.635  26.878  26.318  1.00  0.00     0.135 A 
ATOM     94  C   UNL A   1      49.621  27.416  24.205  1.00  0.00     0.135 A 
ATOM     95  F   UNL A   1      50.577  26.745  27.654  1.00  0.00    -0.206 F 
ATOM     96  C   UNL A   1      51.848  26.631  25.683  1.00  0.00     0.059 A 
ATOM     97  C   UNL A   1      50.817  27.146  23.547  1.00  0.00     0.059 A 
ATOM     98  F   UNL A   1      48.566  27.795  23.468  1.00  0.00    -0.206 F 
ATOM     99  C   UNL A   1      51.929  26.769  24.297  1.00  0.00     0.060 A 
BRANCH  99 100
ATOM    100  S   UNL A   1      53.503  26.425  23.483  1.00  0.00     0.124 S 
ATOM    101  O   UNL A   1      53.984  25.277  24.245  1.00  0.00    -0.237 OA
ATOM    102  O   UNL A   1      53.093  26.148  22.109  1.00  0.00    -0.237 OA
ATOM    103  O   UNL A   1      54.258  27.661  23.667  1.00  0.00    -0.744 OA
ENDBRANCH  99 100
ENDBRANCH  67  92
ENDBRANCH  41  42
ENDBRANCH  33  36
ENDBRANCH  31  32
ENDBRANCH  30  31
ENDBRANCH  29  30
ENDBRANCH   1  29
TORSDOF 19
ENDMDL
MODEL 3
REMARK VINA RESULT:     -11.3      2.946      3.870
REMARK SMILES COc1ccc(C(=O)Nc2cc(C(=O)NCCCCCCNC(=O)c3ccc(-c4c5nc(c(-c6c(F)cc(S(=O)(=O)[O-])cc6F)c6ccc([nH]6)c(-c6c(F)cc(S(=O)(=O)[O-])cc6F)c6nc(c(-c7c(F)cc(S(=O)(=O)[O-])cc7F)c7ccc4[nH]7)C=C6)C=C5)cc3)c(Cl)cc2Cl)cc1Cl
REMARK SMILES IDX 18 1 17 2 16 3 15 4 13 5 14 6 12 8 10 9 11 10 94 11 93 12
REMARK SMILES IDX 95 13 91 14 92 15 9 16 7 17 8 18 6 20 3 21 4 22 97 23 5 24
REMARK SMILES IDX 96 25 98 26 2 27 1 28 19 29 20 30 21 31 22 32 23 33 24 35
REMARK SMILES IDX 25 36 26 37 90 38 27 39 89 40 28 41 29 42 30 43 83 44 31 45
REMARK SMILES IDX 88 46 82 47 84 48 32 49 87 50 81 51 80 52 33 54 67 55 46 56
REMARK SMILES IDX 66 57 47 58 50 59 65 60 85 61 48 62 49 63 64 65 86 66 51 67
REMARK SMILES IDX 34 68 35 69 44 70 36 71 37 72 43 73 45 74 38 75 39 76 40 77
REMARK SMILES IDX 41 78 42 79 68 80 69 81 78 82 70 83 71 84 77 85 79 86 72 87
REMARK SMILES IDX 73 88 74 89 75 90 76 91 52 92 53 93 62 94 54 95 55 96 61 97
REMARK SMILES IDX 63 98 56 99 57 100 58 101 59 102 60 103
REMARK H PARENT 15 7 9 19 22 34 84 53 50 64
REMARK Flexibility Score: inf
ROOT
ATOM      1  C   UNL A   1      31.633  29.244  25.099  1.00  0.00     0.002 C 
ENDROOT
BRANCH   1   2
ATOM      2  C   UNL A   1      30.484  29.038  24.106  1.00  0.00     0.021 C 
BRANCH   2   3
ATOM      3  C   UNL A   1      30.858  28.773  22.648  1.00  0.00     0.116 C 
BRANCH   3   4
ATOM      4  N   UNL A   1      32.283  28.762  22.375  1.00  0.00    -0.352 N 
ATOM      5  C   UNL A   1      33.150  27.715  22.169  1.00  0.00     0.252 C 
ATOM      6  O   UNL A   1      34.319  27.964  21.874  1.00  0.00    -0.269 OA
ATOM      7  H   UNL A   1      32.698  29.654  22.330  1.00  0.00     0.163 HD
BRANCH   5   8
ATOM      8  C   UNL A   1      32.783  26.294  22.405  1.00  0.00     0.060 A 
ATOM      9  C   UNL A   1      32.358  24.607  24.138  1.00  0.00     0.061 A 
ATOM     10  C   UNL A   1      32.732  25.904  23.763  1.00  0.00     0.043 A 
ATOM     11  C   UNL A   1      32.103  23.666  23.129  1.00  0.00     0.066 A 
ATOM     12  C   UNL A   1      32.198  24.024  21.784  1.00  0.00     0.044 A 
ATOM     13  Cl  UNL A   1      31.611  22.053  23.515  1.00  0.00    -0.082 Cl
ATOM     14  C   UNL A   1      32.571  25.325  21.420  1.00  0.00     0.055 A 
ATOM     15  Cl  UNL A   1      32.876  25.581  19.742  1.00  0.00    -0.083 Cl
BRANCH   9  16
ATOM     16  N   UNL A   1      32.231  24.204  25.485  1.00  0.00    -0.321 N 
ATOM     17  C   UNL A   1      32.980  23.364  26.280  1.00  0.00     0.255 C 
ATOM     18  O   UNL A   1      32.498  22.956  27.337  1.00  0.00    -0.269 OA
ATOM     19  H   UNL A   1      31.456  24.601  25.946  1.00  0.00     0.170 HD
BRANCH  17  20
ATOM     20  C   UNL A   1      34.396  23.025  25.966  1.00  0.00     0.041 A 
ATOM     21  C   UNL A   1      37.108  22.423  25.464  1.00  0.00     0.137 A 
ATOM     22  C   UNL A   1      36.715  23.708  25.867  1.00  0.00     0.049 A 
ATOM     23  C   UNL A   1      36.122  21.447  25.290  1.00  0.00     0.083 A 
ATOM     24  C   UNL A   1      35.375  24.009  26.127  1.00  0.00     0.018 A 
ATOM     25  C   UNL A   1      34.774  21.779  25.462  1.00  0.00     0.038 A 
ATOM     26  Cl  UNL A   1      36.431  19.776  24.974  1.00  0.00    -0.080 Cl
BRANCH  21  27
ATOM     27  O   UNL A   1      38.463  22.288  25.340  1.00  0.00    -0.495 OA
ATOM     28  C   UNL A   1      39.255  22.613  26.476  1.00  0.00     0.278 C 
ENDBRANCH  21  27
ENDBRANCH  17  20
ENDBRANCH   9  16
ENDBRANCH   5   8
ENDBRANCH   3   4
ENDBRANCH   2   3
ENDBRANCH   1   2
BRANCH   1  29
ATOM     29  C   UNL A   1      31.695  28.315  26.315  1.00  0.00     0.002 C 
BRANCH  29  30
ATOM     30  C   UNL A   1      32.996  27.541  26.536  1.00  0.00     0.021 C 
BRANCH  30  31
ATOM     31  C   UNL A   1      34.253  28.374  26.757  1.00  0.00     0.116 C 
BRANCH  31  32
ATOM     32  N   UNL A   1      33.988  29.646  27.407  1.00  0.00    -0.352 N 
ATOM     33  C   UNL A   1      34.785  30.389  28.240  1.00  0.00     0.251 C 
ATOM     34  H   UNL A   1      33.101  30.033  27.221  1.00  0.00     0.163 HD
ATOM     35  O   UNL A   1      34.309  31.383  28.798  1.00  0.00    -0.269 OA
BRANCH  33  36
ATOM     36  C   UNL A   1      36.193  30.010  28.497  1.00  0.00     0.039 A 
ATOM     37  C   UNL A   1      37.124  30.139  27.461  1.00  0.00     0.014 A 
ATOM     38  C   UNL A   1      36.600  29.491  29.730  1.00  0.00     0.014 A 
ATOM     39  C   UNL A   1      38.461  29.790  27.672  1.00  0.00     0.010 A 
ATOM     40  C   UNL A   1      37.948  29.215  29.963  1.00  0.00     0.010 A 
ATOM     41  C   UNL A   1      38.891  29.345  28.932  1.00  0.00    -0.014 A 
BRANCH  41  42
ATOM     42  C   UNL A   1      40.316  28.993  29.175  1.00  0.00     0.031 A 
ATOM     43  C   UNL A   1      41.262  30.011  29.756  1.00  0.00     0.074 A 
ATOM     44  C   UNL A   1      40.774  27.774  28.826  1.00  0.00     0.049 A 
ATOM     45  N   UNL A   1      42.541  29.902  30.012  1.00  0.00    -0.248 NA
ATOM     46  C   UNL A   1      40.704  31.337  30.063  1.00  0.00     0.031 C 
ATOM     47  C   UNL A   1      39.974  26.719  28.200  1.00  0.00     0.029 A 
ATOM     48  N   UNL A   1      42.023  27.218  28.941  1.00  0.00    -0.354 N 
ATOM     49  C   UNL A   1      42.943  31.144  30.489  1.00  0.00     0.074 A 
ATOM     50  C   UNL A   1      41.783  32.008  30.436  1.00  0.00     0.031 C 
ATOM     51  C   UNL A   1      40.746  25.639  28.004  1.00  0.00     0.029 A 
ATOM     52  C   UNL A   1      42.102  25.932  28.462  1.00  0.00     0.049 A 
ATOM     53  H   UNL A   1      42.792  27.696  29.330  1.00  0.00     0.167 HD
ATOM     54  C   UNL A   1      44.159  31.526  30.950  1.00  0.00     0.037 A 
ATOM     55  C   UNL A   1      43.146  25.082  28.396  1.00  0.00     0.037 A 
ATOM     56  C   UNL A   1      45.301  30.652  31.026  1.00  0.00     0.049 A 
ATOM     57  C   UNL A   1      44.479  25.514  28.943  1.00  0.00     0.074 A 
ATOM     58  C   UNL A   1      46.556  30.919  31.546  1.00  0.00     0.029 A 
ATOM     59  N   UNL A   1      45.331  29.344  30.565  1.00  0.00    -0.354 N 
ATOM     60  N   UNL A   1      44.822  26.668  29.464  1.00  0.00    -0.248 NA
ATOM     61  C   UNL A   1      45.565  24.524  28.907  1.00  0.00     0.031 C 
ATOM     62  C   UNL A   1      47.358  29.788  31.357  1.00  0.00     0.029 A 
ATOM     63  C   UNL A   1      46.589  28.797  30.769  1.00  0.00     0.049 A 
ATOM     64  H   UNL A   1      44.571  28.872  30.155  1.00  0.00     0.167 HD
ATOM     65  C   UNL A   1      46.154  26.536  29.841  1.00  0.00     0.074 A 
ATOM     66  C   UNL A   1      46.551  25.186  29.500  1.00  0.00     0.031 C 
ATOM     67  C   UNL A   1      46.972  27.450  30.422  1.00  0.00     0.037 A 
BRANCH  54  68
ATOM     68  C   UNL A   1      44.315  32.954  31.401  1.00  0.00     0.058 A 
ATOM     69  C   UNL A   1      44.726  33.969  30.520  1.00  0.00     0.135 A 
ATOM     70  C   UNL A   1      44.041  33.317  32.730  1.00  0.00     0.135 A 
ATOM     71  F   UNL A   1      45.014  33.680  29.241  1.00  0.00    -0.206 F 
ATOM     72  C   UNL A   1      44.902  35.281  30.951  1.00  0.00     0.059 A 
ATOM     73  C   UNL A   1      44.179  34.629  33.174  1.00  0.00     0.059 A 
ATOM     74  F   UNL A   1      43.641  32.390  33.614  1.00  0.00    -0.206 F 
ATOM     75  C   UNL A   1      44.632  35.600  32.282  1.00  0.00     0.060 A 
BRANCH  75  76
ATOM     76  S   UNL A   1      44.886  37.300  32.832  1.00  0.00     0.124 S 
ATOM     77  O   UNL A   1      43.729  37.970  32.246  1.00  0.00    -0.237 OA
ATOM     78  O   UNL A   1      44.871  37.166  34.285  1.00  0.00    -0.237 OA
ATOM     79  O   UNL A   1      46.176  37.656  32.251  1.00  0.00    -0.744 OA
ENDBRANCH  75  76
ENDBRANCH  54  68
BRANCH  55  80
ATOM     80  C   UNL A   1      42.954  23.727  27.816  1.00  0.00     0.058 A 
ATOM     81  C   UNL A   1      42.598  22.637  28.625  1.00  0.00     0.135 A 
ATOM     82  C   UNL A   1      43.080  23.502  26.436  1.00  0.00     0.135 A 
ATOM     83  F   UNL A   1      42.473  22.799  29.951  1.00  0.00    -0.206 F 
ATOM     84  C   UNL A   1      42.377  21.372  28.089  1.00  0.00     0.059 A 
ATOM     85  C   UNL A   1      42.840  22.253  25.873  1.00  0.00     0.059 A 
ATOM     86  F   UNL A   1      43.402  24.516  25.617  1.00  0.00    -0.206 F 
ATOM     87  C   UNL A   1      42.493  21.193  26.709  1.00  0.00     0.060 A 
BRANCH  87  88
ATOM     88  S   UNL A   1      42.130  19.565  26.014  1.00  0.00     0.124 S 
ATOM     89  O   UNL A   1      42.525  18.684  27.107  1.00  0.00    -0.237 OA
ATOM     90  O   UNL A   1      40.696  19.657  25.754  1.00  0.00    -0.237 OA
ATOM     91  O   UNL A   1      42.973  19.513  24.824  1.00  0.00    -0.744 OA
ENDBRANCH  87  88
ENDBRANCH  55  80
BRANCH  67  92
ATOM     92  C   UNL A   1      48.372  27.012  30.754  1.00  0.00     0.058 A 
ATOM     93  C   UNL A   1      49.438  27.197  29.859  1.00  0.00     0.135 A 
ATOM     94  C   UNL A   1      48.659  26.438  32.004  1.00  0.00     0.135 A 
ATOM     95  F   UNL A   1      49.219  27.738  28.649  1.00  0.00    -0.206 F 
ATOM     96  C   UNL A   1      50.733  26.800  30.178  1.00  0.00     0.059 A 
ATOM     97  C   UNL A   1      49.951  26.060  32.355  1.00  0.00     0.059 A 
ATOM     98  F   UNL A   1      47.679  26.249  32.901  1.00  0.00    -0.206 F 
ATOM     99  C   UNL A   1      50.978  26.231  31.429  1.00  0.00     0.060 A 
BRANCH  99 100
ATOM    100  S   UNL A   1      52.666  25.739  31.840  1.00  0.00     0.124 S 
ATOM    101  O   UNL A   1      52.471  24.362  32.281  1.00  0.00    -0.237 OA
ATOM    102  O   UNL A   1      53.361  25.906  30.567  1.00  0.00    -0.237 OA
ATOM    103  O   UNL A   1      53.051  26.684  32.885  1.00  0.00    -0.744 OA
ENDBRANCH  99 100
ENDBRANCH  67  92
ENDBRANCH  41  42
ENDBRANCH  33  36
ENDBRANCH  31  32
ENDBRANCH  30  31
ENDBRANCH  29  30
ENDBRANCH   1  29
TORSDOF 19
ENDMDL
