MODEL 1
REMARK VINA RESULT:      -9.1      0.000      0.000
REMARK SMILES C#CC[N@H+](CC(=O)NCCCCCCNC(=O)c1ccc(-c2c3nc(c(-c4c(F)cc(S(=O)(=O)[O-])cc4F)c4ccc([nH]4)c(-c4c(F)cc(S(=O)(=O)[O-])cc4F)c4nc(c(-c5c(F)cc(S(=O)(=O)[O-])cc5F)c5ccc2[nH]5)C=C4)C=C3)cc1)[C@H](C)C(=O)NCCC
REMARK SMILES IDX 10 1 9 2 8 3 6 4 7 5 5 7 4 8 3 10 2 11 1 12 84 13 85 14
REMARK SMILES IDX 86 15 87 16 88 17 89 19 90 20 91 21 11 22 12 23 13 24 14 25
REMARK SMILES IDX 15 26 16 27 17 29 18 30 19 31 83 32 20 33 82 34 21 35 22 36
REMARK SMILES IDX 23 37 76 38 24 39 81 40 75 41 77 42 25 43 80 44 74 45 73 46
REMARK SMILES IDX 26 48 60 49 39 50 59 51 40 52 43 53 58 54 78 55 41 56 42 57
REMARK SMILES IDX 57 59 79 60 44 61 27 62 28 63 37 64 29 65 30 66 36 67 38 68
REMARK SMILES IDX 31 69 32 70 33 71 34 72 35 73 61 74 62 75 71 76 63 77 64 78
REMARK SMILES IDX 70 79 72 80 65 81 66 82 67 83 68 84 69 85 45 86 46 87 55 88
REMARK SMILES IDX 47 89 48 90 54 91 56 92 49 93 50 94 51 95 52 96 53 97
REMARK H PARENT 8 6 4 9 88 18 15 28 77 47 43 58
REMARK Flexibility Score: inf
ROOT
ATOM      1  C   UNL A   1      32.717  23.003  26.337  1.00  0.00     0.021 C 
ENDROOT
BRANCH   1   2
ATOM      2  C   UNL A   1      31.850  23.305  25.107  1.00  0.00     0.116 C 
BRANCH   2   3
ATOM      3  N   UNL A   1      30.617  23.975  25.491  1.00  0.00    -0.351 N 
ATOM      4  C   UNL A   1      30.417  25.203  26.076  1.00  0.00     0.275 C 
ATOM      5  O   UNL A   1      29.271  25.502  26.414  1.00  0.00    -0.269 OA
ATOM      6  H   UNL A   1      29.794  23.468  25.303  1.00  0.00     0.163 HD
BRANCH   4   7
ATOM      7  C   UNL A   1      31.598  26.173  26.240  1.00  0.00     0.364 C 
BRANCH   7   8
ATOM      8  N   UNL A   1      31.506  27.480  25.514  1.00  0.00    -0.307 N 
ATOM      9  H   UNL A   1      30.541  27.670  25.249  1.00  0.00     0.350 HD
BRANCH   8  10
ATOM     10  C   UNL A   1      31.780  28.615  26.382  1.00  0.00     0.355 C 
BRANCH  10  11
ATOM     11  C   UNL A   1      33.101  28.802  26.991  1.00  0.00    -0.047 C 
ATOM     12  C   UNL A   1      34.262  28.950  27.256  1.00  0.00     0.010 C 
ENDBRANCH  10  11
ENDBRANCH   8  10
BRANCH   8  13
ATOM     13  C   UNL A   1      32.195  27.408  24.182  1.00  0.00     0.272 C 
ATOM     14  C   UNL A   1      33.474  26.562  24.032  1.00  0.00     0.086 C 
BRANCH  13  15
ATOM     15  C   UNL A   1      32.345  28.729  23.398  1.00  0.00     0.278 C 
ATOM     16  O   UNL A   1      33.448  29.278  23.298  1.00  0.00    -0.268 OA
ATOM     17  N   UNL A   1      31.278  29.373  22.836  1.00  0.00    -0.351 N 
ATOM     18  H   UNL A   1      31.467  30.296  22.550  1.00  0.00     0.163 HD
BRANCH  17  19
ATOM     19  C   UNL A   1      29.914  28.939  22.587  1.00  0.00     0.116 C 
BRANCH  19  20
ATOM     20  C   UNL A   1      29.045  30.039  21.991  1.00  0.00     0.018 C 
ATOM     21  C   UNL A   1      27.713  30.173  22.714  1.00  0.00     0.006 C 
ENDBRANCH  19  20
ENDBRANCH  17  19
ENDBRANCH  13  15
ENDBRANCH   8  13
ENDBRANCH   7   8
ENDBRANCH   4   7
ENDBRANCH   2   3
ENDBRANCH   1   2
BRANCH   1  22
ATOM     22  C   UNL A   1      34.213  22.923  26.054  1.00  0.00     0.002 C 
BRANCH  22  23
ATOM     23  C   UNL A   1      34.556  22.762  24.576  1.00  0.00     0.002 C 
BRANCH  23  24
ATOM     24  C   UNL A   1      35.729  23.623  24.100  1.00  0.00     0.021 C 
BRANCH  24  25
ATOM     25  C   UNL A   1      36.720  23.992  25.199  1.00  0.00     0.116 C 
BRANCH  25  26
ATOM     26  N   UNL A   1      37.670  22.916  25.437  1.00  0.00    -0.352 N 
ATOM     27  C   UNL A   1      38.922  22.986  25.991  1.00  0.00     0.251 C 
ATOM     28  H   UNL A   1      37.374  22.019  25.163  1.00  0.00     0.163 HD
ATOM     29  O   UNL A   1      39.711  22.057  25.850  1.00  0.00    -0.269 OA
BRANCH  27  30
ATOM     30  C   UNL A   1      39.310  24.191  26.752  1.00  0.00     0.039 A 
ATOM     31  C   UNL A   1      38.940  24.302  28.093  1.00  0.00     0.014 A 
ATOM     32  C   UNL A   1      40.032  25.215  26.131  1.00  0.00     0.014 A 
ATOM     33  C   UNL A   1      39.328  25.428  28.820  1.00  0.00     0.010 A 
ATOM     34  C   UNL A   1      40.497  26.288  26.881  1.00  0.00     0.010 A 
ATOM     35  C   UNL A   1      40.129  26.419  28.227  1.00  0.00    -0.014 A 
BRANCH  35  36
ATOM     36  C   UNL A   1      40.552  27.625  28.986  1.00  0.00     0.031 A 
ATOM     37  C   UNL A   1      41.899  27.648  29.659  1.00  0.00     0.074 A 
ATOM     38  C   UNL A   1      39.715  28.674  29.102  1.00  0.00     0.049 A 
ATOM     39  N   UNL A   1      42.431  28.578  30.410  1.00  0.00    -0.248 NA
ATOM     40  C   UNL A   1      42.752  26.458  29.491  1.00  0.00     0.031 C 
ATOM     41  C   UNL A   1      38.372  28.753  28.524  1.00  0.00     0.029 A 
ATOM     42  N   UNL A   1      39.869  29.875  29.746  1.00  0.00    -0.354 N 
ATOM     43  C   UNL A   1      43.670  28.085  30.802  1.00  0.00     0.074 A 
ATOM     44  C   UNL A   1      43.781  26.745  30.272  1.00  0.00     0.031 C 
ATOM     45  C   UNL A   1      37.839  29.951  28.812  1.00  0.00     0.029 A 
ATOM     46  C   UNL A   1      38.779  30.707  29.633  1.00  0.00     0.049 A 
ATOM     47  H   UNL A   1      40.683  30.120  30.243  1.00  0.00     0.167 HD
ATOM     48  C   UNL A   1      44.643  28.704  31.512  1.00  0.00     0.037 A 
ATOM     49  C   UNL A   1      38.559  31.935  30.143  1.00  0.00     0.037 A 
ATOM     50  C   UNL A   1      44.530  30.045  32.025  1.00  0.00     0.049 A 
ATOM     51  C   UNL A   1      39.641  32.587  30.965  1.00  0.00     0.074 A 
ATOM     52  C   UNL A   1      45.469  30.779  32.728  1.00  0.00     0.029 A 
ATOM     53  N   UNL A   1      43.409  30.853  31.892  1.00  0.00    -0.354 N 
ATOM     54  N   UNL A   1      40.828  32.126  31.282  1.00  0.00    -0.248 NA
ATOM     55  C   UNL A   1      39.358  33.930  31.490  1.00  0.00     0.031 C 
ATOM     56  C   UNL A   1      44.894  32.004  33.075  1.00  0.00     0.029 A 
ATOM     57  C   UNL A   1      43.625  32.067  32.521  1.00  0.00     0.049 A 
ATOM     58  H   UNL A   1      42.583  30.601  31.420  1.00  0.00     0.167 HD
ATOM     59  C   UNL A   1      41.449  33.140  32.006  1.00  0.00     0.074 A 
ATOM     60  C   UNL A   1      40.509  34.239  32.070  1.00  0.00     0.031 C 
ATOM     61  C   UNL A   1      42.686  33.162  32.561  1.00  0.00     0.037 A 
BRANCH  48  62
ATOM     62  C   UNL A   1      45.915  27.942  31.774  1.00  0.00     0.058 A 
ATOM     63  C   UNL A   1      46.031  27.041  32.846  1.00  0.00     0.135 A 
ATOM     64  C   UNL A   1      47.021  28.082  30.918  1.00  0.00     0.135 A 
ATOM     65  F   UNL A   1      45.013  26.880  33.707  1.00  0.00    -0.206 F 
ATOM     66  C   UNL A   1      47.203  26.328  33.076  1.00  0.00     0.059 A 
ATOM     67  C   UNL A   1      48.191  27.351  31.109  1.00  0.00     0.059 A 
ATOM     68  F   UNL A   1      46.970  28.931  29.880  1.00  0.00    -0.206 F 
ATOM     69  C   UNL A   1      48.275  26.487  32.198  1.00  0.00     0.060 A 
BRANCH  69  70
ATOM     70  S   UNL A   1      49.781  25.539  32.503  1.00  0.00     0.124 S 
ATOM     71  O   UNL A   1      49.982  24.889  31.211  1.00  0.00    -0.237 OA
ATOM     72  O   UNL A   1      50.741  26.584  32.843  1.00  0.00    -0.237 OA
ATOM     73  O   UNL A   1      49.408  24.650  33.600  1.00  0.00    -0.744 OA
ENDBRANCH  69  70
ENDBRANCH  48  62
BRANCH  49  74
ATOM     74  C   UNL A   1      37.274  32.639  29.881  1.00  0.00     0.058 A 
ATOM     75  C   UNL A   1      36.114  32.324  30.606  1.00  0.00     0.135 A 
ATOM     76  C   UNL A   1      37.173  33.630  28.892  1.00  0.00     0.135 A 
ATOM     77  F   UNL A   1      36.154  31.381  31.559  1.00  0.00    -0.206 F 
ATOM     78  C   UNL A   1      34.896  32.942  30.340  1.00  0.00     0.059 A 
ATOM     79  C   UNL A   1      35.975  34.287  28.632  1.00  0.00     0.059 A 
ATOM     80  F   UNL A   1      38.255  33.985  28.181  1.00  0.00    -0.206 F 
ATOM     81  C   UNL A   1      34.837  33.925  29.351  1.00  0.00     0.060 A 
BRANCH  81  82
ATOM     82  S   UNL A   1      33.258  34.740  29.033  1.00  0.00     0.124 S 
ATOM     83  O   UNL A   1      32.657  33.845  28.051  1.00  0.00    -0.237 OA
ATOM     84  O   UNL A   1      32.644  34.739  30.358  1.00  0.00    -0.237 OA
ATOM     85  O   UNL A   1      33.652  36.053  28.533  1.00  0.00    -0.744 OA
ENDBRANCH  81  82
ENDBRANCH  49  74
BRANCH  61  86
ATOM     86  C   UNL A   1      43.127  34.434  33.234  1.00  0.00     0.058 A 
ATOM     87  C   UNL A   1      43.647  35.521  32.515  1.00  0.00     0.135 A 
ATOM     88  C   UNL A   1      42.976  34.582  34.624  1.00  0.00     0.135 A 
ATOM     89  F   UNL A   1      43.818  35.434  31.186  1.00  0.00    -0.206 F 
ATOM     90  C   UNL A   1      44.030  36.697  33.151  1.00  0.00     0.059 A 
ATOM     91  C   UNL A   1      43.317  35.762  35.276  1.00  0.00     0.059 A 
ATOM     92  F   UNL A   1      42.473  33.580  35.361  1.00  0.00    -0.206 F 
ATOM     93  C   UNL A   1      43.857  36.810  34.532  1.00  0.00     0.060 A 
BRANCH  93  94
ATOM     94  S   UNL A   1      44.329  38.353  35.339  1.00  0.00     0.124 S 
ATOM     95  O   UNL A   1      45.780  38.328  35.198  1.00  0.00    -0.237 OA
ATOM     96  O   UNL A   1      43.631  39.351  34.533  1.00  0.00    -0.237 OA
ATOM     97  O   UNL A   1      43.829  38.194  36.701  1.00  0.00    -0.744 OA
ENDBRANCH  93  94
ENDBRANCH  61  86
ENDBRANCH  35  36
ENDBRANCH  27  30
ENDBRANCH  25  26
ENDBRANCH  24  25
ENDBRANCH  23  24
ENDBRANCH  22  23
ENDBRANCH   1  22
TORSDOF 23
ENDMDL
MODEL 2
REMARK VINA RESULT:      -9.0      3.437      4.887
REMARK SMILES C#CC[N@H+](CC(=O)NCCCCCCNC(=O)c1ccc(-c2c3nc(c(-c4c(F)cc(S(=O)(=O)[O-])cc4F)c4ccc([nH]4)c(-c4c(F)cc(S(=O)(=O)[O-])cc4F)c4nc(c(-c5c(F)cc(S(=O)(=O)[O-])cc5F)c5ccc2[nH]5)C=C4)C=C3)cc1)[C@H](C)C(=O)NCCC
REMARK SMILES IDX 10 1 9 2 8 3 6 4 7 5 5 7 4 8 3 10 2 11 1 12 84 13 85 14
REMARK SMILES IDX 86 15 87 16 88 17 89 19 90 20 91 21 11 22 12 23 13 24 14 25
REMARK SMILES IDX 15 26 16 27 17 29 18 30 19 31 83 32 20 33 82 34 21 35 22 36
REMARK SMILES IDX 23 37 76 38 24 39 81 40 75 41 77 42 25 43 80 44 74 45 73 46
REMARK SMILES IDX 26 48 60 49 39 50 59 51 40 52 43 53 58 54 78 55 41 56 42 57
REMARK SMILES IDX 57 59 79 60 44 61 27 62 28 63 37 64 29 65 30 66 36 67 38 68
REMARK SMILES IDX 31 69 32 70 33 71 34 72 35 73 61 74 62 75 71 76 63 77 64 78
REMARK SMILES IDX 70 79 72 80 65 81 66 82 67 83 68 84 69 85 45 86 46 87 55 88
REMARK SMILES IDX 47 89 48 90 54 91 56 92 49 93 50 94 51 95 52 96 53 97
REMARK H PARENT 8 6 4 9 88 18 15 28 77 47 43 58
REMARK Flexibility Score: inf
ROOT
ATOM      1  C   UNL A   1      38.617  21.478  25.973  1.00  0.00     0.021 C 
ENDROOT
BRANCH   1   2
ATOM      2  C   UNL A   1      37.806  22.774  25.827  1.00  0.00     0.116 C 
BRANCH   2   3
ATOM      3  N   UNL A   1      37.511  23.048  24.428  1.00  0.00    -0.351 N 
ATOM      4  C   UNL A   1      36.356  22.856  23.709  1.00  0.00     0.275 C 
ATOM      5  O   UNL A   1      36.391  23.061  22.495  1.00  0.00    -0.269 OA
ATOM      6  H   UNL A   1      38.259  23.432  23.916  1.00  0.00     0.163 HD
BRANCH   4   7
ATOM      7  C   UNL A   1      35.062  22.451  24.434  1.00  0.00     0.364 C 
BRANCH   7   8
ATOM      8  N   UNL A   1      34.506  23.427  25.423  1.00  0.00    -0.307 N 
ATOM      9  H   UNL A   1      35.015  23.367  26.304  1.00  0.00     0.350 HD
BRANCH   8  10
ATOM     10  C   UNL A   1      34.773  24.807  25.047  1.00  0.00     0.355 C 
BRANCH  10  11
ATOM     11  C   UNL A   1      33.994  25.912  25.616  1.00  0.00    -0.047 C 
ATOM     12  C   UNL A   1      33.218  26.787  25.880  1.00  0.00     0.010 C 
ENDBRANCH  10  11
ENDBRANCH   8  10
BRANCH   8  13
ATOM     13  C   UNL A   1      33.113  23.049  25.832  1.00  0.00     0.272 C 
ATOM     14  C   UNL A   1      32.818  22.710  27.306  1.00  0.00     0.086 C 
BRANCH  13  15
ATOM     15  C   UNL A   1      32.350  22.075  24.908  1.00  0.00     0.278 C 
ATOM     16  O   UNL A   1      32.401  20.856  25.103  1.00  0.00    -0.268 OA
ATOM     17  N   UNL A   1      31.643  22.501  23.818  1.00  0.00    -0.351 N 
ATOM     18  H   UNL A   1      31.382  21.781  23.199  1.00  0.00     0.163 HD
BRANCH  17  19
ATOM     19  C   UNL A   1      31.211  23.826  23.410  1.00  0.00     0.116 C 
BRANCH  19  20
ATOM     20  C   UNL A   1      32.295  24.597  22.666  1.00  0.00     0.018 C 
ATOM     21  C   UNL A   1      33.026  23.726  21.654  1.00  0.00     0.006 C 
ENDBRANCH  19  20
ENDBRANCH  17  19
ENDBRANCH  13  15
ENDBRANCH   8  13
ENDBRANCH   7   8
ENDBRANCH   4   7
ENDBRANCH   2   3
ENDBRANCH   1   2
BRANCH   1  22
ATOM     22  C   UNL A   1      40.122  21.684  26.098  1.00  0.00     0.002 C 
BRANCH  22  23
ATOM     23  C   UNL A   1      40.578  22.101  27.493  1.00  0.00     0.002 C 
BRANCH  23  24
ATOM     24  C   UNL A   1      42.069  21.886  27.763  1.00  0.00     0.021 C 
BRANCH  24  25
ATOM     25  C   UNL A   1      42.886  23.172  27.813  1.00  0.00     0.116 C 
BRANCH  25  26
ATOM     26  N   UNL A   1      42.862  23.864  26.534  1.00  0.00    -0.352 N 
ATOM     27  C   UNL A   1      42.338  25.096  26.236  1.00  0.00     0.251 C 
ATOM     28  H   UNL A   1      43.277  23.384  25.783  1.00  0.00     0.163 HD
ATOM     29  O   UNL A   1      42.127  25.409  25.069  1.00  0.00    -0.269 OA
BRANCH  27  30
ATOM     30  C   UNL A   1      42.027  26.034  27.333  1.00  0.00     0.039 A 
ATOM     31  C   UNL A   1      40.904  25.810  28.129  1.00  0.00     0.014 A 
ATOM     32  C   UNL A   1      42.848  27.142  27.565  1.00  0.00     0.014 A 
ATOM     33  C   UNL A   1      40.624  26.682  29.183  1.00  0.00     0.010 A 
ATOM     34  C   UNL A   1      42.622  27.953  28.670  1.00  0.00     0.010 A 
ATOM     35  C   UNL A   1      41.493  27.747  29.476  1.00  0.00    -0.014 A 
BRANCH  35  36
ATOM     36  C   UNL A   1      41.213  28.685  30.594  1.00  0.00     0.031 A 
ATOM     37  C   UNL A   1      42.033  28.610  31.855  1.00  0.00     0.074 A 
ATOM     38  C   UNL A   1      40.202  29.570  30.491  1.00  0.00     0.049 A 
ATOM     39  N   UNL A   1      41.913  29.299  32.960  1.00  0.00    -0.248 NA
ATOM     40  C   UNL A   1      43.114  27.610  31.891  1.00  0.00     0.031 C 
ATOM     41  C   UNL A   1      39.316  29.713  29.334  1.00  0.00     0.029 A 
ATOM     42  N   UNL A   1      39.748  30.517  31.373  1.00  0.00    -0.354 N 
ATOM     43  C   UNL A   1      42.894  28.815  33.817  1.00  0.00     0.074 A 
ATOM     44  C   UNL A   1      43.552  27.724  33.135  1.00  0.00     0.031 C 
ATOM     45  C   UNL A   1      38.448  30.710  29.564  1.00  0.00     0.029 A 
ATOM     46  C   UNL A   1      38.681  31.246  30.901  1.00  0.00     0.049 A 
ATOM     47  H   UNL A   1      40.147  30.662  32.261  1.00  0.00     0.167 HD
ATOM     48  C   UNL A   1      43.241  29.261  35.049  1.00  0.00     0.037 A 
ATOM     49  C   UNL A   1      37.968  32.229  31.484  1.00  0.00     0.037 A 
ATOM     50  C   UNL A   1      42.589  30.359  35.714  1.00  0.00     0.049 A 
ATOM     51  C   UNL A   1      38.345  32.680  32.872  1.00  0.00     0.074 A 
ATOM     52  C   UNL A   1      42.883  30.911  36.949  1.00  0.00     0.029 A 
ATOM     53  N   UNL A   1      41.512  31.069  35.204  1.00  0.00    -0.354 N 
ATOM     54  N   UNL A   1      39.311  32.245  33.647  1.00  0.00    -0.248 NA
ATOM     55  C   UNL A   1      37.544  33.762  33.460  1.00  0.00     0.031 C 
ATOM     56  C   UNL A   1      41.945  31.913  37.213  1.00  0.00     0.029 A 
ATOM     57  C   UNL A   1      41.115  32.038  36.110  1.00  0.00     0.049 A 
ATOM     58  H   UNL A   1      41.093  30.908  34.329  1.00  0.00     0.167 HD
ATOM     59  C   UNL A   1      39.259  33.029  34.795  1.00  0.00     0.074 A 
ATOM     60  C   UNL A   1      38.174  33.970  34.607  1.00  0.00     0.031 C 
ATOM     61  C   UNL A   1      40.043  32.981  35.901  1.00  0.00     0.037 A 
BRANCH  48  62
ATOM     62  C   UNL A   1      44.375  28.566  35.754  1.00  0.00     0.058 A 
ATOM     63  C   UNL A   1      44.155  27.482  36.620  1.00  0.00     0.135 A 
ATOM     64  C   UNL A   1      45.705  28.961  35.530  1.00  0.00     0.135 A 
ATOM     65  F   UNL A   1      42.904  27.072  36.887  1.00  0.00    -0.206 F 
ATOM     66  C   UNL A   1      45.206  26.833  37.259  1.00  0.00     0.059 A 
ATOM     67  C   UNL A   1      46.775  28.302  36.130  1.00  0.00     0.059 A 
ATOM     68  F   UNL A   1      45.976  29.992  34.715  1.00  0.00    -0.206 F 
ATOM     69  C   UNL A   1      46.513  27.248  37.003  1.00  0.00     0.060 A 
BRANCH  69  70
ATOM     70  S   UNL A   1      47.866  26.382  37.827  1.00  0.00     0.124 S 
ATOM     71  O   UNL A   1      47.169  25.233  38.399  1.00  0.00    -0.237 OA
ATOM     72  O   UNL A   1      48.767  26.088  36.717  1.00  0.00    -0.237 OA
ATOM     73  O   UNL A   1      48.360  27.358  38.792  1.00  0.00    -0.744 OA
ENDBRANCH  69  70
ENDBRANCH  48  62
BRANCH  49  74
ATOM     74  C   UNL A   1      36.835  32.869  30.758  1.00  0.00     0.058 A 
ATOM     75  C   UNL A   1      37.059  33.890  29.821  1.00  0.00     0.135 A 
ATOM     76  C   UNL A   1      35.506  32.484  30.995  1.00  0.00     0.135 A 
ATOM     77  F   UNL A   1      38.310  34.298  29.561  1.00  0.00    -0.206 F 
ATOM     78  C   UNL A   1      36.007  34.527  29.170  1.00  0.00     0.059 A 
ATOM     79  C   UNL A   1      34.440  33.082  30.331  1.00  0.00     0.059 A 
ATOM     80  F   UNL A   1      35.235  31.500  31.867  1.00  0.00    -0.206 F 
ATOM     81  C   UNL A   1      34.701  34.113  29.431  1.00  0.00     0.060 A 
BRANCH  81  82
ATOM     82  S   UNL A   1      33.345  34.928  28.559  1.00  0.00     0.124 S 
ATOM     83  O   UNL A   1      32.731  33.807  27.857  1.00  0.00    -0.237 OA
ATOM     84  O   UNL A   1      32.572  35.492  29.662  1.00  0.00    -0.237 OA
ATOM     85  O   UNL A   1      34.026  35.905  27.716  1.00  0.00    -0.744 OA
ENDBRANCH  81  82
ENDBRANCH  49  74
BRANCH  61  86
ATOM     86  C   UNL A   1      39.803  34.011  36.973  1.00  0.00     0.058 A 
ATOM     87  C   UNL A   1      39.104  33.716  38.153  1.00  0.00     0.135 A 
ATOM     88  C   UNL A   1      40.331  35.307  36.832  1.00  0.00     0.135 A 
ATOM     89  F   UNL A   1      38.573  32.497  38.338  1.00  0.00    -0.206 F 
ATOM     90  C   UNL A   1      38.910  34.676  39.142  1.00  0.00     0.059 A 
ATOM     91  C   UNL A   1      40.183  36.270  37.825  1.00  0.00     0.059 A 
ATOM     92  F   UNL A   1      41.020  35.642  35.730  1.00  0.00    -0.206 F 
ATOM     93  C   UNL A   1      39.457  35.948  38.971  1.00  0.00     0.060 A 
BRANCH  93  94
ATOM     94  S   UNL A   1      39.225  37.172  40.277  1.00  0.00     0.124 S 
ATOM     95  O   UNL A   1      38.417  36.428  41.237  1.00  0.00    -0.237 OA
ATOM     96  O   UNL A   1      40.598  37.453  40.685  1.00  0.00    -0.237 OA
ATOM     97  O   UNL A   1      38.540  38.269  39.599  1.00  0.00    -0.744 OA
ENDBRANCH  93  94
ENDBRANCH  61  86
ENDBRANCH  35  36
ENDBRANCH  27  30
ENDBRANCH  25  26
ENDBRANCH  24  25
ENDBRANCH  23  24
ENDBRANCH  22  23
ENDBRANCH   1  22
TORSDOF 23
ENDMDL
MODEL 3
REMARK VINA RESULT:      -8.9      2.499      3.375
REMARK SMILES C#CC[N@H+](CC(=O)NCCCCCCNC(=O)c1ccc(-c2c3nc(c(-c4c(F)cc(S(=O)(=O)[O-])cc4F)c4ccc([nH]4)c(-c4c(F)cc(S(=O)(=O)[O-])cc4F)c4nc(c(-c5c(F)cc(S(=O)(=O)[O-])cc5F)c5ccc2[nH]5)C=C4)C=C3)cc1)[C@H](C)C(=O)NCCC
REMARK SMILES IDX 10 1 9 2 8 3 6 4 7 5 5 7 4 8 3 10 2 11 1 12 84 13 85 14
REMARK SMILES IDX 86 15 87 16 88 17 89 19 90 20 91 21 11 22 12 23 13 24 14 25
REMARK SMILES IDX 15 26 16 27 17 29 18 30 19 31 83 32 20 33 82 34 21 35 22 36
REMARK SMILES IDX 23 37 76 38 24 39 81 40 75 41 77 42 25 43 80 44 74 45 73 46
REMARK SMILES IDX 26 48 60 49 39 50 59 51 40 52 43 53 58 54 78 55 41 56 42 57
REMARK SMILES IDX 57 59 79 60 44 61 27 62 28 63 37 64 29 65 30 66 36 67 38 68
REMARK SMILES IDX 31 69 32 70 33 71 34 72 35 73 61 74 62 75 71 76 63 77 64 78
REMARK SMILES IDX 70 79 72 80 65 81 66 82 67 83 68 84 69 85 45 86 46 87 55 88
REMARK SMILES IDX 47 89 48 90 54 91 56 92 49 93 50 94 51 95 52 96 53 97
REMARK H PARENT 8 6 4 9 88 18 15 28 77 47 43 58
REMARK Flexibility Score: inf
ROOT
ATOM      1  C   UNL A   1      32.813  22.579  27.584  1.00  0.00     0.021 C 
ENDROOT
BRANCH   1   2
ATOM      2  C   UNL A   1      32.038  22.986  26.323  1.00  0.00     0.116 C 
BRANCH   2   3
ATOM      3  N   UNL A   1      30.993  23.948  26.644  1.00  0.00    -0.351 N 
ATOM      4  C   UNL A   1      30.527  25.026  25.931  1.00  0.00     0.275 C 
ATOM      5  O   UNL A   1      29.705  25.766  26.473  1.00  0.00    -0.269 OA
ATOM      6  H   UNL A   1      30.549  23.802  27.511  1.00  0.00     0.163 HD
BRANCH   4   7
ATOM      7  C   UNL A   1      30.996  25.245  24.482  1.00  0.00     0.364 C 
BRANCH   7   8
ATOM      8  N   UNL A   1      32.182  26.137  24.283  1.00  0.00    -0.307 N 
ATOM      9  H   UNL A   1      32.780  26.121  25.108  1.00  0.00     0.350 HD
BRANCH   8  10
ATOM     10  C   UNL A   1      33.096  25.624  23.273  1.00  0.00     0.355 C 
BRANCH  10  11
ATOM     11  C   UNL A   1      32.770  25.704  21.845  1.00  0.00    -0.047 C 
ATOM     12  C   UNL A   1      32.654  25.575  20.659  1.00  0.00     0.010 C 
ENDBRANCH  10  11
ENDBRANCH   8  10
BRANCH   8  13
ATOM     13  C   UNL A   1      31.769  27.579  24.215  1.00  0.00     0.272 C 
ATOM     14  C   UNL A   1      30.503  27.971  23.430  1.00  0.00     0.086 C 
BRANCH  13  15
ATOM     15  C   UNL A   1      32.884  28.617  23.965  1.00  0.00     0.278 C 
ATOM     16  O   UNL A   1      33.054  29.097  22.839  1.00  0.00    -0.268 OA
ATOM     17  N   UNL A   1      33.758  29.005  24.943  1.00  0.00    -0.351 N 
ATOM     18  H   UNL A   1      34.540  29.503  24.612  1.00  0.00     0.163 HD
BRANCH  17  19
ATOM     19  C   UNL A   1      33.737  28.812  26.382  1.00  0.00     0.116 C 
BRANCH  19  20
ATOM     20  C   UNL A   1      32.497  29.406  27.038  1.00  0.00     0.018 C 
ATOM     21  C   UNL A   1      31.645  28.346  27.722  1.00  0.00     0.006 C 
ENDBRANCH  19  20
ENDBRANCH  17  19
ENDBRANCH  13  15
ENDBRANCH   8  13
ENDBRANCH   7   8
ENDBRANCH   4   7
ENDBRANCH   2   3
ENDBRANCH   1   2
BRANCH   1  22
ATOM     22  C   UNL A   1      34.325  22.508  27.402  1.00  0.00     0.002 C 
BRANCH  22  23
ATOM     23  C   UNL A   1      34.765  22.240  25.966  1.00  0.00     0.002 C 
BRANCH  23  24
ATOM     24  C   UNL A   1      35.501  23.406  25.300  1.00  0.00     0.021 C 
BRANCH  24  25
ATOM     25  C   UNL A   1      36.770  23.839  26.026  1.00  0.00     0.116 C 
BRANCH  25  26
ATOM     26  N   UNL A   1      37.702  22.732  26.168  1.00  0.00    -0.352 N 
ATOM     27  C   UNL A   1      39.058  22.774  26.369  1.00  0.00     0.251 C 
ATOM     28  H   UNL A   1      37.307  21.833  26.114  1.00  0.00     0.163 HD
ATOM     29  O   UNL A   1      39.741  21.774  26.170  1.00  0.00    -0.269 OA
BRANCH  27  30
ATOM     30  C   UNL A   1      39.684  24.033  26.821  1.00  0.00     0.039 A 
ATOM     31  C   UNL A   1      40.047  24.995  25.879  1.00  0.00     0.014 A 
ATOM     32  C   UNL A   1      39.917  24.254  28.182  1.00  0.00     0.014 A 
ATOM     33  C   UNL A   1      40.615  26.196  26.307  1.00  0.00     0.010 A 
ATOM     34  C   UNL A   1      40.393  25.486  28.612  1.00  0.00     0.010 A 
ATOM     35  C   UNL A   1      40.771  26.461  27.678  1.00  0.00    -0.014 A 
BRANCH  35  36
ATOM     36  C   UNL A   1      41.373  27.734  28.153  1.00  0.00     0.031 A 
ATOM     37  C   UNL A   1      42.865  27.925  28.086  1.00  0.00     0.074 A 
ATOM     38  C   UNL A   1      40.586  28.694  28.678  1.00  0.00     0.049 A 
ATOM     39  N   UNL A   1      43.587  28.936  28.497  1.00  0.00    -0.248 NA
ATOM     40  C   UNL A   1      43.655  26.826  27.506  1.00  0.00     0.031 C 
ATOM     41  C   UNL A   1      39.131  28.608  28.828  1.00  0.00     0.029 A 
ATOM     42  N   UNL A   1      40.898  29.929  29.185  1.00  0.00    -0.354 N 
ATOM     43  C   UNL A   1      44.907  28.592  28.230  1.00  0.00     0.074 A 
ATOM     44  C   UNL A   1      44.895  27.251  27.692  1.00  0.00     0.031 C 
ATOM     45  C   UNL A   1      38.675  29.754  29.357  1.00  0.00     0.029 A 
ATOM     46  C   UNL A   1      39.805  30.637  29.629  1.00  0.00     0.049 A 
ATOM     47  H   UNL A   1      41.817  30.278  29.226  1.00  0.00     0.167 HD
ATOM     48  C   UNL A   1      46.026  29.338  28.386  1.00  0.00     0.037 A 
ATOM     49  C   UNL A   1      39.725  31.855  30.200  1.00  0.00     0.037 A 
ATOM     50  C   UNL A   1      46.027  30.680  28.909  1.00  0.00     0.049 A 
ATOM     51  C   UNL A   1      40.990  32.650  30.402  1.00  0.00     0.074 A 
ATOM     52  C   UNL A   1      47.101  31.536  29.079  1.00  0.00     0.029 A 
ATOM     53  N   UNL A   1      44.901  31.360  29.351  1.00  0.00    -0.354 N 
ATOM     54  N   UNL A   1      42.224  32.329  30.095  1.00  0.00    -0.248 NA
ATOM     55  C   UNL A   1      40.849  33.976  31.019  1.00  0.00     0.031 C 
ATOM     56  C   UNL A   1      46.635  32.707  29.680  1.00  0.00     0.029 A 
ATOM     57  C   UNL A   1      45.258  32.614  29.814  1.00  0.00     0.049 A 
ATOM     58  H   UNL A   1      43.984  31.003  29.337  1.00  0.00     0.167 HD
ATOM     59  C   UNL A   1      43.001  33.431  30.441  1.00  0.00     0.074 A 
ATOM     60  C   UNL A   1      42.094  34.428  30.970  1.00  0.00     0.031 C 
ATOM     61  C   UNL A   1      44.340  33.605  30.323  1.00  0.00     0.037 A 
BRANCH  48  62
ATOM     62  C   UNL A   1      47.341  28.725  27.984  1.00  0.00     0.058 A 
ATOM     63  C   UNL A   1      48.168  28.072  28.913  1.00  0.00     0.135 A 
ATOM     64  C   UNL A   1      47.763  28.754  26.644  1.00  0.00     0.135 A 
ATOM     65  F   UNL A   1      47.826  28.029  30.211  1.00  0.00    -0.206 F 
ATOM     66  C   UNL A   1      49.376  27.494  28.535  1.00  0.00     0.059 A 
ATOM     67  C   UNL A   1      48.950  28.150  26.237  1.00  0.00     0.059 A 
ATOM     68  F   UNL A   1      47.016  29.367  25.712  1.00  0.00    -0.206 F 
ATOM     69  C   UNL A   1      49.755  27.535  27.193  1.00  0.00     0.060 A 
BRANCH  69  70
ATOM     70  S   UNL A   1      51.316  26.763  26.720  1.00  0.00     0.124 S 
ATOM     71  O   UNL A   1      51.483  25.771  27.778  1.00  0.00    -0.237 OA
ATOM     72  O   UNL A   1      51.009  26.230  25.396  1.00  0.00    -0.237 OA
ATOM     73  O   UNL A   1      52.266  27.870  26.744  1.00  0.00    -0.744 OA
ENDBRANCH  69  70
ENDBRANCH  48  62
BRANCH  49  74
ATOM     74  C   UNL A   1      38.404  32.409  30.608  1.00  0.00     0.058 A 
ATOM     75  C   UNL A   1      37.844  32.103  31.857  1.00  0.00     0.135 A 
ATOM     76  C   UNL A   1      37.669  33.245  29.753  1.00  0.00     0.135 A 
ATOM     77  F   UNL A   1      38.504  31.305  32.710  1.00  0.00    -0.206 F 
ATOM     78  C   UNL A   1      36.591  32.577  32.232  1.00  0.00     0.059 A 
ATOM     79  C   UNL A   1      36.429  33.760  30.119  1.00  0.00     0.059 A 
ATOM     80  F   UNL A   1      38.165  33.587  28.553  1.00  0.00    -0.206 F 
ATOM     81  C   UNL A   1      35.892  33.407  31.356  1.00  0.00     0.060 A 
BRANCH  81  82
ATOM     82  S   UNL A   1      34.278  34.039  31.864  1.00  0.00     0.124 S 
ATOM     83  O   UNL A   1      33.638  34.280  30.576  1.00  0.00    -0.237 OA
ATOM     84  O   UNL A   1      33.748  32.925  32.643  1.00  0.00    -0.237 OA
ATOM     85  O   UNL A   1      34.613  35.232  32.635  1.00  0.00    -0.744 OA
ENDBRANCH  81  82
ENDBRANCH  49  74
BRANCH  61  86
ATOM     86  C   UNL A   1      44.908  34.943  30.716  1.00  0.00     0.058 A 
ATOM     87  C   UNL A   1      45.009  36.010  29.810  1.00  0.00     0.135 A 
ATOM     88  C   UNL A   1      45.311  35.173  32.043  1.00  0.00     0.135 A 
ATOM     89  F   UNL A   1      44.644  35.846  28.529  1.00  0.00    -0.206 F 
ATOM     90  C   UNL A   1      45.517  37.246  30.196  1.00  0.00     0.059 A 
ATOM     91  C   UNL A   1      45.786  36.412  32.461  1.00  0.00     0.059 A 
ATOM     92  F   UNL A   1      45.226  34.193  32.956  1.00  0.00    -0.206 F 
ATOM     93  C   UNL A   1      45.898  37.439  31.525  1.00  0.00     0.060 A 
BRANCH  93  94
ATOM     94  S   UNL A   1      46.525  39.057  32.019  1.00  0.00     0.124 S 
ATOM     95  O   UNL A   1      45.733  39.329  33.213  1.00  0.00    -0.237 OA
ATOM     96  O   UNL A   1      47.941  38.785  32.246  1.00  0.00    -0.237 OA
ATOM     97  O   UNL A   1      46.232  39.903  30.866  1.00  0.00    -0.744 OA
ENDBRANCH  93  94
ENDBRANCH  61  86
ENDBRANCH  35  36
ENDBRANCH  27  30
ENDBRANCH  25  26
ENDBRANCH  24  25
ENDBRANCH  23  24
ENDBRANCH  22  23
ENDBRANCH   1  22
TORSDOF 23
ENDMDL
