MODEL 1
REMARK VINA RESULT:     -11.9      0.000      0.000
REMARK SMILES CN1C(=O)N(CC(=O)NCCCCCCNC(=O)c2ccc(-c3c4nc(c(-c5c(F)cc(S(=O)(=O)[O-])cc5F)c5ccc([nH]5)c(-c5c(F)cc(S(=O)(=O)[O-])cc5F)c5nc(c(-c6c(F)cc(S(=O)(=O)[O-])cc6F)c6ccc3[nH]6)C=C5)C=C4)cc2)C(=O)C12CCCCC2
REMARK SMILES IDX 13 1 12 2 11 3 10 4 9 5 7 6 8 7 6 9 5 10 1 11 2 12 3 13
REMARK SMILES IDX 87 14 4 15 85 16 88 17 92 18 86 19 89 20 91 21 90 22 14 23
REMARK SMILES IDX 15 24 16 25 17 26 18 28 19 29 20 30 84 31 21 32 83 33 22 34
REMARK SMILES IDX 23 35 24 36 77 37 25 38 82 39 76 40 78 41 26 42 81 43 75 44
REMARK SMILES IDX 74 45 27 47 61 48 40 49 60 50 41 51 44 52 59 53 79 54 42 55
REMARK SMILES IDX 43 56 58 58 80 59 45 60 28 61 29 62 38 63 30 64 31 65 37 66
REMARK SMILES IDX 39 67 32 68 33 69 34 70 35 71 36 72 62 73 63 74 72 75 64 76
REMARK SMILES IDX 65 77 71 78 73 79 66 80 67 81 68 82 69 83 70 84 46 85 47 86
REMARK SMILES IDX 56 87 48 88 49 89 55 90 57 91 50 92 51 93 52 94 53 95 54 96
REMARK H PARENT 9 8 16 27 78 46 44 57
REMARK Flexibility Score: inf
ROOT
ATOM      1  C   UNL A   1      38.032  22.181  25.755  1.00  0.00     0.002 C 
ENDROOT
BRANCH   1   2
ATOM      2  C   UNL A   1      37.436  21.047  24.910  1.00  0.00     0.002 C 
BRANCH   2   3
ATOM      3  C   UNL A   1      35.918  20.902  24.999  1.00  0.00     0.021 C 
BRANCH   3   4
ATOM      4  C   UNL A   1      35.143  22.133  25.466  1.00  0.00     0.116 C 
BRANCH   4   5
ATOM      5  N   UNL A   1      33.828  22.204  24.863  1.00  0.00    -0.355 N 
ATOM      6  C   UNL A   1      33.342  23.012  23.876  1.00  0.00     0.240 C 
ATOM      7  O   UNL A   1      32.261  22.680  23.375  1.00  0.00    -0.273 OA
ATOM      8  H   UNL A   1      33.175  21.563  25.226  1.00  0.00     0.163 HD
BRANCH   6   9
ATOM      9  C   UNL A   1      34.155  24.159  23.261  1.00  0.00     0.230 C 
BRANCH   9  10
ATOM     10  N   UNL A   1      33.700  25.492  23.594  1.00  0.00    -0.253 N 
ATOM     11  C   UNL A   1      32.690  28.803  22.626  1.00  0.00     0.150 C 
ATOM     12  N   UNL A   1      33.174  27.641  23.341  1.00  0.00    -0.313 N 
ATOM     13  C   UNL A   1      33.553  26.483  22.672  1.00  0.00     0.327 C 
ATOM     14  C   UNL A   1      32.985  27.424  24.780  1.00  0.00     0.124 C 
ATOM     15  O   UNL A   1      33.705  26.374  21.471  1.00  0.00    -0.248 OA
ATOM     16  C   UNL A   1      33.587  25.997  24.857  1.00  0.00     0.257 C 
ATOM     17  C   UNL A   1      33.712  28.442  25.664  1.00  0.00     0.039 C 
ATOM     18  C   UNL A   1      31.495  27.360  25.123  1.00  0.00     0.039 C 
ATOM     19  O   UNL A   1      33.850  25.386  25.884  1.00  0.00    -0.272 OA
ATOM     20  C   UNL A   1      33.381  28.303  27.157  1.00  0.00     0.003 C 
ATOM     21  C   UNL A   1      31.227  27.113  26.601  1.00  0.00     0.003 C 
ATOM     22  C   UNL A   1      31.883  28.198  27.438  1.00  0.00     0.000 C 
ENDBRANCH   9  10
ENDBRANCH   6   9
ENDBRANCH   4   5
ENDBRANCH   3   4
ENDBRANCH   2   3
ENDBRANCH   1   2
BRANCH   1  23
ATOM     23  C   UNL A   1      39.395  21.916  26.412  1.00  0.00     0.021 C 
BRANCH  23  24
ATOM     24  C   UNL A   1      40.108  23.126  27.019  1.00  0.00     0.116 C 
BRANCH  24  25
ATOM     25  N   UNL A   1      40.939  23.822  26.055  1.00  0.00    -0.352 N 
ATOM     26  C   UNL A   1      41.357  25.129  26.017  1.00  0.00     0.251 C 
ATOM     27  H   UNL A   1      41.253  23.267  25.305  1.00  0.00     0.163 HD
ATOM     28  O   UNL A   1      41.905  25.549  25.001  1.00  0.00    -0.269 OA
BRANCH  26  29
ATOM     29  C   UNL A   1      41.152  26.043  27.167  1.00  0.00     0.039 A 
ATOM     30  C   UNL A   1      42.043  27.107  27.337  1.00  0.00     0.014 A 
ATOM     31  C   UNL A   1      40.148  25.825  28.118  1.00  0.00     0.014 A 
ATOM     32  C   UNL A   1      41.907  27.971  28.429  1.00  0.00     0.010 A 
ATOM     33  C   UNL A   1      39.978  26.724  29.176  1.00  0.00     0.010 A 
ATOM     34  C   UNL A   1      40.861  27.799  29.350  1.00  0.00    -0.014 A 
BRANCH  34  35
ATOM     35  C   UNL A   1      40.698  28.731  30.499  1.00  0.00     0.031 A 
ATOM     36  C   UNL A   1      41.565  28.595  31.723  1.00  0.00     0.074 A 
ATOM     37  C   UNL A   1      39.746  29.685  30.457  1.00  0.00     0.049 A 
ATOM     38  N   UNL A   1      41.550  29.296  32.829  1.00  0.00    -0.248 NA
ATOM     39  C   UNL A   1      42.567  27.518  31.712  1.00  0.00     0.031 C 
ATOM     40  C   UNL A   1      38.813  29.898  29.348  1.00  0.00     0.029 A 
ATOM     41  N   UNL A   1      39.400  30.650  31.370  1.00  0.00    -0.354 N 
ATOM     42  C   UNL A   1      42.528  28.740  33.647  1.00  0.00     0.074 A 
ATOM     43  C   UNL A   1      43.083  27.613  32.929  1.00  0.00     0.031 C 
ATOM     44  C   UNL A   1      38.018  30.941  29.637  1.00  0.00     0.029 A 
ATOM     45  C   UNL A   1      38.361  31.452  30.961  1.00  0.00     0.049 A 
ATOM     46  H   UNL A   1      39.854  30.758  32.236  1.00  0.00     0.167 HD
ATOM     47  C   UNL A   1      42.941  29.142  34.873  1.00  0.00     0.037 A 
ATOM     48  C   UNL A   1      37.749  32.481  31.581  1.00  0.00     0.037 A 
ATOM     49  C   UNL A   1      42.406  30.282  35.574  1.00  0.00     0.049 A 
ATOM     50  C   UNL A   1      38.227  32.912  32.942  1.00  0.00     0.074 A 
ATOM     51  C   UNL A   1      42.801  30.805  36.795  1.00  0.00     0.029 A 
ATOM     52  N   UNL A   1      41.364  31.076  35.121  1.00  0.00    -0.354 N 
ATOM     53  N   UNL A   1      39.195  32.411  33.671  1.00  0.00    -0.248 NA
ATOM     54  C   UNL A   1      37.537  34.053  33.558  1.00  0.00     0.031 C 
ATOM     55  C   UNL A   1      41.970  31.889  37.097  1.00  0.00     0.029 A 
ATOM     56  C   UNL A   1      41.088  32.071  36.044  1.00  0.00     0.049 A 
ATOM     57  H   UNL A   1      40.889  30.950  34.267  1.00  0.00     0.167 HD
ATOM     58  C   UNL A   1      39.244  33.190  34.822  1.00  0.00     0.074 A 
ATOM     59  C   UNL A   1      38.219  34.204  34.685  1.00  0.00     0.031 C 
ATOM     60  C   UNL A   1      40.066  33.077  35.895  1.00  0.00     0.037 A 
BRANCH  47  61
ATOM     61  C   UNL A   1      44.032  28.347  35.539  1.00  0.00     0.058 A 
ATOM     62  C   UNL A   1      45.389  28.638  35.327  1.00  0.00     0.135 A 
ATOM     63  C   UNL A   1      43.718  27.304  36.424  1.00  0.00     0.135 A 
ATOM     64  F   UNL A   1      45.747  29.617  34.480  1.00  0.00    -0.206 F 
ATOM     65  C   UNL A   1      46.396  27.903  35.944  1.00  0.00     0.059 A 
ATOM     66  C   UNL A   1      44.709  26.573  37.074  1.00  0.00     0.059 A 
ATOM     67  F   UNL A   1      42.437  26.984  36.666  1.00  0.00    -0.206 F 
ATOM     68  C   UNL A   1      46.046  26.869  36.813  1.00  0.00     0.060 A 
BRANCH  68  69
ATOM     69  S   UNL A   1      47.364  25.921  37.602  1.00  0.00     0.124 S 
ATOM     70  O   UNL A   1      46.688  25.419  38.794  1.00  0.00    -0.237 OA
ATOM     71  O   UNL A   1      47.682  24.921  36.587  1.00  0.00    -0.237 OA
ATOM     72  O   UNL A   1      48.403  26.917  37.843  1.00  0.00    -0.744 OA
ENDBRANCH  68  69
ENDBRANCH  47  61
BRANCH  48  73
ATOM     73  C   UNL A   1      36.629  33.193  30.909  1.00  0.00     0.058 A 
ATOM     74  C   UNL A   1      36.869  34.053  29.827  1.00  0.00     0.135 A 
ATOM     75  C   UNL A   1      35.302  33.022  31.327  1.00  0.00     0.135 A 
ATOM     76  F   UNL A   1      38.123  34.254  29.395  1.00  0.00    -0.206 F 
ATOM     77  C   UNL A   1      35.834  34.731  29.191  1.00  0.00     0.059 A 
ATOM     78  C   UNL A   1      34.246  33.671  30.693  1.00  0.00     0.059 A 
ATOM     79  F   UNL A   1      35.018  32.198  32.348  1.00  0.00    -0.206 F 
ATOM     80  C   UNL A   1      34.524  34.532  29.633  1.00  0.00     0.060 A 
BRANCH  80  81
ATOM     81  S   UNL A   1      33.181  35.379  28.771  1.00  0.00     0.124 S 
ATOM     82  O   UNL A   1      32.573  34.283  28.026  1.00  0.00    -0.237 OA
ATOM     83  O   UNL A   1      32.394  35.914  29.877  1.00  0.00    -0.237 OA
ATOM     84  O   UNL A   1      33.879  36.379  27.969  1.00  0.00    -0.744 OA
ENDBRANCH  80  81
ENDBRANCH  48  73
BRANCH  60  85
ATOM     85  C   UNL A   1      39.910  34.089  36.996  1.00  0.00     0.058 A 
ATOM     86  C   UNL A   1      40.507  35.357  36.921  1.00  0.00     0.135 A 
ATOM     87  C   UNL A   1      39.114  33.804  38.118  1.00  0.00     0.135 A 
ATOM     88  F   UNL A   1      41.283  35.678  35.873  1.00  0.00    -0.206 F 
ATOM     89  C   UNL A   1      40.340  36.299  37.931  1.00  0.00     0.059 A 
ATOM     90  C   UNL A   1      38.912  34.740  39.127  1.00  0.00     0.059 A 
ATOM     91  F   UNL A   1      38.512  32.610  38.233  1.00  0.00    -0.206 F 
ATOM     92  C   UNL A   1      39.539  35.982  39.030  1.00  0.00     0.060 A 
BRANCH  92  93
ATOM     93  S   UNL A   1      39.304  37.224  40.319  1.00  0.00     0.124 S 
ATOM     94  O   UNL A   1      38.547  38.248  39.606  1.00  0.00    -0.237 OA
ATOM     95  O   UNL A   1      38.565  36.483  41.337  1.00  0.00    -0.237 OA
ATOM     96  O   UNL A   1      40.667  37.593  40.688  1.00  0.00    -0.744 OA
ENDBRANCH  92  93
ENDBRANCH  60  85
ENDBRANCH  34  35
ENDBRANCH  26  29
ENDBRANCH  24  25
ENDBRANCH  23  24
ENDBRANCH   1  23
TORSDOF 17
ENDMDL
MODEL 2
REMARK VINA RESULT:     -11.8      6.554     12.066
REMARK SMILES CN1C(=O)N(CC(=O)NCCCCCCNC(=O)c2ccc(-c3c4nc(c(-c5c(F)cc(S(=O)(=O)[O-])cc5F)c5ccc([nH]5)c(-c5c(F)cc(S(=O)(=O)[O-])cc5F)c5nc(c(-c6c(F)cc(S(=O)(=O)[O-])cc6F)c6ccc3[nH]6)C=C5)C=C4)cc2)C(=O)C12CCCCC2
REMARK SMILES IDX 13 1 12 2 11 3 10 4 9 5 7 6 8 7 6 9 5 10 1 11 2 12 3 13
REMARK SMILES IDX 87 14 4 15 85 16 88 17 92 18 86 19 89 20 91 21 90 22 14 23
REMARK SMILES IDX 15 24 16 25 17 26 18 28 19 29 20 30 84 31 21 32 83 33 22 34
REMARK SMILES IDX 23 35 24 36 77 37 25 38 82 39 76 40 78 41 26 42 81 43 75 44
REMARK SMILES IDX 74 45 27 47 61 48 40 49 60 50 41 51 44 52 59 53 79 54 42 55
REMARK SMILES IDX 43 56 58 58 80 59 45 60 28 61 29 62 38 63 30 64 31 65 37 66
REMARK SMILES IDX 39 67 32 68 33 69 34 70 35 71 36 72 62 73 63 74 72 75 64 76
REMARK SMILES IDX 65 77 71 78 73 79 66 80 67 81 68 82 69 83 70 84 46 85 47 86
REMARK SMILES IDX 56 87 48 88 49 89 55 90 57 91 50 92 51 93 52 94 53 95 54 96
REMARK H PARENT 9 8 16 27 78 46 44 57
REMARK Flexibility Score: inf
ROOT
ATOM      1  C   UNL A   1      34.582  29.117  27.294  1.00  0.00     0.002 C 
ENDROOT
BRANCH   1   2
ATOM      2  C   UNL A   1      33.420  28.438  26.557  1.00  0.00     0.002 C 
BRANCH   2   3
ATOM      3  C   UNL A   1      33.062  29.054  25.205  1.00  0.00     0.021 C 
BRANCH   3   4
ATOM      4  C   UNL A   1      31.593  29.407  24.985  1.00  0.00     0.116 C 
BRANCH   4   5
ATOM      5  N   UNL A   1      31.306  29.682  23.593  1.00  0.00    -0.355 N 
ATOM      6  C   UNL A   1      30.473  29.055  22.713  1.00  0.00     0.240 C 
ATOM      7  O   UNL A   1      30.224  29.659  21.663  1.00  0.00    -0.273 OA
ATOM      8  H   UNL A   1      31.794  30.450  23.217  1.00  0.00     0.163 HD
BRANCH   6   9
ATOM      9  C   UNL A   1      29.714  27.766  23.058  1.00  0.00     0.230 C 
BRANCH   9  10
ATOM     10  N   UNL A   1      30.538  26.593  23.257  1.00  0.00    -0.253 N 
ATOM     11  C   UNL A   1      32.973  24.224  22.079  1.00  0.00     0.150 C 
ATOM     12  N   UNL A   1      31.901  24.896  22.784  1.00  0.00    -0.313 N 
ATOM     13  C   UNL A   1      31.304  26.042  22.274  1.00  0.00     0.327 C 
ATOM     14  C   UNL A   1      31.589  24.681  24.202  1.00  0.00     0.124 C 
ATOM     15  O   UNL A   1      31.457  26.484  21.153  1.00  0.00    -0.248 OA
ATOM     16  C   UNL A   1      30.486  25.763  24.340  1.00  0.00     0.257 C 
ATOM     17  C   UNL A   1      31.100  23.266  24.525  1.00  0.00     0.039 C 
ATOM     18  C   UNL A   1      32.783  25.066  25.079  1.00  0.00     0.039 C 
ATOM     19  O   UNL A   1      29.737  25.903  25.296  1.00  0.00    -0.272 OA
ATOM     20  C   UNL A   1      30.928  23.006  26.028  1.00  0.00     0.003 C 
ATOM     21  C   UNL A   1      32.518  24.889  26.568  1.00  0.00     0.003 C 
ATOM     22  C   UNL A   1      32.129  23.449  26.861  1.00  0.00     0.000 C 
ENDBRANCH   9  10
ENDBRANCH   6   9
ENDBRANCH   4   5
ENDBRANCH   3   4
ENDBRANCH   2   3
ENDBRANCH   1   2
BRANCH   1  23
ATOM     23  C   UNL A   1      34.452  30.625  27.557  1.00  0.00     0.021 C 
BRANCH  23  24
ATOM     24  C   UNL A   1      35.612  31.291  28.300  1.00  0.00     0.116 C 
BRANCH  24  25
ATOM     25  N   UNL A   1      35.583  31.027  29.726  1.00  0.00    -0.352 N 
ATOM     26  C   UNL A   1      36.480  30.368  30.530  1.00  0.00     0.251 C 
ATOM     27  H   UNL A   1      34.790  31.376  30.194  1.00  0.00     0.163 HD
ATOM     28  O   UNL A   1      36.158  30.099  31.684  1.00  0.00    -0.269 OA
BRANCH  26  29
ATOM     29  C   UNL A   1      37.817  29.965  30.031  1.00  0.00     0.039 A 
ATOM     30  C   UNL A   1      38.816  29.679  30.967  1.00  0.00     0.014 A 
ATOM     31  C   UNL A   1      38.123  29.939  28.666  1.00  0.00     0.014 A 
ATOM     32  C   UNL A   1      40.102  29.331  30.540  1.00  0.00     0.010 A 
ATOM     33  C   UNL A   1      39.392  29.534  28.240  1.00  0.00     0.010 A 
ATOM     34  C   UNL A   1      40.398  29.236  29.171  1.00  0.00    -0.014 A 
BRANCH  34  35
ATOM     35  C   UNL A   1      41.758  28.841  28.712  1.00  0.00     0.031 A 
ATOM     36  C   UNL A   1      42.863  29.862  28.625  1.00  0.00     0.074 A 
ATOM     37  C   UNL A   1      41.995  27.567  28.342  1.00  0.00     0.049 A 
ATOM     38  N   UNL A   1      44.100  29.710  28.224  1.00  0.00    -0.248 NA
ATOM     39  C   UNL A   1      42.528  31.239  29.021  1.00  0.00     0.031 C 
ATOM     40  C   UNL A   1      41.003  26.489  28.341  1.00  0.00     0.029 A 
ATOM     41  N   UNL A   1      43.142  26.961  27.890  1.00  0.00    -0.354 N 
ATOM     42  C   UNL A   1      44.686  30.969  28.308  1.00  0.00     0.074 A 
ATOM     43  C   UNL A   1      43.655  31.882  28.752  1.00  0.00     0.031 C 
ATOM     44  C   UNL A   1      41.589  25.352  27.931  1.00  0.00     0.029 A 
ATOM     45  C   UNL A   1      42.988  25.623  27.612  1.00  0.00     0.049 A 
ATOM     46  H   UNL A   1      43.994  27.439  27.778  1.00  0.00     0.167 HD
ATOM     47  C   UNL A   1      45.969  31.327  28.060  1.00  0.00     0.037 A 
ATOM     48  C   UNL A   1      43.871  24.716  27.148  1.00  0.00     0.037 A 
ATOM     49  C   UNL A   1      47.000  30.411  27.646  1.00  0.00     0.049 A 
ATOM     50  C   UNL A   1      45.291  25.137  26.883  1.00  0.00     0.074 A 
ATOM     51  C   UNL A   1      48.344  30.668  27.428  1.00  0.00     0.029 A 
ATOM     52  N   UNL A   1      46.807  29.062  27.387  1.00  0.00    -0.354 N 
ATOM     53  N   UNL A   1      45.840  26.320  27.027  1.00  0.00    -0.248 NA
ATOM     54  C   UNL A   1      46.213  24.100  26.399  1.00  0.00     0.031 C 
ATOM     55  C   UNL A   1      48.953  29.485  26.998  1.00  0.00     0.029 A 
ATOM     56  C   UNL A   1      48.000  28.479  26.992  1.00  0.00     0.049 A 
ATOM     57  H   UNL A   1      45.948  28.589  27.471  1.00  0.00     0.167 HD
ATOM     58  C   UNL A   1      47.177  26.162  26.676  1.00  0.00     0.074 A 
ATOM     59  C   UNL A   1      47.356  24.769  26.325  1.00  0.00     0.031 C 
ATOM     60  C   UNL A   1      48.167  27.089  26.648  1.00  0.00     0.037 A 
BRANCH  47  61
ATOM     61  C   UNL A   1      46.334  32.777  28.235  1.00  0.00     0.058 A 
ATOM     62  C   UNL A   1      46.810  33.274  29.460  1.00  0.00     0.135 A 
ATOM     63  C   UNL A   1      46.242  33.673  27.158  1.00  0.00     0.135 A 
ATOM     64  F   UNL A   1      46.907  32.464  30.526  1.00  0.00    -0.206 F 
ATOM     65  C   UNL A   1      47.149  34.613  29.619  1.00  0.00     0.059 A 
ATOM     66  C   UNL A   1      46.602  35.012  27.288  1.00  0.00     0.059 A 
ATOM     67  F   UNL A   1      45.797  33.252  25.964  1.00  0.00    -0.206 F 
ATOM     68  C   UNL A   1      47.038  35.476  28.527  1.00  0.00     0.060 A 
BRANCH  68  69
ATOM     69  S   UNL A   1      47.477  37.212  28.752  1.00  0.00     0.124 S 
ATOM     70  O   UNL A   1      46.169  37.813  28.994  1.00  0.00    -0.237 OA
ATOM     71  O   UNL A   1      48.373  37.164  29.902  1.00  0.00    -0.237 OA
ATOM     72  O   UNL A   1      48.106  37.571  27.485  1.00  0.00    -0.744 OA
ENDBRANCH  68  69
ENDBRANCH  47  61
BRANCH  48  73
ATOM     73  C   UNL A   1      43.442  23.309  26.927  1.00  0.00     0.058 A 
ATOM     74  C   UNL A   1      43.351  22.407  27.998  1.00  0.00     0.135 A 
ATOM     75  C   UNL A   1      43.107  22.842  25.648  1.00  0.00     0.135 A 
ATOM     76  F   UNL A   1      43.668  22.805  29.239  1.00  0.00    -0.206 F 
ATOM     77  C   UNL A   1      42.958  21.086  27.807  1.00  0.00     0.059 A 
ATOM     78  C   UNL A   1      42.688  21.532  25.435  1.00  0.00     0.059 A 
ATOM     79  F   UNL A   1      43.162  23.669  24.593  1.00  0.00    -0.206 F 
ATOM     80  C   UNL A   1      42.628  20.659  26.520  1.00  0.00     0.060 A 
BRANCH  80  81
ATOM     81  S   UNL A   1      42.072  18.955  26.289  1.00  0.00     0.124 S 
ATOM     82  O   UNL A   1      42.135  18.439  27.651  1.00  0.00    -0.237 OA
ATOM     83  O   UNL A   1      40.734  19.140  25.737  1.00  0.00    -0.237 OA
ATOM     84  O   UNL A   1      43.054  18.408  25.358  1.00  0.00    -0.744 OA
ENDBRANCH  80  81
ENDBRANCH  48  73
BRANCH  60  85
ATOM     85  C   UNL A   1      49.539  26.623  26.249  1.00  0.00     0.058 A 
ATOM     86  C   UNL A   1      49.991  26.709  24.924  1.00  0.00     0.135 A 
ATOM     87  C   UNL A   1      50.431  26.126  27.215  1.00  0.00     0.135 A 
ATOM     88  F   UNL A   1      49.176  27.170  23.961  1.00  0.00    -0.206 F 
ATOM     89  C   UNL A   1      51.271  26.299  24.564  1.00  0.00     0.059 A 
ATOM     90  C   UNL A   1      51.724  25.734  26.882  1.00  0.00     0.059 A 
ATOM     91  F   UNL A   1      50.052  26.033  28.500  1.00  0.00    -0.206 F 
ATOM     92  C   UNL A   1      52.131  25.813  25.551  1.00  0.00     0.060 A 
BRANCH  92  93
ATOM     93  S   UNL A   1      53.800  25.313  25.078  1.00  0.00     0.124 S 
ATOM     94  O   UNL A   1      53.607  23.900  24.767  1.00  0.00    -0.237 OA
ATOM     95  O   UNL A   1      54.075  26.181  23.936  1.00  0.00    -0.237 OA
ATOM     96  O   UNL A   1      54.590  25.592  26.273  1.00  0.00    -0.744 OA
ENDBRANCH  92  93
ENDBRANCH  60  85
ENDBRANCH  34  35
ENDBRANCH  26  29
ENDBRANCH  24  25
ENDBRANCH  23  24
ENDBRANCH   1  23
TORSDOF 17
ENDMDL
MODEL 3
REMARK VINA RESULT:     -11.8      0.692      1.790
REMARK SMILES CN1C(=O)N(CC(=O)NCCCCCCNC(=O)c2ccc(-c3c4nc(c(-c5c(F)cc(S(=O)(=O)[O-])cc5F)c5ccc([nH]5)c(-c5c(F)cc(S(=O)(=O)[O-])cc5F)c5nc(c(-c6c(F)cc(S(=O)(=O)[O-])cc6F)c6ccc3[nH]6)C=C5)C=C4)cc2)C(=O)C12CCCCC2
REMARK SMILES IDX 13 1 12 2 11 3 10 4 9 5 7 6 8 7 6 9 5 10 1 11 2 12 3 13
REMARK SMILES IDX 87 14 4 15 85 16 88 17 92 18 86 19 89 20 91 21 90 22 14 23
REMARK SMILES IDX 15 24 16 25 17 26 18 28 19 29 20 30 84 31 21 32 83 33 22 34
REMARK SMILES IDX 23 35 24 36 77 37 25 38 82 39 76 40 78 41 26 42 81 43 75 44
REMARK SMILES IDX 74 45 27 47 61 48 40 49 60 50 41 51 44 52 59 53 79 54 42 55
REMARK SMILES IDX 43 56 58 58 80 59 45 60 28 61 29 62 38 63 30 64 31 65 37 66
REMARK SMILES IDX 39 67 32 68 33 69 34 70 35 71 36 72 62 73 63 74 72 75 64 76
REMARK SMILES IDX 65 77 71 78 73 79 66 80 67 81 68 82 69 83 70 84 46 85 47 86
REMARK SMILES IDX 56 87 48 88 49 89 55 90 57 91 50 92 51 93 52 94 53 95 54 96
REMARK H PARENT 9 8 16 27 78 46 44 57
REMARK Flexibility Score: inf
ROOT
ATOM      1  C   UNL A   1      38.114  23.732  26.148  1.00  0.00     0.002 C 
ENDROOT
BRANCH   1   2
ATOM      2  C   UNL A   1      37.011  23.344  25.153  1.00  0.00     0.002 C 
BRANCH   2   3
ATOM      3  C   UNL A   1      36.098  22.207  25.609  1.00  0.00     0.021 C 
BRANCH   3   4
ATOM      4  C   UNL A   1      34.644  22.275  25.149  1.00  0.00     0.116 C 
BRANCH   4   5
ATOM      5  N   UNL A   1      34.537  22.586  23.739  1.00  0.00    -0.355 N 
ATOM      6  C   UNL A   1      33.595  23.292  23.050  1.00  0.00     0.240 C 
ATOM      7  O   UNL A   1      33.889  23.624  21.895  1.00  0.00    -0.273 OA
ATOM      8  H   UNL A   1      35.266  22.226  23.183  1.00  0.00     0.163 HD
BRANCH   6   9
ATOM      9  C   UNL A   1      32.315  23.834  23.703  1.00  0.00     0.230 C 
BRANCH   9  10
ATOM     10  N   UNL A   1      32.273  25.267  23.892  1.00  0.00    -0.253 N 
ATOM     11  C   UNL A   1      31.419  28.567  22.749  1.00  0.00     0.150 C 
ATOM     12  N   UNL A   1      32.010  27.428  23.419  1.00  0.00    -0.313 N 
ATOM     13  C   UNL A   1      31.852  26.136  22.932  1.00  0.00     0.327 C 
ATOM     14  C   UNL A   1      32.499  27.452  24.803  1.00  0.00     0.124 C 
ATOM     15  O   UNL A   1      31.397  25.838  21.845  1.00  0.00    -0.248 OA
ATOM     16  C   UNL A   1      32.850  25.947  24.927  1.00  0.00     0.257 C 
ATOM     17  C   UNL A   1      33.698  28.379  25.025  1.00  0.00     0.039 C 
ATOM     18  C   UNL A   1      31.360  27.784  25.770  1.00  0.00     0.039 C 
ATOM     19  O   UNL A   1      33.476  25.431  25.842  1.00  0.00    -0.272 OA
ATOM     20  C   UNL A   1      34.101  28.517  26.500  1.00  0.00     0.003 C 
ATOM     21  C   UNL A   1      31.794  27.803  27.228  1.00  0.00     0.003 C 
ATOM     22  C   UNL A   1      32.919  28.804  27.425  1.00  0.00     0.000 C 
ENDBRANCH   9  10
ENDBRANCH   6   9
ENDBRANCH   4   5
ENDBRANCH   3   4
ENDBRANCH   2   3
ENDBRANCH   1   2
BRANCH   1  23
ATOM     23  C   UNL A   1      39.127  22.640  26.521  1.00  0.00     0.021 C 
BRANCH  23  24
ATOM     24  C   UNL A   1      40.465  23.117  27.091  1.00  0.00     0.116 C 
BRANCH  24  25
ATOM     25  N   UNL A   1      41.247  23.861  26.123  1.00  0.00    -0.352 N 
ATOM     26  C   UNL A   1      41.585  25.192  26.082  1.00  0.00     0.251 C 
ATOM     27  H   UNL A   1      41.591  23.326  25.371  1.00  0.00     0.163 HD
ATOM     28  O   UNL A   1      42.101  25.643  25.063  1.00  0.00    -0.269 OA
BRANCH  26  29
ATOM     29  C   UNL A   1      41.331  26.092  27.233  1.00  0.00     0.039 A 
ATOM     30  C   UNL A   1      42.200  27.168  27.439  1.00  0.00     0.014 A 
ATOM     31  C   UNL A   1      40.302  25.850  28.150  1.00  0.00     0.014 A 
ATOM     32  C   UNL A   1      42.017  28.020  28.533  1.00  0.00     0.010 A 
ATOM     33  C   UNL A   1      40.086  26.737  29.210  1.00  0.00     0.010 A 
ATOM     34  C   UNL A   1      40.946  27.825  29.420  1.00  0.00    -0.014 A 
BRANCH  34  35
ATOM     35  C   UNL A   1      40.734  28.744  30.570  1.00  0.00     0.031 A 
ATOM     36  C   UNL A   1      41.561  28.607  31.822  1.00  0.00     0.074 A 
ATOM     37  C   UNL A   1      39.772  29.686  30.505  1.00  0.00     0.049 A 
ATOM     38  N   UNL A   1      41.501  29.298  32.933  1.00  0.00    -0.248 NA
ATOM     39  C   UNL A   1      42.576  27.542  31.834  1.00  0.00     0.031 C 
ATOM     40  C   UNL A   1      38.874  29.899  29.368  1.00  0.00     0.029 A 
ATOM     41  N   UNL A   1      39.384  30.639  31.415  1.00  0.00    -0.354 N 
ATOM     42  C   UNL A   1      42.458  28.745  33.778  1.00  0.00     0.074 A 
ATOM     43  C   UNL A   1      43.050  27.631  33.069  1.00  0.00     0.031 C 
ATOM     44  C   UNL A   1      38.057  30.930  29.639  1.00  0.00     0.029 A 
ATOM     45  C   UNL A   1      38.349  31.432  30.979  1.00  0.00     0.049 A 
ATOM     46  H   UNL A   1      39.808  30.745  32.297  1.00  0.00     0.167 HD
ATOM     47  C   UNL A   1      42.824  29.141  35.021  1.00  0.00     0.037 A 
ATOM     48  C   UNL A   1      37.705  32.449  31.587  1.00  0.00     0.037 A 
ATOM     49  C   UNL A   1      42.253  30.268  35.714  1.00  0.00     0.049 A 
ATOM     50  C   UNL A   1      38.133  32.873  32.966  1.00  0.00     0.074 A 
ATOM     51  C   UNL A   1      42.601  30.784  36.951  1.00  0.00     0.029 A 
ATOM     52  N   UNL A   1      41.217  31.054  35.233  1.00  0.00    -0.354 N 
ATOM     53  N   UNL A   1      39.081  32.376  33.724  1.00  0.00    -0.248 NA
ATOM     54  C   UNL A   1      37.408  33.999  33.570  1.00  0.00     0.031 C 
ATOM     55  C   UNL A   1      41.748  31.856  37.235  1.00  0.00     0.029 A 
ATOM     56  C   UNL A   1      40.898  32.036  36.155  1.00  0.00     0.049 A 
ATOM     57  H   UNL A   1      40.772  30.930  34.363  1.00  0.00     0.167 HD
ATOM     58  C   UNL A   1      39.083  33.145  34.882  1.00  0.00     0.074 A 
ATOM     59  C   UNL A   1      38.050  34.148  34.720  1.00  0.00     0.031 C 
ATOM     60  C   UNL A   1      39.870  33.032  35.981  1.00  0.00     0.037 A 
BRANCH  47  61
ATOM     61  C   UNL A   1      43.903  28.352  35.715  1.00  0.00     0.058 A 
ATOM     62  C   UNL A   1      43.596  27.289  36.580  1.00  0.00     0.135 A 
ATOM     63  C   UNL A   1      45.258  28.639  35.487  1.00  0.00     0.135 A 
ATOM     64  F   UNL A   1      42.316  26.979  36.843  1.00  0.00    -0.206 F 
ATOM     65  C   UNL A   1      44.593  26.560  37.219  1.00  0.00     0.059 A 
ATOM     66  C   UNL A   1      46.273  27.905  36.095  1.00  0.00     0.059 A 
ATOM     67  F   UNL A   1      45.608  29.643  34.668  1.00  0.00    -0.206 F 
ATOM     68  C   UNL A   1      45.930  26.878  36.973  1.00  0.00     0.060 A 
BRANCH  68  69
ATOM     69  S   UNL A   1      47.213  25.927  37.815  1.00  0.00     0.124 S 
ATOM     70  O   UNL A   1      48.376  26.208  36.980  1.00  0.00    -0.237 OA
ATOM     71  O   UNL A   1      47.228  26.527  39.144  1.00  0.00    -0.237 OA
ATOM     72  O   UNL A   1      46.714  24.556  37.754  1.00  0.00    -0.744 OA
ENDBRANCH  68  69
ENDBRANCH  47  61
BRANCH  48  73
ATOM     73  C   UNL A   1      36.600  33.153  30.884  1.00  0.00     0.058 A 
ATOM     74  C   UNL A   1      35.260  32.901  31.214  1.00  0.00     0.135 A 
ATOM     75  C   UNL A   1      36.859  34.095  29.878  1.00  0.00     0.135 A 
ATOM     76  F   UNL A   1      34.962  32.003  32.165  1.00  0.00    -0.206 F 
ATOM     77  C   UNL A   1      34.215  33.547  30.563  1.00  0.00     0.059 A 
ATOM     78  C   UNL A   1      35.832  34.772  29.227  1.00  0.00     0.059 A 
ATOM     79  F   UNL A   1      38.125  34.384  29.535  1.00  0.00    -0.206 F 
ATOM     80  C   UNL A   1      34.512  34.482  29.570  1.00  0.00     0.060 A 
BRANCH  80  81
ATOM     81  S   UNL A   1      33.149  35.351  28.762  1.00  0.00     0.124 S 
ATOM     82  O   UNL A   1      32.530  34.277  27.995  1.00  0.00    -0.237 OA
ATOM     83  O   UNL A   1      32.383  35.847  29.900  1.00  0.00    -0.237 OA
ATOM     84  O   UNL A   1      33.827  36.379  27.978  1.00  0.00    -0.744 OA
ENDBRANCH  80  81
ENDBRANCH  48  73
BRANCH  60  85
ATOM     85  C   UNL A   1      39.665  34.032  37.085  1.00  0.00     0.058 A 
ATOM     86  C   UNL A   1      38.902  33.729  38.222  1.00  0.00     0.135 A 
ATOM     87  C   UNL A   1      40.280  35.294  37.025  1.00  0.00     0.135 A 
ATOM     88  F   UNL A   1      38.287  32.539  38.326  1.00  0.00    -0.206 F 
ATOM     89  C   UNL A   1      38.735  34.649  39.252  1.00  0.00     0.059 A 
ATOM     90  C   UNL A   1      40.148  36.221  38.054  1.00  0.00     0.059 A 
ATOM     91  F   UNL A   1      41.031  35.630  35.963  1.00  0.00    -0.206 F 
ATOM     92  C   UNL A   1      39.363  35.893  39.159  1.00  0.00     0.060 A 
BRANCH  92  93
ATOM     93  S   UNL A   1      39.165  37.068  40.516  1.00  0.00     0.124 S 
ATOM     94  O   UNL A   1      38.533  36.237  41.535  1.00  0.00    -0.237 OA
ATOM     95  O   UNL A   1      40.543  37.467  40.788  1.00  0.00    -0.237 OA
ATOM     96  O   UNL A   1      38.321  38.111  39.942  1.00  0.00    -0.744 OA
ENDBRANCH  92  93
ENDBRANCH  60  85
ENDBRANCH  34  35
ENDBRANCH  26  29
ENDBRANCH  24  25
ENDBRANCH  23  24
ENDBRANCH   1  23
TORSDOF 17
ENDMDL
