MODEL 1
REMARK VINA RESULT:     -10.8      0.000      0.000
REMARK SMILES CCNC(=O)NC(=O)[C@@H](C)[NH2+][C@](C)(C(=O)NCCCCCCNC(=O)c1ccc(-c2c3nc(c(-c4c(F)cc(S(=O)(=O)[O-])cc4F)c4ccc([nH]4)c(-c4c(F)cc(S(=O)(=O)[O-])cc4F)c4nc(c(-c5c(F)cc(S(=O)(=O)[O-])cc5F)c5ccc2[nH]5)C=C4)C=C3)cc1)C(F)(F)F
REMARK SMILES IDX 19 1 18 2 17 3 16 4 14 5 15 6 12 8 13 9 11 10 9 13 10 14
REMARK SMILES IDX 7 15 3 16 4 17 5 19 6 20 8 22 2 23 1 24 92 25 93 26 94 27
REMARK SMILES IDX 95 28 20 29 21 30 22 31 23 32 24 33 25 35 26 36 27 37 91 38
REMARK SMILES IDX 28 39 90 40 29 41 30 42 31 43 84 44 32 45 89 46 83 47 85 48
REMARK SMILES IDX 33 49 88 50 82 51 81 52 34 54 68 55 47 56 67 57 48 58 51 59
REMARK SMILES IDX 66 60 86 61 49 62 50 63 65 65 87 66 52 67 35 68 36 69 45 70
REMARK SMILES IDX 37 71 38 72 44 73 46 74 39 75 40 76 41 77 42 78 43 79 69 80
REMARK SMILES IDX 70 81 79 82 71 83 72 84 78 85 80 86 73 87 74 88 75 89 76 90
REMARK SMILES IDX 77 91 53 92 54 93 63 94 55 95 56 96 62 97 64 98 57 99 58 100
REMARK SMILES IDX 59 101 60 102 61 103
REMARK H PARENT 16 7 11 11 11 12 3 18 6 21 23 34 85 53 51 64
REMARK Flexibility Score: inf
ROOT
ATOM      1  C   UNL A   1      38.525  22.317  25.548  1.00  0.00     0.002 C 
ENDROOT
BRANCH   1   2
ATOM      2  C   UNL A   1      38.044  23.668  26.095  1.00  0.00     0.021 C 
BRANCH   2   3
ATOM      3  C   UNL A   1      36.530  23.838  25.997  1.00  0.00     0.116 C 
BRANCH   3   4
ATOM      4  N   UNL A   1      35.999  22.824  25.098  1.00  0.00    -0.350 N 
ATOM      5  C   UNL A   1      34.815  22.133  25.129  1.00  0.00     0.290 C 
ATOM      6  O   UNL A   1      34.776  21.104  24.452  1.00  0.00    -0.267 OA
ATOM      7  H   UNL A   1      36.587  22.597  24.342  1.00  0.00     0.163 HD
BRANCH   5   8
ATOM      8  C   UNL A   1      33.566  22.737  25.845  1.00  0.00     0.269 C 
ATOM      9  C   UNL A   1      33.830  24.209  26.219  1.00  0.00     0.101 C 
BRANCH   8  10
ATOM     10  N   UNL A   1      32.475  22.653  24.823  1.00  0.00    -0.316 N 
ATOM     11  H   UNL A   1      32.717  21.854  24.238  1.00  0.00     0.348 HD
ATOM     12  H   UNL A   1      31.660  22.658  25.437  1.00  0.00     0.348 HD
BRANCH  10  13
ATOM     13  C   UNL A   1      32.092  23.708  23.891  1.00  0.00     0.271 C 
ATOM     14  C   UNL A   1      30.677  24.267  23.719  1.00  0.00     0.086 C 
BRANCH  13  15
ATOM     15  C   UNL A   1      32.498  23.235  22.480  1.00  0.00     0.285 C 
ATOM     16  N   UNL A   1      33.052  26.519  21.618  1.00  0.00    -0.338 N 
ATOM     17  C   UNL A   1      32.914  25.387  20.928  1.00  0.00     0.321 C 
ATOM     18  H   UNL A   1      32.998  27.304  21.026  1.00  0.00     0.165 HD
ATOM     19  O   UNL A   1      32.890  25.507  19.697  1.00  0.00    -0.248 OA
ATOM     20  N   UNL A   1      32.782  24.117  21.425  1.00  0.00    -0.273 N 
ATOM     21  H   UNL A   1      32.991  23.530  20.662  1.00  0.00     0.175 HD
ATOM     22  O   UNL A   1      32.622  22.028  22.242  1.00  0.00    -0.268 OA
BRANCH  16  23
ATOM     23  C   UNL A   1      33.259  26.916  22.990  1.00  0.00     0.114 C 
ATOM     24  C   UNL A   1      33.856  28.298  23.148  1.00  0.00     0.027 C 
ENDBRANCH  16  23
ENDBRANCH  13  15
ENDBRANCH  10  13
ENDBRANCH   8  10
BRANCH   8  25
ATOM     25  C   UNL A   1      33.480  21.976  27.202  1.00  0.00     0.453 C 
ATOM     26  F   UNL A   1      34.647  21.999  27.888  1.00  0.00    -0.164 F 
ATOM     27  F   UNL A   1      32.563  22.560  28.017  1.00  0.00    -0.164 F 
ATOM     28  F   UNL A   1      33.110  20.683  27.063  1.00  0.00    -0.164 F 
ENDBRANCH   8  25
ENDBRANCH   5   8
ENDBRANCH   3   4
ENDBRANCH   2   3
ENDBRANCH   1   2
BRANCH   1  29
ATOM     29  C   UNL A   1      39.714  21.708  26.303  1.00  0.00     0.002 C 
BRANCH  29  30
ATOM     30  C   UNL A   1      40.229  22.550  27.471  1.00  0.00     0.021 C 
BRANCH  30  31
ATOM     31  C   UNL A   1      41.618  23.136  27.252  1.00  0.00     0.116 C 
BRANCH  31  32
ATOM     32  N   UNL A   1      41.656  24.030  26.107  1.00  0.00    -0.352 N 
ATOM     33  C   UNL A   1      41.427  25.387  26.074  1.00  0.00     0.251 C 
ATOM     34  H   UNL A   1      41.871  23.612  25.242  1.00  0.00     0.163 HD
ATOM     35  O   UNL A   1      41.299  25.972  25.011  1.00  0.00    -0.269 OA
BRANCH  33  36
ATOM     36  C   UNL A   1      41.317  26.118  27.356  1.00  0.00     0.039 A 
ATOM     37  C   UNL A   1      42.394  26.892  27.794  1.00  0.00     0.014 A 
ATOM     38  C   UNL A   1      40.135  26.061  28.098  1.00  0.00     0.014 A 
ATOM     39  C   UNL A   1      42.262  27.661  28.953  1.00  0.00     0.010 A 
ATOM     40  C   UNL A   1      39.981  26.881  29.210  1.00  0.00     0.010 A 
ATOM     41  C   UNL A   1      41.043  27.687  29.651  1.00  0.00    -0.014 A 
BRANCH  41  42
ATOM     42  C   UNL A   1      40.846  28.523  30.862  1.00  0.00     0.031 A 
ATOM     43  C   UNL A   1      39.803  29.608  30.847  1.00  0.00     0.074 A 
ATOM     44  C   UNL A   1      41.652  28.369  31.931  1.00  0.00     0.049 A 
ATOM     45  N   UNL A   1      39.585  30.559  31.716  1.00  0.00    -0.248 NA
ATOM     46  C   UNL A   1      38.905  29.644  29.679  1.00  0.00     0.031 C 
ATOM     47  C   UNL A   1      42.711  27.365  32.060  1.00  0.00     0.029 A 
ATOM     48  N   UNL A   1      41.723  29.074  33.108  1.00  0.00    -0.354 N 
ATOM     49  C   UNL A   1      38.539  31.313  31.196  1.00  0.00     0.074 A 
ATOM     50  C   UNL A   1      38.201  30.742  29.911  1.00  0.00     0.031 C 
ATOM     51  C   UNL A   1      43.318  27.514  33.249  1.00  0.00     0.029 A 
ATOM     52  C   UNL A   1      42.729  28.653  33.947  1.00  0.00     0.049 A 
ATOM     53  H   UNL A   1      41.112  29.813  33.330  1.00  0.00     0.167 HD
ATOM     54  C   UNL A   1      37.903  32.371  31.752  1.00  0.00     0.037 A 
ATOM     55  C   UNL A   1      43.143  29.144  35.132  1.00  0.00     0.037 A 
ATOM     56  C   UNL A   1      38.228  32.916  33.043  1.00  0.00     0.049 A 
ATOM     57  C   UNL A   1      42.439  30.345  35.713  1.00  0.00     0.074 A 
ATOM     58  C   UNL A   1      37.630  33.975  33.705  1.00  0.00     0.029 A 
ATOM     59  N   UNL A   1      39.232  32.439  33.874  1.00  0.00    -0.354 N 
ATOM     60  N   UNL A   1      41.438  31.033  35.219  1.00  0.00    -0.248 NA
ATOM     61  C   UNL A   1      42.919  30.836  37.013  1.00  0.00     0.031 C 
ATOM     62  C   UNL A   1      38.297  34.161  34.920  1.00  0.00     0.029 A 
ATOM     63  C   UNL A   1      39.272  33.185  35.039  1.00  0.00     0.049 A 
ATOM     64  H   UNL A   1      39.827  31.683  33.665  1.00  0.00     0.167 HD
ATOM     65  C   UNL A   1      41.136  32.002  36.169  1.00  0.00     0.074 A 
ATOM     66  C   UNL A   1      42.063  31.818  37.265  1.00  0.00     0.031 C 
ATOM     67  C   UNL A   1      40.173  32.955  36.140  1.00  0.00     0.037 A 
BRANCH  54  68
ATOM     68  C   UNL A   1      36.779  33.002  30.977  1.00  0.00     0.058 A 
ATOM     69  C   UNL A   1      35.436  32.713  31.266  1.00  0.00     0.135 A 
ATOM     70  C   UNL A   1      37.044  33.952  29.977  1.00  0.00     0.135 A 
ATOM     71  F   UNL A   1      35.128  31.798  32.200  1.00  0.00    -0.206 F 
ATOM     72  C   UNL A   1      34.396  33.329  30.581  1.00  0.00     0.059 A 
ATOM     73  C   UNL A   1      36.018  34.603  29.298  1.00  0.00     0.059 A 
ATOM     74  F   UNL A   1      38.310  34.264  29.658  1.00  0.00    -0.206 F 
ATOM     75  C   UNL A   1      34.697  34.277  29.601  1.00  0.00     0.060 A 
BRANCH  75  76
ATOM     76  S   UNL A   1      33.332  35.089  28.743  1.00  0.00     0.124 S 
ATOM     77  O   UNL A   1      34.042  36.075  27.935  1.00  0.00    -0.237 OA
ATOM     78  O   UNL A   1      32.727  33.983  28.007  1.00  0.00    -0.237 OA
ATOM     79  O   UNL A   1      32.522  35.634  29.828  1.00  0.00    -0.744 OA
ENDBRANCH  75  76
ENDBRANCH  54  68
BRANCH  55  80
ATOM     80  C   UNL A   1      44.274  28.508  35.862  1.00  0.00     0.058 A 
ATOM     81  C   UNL A   1      44.042  27.510  36.820  1.00  0.00     0.135 A 
ATOM     82  C   UNL A   1      45.603  28.902  35.640  1.00  0.00     0.135 A 
ATOM     83  F   UNL A   1      42.789  27.101  37.072  1.00  0.00    -0.206 F 
ATOM     84  C   UNL A   1      45.079  26.954  37.562  1.00  0.00     0.059 A 
ATOM     85  C   UNL A   1      46.661  28.338  36.347  1.00  0.00     0.059 A 
ATOM     86  F   UNL A   1      45.884  29.838  34.720  1.00  0.00    -0.206 F 
ATOM     87  C   UNL A   1      46.387  27.380  37.321  1.00  0.00     0.060 A 
BRANCH  87  88
ATOM     88  S   UNL A   1      47.726  26.651  38.288  1.00  0.00     0.124 S 
ATOM     89  O   UNL A   1      46.986  25.870  39.272  1.00  0.00    -0.237 OA
ATOM     90  O   UNL A   1      48.452  25.885  37.280  1.00  0.00    -0.237 OA
ATOM     91  O   UNL A   1      48.435  27.816  38.808  1.00  0.00    -0.744 OA
ENDBRANCH  87  88
ENDBRANCH  55  80
BRANCH  67  92
ATOM     92  C   UNL A   1      40.004  33.824  37.356  1.00  0.00     0.058 A 
ATOM     93  C   UNL A   1      40.710  35.024  37.519  1.00  0.00     0.135 A 
ATOM     94  C   UNL A   1      39.043  33.489  38.326  1.00  0.00     0.135 A 
ATOM     95  F   UNL A   1      41.644  35.385  36.625  1.00  0.00    -0.206 F 
ATOM     96  C   UNL A   1      40.475  35.861  38.604  1.00  0.00     0.059 A 
ATOM     97  C   UNL A   1      38.772  34.325  39.404  1.00  0.00     0.059 A 
ATOM     98  F   UNL A   1      38.334  32.355  38.210  1.00  0.00    -0.206 F 
ATOM     99  C   UNL A   1      39.496  35.508  39.536  1.00  0.00     0.060 A 
BRANCH  99 100
ATOM    100  S   UNL A   1      39.148  36.640  40.899  1.00  0.00     0.124 S 
ATOM    101  O   UNL A   1      38.290  35.822  41.749  1.00  0.00    -0.237 OA
ATOM    102  O   UNL A   1      40.483  36.915  41.422  1.00  0.00    -0.237 OA
ATOM    103  O   UNL A   1      38.492  37.769  40.245  1.00  0.00    -0.744 OA
ENDBRANCH  99 100
ENDBRANCH  67  92
ENDBRANCH  41  42
ENDBRANCH  33  36
ENDBRANCH  31  32
ENDBRANCH  30  31
ENDBRANCH  29  30
ENDBRANCH   1  29
TORSDOF 21
ENDMDL
MODEL 2
REMARK VINA RESULT:     -10.8      2.996      9.224
REMARK SMILES CCNC(=O)NC(=O)[C@@H](C)[NH2+][C@](C)(C(=O)NCCCCCCNC(=O)c1ccc(-c2c3nc(c(-c4c(F)cc(S(=O)(=O)[O-])cc4F)c4ccc([nH]4)c(-c4c(F)cc(S(=O)(=O)[O-])cc4F)c4nc(c(-c5c(F)cc(S(=O)(=O)[O-])cc5F)c5ccc2[nH]5)C=C4)C=C3)cc1)C(F)(F)F
REMARK SMILES IDX 19 1 18 2 17 3 16 4 14 5 15 6 12 8 13 9 11 10 9 13 10 14
REMARK SMILES IDX 7 15 3 16 4 17 5 19 6 20 8 22 2 23 1 24 92 25 93 26 94 27
REMARK SMILES IDX 95 28 20 29 21 30 22 31 23 32 24 33 25 35 26 36 27 37 91 38
REMARK SMILES IDX 28 39 90 40 29 41 30 42 31 43 84 44 32 45 89 46 83 47 85 48
REMARK SMILES IDX 33 49 88 50 82 51 81 52 34 54 68 55 47 56 67 57 48 58 51 59
REMARK SMILES IDX 66 60 86 61 49 62 50 63 65 65 87 66 52 67 35 68 36 69 45 70
REMARK SMILES IDX 37 71 38 72 44 73 46 74 39 75 40 76 41 77 42 78 43 79 69 80
REMARK SMILES IDX 70 81 79 82 71 83 72 84 78 85 80 86 73 87 74 88 75 89 76 90
REMARK SMILES IDX 77 91 53 92 54 93 63 94 55 95 56 96 62 97 64 98 57 99 58 100
REMARK SMILES IDX 59 101 60 102 61 103
REMARK H PARENT 16 7 11 11 11 12 3 18 6 21 23 34 85 53 51 64
REMARK Flexibility Score: inf
ROOT
ATOM      1  C   UNL A   1      35.205  31.730  27.744  1.00  0.00     0.002 C 
ENDROOT
BRANCH   1   2
ATOM      2  C   UNL A   1      35.068  30.202  27.760  1.00  0.00     0.021 C 
BRANCH   2   3
ATOM      3  C   UNL A   1      33.971  29.698  26.826  1.00  0.00     0.116 C 
BRANCH   3   4
ATOM      4  N   UNL A   1      32.980  28.974  27.608  1.00  0.00    -0.350 N 
ATOM      5  C   UNL A   1      31.972  28.131  27.216  1.00  0.00     0.290 C 
ATOM      6  O   UNL A   1      31.081  27.937  28.045  1.00  0.00    -0.267 OA
ATOM      7  H   UNL A   1      33.043  29.114  28.581  1.00  0.00     0.163 HD
BRANCH   5   8
ATOM      8  C   UNL A   1      32.076  27.351  25.868  1.00  0.00     0.269 C 
ATOM      9  C   UNL A   1      33.555  27.131  25.494  1.00  0.00     0.101 C 
BRANCH   8  10
ATOM     10  N   UNL A   1      31.415  26.036  26.148  1.00  0.00    -0.316 N 
ATOM     11  H   UNL A   1      31.780  25.741  27.054  1.00  0.00     0.348 HD
ATOM     12  H   UNL A   1      30.439  26.297  26.007  1.00  0.00     0.348 HD
BRANCH  10  13
ATOM     13  C   UNL A   1      31.480  24.848  25.304  1.00  0.00     0.271 C 
ATOM     14  C   UNL A   1      30.668  24.625  24.025  1.00  0.00     0.086 C 
BRANCH  13  15
ATOM     15  C   UNL A   1      31.140  23.638  26.198  1.00  0.00     0.285 C 
ATOM     16  N   UNL A   1      33.116  21.680  24.174  1.00  0.00    -0.338 N 
ATOM     17  C   UNL A   1      32.194  21.424  25.102  1.00  0.00     0.321 C 
ATOM     18  H   UNL A   1      33.331  20.871  23.655  1.00  0.00     0.165 HD
ATOM     19  O   UNL A   1      31.888  20.234  25.243  1.00  0.00    -0.248 OA
ATOM     20  N   UNL A   1      31.541  22.326  25.901  1.00  0.00    -0.273 N 
ATOM     21  H   UNL A   1      31.170  21.782  26.634  1.00  0.00     0.175 HD
ATOM     22  O   UNL A   1      30.513  23.802  27.251  1.00  0.00    -0.268 OA
BRANCH  16  23
ATOM     23  C   UNL A   1      33.888  22.811  23.717  1.00  0.00     0.114 C 
ATOM     24  C   UNL A   1      34.805  23.397  24.769  1.00  0.00     0.027 C 
ENDBRANCH  16  23
ENDBRANCH  13  15
ENDBRANCH  10  13
ENDBRANCH   8  10
BRANCH   8  25
ATOM     25  C   UNL A   1      31.521  28.335  24.796  1.00  0.00     0.453 C 
ATOM     26  F   UNL A   1      30.492  27.810  24.088  1.00  0.00    -0.164 F 
ATOM     27  F   UNL A   1      31.026  29.454  25.388  1.00  0.00    -0.164 F 
ATOM     28  F   UNL A   1      32.460  28.745  23.914  1.00  0.00    -0.164 F 
ENDBRANCH   8  25
ENDBRANCH   5   8
ENDBRANCH   3   4
ENDBRANCH   2   3
ENDBRANCH   1   2
BRANCH   1  29
ATOM     29  C   UNL A   1      34.302  32.464  28.744  1.00  0.00     0.002 C 
BRANCH  29  30
ATOM     30  C   UNL A   1      33.477  33.604  28.144  1.00  0.00     0.021 C 
BRANCH  30  31
ATOM     31  C   UNL A   1      33.955  34.995  28.544  1.00  0.00     0.116 C 
BRANCH  31  32
ATOM     32  N   UNL A   1      33.062  35.620  29.505  1.00  0.00    -0.352 N 
ATOM     33  C   UNL A   1      33.023  35.453  30.871  1.00  0.00     0.251 C 
ATOM     34  H   UNL A   1      32.398  36.243  29.131  1.00  0.00     0.163 HD
ATOM     35  O   UNL A   1      32.092  35.892  31.525  1.00  0.00    -0.269 OA
BRANCH  33  36
ATOM     36  C   UNL A   1      34.123  34.710  31.526  1.00  0.00     0.039 A 
ATOM     37  C   UNL A   1      33.860  33.462  32.094  1.00  0.00     0.014 A 
ATOM     38  C   UNL A   1      35.415  35.240  31.540  1.00  0.00     0.014 A 
ATOM     39  C   UNL A   1      34.913  32.715  32.628  1.00  0.00     0.010 A 
ATOM     40  C   UNL A   1      36.470  34.465  32.007  1.00  0.00     0.010 A 
ATOM     41  C   UNL A   1      36.230  33.195  32.558  1.00  0.00    -0.014 A 
BRANCH  41  42
ATOM     42  C   UNL A   1      37.383  32.414  33.074  1.00  0.00     0.031 A 
ATOM     43  C   UNL A   1      38.009  32.804  34.385  1.00  0.00     0.074 A 
ATOM     44  C   UNL A   1      37.916  31.422  32.333  1.00  0.00     0.049 A 
ATOM     45  N   UNL A   1      39.118  32.379  34.932  1.00  0.00    -0.248 NA
ATOM     46  C   UNL A   1      37.307  33.833  35.173  1.00  0.00     0.031 C 
ATOM     47  C   UNL A   1      37.410  30.963  31.037  1.00  0.00     0.029 A 
ATOM     48  N   UNL A   1      39.020  30.635  32.552  1.00  0.00    -0.354 N 
ATOM     49  C   UNL A   1      39.255  33.097  36.114  1.00  0.00     0.074 A 
ATOM     50  C   UNL A   1      38.145  34.021  36.182  1.00  0.00     0.031 C 
ATOM     51  C   UNL A   1      38.195  29.972  30.584  1.00  0.00     0.029 A 
ATOM     52  C   UNL A   1      39.288  29.758  31.526  1.00  0.00     0.049 A 
ATOM     53  H   UNL A   1      39.569  30.694  33.367  1.00  0.00     0.167 HD
ATOM     54  C   UNL A   1      40.207  32.977  37.070  1.00  0.00     0.037 A 
ATOM     55  C   UNL A   1      40.312  28.897  31.357  1.00  0.00     0.037 A 
ATOM     56  C   UNL A   1      41.293  32.036  37.007  1.00  0.00     0.049 A 
ATOM     57  C   UNL A   1      41.378  28.809  32.420  1.00  0.00     0.074 A 
ATOM     58  C   UNL A   1      42.300  31.822  37.933  1.00  0.00     0.029 A 
ATOM     59  N   UNL A   1      41.510  31.144  35.967  1.00  0.00    -0.354 N 
ATOM     60  N   UNL A   1      41.481  29.479  33.542  1.00  0.00    -0.248 NA
ATOM     61  C   UNL A   1      42.467  27.847  32.195  1.00  0.00     0.031 C 
ATOM     62  C   UNL A   1      43.145  30.827  37.435  1.00  0.00     0.029 A 
ATOM     63  C   UNL A   1      42.635  30.382  36.226  1.00  0.00     0.049 A 
ATOM     64  H   UNL A   1      40.945  31.065  35.163  1.00  0.00     0.167 HD
ATOM     65  C   UNL A   1      42.613  28.982  34.179  1.00  0.00     0.074 A 
ATOM     66  C   UNL A   1      43.167  27.962  33.316  1.00  0.00     0.031 C 
ATOM     67  C   UNL A   1      43.144  29.336  35.375  1.00  0.00     0.037 A 
BRANCH  54  68
ATOM     68  C   UNL A   1      40.112  33.874  38.273  1.00  0.00     0.058 A 
ATOM     69  C   UNL A   1      40.815  35.087  38.341  1.00  0.00     0.135 A 
ATOM     70  C   UNL A   1      39.264  33.548  39.344  1.00  0.00     0.135 A 
ATOM     71  F   UNL A   1      41.655  35.437  37.353  1.00  0.00    -0.206 F 
ATOM     72  C   UNL A   1      40.694  35.939  39.432  1.00  0.00     0.059 A 
ATOM     73  C   UNL A   1      39.104  34.399  40.433  1.00  0.00     0.059 A 
ATOM     74  F   UNL A   1      38.571  32.399  39.333  1.00  0.00    -0.206 F 
ATOM     75  C   UNL A   1      39.832  35.588  40.473  1.00  0.00     0.060 A 
BRANCH  75  76
ATOM     76  S   UNL A   1      39.664  36.720  41.868  1.00  0.00     0.124 S 
ATOM     77  O   UNL A   1      39.267  37.953  41.196  1.00  0.00    -0.237 OA
ATOM     78  O   UNL A   1      38.628  36.074  42.669  1.00  0.00    -0.237 OA
ATOM     79  O   UNL A   1      40.997  36.730  42.462  1.00  0.00    -0.744 OA
ENDBRANCH  75  76
ENDBRANCH  54  68
BRANCH  55  80
ATOM     80  C   UNL A   1      40.386  28.041  30.141  1.00  0.00     0.058 A 
ATOM     81  C   UNL A   1      39.485  26.982  29.949  1.00  0.00     0.135 A 
ATOM     82  C   UNL A   1      41.373  28.241  29.163  1.00  0.00     0.135 A 
ATOM     83  F   UNL A   1      38.525  26.747  30.857  1.00  0.00    -0.206 F 
ATOM     84  C   UNL A   1      39.583  26.128  28.856  1.00  0.00     0.059 A 
ATOM     85  C   UNL A   1      41.472  27.419  28.044  1.00  0.00     0.059 A 
ATOM     86  F   UNL A   1      42.248  29.251  29.286  1.00  0.00    -0.206 F 
ATOM     87  C   UNL A   1      40.585  26.353  27.910  1.00  0.00     0.060 A 
BRANCH  87  88
ATOM     88  S   UNL A   1      40.703  25.239  26.494  1.00  0.00     0.124 S 
ATOM     89  O   UNL A   1      39.452  24.497  26.599  1.00  0.00    -0.237 OA
ATOM     90  O   UNL A   1      40.800  26.173  25.376  1.00  0.00    -0.237 OA
ATOM     91  O   UNL A   1      41.916  24.475  26.769  1.00  0.00    -0.744 OA
ENDBRANCH  87  88
ENDBRANCH  55  80
BRANCH  67  92
ATOM     92  C   UNL A   1      44.334  28.566  35.874  1.00  0.00     0.058 A 
ATOM     93  C   UNL A   1      44.199  27.392  36.629  1.00  0.00     0.135 A 
ATOM     94  C   UNL A   1      45.630  28.965  35.505  1.00  0.00     0.135 A 
ATOM     95  F   UNL A   1      42.983  26.972  37.014  1.00  0.00    -0.206 F 
ATOM     96  C   UNL A   1      45.307  26.641  37.005  1.00  0.00     0.059 A 
ATOM     97  C   UNL A   1      46.750  28.215  35.847  1.00  0.00     0.059 A 
ATOM     98  F   UNL A   1      45.812  30.077  34.775  1.00  0.00    -0.206 F 
ATOM     99  C   UNL A   1      46.579  27.055  36.600  1.00  0.00     0.060 A 
BRANCH  99 100
ATOM    100  S   UNL A   1      48.001  26.031  37.032  1.00  0.00     0.124 S 
ATOM    101  O   UNL A   1      48.804  26.117  35.816  1.00  0.00    -0.237 OA
ATOM    102  O   UNL A   1      48.541  26.723  38.198  1.00  0.00    -0.237 OA
ATOM    103  O   UNL A   1      47.411  24.723  37.303  1.00  0.00    -0.744 OA
ENDBRANCH  99 100
ENDBRANCH  67  92
ENDBRANCH  41  42
ENDBRANCH  33  36
ENDBRANCH  31  32
ENDBRANCH  30  31
ENDBRANCH  29  30
ENDBRANCH   1  29
TORSDOF 21
ENDMDL
MODEL 3
REMARK VINA RESULT:     -10.7      6.447     10.839
REMARK SMILES CCNC(=O)NC(=O)[C@@H](C)[NH2+][C@](C)(C(=O)NCCCCCCNC(=O)c1ccc(-c2c3nc(c(-c4c(F)cc(S(=O)(=O)[O-])cc4F)c4ccc([nH]4)c(-c4c(F)cc(S(=O)(=O)[O-])cc4F)c4nc(c(-c5c(F)cc(S(=O)(=O)[O-])cc5F)c5ccc2[nH]5)C=C4)C=C3)cc1)C(F)(F)F
REMARK SMILES IDX 19 1 18 2 17 3 16 4 14 5 15 6 12 8 13 9 11 10 9 13 10 14
REMARK SMILES IDX 7 15 3 16 4 17 5 19 6 20 8 22 2 23 1 24 92 25 93 26 94 27
REMARK SMILES IDX 95 28 20 29 21 30 22 31 23 32 24 33 25 35 26 36 27 37 91 38
REMARK SMILES IDX 28 39 90 40 29 41 30 42 31 43 84 44 32 45 89 46 83 47 85 48
REMARK SMILES IDX 33 49 88 50 82 51 81 52 34 54 68 55 47 56 67 57 48 58 51 59
REMARK SMILES IDX 66 60 86 61 49 62 50 63 65 65 87 66 52 67 35 68 36 69 45 70
REMARK SMILES IDX 37 71 38 72 44 73 46 74 39 75 40 76 41 77 42 78 43 79 69 80
REMARK SMILES IDX 70 81 79 82 71 83 72 84 78 85 80 86 73 87 74 88 75 89 76 90
REMARK SMILES IDX 77 91 53 92 54 93 63 94 55 95 56 96 62 97 64 98 57 99 58 100
REMARK SMILES IDX 59 101 60 102 61 103
REMARK H PARENT 16 7 11 11 11 12 3 18 6 21 23 34 85 53 51 64
REMARK Flexibility Score: inf
ROOT
ATOM      1  C   UNL A   1      39.546  22.240  26.538  1.00  0.00     0.002 C 
ENDROOT
BRANCH   1   2
ATOM      2  C   UNL A   1      39.007  23.676  26.489  1.00  0.00     0.021 C 
BRANCH   2   3
ATOM      3  C   UNL A   1      37.527  23.738  26.121  1.00  0.00     0.116 C 
BRANCH   3   4
ATOM      4  N   UNL A   1      37.401  23.736  24.671  1.00  0.00    -0.350 N 
ATOM      5  C   UNL A   1      36.475  23.140  23.853  1.00  0.00     0.290 C 
ATOM      6  O   UNL A   1      36.803  23.015  22.672  1.00  0.00    -0.267 OA
ATOM      7  H   UNL A   1      38.098  24.247  24.197  1.00  0.00     0.163 HD
BRANCH   5   8
ATOM      8  C   UNL A   1      35.044  22.817  24.386  1.00  0.00     0.269 C 
ATOM      9  C   UNL A   1      34.711  23.718  25.592  1.00  0.00     0.101 C 
BRANCH   8  10
ATOM     10  N   UNL A   1      34.139  23.139  23.237  1.00  0.00    -0.316 N 
ATOM     11  H   UNL A   1      34.700  23.711  22.607  1.00  0.00     0.348 HD
ATOM     12  H   UNL A   1      33.824  22.199  22.994  1.00  0.00     0.348 HD
BRANCH  10  13
ATOM     13  C   UNL A   1      32.850  23.818  23.328  1.00  0.00     0.271 C 
ATOM     14  C   UNL A   1      31.489  23.124  23.421  1.00  0.00     0.086 C 
BRANCH  13  15
ATOM     15  C   UNL A   1      32.736  24.737  22.094  1.00  0.00     0.285 C 
ATOM     16  N   UNL A   1      31.024  27.005  24.033  1.00  0.00    -0.338 N 
ATOM     17  C   UNL A   1      31.195  26.846  22.721  1.00  0.00     0.321 C 
ATOM     18  H   UNL A   1      30.303  27.648  24.221  1.00  0.00     0.165 HD
ATOM     19  O   UNL A   1      30.547  27.611  21.997  1.00  0.00    -0.248 OA
ATOM     20  N   UNL A   1      31.992  25.928  22.088  1.00  0.00    -0.273 N 
ATOM     21  H   UNL A   1      32.096  26.279  21.174  1.00  0.00     0.175 HD
ATOM     22  O   UNL A   1      33.344  24.458  21.054  1.00  0.00    -0.268 OA
BRANCH  16  23
ATOM     23  C   UNL A   1      31.600  26.498  25.256  1.00  0.00     0.114 C 
ATOM     24  C   UNL A   1      31.351  27.375  26.464  1.00  0.00     0.027 C 
ENDBRANCH  16  23
ENDBRANCH  13  15
ENDBRANCH  10  13
ENDBRANCH   8  10
BRANCH   8  25
ATOM     25  C   UNL A   1      35.153  21.375  24.966  1.00  0.00     0.453 C 
ATOM     26  F   UNL A   1      36.398  20.857  24.845  1.00  0.00    -0.164 F 
ATOM     27  F   UNL A   1      34.883  21.376  26.298  1.00  0.00    -0.164 F 
ATOM     28  F   UNL A   1      34.289  20.506  24.395  1.00  0.00    -0.164 F 
ENDBRANCH   8  25
ENDBRANCH   5   8
ENDBRANCH   3   4
ENDBRANCH   2   3
ENDBRANCH   1   2
BRANCH   1  29
ATOM     29  C   UNL A   1      40.683  22.017  27.543  1.00  0.00     0.002 C 
BRANCH  29  30
ATOM     30  C   UNL A   1      41.424  20.688  27.387  1.00  0.00     0.021 C 
BRANCH  30  31
ATOM     31  C   UNL A   1      41.202  20.006  26.042  1.00  0.00     0.116 C 
BRANCH  31  32
ATOM     32  N   UNL A   1      42.339  19.188  25.655  1.00  0.00    -0.352 N 
ATOM     33  C   UNL A   1      43.598  19.597  25.279  1.00  0.00     0.251 C 
ATOM     34  H   UNL A   1      42.190  18.215  25.661  1.00  0.00     0.163 HD
ATOM     35  O   UNL A   1      44.390  18.807  24.791  1.00  0.00    -0.269 OA
BRANCH  33  36
ATOM     36  C   UNL A   1      43.964  21.020  25.458  1.00  0.00     0.039 A 
ATOM     37  C   UNL A   1      43.481  21.968  24.553  1.00  0.00     0.014 A 
ATOM     38  C   UNL A   1      44.753  21.410  26.543  1.00  0.00     0.014 A 
ATOM     39  C   UNL A   1      43.743  23.323  24.772  1.00  0.00     0.010 A 
ATOM     40  C   UNL A   1      44.951  22.763  26.797  1.00  0.00     0.010 A 
ATOM     41  C   UNL A   1      44.451  23.733  25.913  1.00  0.00    -0.014 A 
BRANCH  41  42
ATOM     42  C   UNL A   1      44.713  25.165  26.206  1.00  0.00     0.031 A 
ATOM     43  C   UNL A   1      46.111  25.702  26.063  1.00  0.00     0.074 A 
ATOM     44  C   UNL A   1      43.727  25.952  26.680  1.00  0.00     0.049 A 
ATOM     45  N   UNL A   1      46.595  26.859  26.430  1.00  0.00    -0.248 NA
ATOM     46  C   UNL A   1      47.105  24.802  25.450  1.00  0.00     0.031 C 
ATOM     47  C   UNL A   1      42.334  25.543  26.879  1.00  0.00     0.029 A 
ATOM     48  N   UNL A   1      43.749  27.258  27.103  1.00  0.00    -0.354 N 
ATOM     49  C   UNL A   1      47.947  26.822  26.109  1.00  0.00     0.074 A 
ATOM     50  C   UNL A   1      48.220  25.509  25.566  1.00  0.00     0.031 C 
ATOM     51  C   UNL A   1      41.638  26.578  27.377  1.00  0.00     0.029 A 
ATOM     52  C   UNL A   1      42.539  27.707  27.581  1.00  0.00     0.049 A 
ATOM     53  H   UNL A   1      44.556  27.820  27.069  1.00  0.00     0.167 HD
ATOM     54  C   UNL A   1      48.873  27.803  26.233  1.00  0.00     0.037 A 
ATOM     55  C   UNL A   1      42.203  28.887  28.139  1.00  0.00     0.037 A 
ATOM     56  C   UNL A   1      48.587  29.114  26.750  1.00  0.00     0.049 A 
ATOM     57  C   UNL A   1      43.261  29.950  28.298  1.00  0.00     0.074 A 
ATOM     58  C   UNL A   1      49.450  30.186  26.899  1.00  0.00     0.029 A 
ATOM     59  N   UNL A   1      47.342  29.538  27.192  1.00  0.00    -0.354 N 
ATOM     60  N   UNL A   1      44.529  29.906  27.969  1.00  0.00    -0.248 NA
ATOM     61  C   UNL A   1      42.842  31.224  28.902  1.00  0.00     0.031 C 
ATOM     62  C   UNL A   1      48.736  31.246  27.465  1.00  0.00     0.029 A 
ATOM     63  C   UNL A   1      47.416  30.853  27.617  1.00  0.00     0.049 A 
ATOM     64  H   UNL A   1      46.527  28.985  27.202  1.00  0.00     0.167 HD
ATOM     65  C   UNL A   1      45.046  31.160  28.278  1.00  0.00     0.074 A 
ATOM     66  C   UNL A   1      43.956  31.939  28.826  1.00  0.00     0.031 C 
ATOM     67  C   UNL A   1      46.308  31.627  28.116  1.00  0.00     0.037 A 
BRANCH  54  68
ATOM     68  C   UNL A   1      50.278  27.503  25.790  1.00  0.00     0.058 A 
ATOM     69  C   UNL A   1      51.273  27.132  26.709  1.00  0.00     0.135 A 
ATOM     70  C   UNL A   1      50.621  27.529  24.428  1.00  0.00     0.135 A 
ATOM     71  F   UNL A   1      51.004  27.111  28.025  1.00  0.00    -0.206 F 
ATOM     72  C   UNL A   1      52.561  26.812  26.296  1.00  0.00     0.059 A 
ATOM     73  C   UNL A   1      51.896  27.184  23.990  1.00  0.00     0.059 A 
ATOM     74  F   UNL A   1      49.710  27.880  23.508  1.00  0.00    -0.206 F 
ATOM     75  C   UNL A   1      52.862  26.836  24.934  1.00  0.00     0.060 A 
BRANCH  75  76
ATOM     76  S   UNL A   1      54.531  26.388  24.414  1.00  0.00     0.124 S 
ATOM     77  O   UNL A   1      55.341  27.285  25.233  1.00  0.00    -0.237 OA
ATOM     78  O   UNL A   1      54.598  24.973  24.770  1.00  0.00    -0.237 OA
ATOM     79  O   UNL A   1      54.532  26.673  22.983  1.00  0.00    -0.744 OA
ENDBRANCH  75  76
ENDBRANCH  54  68
BRANCH  55  80
ATOM     80  C   UNL A   1      40.806  29.140  28.588  1.00  0.00     0.058 A 
ATOM     81  C   UNL A   1      39.784  29.385  27.658  1.00  0.00     0.135 A 
ATOM     82  C   UNL A   1      40.469  29.174  29.950  1.00  0.00     0.135 A 
ATOM     83  F   UNL A   1      40.056  29.367  26.344  1.00  0.00    -0.206 F 
ATOM     84  C   UNL A   1      38.489  29.693  28.060  1.00  0.00     0.059 A 
ATOM     85  C   UNL A   1      39.172  29.450  30.377  1.00  0.00     0.059 A 
ATOM     86  F   UNL A   1      41.403  28.928  30.882  1.00  0.00    -0.206 F 
ATOM     87  C   UNL A   1      38.194  29.728  29.424  1.00  0.00     0.060 A 
BRANCH  87  88
ATOM     88  S   UNL A   1      36.509  30.128  29.936  1.00  0.00     0.124 S 
ATOM     89  O   UNL A   1      35.746  29.751  28.752  1.00  0.00    -0.237 OA
ATOM     90  O   UNL A   1      36.334  29.275  31.107  1.00  0.00    -0.237 OA
ATOM     91  O   UNL A   1      36.576  31.559  30.216  1.00  0.00    -0.744 OA
ENDBRANCH  87  88
ENDBRANCH  55  80
BRANCH  67  92
ATOM     92  C   UNL A   1      46.575  33.068  28.450  1.00  0.00     0.058 A 
ATOM     93  C   UNL A   1      47.047  33.466  29.709  1.00  0.00     0.135 A 
ATOM     94  C   UNL A   1      46.445  34.052  27.455  1.00  0.00     0.135 A 
ATOM     95  F   UNL A   1      47.181  32.567  30.696  1.00  0.00    -0.206 F 
ATOM     96  C   UNL A   1      47.376  34.792  29.974  1.00  0.00     0.059 A 
ATOM     97  C   UNL A   1      46.794  35.378  27.689  1.00  0.00     0.059 A 
ATOM     98  F   UNL A   1      46.005  33.720  26.230  1.00  0.00    -0.206 F 
ATOM     99  C   UNL A   1      47.256  35.739  28.953  1.00  0.00     0.060 A 
BRANCH  99 100
ATOM    100  S   UNL A   1      47.759  37.440  29.288  1.00  0.00     0.124 S 
ATOM    101  O   UNL A   1      47.187  37.660  30.613  1.00  0.00    -0.237 OA
ATOM    102  O   UNL A   1      49.215  37.351  29.232  1.00  0.00    -0.237 OA
ATOM    103  O   UNL A   1      47.141  38.198  28.204  1.00  0.00    -0.744 OA
ENDBRANCH  99 100
ENDBRANCH  67  92
ENDBRANCH  41  42
ENDBRANCH  33  36
ENDBRANCH  31  32
ENDBRANCH  30  31
ENDBRANCH  29  30
ENDBRANCH   1  29
TORSDOF 21
ENDMDL
