MODEL 1
REMARK VINA RESULT:     -11.2      0.000      0.000
REMARK SMILES N#CCCn1cc(C(=O)NCCCCCCNC(=O)c2ccc(-c3c4nc(c(-c5c(F)cc(S(=O)(=O)[O-])cc5F)c5ccc([nH]5)c(-c5c(F)cc(S(=O)(=O)[O-])cc5F)c5nc(c(-c6c(F)cc(S(=O)(=O)[O-])cc6F)c6ccc3[nH]6)C=C5)C=C4)cc2)c(-c2cccc([N+](=O)[O-])c2)n1
REMARK SMILES IDX 13 1 12 2 11 3 10 4 8 5 9 6 7 8 5 9 6 10 96 11 86 12 4 13
REMARK SMILES IDX 3 14 2 15 1 16 87 17 88 18 95 19 89 20 91 21 90 22 92 23
REMARK SMILES IDX 93 24 94 25 14 26 15 27 16 28 17 29 18 30 19 32 20 33 21 34
REMARK SMILES IDX 85 35 22 36 84 37 23 38 24 39 25 40 78 41 26 42 83 43 77 44
REMARK SMILES IDX 79 45 27 46 82 47 76 48 75 49 28 51 62 52 41 53 61 54 42 55
REMARK SMILES IDX 45 56 60 57 80 58 43 59 44 60 59 62 81 63 46 64 29 65 30 66
REMARK SMILES IDX 39 67 31 68 32 69 38 70 40 71 33 72 34 73 35 74 36 75 37 76
REMARK SMILES IDX 63 77 64 78 73 79 65 80 66 81 72 82 74 83 67 84 68 85 69 86
REMARK SMILES IDX 70 87 71 88 47 89 48 90 57 91 49 92 50 93 56 94 58 95 51 96
REMARK SMILES IDX 52 97 53 98 54 99 55 100
REMARK H PARENT 10 7 17 31 79 50 45 61
REMARK Flexibility Score: inf
ROOT
ATOM      1  C   UNL A   1      39.470  21.660  26.735  1.00  0.00     0.002 C 
ENDROOT
BRANCH   1   2
ATOM      2  C   UNL A   1      39.168  22.980  26.013  1.00  0.00     0.021 C 
BRANCH   2   3
ATOM      3  C   UNL A   1      37.676  23.179  25.748  1.00  0.00     0.116 C 
BRANCH   3   4
ATOM      4  N   UNL A   1      37.421  23.177  24.329  1.00  0.00    -0.352 N 
ATOM      5  C   UNL A   1      36.350  22.772  23.584  1.00  0.00     0.255 C 
ATOM      6  O   UNL A   1      36.464  22.941  22.368  1.00  0.00    -0.269 OA
ATOM      7  H   UNL A   1      38.162  23.540  23.792  1.00  0.00     0.163 HD
BRANCH   5   8
ATOM      8  C   UNL A   1      35.133  22.256  24.199  1.00  0.00     0.085 A 
ATOM      9  N   UNL A   1      33.640  20.989  25.201  1.00  0.00    -0.270 N 
ATOM     10  C   UNL A   1      34.662  20.962  24.300  1.00  0.00     0.123 A 
ATOM     11  N   UNL A   1      33.233  22.236  25.496  1.00  0.00    -0.172 NA
ATOM     12  C   UNL A   1      34.092  23.029  24.826  1.00  0.00     0.105 A 
BRANCH   9  13
ATOM     13  C   UNL A   1      33.042  19.811  25.823  1.00  0.00     0.159 C 
BRANCH  13  14
ATOM     14  C   UNL A   1      32.491  18.794  24.799  1.00  0.00     0.144 C 
BRANCH  14  15
ATOM     15  C   UNL A   1      33.310  17.520  24.930  1.00  0.00     0.064 C 
ATOM     16  N   UNL A   1      33.990  16.463  25.039  1.00  0.00    -0.198 NA
ENDBRANCH  14  15
ENDBRANCH  13  14
ENDBRANCH   9  13
BRANCH  12  17
ATOM     17  C   UNL A   1      33.949  24.488  24.782  1.00  0.00     0.010 A 
ATOM     18  C   UNL A   1      33.609  25.177  25.962  1.00  0.00     0.011 A 
ATOM     19  C   UNL A   1      34.036  25.194  23.579  1.00  0.00     0.096 A 
ATOM     20  C   UNL A   1      33.284  26.534  25.940  1.00  0.00     0.008 A 
ATOM     21  C   UNL A   1      33.714  26.562  23.565  1.00  0.00     0.270 A 
ATOM     22  C   UNL A   1      33.324  27.231  24.737  1.00  0.00     0.085 A 
BRANCH  21  23
ATOM     23  N   UNL A   1      33.743  27.307  22.301  1.00  0.00     0.062 N 
ATOM     24  O   UNL A   1      33.626  26.662  21.246  1.00  0.00    -0.258 OA
ATOM     25  O   UNL A   1      33.886  28.536  22.351  1.00  0.00    -0.258 OA
ENDBRANCH  21  23
ENDBRANCH  12  17
ENDBRANCH   5   8
ENDBRANCH   3   4
ENDBRANCH   2   3
ENDBRANCH   1   2
BRANCH   1  26
ATOM     26  C   UNL A   1      40.960  21.296  26.828  1.00  0.00     0.002 C 
BRANCH  26  27
ATOM     27  C   UNL A   1      41.364  19.978  26.152  1.00  0.00     0.021 C 
BRANCH  27  28
ATOM     28  C   UNL A   1      42.707  19.452  26.631  1.00  0.00     0.116 C 
BRANCH  28  29
ATOM     29  N   UNL A   1      43.617  19.215  25.514  1.00  0.00    -0.352 N 
ATOM     30  C   UNL A   1      44.159  20.149  24.662  1.00  0.00     0.251 C 
ATOM     31  H   UNL A   1      43.873  18.279  25.353  1.00  0.00     0.163 HD
ATOM     32  O   UNL A   1      44.574  19.821  23.550  1.00  0.00    -0.269 OA
BRANCH  30  33
ATOM     33  C   UNL A   1      44.240  21.545  25.114  1.00  0.00     0.039 A 
ATOM     34  C   UNL A   1      43.434  22.537  24.553  1.00  0.00     0.014 A 
ATOM     35  C   UNL A   1      45.120  21.836  26.157  1.00  0.00     0.014 A 
ATOM     36  C   UNL A   1      43.465  23.812  25.109  1.00  0.00     0.010 A 
ATOM     37  C   UNL A   1      45.048  23.051  26.789  1.00  0.00     0.010 A 
ATOM     38  C   UNL A   1      44.256  24.058  26.247  1.00  0.00    -0.014 A 
BRANCH  38  39
ATOM     39  C   UNL A   1      44.103  25.305  27.000  1.00  0.00     0.031 A 
ATOM     40  C   UNL A   1      45.185  26.283  26.694  1.00  0.00     0.074 A 
ATOM     41  C   UNL A   1      42.987  25.626  27.697  1.00  0.00     0.049 A 
ATOM     42  N   UNL A   1      46.168  26.634  27.456  1.00  0.00    -0.248 NA
ATOM     43  C   UNL A   1      45.321  26.777  25.309  1.00  0.00     0.031 C 
ATOM     44  C   UNL A   1      41.740  24.850  27.772  1.00  0.00     0.029 A 
ATOM     45  N   UNL A   1      42.667  26.757  28.394  1.00  0.00    -0.354 N 
ATOM     46  C   UNL A   1      46.832  27.642  26.759  1.00  0.00     0.074 A 
ATOM     47  C   UNL A   1      46.448  27.493  25.383  1.00  0.00     0.031 C 
ATOM     48  C   UNL A   1      40.740  25.630  28.241  1.00  0.00     0.029 A 
ATOM     49  C   UNL A   1      41.304  26.890  28.680  1.00  0.00     0.049 A 
ATOM     50  H   UNL A   1      43.339  27.421  28.672  1.00  0.00     0.167 HD
ATOM     51  C   UNL A   1      47.315  28.725  27.431  1.00  0.00     0.037 A 
ATOM     52  C   UNL A   1      40.678  27.952  29.253  1.00  0.00     0.037 A 
ATOM     53  C   UNL A   1      47.324  28.464  28.848  1.00  0.00     0.049 A 
ATOM     54  C   UNL A   1      41.710  28.713  29.993  1.00  0.00     0.074 A 
ATOM     55  C   UNL A   1      48.067  27.716  29.733  1.00  0.00     0.029 A 
ATOM     56  N   UNL A   1      46.124  28.738  29.447  1.00  0.00    -0.354 N 
ATOM     57  N   UNL A   1      42.343  28.231  31.029  1.00  0.00    -0.248 NA
ATOM     58  C   UNL A   1      42.329  29.872  29.362  1.00  0.00     0.031 C 
ATOM     59  C   UNL A   1      47.214  27.447  30.844  1.00  0.00     0.029 A 
ATOM     60  C   UNL A   1      45.994  28.089  30.643  1.00  0.00     0.049 A 
ATOM     61  H   UNL A   1      45.437  29.330  29.064  1.00  0.00     0.167 HD
ATOM     62  C   UNL A   1      43.621  28.737  30.909  1.00  0.00     0.074 A 
ATOM     63  C   UNL A   1      43.511  29.858  29.983  1.00  0.00     0.031 C 
ATOM     64  C   UNL A   1      44.702  27.995  31.285  1.00  0.00     0.037 A 
BRANCH  51  65
ATOM     65  C   UNL A   1      47.260  30.158  26.927  1.00  0.00     0.058 A 
ATOM     66  C   UNL A   1      48.422  30.958  27.009  1.00  0.00     0.135 A 
ATOM     67  C   UNL A   1      46.065  30.864  26.663  1.00  0.00     0.135 A 
ATOM     68  F   UNL A   1      49.615  30.402  27.275  1.00  0.00    -0.206 F 
ATOM     69  C   UNL A   1      48.388  32.350  26.891  1.00  0.00     0.059 A 
ATOM     70  C   UNL A   1      46.016  32.243  26.494  1.00  0.00     0.059 A 
ATOM     71  F   UNL A   1      44.866  30.271  26.649  1.00  0.00    -0.206 F 
ATOM     72  C   UNL A   1      47.176  32.985  26.639  1.00  0.00     0.060 A 
BRANCH  72  73
ATOM     73  S   UNL A   1      47.108  34.781  26.529  1.00  0.00     0.124 S 
ATOM     74  O   UNL A   1      45.844  35.069  27.193  1.00  0.00    -0.237 OA
ATOM     75  O   UNL A   1      48.317  35.170  27.250  1.00  0.00    -0.237 OA
ATOM     76  O   UNL A   1      47.139  35.028  25.090  1.00  0.00    -0.744 OA
ENDBRANCH  72  73
ENDBRANCH  51  65
BRANCH  52  77
ATOM     77  C   UNL A   1      39.313  28.496  29.018  1.00  0.00     0.058 A 
ATOM     78  C   UNL A   1      38.360  28.580  30.052  1.00  0.00     0.135 A 
ATOM     79  C   UNL A   1      39.022  29.223  27.848  1.00  0.00     0.135 A 
ATOM     80  F   UNL A   1      38.561  27.933  31.209  1.00  0.00    -0.206 F 
ATOM     81  C   UNL A   1      37.214  29.382  29.953  1.00  0.00     0.059 A 
ATOM     82  C   UNL A   1      37.887  30.028  27.725  1.00  0.00     0.059 A 
ATOM     83  F   UNL A   1      39.889  29.247  26.824  1.00  0.00    -0.206 F 
ATOM     84  C   UNL A   1      36.998  30.122  28.791  1.00  0.00     0.060 A 
BRANCH  84  85
ATOM     85  S   UNL A   1      35.619  31.295  28.722  1.00  0.00     0.124 S 
ATOM     86  O   UNL A   1      34.589  30.511  28.048  1.00  0.00    -0.237 OA
ATOM     87  O   UNL A   1      35.382  31.580  30.132  1.00  0.00    -0.237 OA
ATOM     88  O   UNL A   1      36.161  32.409  27.947  1.00  0.00    -0.744 OA
ENDBRANCH  84  85
ENDBRANCH  52  77
BRANCH  64  89
ATOM     89  C   UNL A   1      44.513  26.960  32.350  1.00  0.00     0.058 A 
ATOM     90  C   UNL A   1      44.332  25.585  32.136  1.00  0.00     0.135 A 
ATOM     91  C   UNL A   1      44.611  27.403  33.678  1.00  0.00     0.135 A 
ATOM     92  F   UNL A   1      44.301  25.077  30.895  1.00  0.00    -0.206 F 
ATOM     93  C   UNL A   1      44.227  24.691  33.205  1.00  0.00     0.059 A 
ATOM     94  C   UNL A   1      44.538  26.531  34.754  1.00  0.00     0.059 A 
ATOM     95  F   UNL A   1      44.824  28.704  33.940  1.00  0.00    -0.206 F 
ATOM     96  C   UNL A   1      44.334  25.176  34.512  1.00  0.00     0.060 A 
BRANCH  96  97
ATOM     97  S   UNL A   1      44.253  24.023  35.898  1.00  0.00     0.124 S 
ATOM     98  O   UNL A   1      43.560  24.811  36.912  1.00  0.00    -0.237 OA
ATOM     99  O   UNL A   1      43.501  22.906  35.336  1.00  0.00    -0.237 OA
ATOM    100  O   UNL A   1      45.657  23.735  36.185  1.00  0.00    -0.744 OA
ENDBRANCH  96  97
ENDBRANCH  64  89
ENDBRANCH  38  39
ENDBRANCH  30  33
ENDBRANCH  28  29
ENDBRANCH  27  28
ENDBRANCH  26  27
ENDBRANCH   1  26
TORSDOF 21
ENDMDL
MODEL 2
REMARK VINA RESULT:     -11.1      2.821      3.767
REMARK SMILES N#CCCn1cc(C(=O)NCCCCCCNC(=O)c2ccc(-c3c4nc(c(-c5c(F)cc(S(=O)(=O)[O-])cc5F)c5ccc([nH]5)c(-c5c(F)cc(S(=O)(=O)[O-])cc5F)c5nc(c(-c6c(F)cc(S(=O)(=O)[O-])cc6F)c6ccc3[nH]6)C=C5)C=C4)cc2)c(-c2cccc([N+](=O)[O-])c2)n1
REMARK SMILES IDX 13 1 12 2 11 3 10 4 8 5 9 6 7 8 5 9 6 10 96 11 86 12 4 13
REMARK SMILES IDX 3 14 2 15 1 16 87 17 88 18 95 19 89 20 91 21 90 22 92 23
REMARK SMILES IDX 93 24 94 25 14 26 15 27 16 28 17 29 18 30 19 32 20 33 21 34
REMARK SMILES IDX 85 35 22 36 84 37 23 38 24 39 25 40 78 41 26 42 83 43 77 44
REMARK SMILES IDX 79 45 27 46 82 47 76 48 75 49 28 51 62 52 41 53 61 54 42 55
REMARK SMILES IDX 45 56 60 57 80 58 43 59 44 60 59 62 81 63 46 64 29 65 30 66
REMARK SMILES IDX 39 67 31 68 32 69 38 70 40 71 33 72 34 73 35 74 36 75 37 76
REMARK SMILES IDX 63 77 64 78 73 79 65 80 66 81 72 82 74 83 67 84 68 85 69 86
REMARK SMILES IDX 70 87 71 88 47 89 48 90 57 91 49 92 50 93 56 94 58 95 51 96
REMARK SMILES IDX 52 97 53 98 54 99 55 100
REMARK H PARENT 10 7 17 31 79 50 45 61
REMARK Flexibility Score: inf
ROOT
ATOM      1  C   UNL A   1      38.672  22.272  26.084  1.00  0.00     0.002 C 
ENDROOT
BRANCH   1   2
ATOM      2  C   UNL A   1      37.738  21.783  24.968  1.00  0.00     0.021 C 
BRANCH   2   3
ATOM      3  C   UNL A   1      36.568  22.733  24.722  1.00  0.00     0.116 C 
BRANCH   3   4
ATOM      4  N   UNL A   1      35.670  22.716  25.850  1.00  0.00    -0.352 N 
ATOM      5  C   UNL A   1      34.498  22.055  26.088  1.00  0.00     0.255 C 
ATOM      6  O   UNL A   1      33.997  22.259  27.195  1.00  0.00    -0.269 OA
ATOM      7  H   UNL A   1      35.958  23.290  26.595  1.00  0.00     0.163 HD
BRANCH   5   8
ATOM      8  C   UNL A   1      33.934  21.114  25.127  1.00  0.00     0.085 A 
ATOM      9  N   UNL A   1      33.240  19.295  24.101  1.00  0.00    -0.270 N 
ATOM     10  C   UNL A   1      34.231  19.784  24.899  1.00  0.00     0.123 A 
ATOM     11  N   UNL A   1      32.466  20.261  23.575  1.00  0.00    -0.172 NA
ATOM     12  C   UNL A   1      32.930  21.395  24.134  1.00  0.00     0.105 A 
BRANCH   9  13
ATOM     13  C   UNL A   1      32.996  17.879  23.844  1.00  0.00     0.159 C 
BRANCH  13  14
ATOM     14  C   UNL A   1      32.876  17.035  25.132  1.00  0.00     0.144 C 
BRANCH  14  15
ATOM     15  C   UNL A   1      34.068  16.093  25.178  1.00  0.00     0.064 C 
ATOM     16  N   UNL A   1      35.057  15.311  25.216  1.00  0.00    -0.198 NA
ENDBRANCH  14  15
ENDBRANCH  13  14
ENDBRANCH   9  13
BRANCH  12  17
ATOM     17  C   UNL A   1      32.433  22.722  23.756  1.00  0.00     0.010 A 
ATOM     18  C   UNL A   1      31.176  23.142  24.233  1.00  0.00     0.011 A 
ATOM     19  C   UNL A   1      33.125  23.531  22.851  1.00  0.00     0.096 A 
ATOM     20  C   UNL A   1      30.576  24.311  23.762  1.00  0.00     0.008 A 
ATOM     21  C   UNL A   1      32.518  24.710  22.386  1.00  0.00     0.270 A 
ATOM     22  C   UNL A   1      31.241  25.095  22.826  1.00  0.00     0.085 A 
BRANCH  21  23
ATOM     23  N   UNL A   1      33.205  25.541  21.390  1.00  0.00     0.062 N 
ATOM     24  O   UNL A   1      32.995  25.300  20.190  1.00  0.00    -0.258 OA
ATOM     25  O   UNL A   1      33.960  26.435  21.798  1.00  0.00    -0.258 OA
ENDBRANCH  21  23
ENDBRANCH  12  17
ENDBRANCH   5   8
ENDBRANCH   3   4
ENDBRANCH   2   3
ENDBRANCH   1   2
BRANCH   1  26
ATOM     26  C   UNL A   1      39.984  21.484  26.225  1.00  0.00     0.002 C 
BRANCH  26  27
ATOM     27  C   UNL A   1      40.659  21.562  27.602  1.00  0.00     0.021 C 
BRANCH  27  28
ATOM     28  C   UNL A   1      41.751  22.616  27.670  1.00  0.00     0.116 C 
BRANCH  28  29
ATOM     29  N   UNL A   1      42.565  22.621  26.458  1.00  0.00    -0.352 N 
ATOM     30  C   UNL A   1      42.849  23.693  25.643  1.00  0.00     0.251 C 
ATOM     31  H   UNL A   1      42.956  21.758  26.193  1.00  0.00     0.163 HD
ATOM     32  O   UNL A   1      43.194  23.520  24.474  1.00  0.00    -0.269 OA
BRANCH  30  33
ATOM     33  C   UNL A   1      42.743  25.046  26.205  1.00  0.00     0.039 A 
ATOM     34  C   UNL A   1      41.678  25.886  25.876  1.00  0.00     0.014 A 
ATOM     35  C   UNL A   1      43.720  25.446  27.118  1.00  0.00     0.014 A 
ATOM     36  C   UNL A   1      41.563  27.106  26.537  1.00  0.00     0.010 A 
ATOM     37  C   UNL A   1      43.531  26.582  27.863  1.00  0.00     0.010 A 
ATOM     38  C   UNL A   1      42.480  27.438  27.551  1.00  0.00    -0.014 A 
BRANCH  38  39
ATOM     39  C   UNL A   1      42.229  28.580  28.433  1.00  0.00     0.031 A 
ATOM     40  C   UNL A   1      43.319  29.594  28.365  1.00  0.00     0.074 A 
ATOM     41  C   UNL A   1      41.041  28.807  29.043  1.00  0.00     0.049 A 
ATOM     42  N   UNL A   1      44.211  29.851  29.263  1.00  0.00    -0.248 NA
ATOM     43  C   UNL A   1      43.589  30.257  27.074  1.00  0.00     0.031 C 
ATOM     44  C   UNL A   1      39.806  28.022  28.890  1.00  0.00     0.029 A 
ATOM     45  N   UNL A   1      40.631  29.841  29.837  1.00  0.00    -0.354 N 
ATOM     46  C   UNL A   1      44.926  30.941  28.769  1.00  0.00     0.074 A 
ATOM     47  C   UNL A   1      44.689  30.963  27.353  1.00  0.00     0.031 C 
ATOM     48  C   UNL A   1      38.749  28.733  29.344  1.00  0.00     0.029 A 
ATOM     49  C   UNL A   1      39.243  29.931  29.993  1.00  0.00     0.049 A 
ATOM     50  H   UNL A   1      41.258  30.468  30.264  1.00  0.00     0.167 HD
ATOM     51  C   UNL A   1      45.318  31.934  29.617  1.00  0.00     0.037 A 
ATOM     52  C   UNL A   1      38.543  30.911  30.623  1.00  0.00     0.037 A 
ATOM     53  C   UNL A   1      45.184  31.499  30.984  1.00  0.00     0.049 A 
ATOM     54  C   UNL A   1      39.478  31.578  31.556  1.00  0.00     0.074 A 
ATOM     55  C   UNL A   1      45.845  30.650  31.843  1.00  0.00     0.029 A 
ATOM     56  N   UNL A   1      43.924  31.690  31.483  1.00  0.00    -0.354 N 
ATOM     57  N   UNL A   1      40.009  30.974  32.585  1.00  0.00    -0.248 NA
ATOM     58  C   UNL A   1      40.139  32.809  31.141  1.00  0.00     0.031 C 
ATOM     59  C   UNL A   1      44.886  30.241  32.816  1.00  0.00     0.029 A 
ATOM     60  C   UNL A   1      43.683  30.897  32.569  1.00  0.00     0.049 A 
ATOM     61  H   UNL A   1      43.271  32.323  31.106  1.00  0.00     0.167 HD
ATOM     62  C   UNL A   1      41.284  31.497  32.663  1.00  0.00     0.074 A 
ATOM     63  C   UNL A   1      41.251  32.723  31.876  1.00  0.00     0.031 C 
ATOM     64  C   UNL A   1      42.333  30.719  33.056  1.00  0.00     0.037 A 
BRANCH  51  65
ATOM     65  C   UNL A   1      45.290  33.419  29.291  1.00  0.00     0.058 A 
ATOM     66  C   UNL A   1      44.065  34.013  28.909  1.00  0.00     0.135 A 
ATOM     67  C   UNL A   1      46.439  34.200  29.037  1.00  0.00     0.135 A 
ATOM     68  F   UNL A   1      42.906  33.358  29.083  1.00  0.00    -0.206 F 
ATOM     69  C   UNL A   1      43.996  35.259  28.280  1.00  0.00     0.059 A 
ATOM     70  C   UNL A   1      46.389  35.462  28.456  1.00  0.00     0.059 A 
ATOM     71  F   UNL A   1      47.679  33.748  29.248  1.00  0.00    -0.206 F 
ATOM     72  C   UNL A   1      45.167  35.974  28.051  1.00  0.00     0.060 A 
BRANCH  72  73
ATOM     73  S   UNL A   1      45.099  37.560  27.201  1.00  0.00     0.124 S 
ATOM     74  O   UNL A   1      45.363  38.490  28.291  1.00  0.00    -0.237 OA
ATOM     75  O   UNL A   1      46.160  37.413  26.209  1.00  0.00    -0.237 OA
ATOM     76  O   UNL A   1      43.744  37.588  26.658  1.00  0.00    -0.744 OA
ENDBRANCH  72  73
ENDBRANCH  51  65
BRANCH  52  77
ATOM     77  C   UNL A   1      37.199  31.473  30.315  1.00  0.00     0.058 A 
ATOM     78  C   UNL A   1      36.343  31.946  31.329  1.00  0.00     0.135 A 
ATOM     79  C   UNL A   1      36.859  31.836  28.999  1.00  0.00     0.135 A 
ATOM     80  F   UNL A   1      36.599  31.662  32.614  1.00  0.00    -0.206 F 
ATOM     81  C   UNL A   1      35.246  32.776  31.057  1.00  0.00     0.059 A 
ATOM     82  C   UNL A   1      35.771  32.661  28.703  1.00  0.00     0.059 A 
ATOM     83  F   UNL A   1      37.638  31.476  27.966  1.00  0.00    -0.206 F 
ATOM     84  C   UNL A   1      34.982  33.147  29.740  1.00  0.00     0.060 A 
BRANCH  84  85
ATOM     85  S   UNL A   1      33.678  34.358  29.397  1.00  0.00     0.124 S 
ATOM     86  O   UNL A   1      34.418  35.415  28.716  1.00  0.00    -0.237 OA
ATOM     87  O   UNL A   1      32.753  33.593  28.569  1.00  0.00    -0.237 OA
ATOM     88  O   UNL A   1      33.180  34.704  30.727  1.00  0.00    -0.744 OA
ENDBRANCH  84  85
ENDBRANCH  52  77
BRANCH  64  89
ATOM     89  C   UNL A   1      42.053  29.558  33.959  1.00  0.00     0.058 A 
ATOM     90  C   UNL A   1      41.784  28.244  33.548  1.00  0.00     0.135 A 
ATOM     91  C   UNL A   1      42.153  29.799  35.338  1.00  0.00     0.135 A 
ATOM     92  F   UNL A   1      41.744  27.921  32.247  1.00  0.00    -0.206 F 
ATOM     93  C   UNL A   1      41.597  27.216  34.477  1.00  0.00     0.059 A 
ATOM     94  C   UNL A   1      42.000  28.789  36.277  1.00  0.00     0.059 A 
ATOM     95  F   UNL A   1      42.449  31.031  35.786  1.00  0.00    -0.206 F 
ATOM     96  C   UNL A   1      41.710  27.500  35.841  1.00  0.00     0.060 A 
BRANCH  96  97
ATOM     97  S   UNL A   1      41.523  26.171  37.046  1.00  0.00     0.124 S 
ATOM     98  O   UNL A   1      40.236  26.487  37.656  1.00  0.00    -0.237 OA
ATOM     99  O   UNL A   1      41.552  24.977  36.206  1.00  0.00    -0.237 OA
ATOM    100  O   UNL A   1      42.684  26.335  37.919  1.00  0.00    -0.744 OA
ENDBRANCH  96  97
ENDBRANCH  64  89
ENDBRANCH  38  39
ENDBRANCH  30  33
ENDBRANCH  28  29
ENDBRANCH  27  28
ENDBRANCH  26  27
ENDBRANCH   1  26
TORSDOF 21
ENDMDL
MODEL 3
REMARK VINA RESULT:     -10.6      2.707      3.750
REMARK SMILES N#CCCn1cc(C(=O)NCCCCCCNC(=O)c2ccc(-c3c4nc(c(-c5c(F)cc(S(=O)(=O)[O-])cc5F)c5ccc([nH]5)c(-c5c(F)cc(S(=O)(=O)[O-])cc5F)c5nc(c(-c6c(F)cc(S(=O)(=O)[O-])cc6F)c6ccc3[nH]6)C=C5)C=C4)cc2)c(-c2cccc([N+](=O)[O-])c2)n1
REMARK SMILES IDX 13 1 12 2 11 3 10 4 8 5 9 6 7 8 5 9 6 10 96 11 86 12 4 13
REMARK SMILES IDX 3 14 2 15 1 16 87 17 88 18 95 19 89 20 91 21 90 22 92 23
REMARK SMILES IDX 93 24 94 25 14 26 15 27 16 28 17 29 18 30 19 32 20 33 21 34
REMARK SMILES IDX 85 35 22 36 84 37 23 38 24 39 25 40 78 41 26 42 83 43 77 44
REMARK SMILES IDX 79 45 27 46 82 47 76 48 75 49 28 51 62 52 41 53 61 54 42 55
REMARK SMILES IDX 45 56 60 57 80 58 43 59 44 60 59 62 81 63 46 64 29 65 30 66
REMARK SMILES IDX 39 67 31 68 32 69 38 70 40 71 33 72 34 73 35 74 36 75 37 76
REMARK SMILES IDX 63 77 64 78 73 79 65 80 66 81 72 82 74 83 67 84 68 85 69 86
REMARK SMILES IDX 70 87 71 88 47 89 48 90 57 91 49 92 50 93 56 94 58 95 51 96
REMARK SMILES IDX 52 97 53 98 54 99 55 100
REMARK H PARENT 10 7 17 31 79 50 45 61
REMARK Flexibility Score: inf
ROOT
ATOM      1  C   UNL A   1      37.177  23.216  25.273  1.00  0.00     0.002 C 
ENDROOT
BRANCH   1   2
ATOM      2  C   UNL A   1      35.773  23.482  25.834  1.00  0.00     0.021 C 
BRANCH   2   3
ATOM      3  C   UNL A   1      35.091  24.676  25.170  1.00  0.00     0.116 C 
BRANCH   3   4
ATOM      4  N   UNL A   1      34.831  24.390  23.781  1.00  0.00    -0.352 N 
ATOM      5  C   UNL A   1      34.061  23.447  23.161  1.00  0.00     0.255 C 
ATOM      6  O   UNL A   1      34.050  23.506  21.930  1.00  0.00    -0.269 OA
ATOM      7  H   UNL A   1      35.299  24.990  23.157  1.00  0.00     0.163 HD
BRANCH   5   8
ATOM      8  C   UNL A   1      33.247  22.499  23.914  1.00  0.00     0.085 A 
ATOM      9  N   UNL A   1      32.531  20.749  25.039  1.00  0.00    -0.270 N 
ATOM     10  C   UNL A   1      33.327  21.123  23.997  1.00  0.00     0.123 A 
ATOM     11  N   UNL A   1      31.734  21.742  25.472  1.00  0.00    -0.172 NA
ATOM     12  C   UNL A   1      32.107  22.807  24.736  1.00  0.00     0.105 A 
BRANCH   9  13
ATOM     13  C   UNL A   1      32.535  19.430  25.663  1.00  0.00     0.159 C 
BRANCH  13  14
ATOM     14  C   UNL A   1      33.367  18.388  24.884  1.00  0.00     0.144 C 
BRANCH  14  15
ATOM     15  C   UNL A   1      32.907  17.008  25.324  1.00  0.00     0.064 C 
ATOM     16  N   UNL A   1      32.526  15.863  25.690  1.00  0.00    -0.198 NA
ENDBRANCH  14  15
ENDBRANCH  13  14
ENDBRANCH   9  13
BRANCH  12  17
ATOM     17  C   UNL A   1      31.415  24.098  24.810  1.00  0.00     0.010 A 
ATOM     18  C   UNL A   1      30.454  24.416  23.831  1.00  0.00     0.011 A 
ATOM     19  C   UNL A   1      31.763  25.060  25.763  1.00  0.00     0.096 A 
ATOM     20  C   UNL A   1      29.901  25.695  23.746  1.00  0.00     0.008 A 
ATOM     21  C   UNL A   1      31.197  26.343  25.677  1.00  0.00     0.270 A 
ATOM     22  C   UNL A   1      30.279  26.669  24.664  1.00  0.00     0.085 A 
BRANCH  21  23
ATOM     23  N   UNL A   1      31.595  27.383  26.633  1.00  0.00     0.062 N 
ATOM     24  O   UNL A   1      30.967  27.459  27.701  1.00  0.00    -0.258 OA
ATOM     25  O   UNL A   1      32.532  28.132  26.322  1.00  0.00    -0.258 OA
ENDBRANCH  21  23
ENDBRANCH  12  17
ENDBRANCH   5   8
ENDBRANCH   3   4
ENDBRANCH   2   3
ENDBRANCH   1   2
BRANCH   1  26
ATOM     26  C   UNL A   1      37.436  21.768  24.827  1.00  0.00     0.002 C 
BRANCH  26  27
ATOM     27  C   UNL A   1      38.540  21.026  25.594  1.00  0.00     0.021 C 
BRANCH  27  28
ATOM     28  C   UNL A   1      39.455  21.959  26.369  1.00  0.00     0.116 C 
BRANCH  28  29
ATOM     29  N   UNL A   1      40.820  21.921  25.853  1.00  0.00    -0.352 N 
ATOM     30  C   UNL A   1      41.741  22.942  25.842  1.00  0.00     0.251 C 
ATOM     31  H   UNL A   1      41.115  21.065  25.467  1.00  0.00     0.163 HD
ATOM     32  O   UNL A   1      42.684  22.932  25.052  1.00  0.00    -0.269 OA
BRANCH  30  33
ATOM     33  C   UNL A   1      41.579  24.041  26.806  1.00  0.00     0.039 A 
ATOM     34  C   UNL A   1      42.235  24.028  28.037  1.00  0.00     0.014 A 
ATOM     35  C   UNL A   1      40.782  25.121  26.425  1.00  0.00     0.014 A 
ATOM     36  C   UNL A   1      42.145  25.153  28.851  1.00  0.00     0.010 A 
ATOM     37  C   UNL A   1      40.805  26.277  27.164  1.00  0.00     0.010 A 
ATOM     38  C   UNL A   1      41.448  26.288  28.397  1.00  0.00    -0.014 A 
BRANCH  38  39
ATOM     39  C   UNL A   1      41.561  27.561  29.111  1.00  0.00     0.031 A 
ATOM     40  C   UNL A   1      42.643  28.424  28.558  1.00  0.00     0.074 A 
ATOM     41  C   UNL A   1      40.638  28.005  29.998  1.00  0.00     0.049 A 
ATOM     42  N   UNL A   1      43.785  28.698  29.096  1.00  0.00    -0.248 NA
ATOM     43  C   UNL A   1      42.544  28.868  27.153  1.00  0.00     0.031 C 
ATOM     44  C   UNL A   1      39.367  27.354  30.349  1.00  0.00     0.029 A 
ATOM     45  N   UNL A   1      40.566  29.179  30.695  1.00  0.00    -0.354 N 
ATOM     46  C   UNL A   1      44.383  29.620  28.240  1.00  0.00     0.074 A 
ATOM     47  C   UNL A   1      43.722  29.474  26.974  1.00  0.00     0.031 C 
ATOM     48  C   UNL A   1      38.553  28.238  30.971  1.00  0.00     0.029 A 
ATOM     49  C   UNL A   1      39.304  29.449  31.236  1.00  0.00     0.049 A 
ATOM     50  H   UNL A   1      41.336  29.782  30.807  1.00  0.00     0.167 HD
ATOM     51  C   UNL A   1      45.085  30.667  28.756  1.00  0.00     0.037 A 
ATOM     52  C   UNL A   1      38.901  30.580  31.874  1.00  0.00     0.037 A 
ATOM     53  C   UNL A   1      45.352  30.443  30.154  1.00  0.00     0.049 A 
ATOM     54  C   UNL A   1      40.123  31.257  32.364  1.00  0.00     0.074 A 
ATOM     55  C   UNL A   1      46.187  29.649  30.908  1.00  0.00     0.029 A 
ATOM     56  N   UNL A   1      44.325  30.845  30.965  1.00  0.00    -0.354 N 
ATOM     57  N   UNL A   1      40.904  30.742  33.276  1.00  0.00    -0.248 NA
ATOM     58  C   UNL A   1      40.705  32.335  31.575  1.00  0.00     0.031 C 
ATOM     59  C   UNL A   1      45.551  29.491  32.176  1.00  0.00     0.029 A 
ATOM     60  C   UNL A   1      44.378  30.241  32.189  1.00  0.00     0.049 A 
ATOM     61  H   UNL A   1      43.631  31.490  30.698  1.00  0.00     0.167 HD
ATOM     62  C   UNL A   1      42.173  31.121  32.886  1.00  0.00     0.074 A 
ATOM     63  C   UNL A   1      41.981  32.223  31.952  1.00  0.00     0.031 C 
ATOM     64  C   UNL A   1      43.237  30.288  33.076  1.00  0.00     0.037 A 
BRANCH  51  65
ATOM     65  C   UNL A   1      45.058  32.087  28.211  1.00  0.00     0.058 A 
ATOM     66  C   UNL A   1      46.277  32.704  27.849  1.00  0.00     0.135 A 
ATOM     67  C   UNL A   1      43.954  32.961  28.320  1.00  0.00     0.135 A 
ATOM     68  F   UNL A   1      47.401  31.978  27.733  1.00  0.00    -0.206 F 
ATOM     69  C   UNL A   1      46.397  34.084  27.661  1.00  0.00     0.059 A 
ATOM     70  C   UNL A   1      44.040  34.329  28.091  1.00  0.00     0.059 A 
ATOM     71  F   UNL A   1      42.753  32.555  28.747  1.00  0.00    -0.206 F 
ATOM     72  C   UNL A   1      45.270  34.890  27.792  1.00  0.00     0.060 A 
BRANCH  72  73
ATOM     73  S   UNL A   1      45.417  36.675  27.598  1.00  0.00     0.124 S 
ATOM     74  O   UNL A   1      46.062  36.777  26.296  1.00  0.00    -0.237 OA
ATOM     75  O   UNL A   1      44.021  37.098  27.661  1.00  0.00    -0.237 OA
ATOM     76  O   UNL A   1      46.235  37.067  28.743  1.00  0.00    -0.744 OA
ENDBRANCH  72  73
ENDBRANCH  51  65
BRANCH  52  77
ATOM     77  C   UNL A   1      37.570  31.246  31.888  1.00  0.00     0.058 A 
ATOM     78  C   UNL A   1      36.941  31.622  33.090  1.00  0.00     0.135 A 
ATOM     79  C   UNL A   1      37.033  31.799  30.710  1.00  0.00     0.135 A 
ATOM     80  F   UNL A   1      37.395  31.156  34.263  1.00  0.00    -0.206 F 
ATOM     81  C   UNL A   1      35.877  32.535  33.128  1.00  0.00     0.059 A 
ATOM     82  C   UNL A   1      35.974  32.710  30.720  1.00  0.00     0.059 A 
ATOM     83  F   UNL A   1      37.591  31.541  29.516  1.00  0.00    -0.206 F 
ATOM     84  C   UNL A   1      35.416  33.092  31.936  1.00  0.00     0.060 A 
BRANCH  84  85
ATOM     85  S   UNL A   1      34.165  34.403  31.988  1.00  0.00     0.124 S 
ATOM     86  O   UNL A   1      33.179  33.844  32.906  1.00  0.00    -0.237 OA
ATOM     87  O   UNL A   1      34.929  35.541  32.487  1.00  0.00    -0.237 OA
ATOM     88  O   UNL A   1      33.731  34.510  30.596  1.00  0.00    -0.744 OA
ENDBRANCH  84  85
ENDBRANCH  52  77
BRANCH  64  89
ATOM     89  C   UNL A   1      43.172  29.303  34.201  1.00  0.00     0.058 A 
ATOM     90  C   UNL A   1      43.339  29.598  35.562  1.00  0.00     0.135 A 
ATOM     91  C   UNL A   1      42.830  27.985  33.860  1.00  0.00     0.135 A 
ATOM     92  F   UNL A   1      43.595  30.850  35.971  1.00  0.00    -0.206 F 
ATOM     93  C   UNL A   1      43.197  28.612  36.542  1.00  0.00     0.059 A 
ATOM     94  C   UNL A   1      42.655  26.997  34.817  1.00  0.00     0.059 A 
ATOM     95  F   UNL A   1      42.619  27.656  32.574  1.00  0.00    -0.206 F 
ATOM     96  C   UNL A   1      42.852  27.313  36.158  1.00  0.00     0.060 A 
BRANCH  96  97
ATOM     97  S   UNL A   1      42.612  26.045  37.419  1.00  0.00     0.124 S 
ATOM     98  O   UNL A   1      43.611  26.413  38.417  1.00  0.00    -0.237 OA
ATOM     99  O   UNL A   1      41.220  26.246  37.808  1.00  0.00    -0.237 OA
ATOM    100  O   UNL A   1      42.876  24.798  36.704  1.00  0.00    -0.744 OA
ENDBRANCH  96  97
ENDBRANCH  64  89
ENDBRANCH  38  39
ENDBRANCH  30  33
ENDBRANCH  28  29
ENDBRANCH  27  28
ENDBRANCH  26  27
ENDBRANCH   1  26
TORSDOF 21
ENDMDL
