MODEL 1
REMARK VINA RESULT:     -12.1      0.000      0.000
REMARK SMILES O=C(NCCCCCCNC(=O)c1cc(Br)n(Cc2ccn(C3CCCC3)n2)c1)c1ccc(-c2c3nc(c(-c4c(F)cc(S(=O)(=O)[O-])cc4F)c4ccc([nH]4)c(-c4c(F)cc(S(=O)(=O)[O-])cc4F)c4nc(c(-c5c(F)cc(S(=O)(=O)[O-])cc5F)c5ccc2[nH]5)C=C4)C=C3)cc1
REMARK SMILES IDX 6 1 5 2 4 3 3 4 1 5 2 6 30 8 31 9 95 10 32 11 94 12 33 13
REMARK SMILES IDX 34 14 35 15 88 16 36 17 93 18 87 19 89 20 37 21 92 22 86 23
REMARK SMILES IDX 85 24 38 26 72 27 51 28 71 29 52 30 55 31 70 32 90 33 53 34
REMARK SMILES IDX 54 35 69 37 91 38 56 39 39 40 40 41 49 42 41 43 42 44 48 45
REMARK SMILES IDX 50 46 43 47 44 48 45 49 46 50 47 51 73 52 74 53 83 54 75 55
REMARK SMILES IDX 76 56 82 57 84 58 77 59 78 60 79 61 80 62 81 63 57 64 58 65
REMARK SMILES IDX 67 66 59 67 60 68 66 69 68 70 61 71 62 72 63 73 64 74 65 75
REMARK SMILES IDX 7 76 8 77 9 78 10 79 11 80 12 82 13 83 14 84 29 85 15 86
REMARK SMILES IDX 17 87 16 88 18 89 19 90 20 91 28 92 21 93 22 94 23 95 24 96
REMARK SMILES IDX 27 97 25 98 26 99
REMARK H PARENT 3 7 89 25 55 36 10 81
REMARK Flexibility Score: inf
ROOT
ATOM      1  C   UNL A   1      40.140  21.089  26.541  1.00  0.00     0.002 C 
ENDROOT
BRANCH   1   2
ATOM      2  C   UNL A   1      40.530  19.721  25.972  1.00  0.00     0.021 C 
BRANCH   2   3
ATOM      3  C   UNL A   1      41.911  19.219  26.401  1.00  0.00     0.116 C 
BRANCH   3   4
ATOM      4  N   UNL A   1      42.959  19.520  25.449  1.00  0.00    -0.352 N 
ATOM      5  O   UNL A   1      44.564  20.482  24.285  1.00  0.00    -0.269 OA
ATOM      6  C   UNL A   1      43.690  20.634  25.143  1.00  0.00     0.251 C 
ATOM      7  H   UNL A   1      43.203  18.743  24.896  1.00  0.00     0.163 HD
BRANCH   6   8
ATOM      8  C   UNL A   1      43.493  21.989  25.740  1.00  0.00     0.039 A 
ATOM      9  C   UNL A   1      42.761  23.033  25.174  1.00  0.00     0.014 A 
ATOM     10  C   UNL A   1      44.112  22.213  26.985  1.00  0.00     0.014 A 
ATOM     11  C   UNL A   1      42.681  24.275  25.804  1.00  0.00     0.010 A 
ATOM     12  C   UNL A   1      44.020  23.446  27.629  1.00  0.00     0.010 A 
ATOM     13  C   UNL A   1      43.318  24.488  27.026  1.00  0.00    -0.014 A 
BRANCH  13  14
ATOM     14  C   UNL A   1      43.150  25.795  27.664  1.00  0.00     0.031 A 
ATOM     15  C   UNL A   1      44.209  26.818  27.398  1.00  0.00     0.074 A 
ATOM     16  C   UNL A   1      42.035  26.160  28.328  1.00  0.00     0.049 A 
ATOM     17  N   UNL A   1      44.929  27.487  28.243  1.00  0.00    -0.248 NA
ATOM     18  C   UNL A   1      44.523  27.107  25.990  1.00  0.00     0.031 C 
ATOM     19  C   UNL A   1      40.762  25.442  28.406  1.00  0.00     0.029 A 
ATOM     20  N   UNL A   1      41.779  27.331  28.983  1.00  0.00    -0.354 N 
ATOM     21  C   UNL A   1      45.661  28.407  27.489  1.00  0.00     0.074 A 
ATOM     22  C   UNL A   1      45.445  28.063  26.107  1.00  0.00     0.031 C 
ATOM     23  C   UNL A   1      39.812  26.283  28.873  1.00  0.00     0.029 A 
ATOM     24  C   UNL A   1      40.435  27.541  29.248  1.00  0.00     0.049 A 
ATOM     25  H   UNL A   1      42.484  27.966  29.244  1.00  0.00     0.167 HD
ATOM     26  C   UNL A   1      46.276  29.495  28.036  1.00  0.00     0.037 A 
ATOM     27  C   UNL A   1      39.862  28.695  29.664  1.00  0.00     0.037 A 
ATOM     28  C   UNL A   1      46.446  29.369  29.457  1.00  0.00     0.049 A 
ATOM     29  C   UNL A   1      40.917  29.544  30.270  1.00  0.00     0.074 A 
ATOM     30  C   UNL A   1      47.112  28.492  30.288  1.00  0.00     0.029 A 
ATOM     31  N   UNL A   1      45.638  30.114  30.278  1.00  0.00    -0.354 N 
ATOM     32  N   UNL A   1      41.546  29.272  31.381  1.00  0.00    -0.248 NA
ATOM     33  C   UNL A   1      41.533  30.572  29.445  1.00  0.00     0.031 C 
ATOM     34  C   UNL A   1      46.330  28.435  31.478  1.00  0.00     0.029 A 
ATOM     35  C   UNL A   1      45.240  29.286  31.296  1.00  0.00     0.049 A 
ATOM     36  H   UNL A   1      45.394  31.061  30.160  1.00  0.00     0.167 HD
ATOM     37  C   UNL A   1      42.817  29.799  31.212  1.00  0.00     0.074 A 
ATOM     38  C   UNL A   1      42.709  30.689  30.064  1.00  0.00     0.031 C 
ATOM     39  C   UNL A   1      43.901  29.262  31.845  1.00  0.00     0.037 A 
BRANCH  26  40
ATOM     40  C   UNL A   1      46.484  30.813  27.324  1.00  0.00     0.058 A 
ATOM     41  C   UNL A   1      47.772  31.386  27.264  1.00  0.00     0.135 A 
ATOM     42  C   UNL A   1      45.420  31.665  26.953  1.00  0.00     0.135 A 
ATOM     43  F   UNL A   1      48.857  30.670  27.602  1.00  0.00    -0.206 F 
ATOM     44  C   UNL A   1      47.981  32.727  26.935  1.00  0.00     0.059 A 
ATOM     45  C   UNL A   1      45.612  32.989  26.570  1.00  0.00     0.059 A 
ATOM     46  F   UNL A   1      44.142  31.277  27.042  1.00  0.00    -0.206 F 
ATOM     47  C   UNL A   1      46.889  33.526  26.612  1.00  0.00     0.060 A 
BRANCH  47  48
ATOM     48  S   UNL A   1      47.134  35.290  26.330  1.00  0.00     0.124 S 
ATOM     49  O   UNL A   1      45.757  35.753  26.201  1.00  0.00    -0.237 OA
ATOM     50  O   UNL A   1      47.836  35.702  27.542  1.00  0.00    -0.237 OA
ATOM     51  O   UNL A   1      47.932  35.325  25.108  1.00  0.00    -0.744 OA
ENDBRANCH  47  48
ENDBRANCH  26  40
BRANCH  27  52
ATOM     52  C   UNL A   1      38.526  29.219  29.287  1.00  0.00     0.058 A 
ATOM     53  C   UNL A   1      37.561  29.532  30.259  1.00  0.00     0.135 A 
ATOM     54  C   UNL A   1      38.260  29.671  27.977  1.00  0.00     0.135 A 
ATOM     55  F   UNL A   1      37.749  29.172  31.538  1.00  0.00    -0.206 F 
ATOM     56  C   UNL A   1      36.413  30.273  29.956  1.00  0.00     0.059 A 
ATOM     57  C   UNL A   1      37.117  30.395  27.648  1.00  0.00     0.059 A 
ATOM     58  F   UNL A   1      39.152  29.499  26.990  1.00  0.00    -0.206 F 
ATOM     59  C   UNL A   1      36.207  30.713  28.649  1.00  0.00     0.060 A 
BRANCH  59  60
ATOM     60  S   UNL A   1      34.812  31.801  28.284  1.00  0.00     0.124 S 
ATOM     61  O   UNL A   1      34.381  32.194  29.621  1.00  0.00    -0.237 OA
ATOM     62  O   UNL A   1      35.440  32.847  27.483  1.00  0.00    -0.237 OA
ATOM     63  O   UNL A   1      33.887  30.936  27.558  1.00  0.00    -0.744 OA
ENDBRANCH  59  60
ENDBRANCH  27  52
BRANCH  39  64
ATOM     64  C   UNL A   1      43.670  28.326  33.001  1.00  0.00     0.058 A 
ATOM     65  C   UNL A   1      43.446  28.756  34.318  1.00  0.00     0.135 A 
ATOM     66  C   UNL A   1      43.478  26.962  32.727  1.00  0.00     0.135 A 
ATOM     67  F   UNL A   1      43.507  30.057  34.637  1.00  0.00    -0.206 F 
ATOM     68  C   UNL A   1      43.069  27.868  35.326  1.00  0.00     0.059 A 
ATOM     69  C   UNL A   1      43.073  26.063  33.711  1.00  0.00     0.059 A 
ATOM     70  F   UNL A   1      43.617  26.501  31.472  1.00  0.00    -0.206 F 
ATOM     71  C   UNL A   1      42.874  26.523  35.010  1.00  0.00     0.060 A 
BRANCH  71  72
ATOM     72  S   UNL A   1      42.247  25.407  36.285  1.00  0.00     0.124 S 
ATOM     73  O   UNL A   1      43.346  25.389  37.246  1.00  0.00    -0.237 OA
ATOM     74  O   UNL A   1      41.028  26.080  36.729  1.00  0.00    -0.237 OA
ATOM     75  O   UNL A   1      42.026  24.156  35.563  1.00  0.00    -0.744 OA
ENDBRANCH  71  72
ENDBRANCH  39  64
ENDBRANCH  13  14
ENDBRANCH   6   8
ENDBRANCH   3   4
ENDBRANCH   2   3
ENDBRANCH   1   2
BRANCH   1  76
ATOM     76  C   UNL A   1      38.854  21.698  25.973  1.00  0.00     0.002 C 
BRANCH  76  77
ATOM     77  C   UNL A   1      38.729  23.219  26.114  1.00  0.00     0.021 C 
BRANCH  77  78
ATOM     78  C   UNL A   1      37.302  23.757  25.994  1.00  0.00     0.116 C 
BRANCH  78  79
ATOM     79  N   UNL A   1      36.334  22.741  26.367  1.00  0.00    -0.352 N 
ATOM     80  C   UNL A   1      34.970  22.837  26.387  1.00  0.00     0.252 C 
ATOM     81  H   UNL A   1      36.707  21.872  26.641  1.00  0.00     0.163 HD
ATOM     82  O   UNL A   1      34.312  22.018  27.034  1.00  0.00    -0.269 OA
BRANCH  80  83
ATOM     83  C   UNL A   1      34.337  23.898  25.622  1.00  0.00     0.058 A 
ATOM     84  C   UNL A   1      34.458  25.306  25.806  1.00  0.00     0.049 A 
ATOM     85  C   UNL A   1      33.560  23.719  24.491  1.00  0.00     0.101 A 
ATOM     86  C   UNL A   1      33.787  25.922  24.774  1.00  0.00     0.086 A 
ATOM     87  N   UNL A   1      33.184  24.954  24.010  1.00  0.00    -0.335 N 
ATOM     88  Br  UNL A   1      33.799  27.770  24.502  1.00  0.00    -0.031 Br
BRANCH  87  89
ATOM     89  C   UNL A   1      32.405  25.157  22.792  1.00  0.00     0.180 C 
BRANCH  89  90
ATOM     90  C   UNL A   1      31.132  25.906  23.034  1.00  0.00     0.082 A 
ATOM     91  C   UNL A   1      30.003  25.510  23.794  1.00  0.00     0.047 A 
ATOM     92  N   UNL A   1      30.981  27.161  22.574  1.00  0.00    -0.176 NA
ATOM     93  C   UNL A   1      29.153  26.587  23.778  1.00  0.00     0.109 A 
ATOM     94  N   UNL A   1      29.775  27.549  23.039  1.00  0.00    -0.269 N 
BRANCH  94  95
ATOM     95  C   UNL A   1      29.260  28.873  22.777  1.00  0.00     0.107 C 
ATOM     96  C   UNL A   1      27.754  29.037  22.972  1.00  0.00     0.027 C 
ATOM     97  C   UNL A   1      29.838  29.962  23.678  1.00  0.00     0.027 C 
ATOM     98  C   UNL A   1      27.569  30.550  22.966  1.00  0.00     0.002 C 
ATOM     99  C   UNL A   1      28.861  31.130  23.541  1.00  0.00     0.002 C 
ENDBRANCH  94  95
ENDBRANCH  89  90
ENDBRANCH  87  89
ENDBRANCH  80  83
ENDBRANCH  78  79
ENDBRANCH  77  78
ENDBRANCH  76  77
ENDBRANCH   1  76
TORSDOF 19
ENDMDL
MODEL 2
REMARK VINA RESULT:     -12.0      2.796      9.684
REMARK SMILES O=C(NCCCCCCNC(=O)c1cc(Br)n(Cc2ccn(C3CCCC3)n2)c1)c1ccc(-c2c3nc(c(-c4c(F)cc(S(=O)(=O)[O-])cc4F)c4ccc([nH]4)c(-c4c(F)cc(S(=O)(=O)[O-])cc4F)c4nc(c(-c5c(F)cc(S(=O)(=O)[O-])cc5F)c5ccc2[nH]5)C=C4)C=C3)cc1
REMARK SMILES IDX 6 1 5 2 4 3 3 4 1 5 2 6 30 8 31 9 95 10 32 11 94 12 33 13
REMARK SMILES IDX 34 14 35 15 88 16 36 17 93 18 87 19 89 20 37 21 92 22 86 23
REMARK SMILES IDX 85 24 38 26 72 27 51 28 71 29 52 30 55 31 70 32 90 33 53 34
REMARK SMILES IDX 54 35 69 37 91 38 56 39 39 40 40 41 49 42 41 43 42 44 48 45
REMARK SMILES IDX 50 46 43 47 44 48 45 49 46 50 47 51 73 52 74 53 83 54 75 55
REMARK SMILES IDX 76 56 82 57 84 58 77 59 78 60 79 61 80 62 81 63 57 64 58 65
REMARK SMILES IDX 67 66 59 67 60 68 66 69 68 70 61 71 62 72 63 73 64 74 65 75
REMARK SMILES IDX 7 76 8 77 9 78 10 79 11 80 12 82 13 83 14 84 29 85 15 86
REMARK SMILES IDX 17 87 16 88 18 89 19 90 20 91 28 92 21 93 22 94 23 95 24 96
REMARK SMILES IDX 27 97 25 98 26 99
REMARK H PARENT 3 7 89 25 55 36 10 81
REMARK Flexibility Score: inf
ROOT
ATOM      1  C   UNL A   1      31.882  28.211  25.474  1.00  0.00     0.002 C 
ENDROOT
BRANCH   1   2
ATOM      2  C   UNL A   1      31.954  28.925  26.828  1.00  0.00     0.021 C 
BRANCH   2   3
ATOM      3  C   UNL A   1      33.363  29.335  27.263  1.00  0.00     0.116 C 
BRANCH   3   4
ATOM      4  N   UNL A   1      33.490  30.745  27.564  1.00  0.00    -0.352 N 
ATOM      5  O   UNL A   1      34.247  32.760  28.040  1.00  0.00    -0.269 OA
ATOM      6  C   UNL A   1      34.526  31.562  27.925  1.00  0.00     0.251 C 
ATOM      7  H   UNL A   1      32.635  31.227  27.490  1.00  0.00     0.163 HD
BRANCH   6   8
ATOM      8  C   UNL A   1      35.922  31.116  28.207  1.00  0.00     0.039 A 
ATOM      9  C   UNL A   1      36.932  31.896  28.771  1.00  0.00     0.014 A 
ATOM     10  C   UNL A   1      36.228  29.785  27.863  1.00  0.00     0.014 A 
ATOM     11  C   UNL A   1      38.217  31.385  28.949  1.00  0.00     0.010 A 
ATOM     12  C   UNL A   1      37.505  29.261  28.057  1.00  0.00     0.010 A 
ATOM     13  C   UNL A   1      38.510  30.071  28.583  1.00  0.00    -0.014 A 
BRANCH  13  14
ATOM     14  C   UNL A   1      39.862  29.575  28.847  1.00  0.00     0.031 A 
ATOM     15  C   UNL A   1      40.308  29.558  30.276  1.00  0.00     0.074 A 
ATOM     16  C   UNL A   1      40.639  28.999  27.910  1.00  0.00     0.049 A 
ATOM     17  N   UNL A   1      41.358  30.098  30.811  1.00  0.00    -0.248 NA
ATOM     18  C   UNL A   1      39.441  28.863  31.240  1.00  0.00     0.031 C 
ATOM     19  C   UNL A   1      40.264  28.611  26.548  1.00  0.00     0.029 A 
ATOM     20  N   UNL A   1      41.916  28.531  28.031  1.00  0.00    -0.354 N 
ATOM     21  C   UNL A   1      41.384  29.669  32.139  1.00  0.00     0.074 A 
ATOM     22  C   UNL A   1      40.132  28.995  32.373  1.00  0.00     0.031 C 
ATOM     23  C   UNL A   1      41.206  27.776  26.055  1.00  0.00     0.029 A 
ATOM     24  C   UNL A   1      42.302  27.682  27.005  1.00  0.00     0.049 A 
ATOM     25  H   UNL A   1      42.509  28.774  28.778  1.00  0.00     0.167 HD
ATOM     26  C   UNL A   1      42.493  29.754  32.928  1.00  0.00     0.037 A 
ATOM     27  C   UNL A   1      43.400  26.892  26.976  1.00  0.00     0.037 A 
ATOM     28  C   UNL A   1      43.462  30.679  32.408  1.00  0.00     0.049 A 
ATOM     29  C   UNL A   1      44.380  27.425  27.955  1.00  0.00     0.074 A 
ATOM     30  C   UNL A   1      43.473  32.031  32.131  1.00  0.00     0.029 A 
ATOM     31  N   UNL A   1      44.599  30.175  31.829  1.00  0.00    -0.354 N 
ATOM     32  N   UNL A   1      45.004  28.565  27.839  1.00  0.00    -0.248 NA
ATOM     33  C   UNL A   1      44.429  26.824  29.279  1.00  0.00     0.031 C 
ATOM     34  C   UNL A   1      44.349  32.180  31.018  1.00  0.00     0.029 A 
ATOM     35  C   UNL A   1      44.820  30.908  30.690  1.00  0.00     0.049 A 
ATOM     36  H   UNL A   1      45.150  29.432  32.166  1.00  0.00     0.167 HD
ATOM     37  C   UNL A   1      45.185  29.010  29.140  1.00  0.00     0.074 A 
ATOM     38  C   UNL A   1      44.926  27.846  29.977  1.00  0.00     0.031 C 
ATOM     39  C   UNL A   1      45.260  30.341  29.434  1.00  0.00     0.037 A 
BRANCH  26  40
ATOM     40  C   UNL A   1      42.834  28.789  34.040  1.00  0.00     0.058 A 
ATOM     41  C   UNL A   1      43.012  27.418  33.755  1.00  0.00     0.135 A 
ATOM     42  C   UNL A   1      42.709  29.115  35.409  1.00  0.00     0.135 A 
ATOM     43  F   UNL A   1      43.135  26.994  32.487  1.00  0.00    -0.206 F 
ATOM     44  C   UNL A   1      42.991  26.437  34.748  1.00  0.00     0.059 A 
ATOM     45  C   UNL A   1      42.737  28.158  36.419  1.00  0.00     0.059 A 
ATOM     46  F   UNL A   1      42.454  30.365  35.816  1.00  0.00    -0.206 F 
ATOM     47  C   UNL A   1      42.828  26.817  36.076  1.00  0.00     0.060 A 
BRANCH  47  48
ATOM     48  S   UNL A   1      42.651  25.549  37.346  1.00  0.00     0.124 S 
ATOM     49  O   UNL A   1      43.250  26.213  38.499  1.00  0.00    -0.237 OA
ATOM     50  O   UNL A   1      41.205  25.362  37.396  1.00  0.00    -0.237 OA
ATOM     51  O   UNL A   1      43.404  24.424  36.802  1.00  0.00    -0.744 OA
ENDBRANCH  47  48
ENDBRANCH  26  40
BRANCH  27  52
ATOM     52  C   UNL A   1      43.516  25.539  26.379  1.00  0.00     0.058 A 
ATOM     53  C   UNL A   1      44.414  25.275  25.331  1.00  0.00     0.135 A 
ATOM     54  C   UNL A   1      42.934  24.412  26.998  1.00  0.00     0.135 A 
ATOM     55  F   UNL A   1      45.041  26.285  24.709  1.00  0.00    -0.206 F 
ATOM     56  C   UNL A   1      44.738  23.972  24.939  1.00  0.00     0.059 A 
ATOM     57  C   UNL A   1      43.227  23.107  26.615  1.00  0.00     0.059 A 
ATOM     58  F   UNL A   1      42.127  24.547  28.061  1.00  0.00    -0.206 F 
ATOM     59  C   UNL A   1      44.149  22.892  25.597  1.00  0.00     0.060 A 
BRANCH  59  60
ATOM     60  S   UNL A   1      44.679  21.211  25.204  1.00  0.00     0.124 S 
ATOM     61  O   UNL A   1      44.588  21.201  23.748  1.00  0.00    -0.237 OA
ATOM     62  O   UNL A   1      46.028  21.176  25.759  1.00  0.00    -0.237 OA
ATOM     63  O   UNL A   1      43.703  20.375  25.897  1.00  0.00    -0.744 OA
ENDBRANCH  59  60
ENDBRANCH  27  52
BRANCH  39  64
ATOM     64  C   UNL A   1      45.505  31.314  28.312  1.00  0.00     0.058 A 
ATOM     65  C   UNL A   1      44.496  31.786  27.456  1.00  0.00     0.135 A 
ATOM     66  C   UNL A   1      46.762  31.934  28.228  1.00  0.00     0.135 A 
ATOM     67  F   UNL A   1      43.243  31.318  27.546  1.00  0.00    -0.206 F 
ATOM     68  C   UNL A   1      44.731  32.812  26.541  1.00  0.00     0.059 A 
ATOM     69  C   UNL A   1      47.011  32.980  27.343  1.00  0.00     0.059 A 
ATOM     70  F   UNL A   1      47.749  31.570  29.065  1.00  0.00    -0.206 F 
ATOM     71  C   UNL A   1      45.990  33.412  26.499  1.00  0.00     0.060 A 
BRANCH  71  72
ATOM     72  S   UNL A   1      46.246  34.834  25.415  1.00  0.00     0.124 S 
ATOM     73  O   UNL A   1      45.325  34.555  24.318  1.00  0.00    -0.237 OA
ATOM     74  O   UNL A   1      45.886  35.960  26.273  1.00  0.00    -0.237 OA
ATOM     75  O   UNL A   1      47.665  34.754  25.077  1.00  0.00    -0.744 OA
ENDBRANCH  71  72
ENDBRANCH  39  64
ENDBRANCH  13  14
ENDBRANCH   6   8
ENDBRANCH   3   4
ENDBRANCH   2   3
ENDBRANCH   1   2
BRANCH   1  76
ATOM     76  C   UNL A   1      32.720  28.834  24.354  1.00  0.00     0.002 C 
BRANCH  76  77
ATOM     77  C   UNL A   1      32.008  28.979  23.004  1.00  0.00     0.021 C 
BRANCH  77  78
ATOM     78  C   UNL A   1      31.067  27.826  22.651  1.00  0.00     0.116 C 
BRANCH  78  79
ATOM     79  N   UNL A   1      31.649  26.979  21.626  1.00  0.00    -0.352 N 
ATOM     80  C   UNL A   1      32.450  25.881  21.787  1.00  0.00     0.252 C 
ATOM     81  H   UNL A   1      31.442  27.226  20.696  1.00  0.00     0.163 HD
ATOM     82  O   UNL A   1      33.126  25.477  20.838  1.00  0.00    -0.269 OA
BRANCH  80  83
ATOM     83  C   UNL A   1      32.461  25.214  23.078  1.00  0.00     0.058 A 
ATOM     84  C   UNL A   1      31.349  24.731  23.828  1.00  0.00     0.049 A 
ATOM     85  C   UNL A   1      33.595  24.835  23.776  1.00  0.00     0.101 A 
ATOM     86  C   UNL A   1      31.843  24.058  24.921  1.00  0.00     0.086 A 
ATOM     87  N   UNL A   1      33.210  24.178  24.925  1.00  0.00    -0.335 N 
ATOM     88  Br  UNL A   1      30.761  23.114  26.117  1.00  0.00    -0.031 Br
BRANCH  87  89
ATOM     89  C   UNL A   1      34.141  23.584  25.880  1.00  0.00     0.180 C 
BRANCH  89  90
ATOM     90  C   UNL A   1      34.614  22.226  25.463  1.00  0.00     0.082 A 
ATOM     91  C   UNL A   1      35.942  21.743  25.368  1.00  0.00     0.047 A 
ATOM     92  N   UNL A   1      33.729  21.248  25.199  1.00  0.00    -0.176 NA
ATOM     93  C   UNL A   1      35.828  20.417  25.034  1.00  0.00     0.109 A 
ATOM     94  N   UNL A   1      34.491  20.164  24.944  1.00  0.00    -0.269 N 
BRANCH  94  95
ATOM     95  C   UNL A   1      33.896  18.882  24.642  1.00  0.00     0.107 C 
ATOM     96  C   UNL A   1      32.917  18.878  23.469  1.00  0.00     0.027 C 
ATOM     97  C   UNL A   1      34.899  17.800  24.249  1.00  0.00     0.027 C 
ATOM     98  C   UNL A   1      32.732  17.393  23.180  1.00  0.00     0.002 C 
ATOM     99  C   UNL A   1      34.054  16.726  23.563  1.00  0.00     0.002 C 
ENDBRANCH  94  95
ENDBRANCH  89  90
ENDBRANCH  87  89
ENDBRANCH  80  83
ENDBRANCH  78  79
ENDBRANCH  77  78
ENDBRANCH  76  77
ENDBRANCH   1  76
TORSDOF 19
ENDMDL
MODEL 3
REMARK VINA RESULT:     -11.9      2.436      4.116
REMARK SMILES O=C(NCCCCCCNC(=O)c1cc(Br)n(Cc2ccn(C3CCCC3)n2)c1)c1ccc(-c2c3nc(c(-c4c(F)cc(S(=O)(=O)[O-])cc4F)c4ccc([nH]4)c(-c4c(F)cc(S(=O)(=O)[O-])cc4F)c4nc(c(-c5c(F)cc(S(=O)(=O)[O-])cc5F)c5ccc2[nH]5)C=C4)C=C3)cc1
REMARK SMILES IDX 6 1 5 2 4 3 3 4 1 5 2 6 30 8 31 9 95 10 32 11 94 12 33 13
REMARK SMILES IDX 34 14 35 15 88 16 36 17 93 18 87 19 89 20 37 21 92 22 86 23
REMARK SMILES IDX 85 24 38 26 72 27 51 28 71 29 52 30 55 31 70 32 90 33 53 34
REMARK SMILES IDX 54 35 69 37 91 38 56 39 39 40 40 41 49 42 41 43 42 44 48 45
REMARK SMILES IDX 50 46 43 47 44 48 45 49 46 50 47 51 73 52 74 53 83 54 75 55
REMARK SMILES IDX 76 56 82 57 84 58 77 59 78 60 79 61 80 62 81 63 57 64 58 65
REMARK SMILES IDX 67 66 59 67 60 68 66 69 68 70 61 71 62 72 63 73 64 74 65 75
REMARK SMILES IDX 7 76 8 77 9 78 10 79 11 80 12 82 13 83 14 84 29 85 15 86
REMARK SMILES IDX 17 87 16 88 18 89 19 90 20 91 28 92 21 93 22 94 23 95 24 96
REMARK SMILES IDX 27 97 25 98 26 99
REMARK H PARENT 3 7 89 25 55 36 10 81
REMARK Flexibility Score: inf
ROOT
ATOM      1  C   UNL A   1      40.504  21.093  27.162  1.00  0.00     0.002 C 
ENDROOT
BRANCH   1   2
ATOM      2  C   UNL A   1      41.151  19.820  26.604  1.00  0.00     0.021 C 
BRANCH   2   3
ATOM      3  C   UNL A   1      42.669  19.744  26.778  1.00  0.00     0.116 C 
BRANCH   3   4
ATOM      4  N   UNL A   1      43.409  20.213  25.626  1.00  0.00    -0.352 N 
ATOM      5  O   UNL A   1      44.536  21.423  24.168  1.00  0.00    -0.269 OA
ATOM      6  C   UNL A   1      43.872  21.430  25.210  1.00  0.00     0.251 C 
ATOM      7  H   UNL A   1      43.632  19.487  24.998  1.00  0.00     0.163 HD
BRANCH   6   8
ATOM      8  C   UNL A   1      43.618  22.732  25.894  1.00  0.00     0.039 A 
ATOM      9  C   UNL A   1      42.902  23.807  25.366  1.00  0.00     0.014 A 
ATOM     10  C   UNL A   1      44.161  22.869  27.186  1.00  0.00     0.014 A 
ATOM     11  C   UNL A   1      42.764  24.996  26.082  1.00  0.00     0.010 A 
ATOM     12  C   UNL A   1      44.010  24.048  27.915  1.00  0.00     0.010 A 
ATOM     13  C   UNL A   1      43.326  25.124  27.352  1.00  0.00    -0.014 A 
BRANCH  13  14
ATOM     14  C   UNL A   1      43.098  26.376  28.076  1.00  0.00     0.031 A 
ATOM     15  C   UNL A   1      44.150  27.433  27.945  1.00  0.00     0.074 A 
ATOM     16  C   UNL A   1      41.944  26.673  28.703  1.00  0.00     0.049 A 
ATOM     17  N   UNL A   1      44.811  28.048  28.875  1.00  0.00    -0.248 NA
ATOM     18  C   UNL A   1      44.532  27.833  26.581  1.00  0.00     0.031 C 
ATOM     19  C   UNL A   1      40.682  25.931  28.659  1.00  0.00     0.029 A 
ATOM     20  N   UNL A   1      41.630  27.786  29.429  1.00  0.00    -0.354 N 
ATOM     21  C   UNL A   1      45.563  29.034  28.232  1.00  0.00     0.074 A 
ATOM     22  C   UNL A   1      45.428  28.791  26.818  1.00  0.00     0.031 C 
ATOM     23  C   UNL A   1      39.693  26.719  29.135  1.00  0.00     0.029 A 
ATOM     24  C   UNL A   1      40.270  27.956  29.636  1.00  0.00     0.049 A 
ATOM     25  H   UNL A   1      42.308  28.411  29.775  1.00  0.00     0.167 HD
ATOM     26  C   UNL A   1      46.128  30.087  28.890  1.00  0.00     0.037 A 
ATOM     27  C   UNL A   1      39.653  29.065  30.106  1.00  0.00     0.037 A 
ATOM     28  C   UNL A   1      46.225  29.856  30.305  1.00  0.00     0.049 A 
ATOM     29  C   UNL A   1      40.658  29.883  30.829  1.00  0.00     0.074 A 
ATOM     30  C   UNL A   1      46.863  28.929  31.104  1.00  0.00     0.029 A 
ATOM     31  N   UNL A   1      45.360  30.525  31.135  1.00  0.00    -0.354 N 
ATOM     32  N   UNL A   1      41.233  29.538  31.949  1.00  0.00    -0.248 NA
ATOM     33  C   UNL A   1      41.296  30.980  30.117  1.00  0.00     0.031 C 
ATOM     34  C   UNL A   1      46.021  28.771  32.242  1.00  0.00     0.029 A 
ATOM     35  C   UNL A   1      44.925  29.616  32.065  1.00  0.00     0.049 A 
ATOM     36  H   UNL A   1      45.104  31.473  31.074  1.00  0.00     0.167 HD
ATOM     37  C   UNL A   1      42.501  30.096  31.889  1.00  0.00     0.074 A 
ATOM     38  C   UNL A   1      42.435  31.068  30.806  1.00  0.00     0.031 C 
ATOM     39  C   UNL A   1      43.560  29.530  32.538  1.00  0.00     0.037 A 
BRANCH  26  40
ATOM     40  C   UNL A   1      46.347  31.458  28.291  1.00  0.00     0.058 A 
ATOM     41  C   UNL A   1      45.252  32.189  27.784  1.00  0.00     0.135 A 
ATOM     42  C   UNL A   1      47.623  31.950  27.941  1.00  0.00     0.135 A 
ATOM     43  F   UNL A   1      43.992  31.806  28.047  1.00  0.00    -0.206 F 
ATOM     44  C   UNL A   1      45.412  33.282  26.930  1.00  0.00     0.059 A 
ATOM     45  C   UNL A   1      47.806  33.070  27.134  1.00  0.00     0.059 A 
ATOM     46  F   UNL A   1      48.747  31.308  28.286  1.00  0.00    -0.206 F 
ATOM     47  C   UNL A   1      46.696  33.699  26.592  1.00  0.00     0.060 A 
BRANCH  47  48
ATOM     48  S   UNL A   1      46.910  35.013  25.376  1.00  0.00     0.124 S 
ATOM     49  O   UNL A   1      48.269  34.755  24.912  1.00  0.00    -0.237 OA
ATOM     50  O   UNL A   1      45.844  34.726  24.421  1.00  0.00    -0.237 OA
ATOM     51  O   UNL A   1      46.729  36.229  26.162  1.00  0.00    -0.744 OA
ENDBRANCH  47  48
ENDBRANCH  26  40
BRANCH  27  52
ATOM     52  C   UNL A   1      38.329  29.596  29.697  1.00  0.00     0.058 A 
ATOM     53  C   UNL A   1      37.421  30.104  30.641  1.00  0.00     0.135 A 
ATOM     54  C   UNL A   1      38.030  29.854  28.342  1.00  0.00     0.135 A 
ATOM     55  F   UNL A   1      37.646  29.935  31.953  1.00  0.00    -0.206 F 
ATOM     56  C   UNL A   1      36.298  30.850  30.266  1.00  0.00     0.059 A 
ATOM     57  C   UNL A   1      36.910  30.579  27.944  1.00  0.00     0.059 A 
ATOM     58  F   UNL A   1      38.872  29.486  27.365  1.00  0.00    -0.206 F 
ATOM     59  C   UNL A   1      36.059  31.094  28.914  1.00  0.00     0.060 A 
BRANCH  59  60
ATOM     60  S   UNL A   1      34.702  32.185  28.431  1.00  0.00     0.124 S 
ATOM     61  O   UNL A   1      34.175  32.599  29.728  1.00  0.00    -0.237 OA
ATOM     62  O   UNL A   1      35.395  33.217  27.666  1.00  0.00    -0.237 OA
ATOM     63  O   UNL A   1      33.828  31.316  27.650  1.00  0.00    -0.744 OA
ENDBRANCH  59  60
ENDBRANCH  27  52
BRANCH  39  64
ATOM     64  C   UNL A   1      43.287  28.505  33.606  1.00  0.00     0.058 A 
ATOM     65  C   UNL A   1      42.990  28.832  34.939  1.00  0.00     0.135 A 
ATOM     66  C   UNL A   1      43.131  27.164  33.221  1.00  0.00     0.135 A 
ATOM     67  F   UNL A   1      43.015  30.105  35.358  1.00  0.00    -0.206 F 
ATOM     68  C   UNL A   1      42.579  27.865  35.857  1.00  0.00     0.059 A 
ATOM     69  C   UNL A   1      42.692  26.188  34.112  1.00  0.00     0.059 A 
ATOM     70  F   UNL A   1      43.339  26.802  31.944  1.00  0.00    -0.206 F 
ATOM     71  C   UNL A   1      42.421  26.545  35.431  1.00  0.00     0.060 A 
BRANCH  71  72
ATOM     72  S   UNL A   1      41.750  25.328  36.585  1.00  0.00     0.124 S 
ATOM     73  O   UNL A   1      42.826  25.203  37.562  1.00  0.00    -0.237 OA
ATOM     74  O   UNL A   1      40.531  25.978  37.063  1.00  0.00    -0.237 OA
ATOM     75  O   UNL A   1      41.525  24.153  35.747  1.00  0.00    -0.744 OA
ENDBRANCH  71  72
ENDBRANCH  39  64
ENDBRANCH  13  14
ENDBRANCH   6   8
ENDBRANCH   3   4
ENDBRANCH   2   3
ENDBRANCH   1   2
BRANCH   1  76
ATOM     76  C   UNL A   1      39.788  21.974  26.134  1.00  0.00     0.002 C 
BRANCH  76  77
ATOM     77  C   UNL A   1      39.252  23.307  26.670  1.00  0.00     0.021 C 
BRANCH  77  78
ATOM     78  C   UNL A   1      37.831  23.651  26.221  1.00  0.00     0.116 C 
BRANCH  78  79
ATOM     79  N   UNL A   1      37.749  23.726  24.774  1.00  0.00    -0.352 N 
ATOM     80  C   UNL A   1      36.680  23.443  23.969  1.00  0.00     0.252 C 
ATOM     81  H   UNL A   1      38.568  24.018  24.312  1.00  0.00     0.163 HD
ATOM     82  O   UNL A   1      36.862  23.234  22.767  1.00  0.00    -0.269 OA
BRANCH  80  83
ATOM     83  C   UNL A   1      35.353  23.418  24.560  1.00  0.00     0.058 A 
ATOM     84  C   UNL A   1      34.639  24.493  25.165  1.00  0.00     0.049 A 
ATOM     85  C   UNL A   1      34.491  22.334  24.553  1.00  0.00     0.101 A 
ATOM     86  C   UNL A   1      33.376  24.039  25.467  1.00  0.00     0.086 A 
ATOM     87  N   UNL A   1      33.308  22.704  25.155  1.00  0.00    -0.335 N 
ATOM     88  Br  UNL A   1      32.023  25.142  26.134  1.00  0.00    -0.031 Br
BRANCH  87  89
ATOM     89  C   UNL A   1      32.142  21.833  25.274  1.00  0.00     0.180 C 
BRANCH  89  90
ATOM     90  C   UNL A   1      32.262  20.585  24.456  1.00  0.00     0.082 A 
ATOM     91  C   UNL A   1      32.019  20.409  23.071  1.00  0.00     0.047 A 
ATOM     92  N   UNL A   1      32.731  19.451  25.007  1.00  0.00    -0.176 NA
ATOM     93  C   UNL A   1      32.364  19.109  22.801  1.00  0.00     0.109 A 
ATOM     94  N   UNL A   1      32.784  18.575  23.983  1.00  0.00    -0.269 N 
BRANCH  94  95
ATOM     95  C   UNL A   1      33.274  17.229  24.171  1.00  0.00     0.107 C 
ATOM     96  C   UNL A   1      34.717  17.123  24.659  1.00  0.00     0.027 C 
ATOM     97  C   UNL A   1      32.504  16.419  25.213  1.00  0.00     0.027 C 
ATOM     98  C   UNL A   1      34.831  15.663  25.083  1.00  0.00     0.002 C 
ATOM     99  C   UNL A   1      33.435  15.257  25.558  1.00  0.00     0.002 C 
ENDBRANCH  94  95
ENDBRANCH  89  90
ENDBRANCH  87  89
ENDBRANCH  80  83
ENDBRANCH  78  79
ENDBRANCH  77  78
ENDBRANCH  76  77
ENDBRANCH   1  76
TORSDOF 19
ENDMDL
