MODEL 1
REMARK VINA RESULT:     -13.1      0.000      0.000
REMARK SMILES NS(=O)(=O)c1ccc(-n2nc(C(=O)NCCCCCCNC(=O)c3ccc(-c4c5nc(c(-c6c(F)cc(S(=O)(=O)[O-])cc6F)c6ccc([nH]6)c(-c6c(F)cc(S(=O)(=O)[O-])cc6F)c6nc(c(-c7c(F)cc(S(=O)(=O)[O-])cc7F)c7ccc4[nH]7)C=C6)C=C5)cc3)c(Cl)c2-c2ccc(Cl)cc2)cc1
REMARK SMILES IDX 17 1 16 2 15 3 14 4 12 5 13 6 11 8 9 9 10 10 92 11 90 12
REMARK SMILES IDX 91 13 8 14 5 15 6 16 101 17 7 18 100 19 2 20 3 21 4 22 1 23
REMARK SMILES IDX 93 26 94 27 99 28 95 29 98 30 96 31 97 32 18 33 19 34 20 35
REMARK SMILES IDX 21 36 22 37 23 39 24 40 25 41 89 42 26 43 88 44 27 45 28 46
REMARK SMILES IDX 29 47 82 48 30 49 87 50 81 51 83 52 31 53 86 54 80 55 79 56
REMARK SMILES IDX 32 58 66 59 45 60 65 61 46 62 49 63 64 64 84 65 47 66 48 67
REMARK SMILES IDX 63 69 85 70 50 71 33 72 34 73 43 74 35 75 36 76 42 77 44 78
REMARK SMILES IDX 37 79 38 80 39 81 40 82 41 83 67 84 68 85 77 86 69 87 70 88
REMARK SMILES IDX 76 89 78 90 71 91 72 92 73 93 74 94 75 95 51 96 52 97 61 98
REMARK SMILES IDX 53 99 54 100 60 101 62 102 55 103 56 104 57 105 58 106
REMARK SMILES IDX 59 107
REMARK H PARENT 14 7 1 24 1 25 21 38 83 57 49 68
REMARK Flexibility Score: inf
ROOT
ATOM      1  C   UNL A   1      34.366  22.733  23.665  1.00  0.00     0.002 C 
ENDROOT
BRANCH   1   2
ATOM      2  C   UNL A   1      33.215  21.931  24.279  1.00  0.00     0.021 C 
BRANCH   2   3
ATOM      3  C   UNL A   1      33.208  21.858  25.813  1.00  0.00     0.116 C 
BRANCH   3   4
ATOM      4  N   UNL A   1      31.853  21.800  26.334  1.00  0.00    -0.351 N 
ATOM      5  C   UNL A   1      30.814  22.709  26.361  1.00  0.00     0.273 C 
ATOM      6  O   UNL A   1      29.738  22.268  26.776  1.00  0.00    -0.267 OA
ATOM      7  H   UNL A   1      31.630  20.938  26.753  1.00  0.00     0.163 HD
BRANCH   5   8
ATOM      8  C   UNL A   1      30.942  24.087  25.844  1.00  0.00     0.169 A 
ATOM      9  N   UNL A   1      31.503  26.172  25.874  1.00  0.00    -0.231 N 
ATOM     10  N   UNL A   1      31.580  25.022  26.588  1.00  0.00    -0.160 NA
ATOM     11  C   UNL A   1      30.687  26.035  24.768  1.00  0.00     0.094 A 
ATOM     12  C   UNL A   1      30.581  24.666  24.604  1.00  0.00     0.100 A 
ATOM     13  Cl  UNL A   1      30.155  23.917  23.140  1.00  0.00    -0.079 Cl
BRANCH   9  14
ATOM     14  C   UNL A   1      32.321  27.286  26.196  1.00  0.00     0.065 A 
ATOM     15  C   UNL A   1      34.108  29.187  27.170  1.00  0.00     0.082 A 
ATOM     16  C   UNL A   1      32.859  29.033  27.781  1.00  0.00     0.024 A 
ATOM     17  C   UNL A   1      34.443  28.438  26.038  1.00  0.00     0.024 A 
ATOM     18  C   UNL A   1      31.948  28.099  27.276  1.00  0.00     0.030 A 
ATOM     19  C   UNL A   1      33.554  27.473  25.560  1.00  0.00     0.030 A 
BRANCH  15  20
ATOM     20  S   UNL A   1      35.269  30.297  27.908  1.00  0.00     0.238 S 
ATOM     21  O   UNL A   1      35.531  29.852  29.264  1.00  0.00    -0.207 OA
ATOM     22  O   UNL A   1      34.892  31.645  27.588  1.00  0.00    -0.207 OA
BRANCH  20  23
ATOM     23  N   UNL A   1      36.712  30.026  27.081  1.00  0.00    -0.225 NA
ATOM     24  H   UNL A   1      36.684  30.509  26.183  1.00  0.00     0.137 HD
ATOM     25  H   UNL A   1      36.831  29.025  26.926  1.00  0.00     0.137 HD
ENDBRANCH  20  23
ENDBRANCH  15  20
ENDBRANCH   9  14
BRANCH  11  26
ATOM     26  C   UNL A   1      30.312  27.056  23.798  1.00  0.00     0.002 A 
ATOM     27  C   UNL A   1      31.329  27.751  23.128  1.00  0.00     0.012 A 
ATOM     28  C   UNL A   1      28.983  27.471  23.665  1.00  0.00     0.012 A 
ATOM     29  C   UNL A   1      31.022  28.870  22.354  1.00  0.00     0.021 A 
ATOM     30  C   UNL A   1      28.677  28.592  22.890  1.00  0.00     0.021 A 
ATOM     31  C   UNL A   1      29.698  29.292  22.249  1.00  0.00     0.041 A 
ATOM     32  Cl  UNL A   1      29.332  30.707  21.344  1.00  0.00    -0.084 Cl
ENDBRANCH  11  26
ENDBRANCH   5   8
ENDBRANCH   3   4
ENDBRANCH   2   3
ENDBRANCH   1   2
BRANCH   1  33
ATOM     33  C   UNL A   1      34.896  23.899  24.512  1.00  0.00     0.002 C 
BRANCH  33  34
ATOM     34  C   UNL A   1      36.015  23.576  25.515  1.00  0.00     0.021 C 
BRANCH  34  35
ATOM     35  C   UNL A   1      37.415  23.546  24.913  1.00  0.00     0.116 C 
BRANCH  35  36
ATOM     36  N   UNL A   1      38.158  22.348  25.301  1.00  0.00    -0.352 N 
ATOM     37  C   UNL A   1      39.294  22.246  26.078  1.00  0.00     0.251 C 
ATOM     38  H   UNL A   1      37.798  21.496  24.961  1.00  0.00     0.163 HD
ATOM     39  O   UNL A   1      39.987  21.234  26.033  1.00  0.00    -0.269 OA
BRANCH  37  40
ATOM     40  C   UNL A   1      39.670  23.372  26.950  1.00  0.00     0.039 A 
ATOM     41  C   UNL A   1      40.917  23.407  27.584  1.00  0.00     0.014 A 
ATOM     42  C   UNL A   1      38.769  24.420  27.101  1.00  0.00     0.014 A 
ATOM     43  C   UNL A   1      41.283  24.549  28.297  1.00  0.00     0.010 A 
ATOM     44  C   UNL A   1      39.186  25.594  27.682  1.00  0.00     0.010 A 
ATOM     45  C   UNL A   1      40.421  25.654  28.326  1.00  0.00    -0.014 A 
BRANCH  45  46
ATOM     46  C   UNL A   1      40.835  26.912  28.953  1.00  0.00     0.031 A 
ATOM     47  C   UNL A   1      41.974  27.631  28.308  1.00  0.00     0.074 A 
ATOM     48  C   UNL A   1      40.080  27.540  29.882  1.00  0.00     0.049 A 
ATOM     49  N   UNL A   1      43.119  27.953  28.820  1.00  0.00    -0.248 NA
ATOM     50  C   UNL A   1      41.850  27.970  26.881  1.00  0.00     0.031 C 
ATOM     51  C   UNL A   1      38.757  27.148  30.388  1.00  0.00     0.029 A 
ATOM     52  N   UNL A   1      40.277  28.751  30.470  1.00  0.00    -0.354 N 
ATOM     53  C   UNL A   1      43.779  28.714  27.853  1.00  0.00     0.074 A 
ATOM     54  C   UNL A   1      43.026  28.549  26.636  1.00  0.00     0.031 C 
ATOM     55  C   UNL A   1      38.174  28.206  30.989  1.00  0.00     0.029 A 
ATOM     56  C   UNL A   1      39.146  29.278  31.078  1.00  0.00     0.049 A 
ATOM     57  H   UNL A   1      41.147  29.214  30.464  1.00  0.00     0.167 HD
ATOM     58  C   UNL A   1      44.772  29.592  28.177  1.00  0.00     0.037 A 
ATOM     59  C   UNL A   1      38.997  30.519  31.596  1.00  0.00     0.037 A 
ATOM     60  C   UNL A   1      45.270  29.353  29.508  1.00  0.00     0.049 A 
ATOM     61  C   UNL A   1      40.356  31.052  31.860  1.00  0.00     0.074 A 
ATOM     62  C   UNL A   1      45.855  28.284  30.157  1.00  0.00     0.029 A 
ATOM     63  N   UNL A   1      44.879  30.219  30.500  1.00  0.00    -0.354 N 
ATOM     64  N   UNL A   1      41.175  30.555  32.748  1.00  0.00    -0.248 NA
ATOM     65  C   UNL A   1      40.974  31.893  30.847  1.00  0.00     0.031 C 
ATOM     66  C   UNL A   1      45.349  28.337  31.489  1.00  0.00     0.029 A 
ATOM     67  C   UNL A   1      44.524  29.459  31.585  1.00  0.00     0.049 A 
ATOM     68  H   UNL A   1      44.858  31.202  30.444  1.00  0.00     0.167 HD
ATOM     69  C   UNL A   1      42.432  30.666  32.174  1.00  0.00     0.074 A 
ATOM     70  C   UNL A   1      42.259  31.604  31.068  1.00  0.00     0.031 C 
ATOM     71  C   UNL A   1      43.428  29.780  32.474  1.00  0.00     0.037 A 
BRANCH  58  72
ATOM     72  C   UNL A   1      45.060  30.890  27.445  1.00  0.00     0.058 A 
ATOM     73  C   UNL A   1      46.315  31.069  26.820  1.00  0.00     0.135 A 
ATOM     74  C   UNL A   1      44.286  32.063  27.586  1.00  0.00     0.135 A 
ATOM     75  F   UNL A   1      47.136  30.025  26.623  1.00  0.00    -0.206 F 
ATOM     76  C   UNL A   1      46.804  32.327  26.462  1.00  0.00     0.059 A 
ATOM     77  C   UNL A   1      44.732  33.319  27.183  1.00  0.00     0.059 A 
ATOM     78  F   UNL A   1      43.105  32.070  28.215  1.00  0.00    -0.206 F 
ATOM     79  C   UNL A   1      46.012  33.449  26.673  1.00  0.00     0.060 A 
BRANCH  79  80
ATOM     80  S   UNL A   1      46.692  35.089  26.362  1.00  0.00     0.124 S 
ATOM     81  O   UNL A   1      47.486  35.303  27.566  1.00  0.00    -0.237 OA
ATOM     82  O   UNL A   1      47.443  34.880  25.128  1.00  0.00    -0.237 OA
ATOM     83  O   UNL A   1      45.502  35.924  26.231  1.00  0.00    -0.744 OA
ENDBRANCH  79  80
ENDBRANCH  58  72
BRANCH  59  84
ATOM     84  C   UNL A   1      37.772  31.355  31.618  1.00  0.00     0.058 A 
ATOM     85  C   UNL A   1      37.021  31.520  32.793  1.00  0.00     0.135 A 
ATOM     86  C   UNL A   1      37.458  32.219  30.549  1.00  0.00     0.135 A 
ATOM     87  F   UNL A   1      37.270  30.753  33.866  1.00  0.00    -0.206 F 
ATOM     88  C   UNL A   1      36.043  32.512  32.917  1.00  0.00     0.059 A 
ATOM     89  C   UNL A   1      36.479  33.207  30.644  1.00  0.00     0.059 A 
ATOM     90  F   UNL A   1      38.159  32.189  29.404  1.00  0.00    -0.206 F 
ATOM     91  C   UNL A   1      35.793  33.364  31.841  1.00  0.00     0.060 A 
BRANCH  91  92
ATOM     92  S   UNL A   1      34.658  34.755  32.057  1.00  0.00     0.124 S 
ATOM     93  O   UNL A   1      35.472  35.693  32.822  1.00  0.00    -0.237 OA
ATOM     94  O   UNL A   1      34.372  35.135  30.678  1.00  0.00    -0.237 OA
ATOM     95  O   UNL A   1      33.535  34.166  32.783  1.00  0.00    -0.744 OA
ENDBRANCH  91  92
ENDBRANCH  59  84
BRANCH  71  96
ATOM     96  C   UNL A   1      43.254  28.889  33.678  1.00  0.00     0.058 A 
ATOM     97  C   UNL A   1      43.566  29.266  34.996  1.00  0.00     0.135 A 
ATOM     98  C   UNL A   1      42.594  27.662  33.505  1.00  0.00     0.135 A 
ATOM     99  F   UNL A   1      44.100  30.466  35.263  1.00  0.00    -0.206 F 
ATOM    100  C   UNL A   1      43.275  28.446  36.087  1.00  0.00     0.059 A 
ATOM    101  C   UNL A   1      42.265  26.842  34.581  1.00  0.00     0.059 A 
ATOM    102  F   UNL A   1      42.210  27.273  32.279  1.00  0.00    -0.206 F 
ATOM    103  C   UNL A   1      42.620  27.234  35.870  1.00  0.00     0.060 A 
BRANCH 103 104
ATOM    104  S   UNL A   1      42.162  26.217  37.290  1.00  0.00     0.124 S 
ATOM    105  O   UNL A   1      43.172  26.591  38.274  1.00  0.00    -0.237 OA
ATOM    106  O   UNL A   1      40.802  26.665  37.578  1.00  0.00    -0.237 OA
ATOM    107  O   UNL A   1      42.261  24.852  36.780  1.00  0.00    -0.744 OA
ENDBRANCH 103 104
ENDBRANCH  71  96
ENDBRANCH  45  46
ENDBRANCH  37  40
ENDBRANCH  35  36
ENDBRANCH  34  35
ENDBRANCH  33  34
ENDBRANCH   1  33
TORSDOF 20
ENDMDL
MODEL 2
REMARK VINA RESULT:     -12.7      3.288      9.629
REMARK SMILES NS(=O)(=O)c1ccc(-n2nc(C(=O)NCCCCCCNC(=O)c3ccc(-c4c5nc(c(-c6c(F)cc(S(=O)(=O)[O-])cc6F)c6ccc([nH]6)c(-c6c(F)cc(S(=O)(=O)[O-])cc6F)c6nc(c(-c7c(F)cc(S(=O)(=O)[O-])cc7F)c7ccc4[nH]7)C=C6)C=C5)cc3)c(Cl)c2-c2ccc(Cl)cc2)cc1
REMARK SMILES IDX 17 1 16 2 15 3 14 4 12 5 13 6 11 8 9 9 10 10 92 11 90 12
REMARK SMILES IDX 91 13 8 14 5 15 6 16 101 17 7 18 100 19 2 20 3 21 4 22 1 23
REMARK SMILES IDX 93 26 94 27 99 28 95 29 98 30 96 31 97 32 18 33 19 34 20 35
REMARK SMILES IDX 21 36 22 37 23 39 24 40 25 41 89 42 26 43 88 44 27 45 28 46
REMARK SMILES IDX 29 47 82 48 30 49 87 50 81 51 83 52 31 53 86 54 80 55 79 56
REMARK SMILES IDX 32 58 66 59 45 60 65 61 46 62 49 63 64 64 84 65 47 66 48 67
REMARK SMILES IDX 63 69 85 70 50 71 33 72 34 73 43 74 35 75 36 76 42 77 44 78
REMARK SMILES IDX 37 79 38 80 39 81 40 82 41 83 67 84 68 85 77 86 69 87 70 88
REMARK SMILES IDX 76 89 78 90 71 91 72 92 73 93 74 94 75 95 51 96 52 97 61 98
REMARK SMILES IDX 53 99 54 100 60 101 62 102 55 103 56 104 57 105 58 106
REMARK SMILES IDX 59 107
REMARK H PARENT 14 7 1 24 1 25 21 38 83 57 49 68
REMARK Flexibility Score: inf
ROOT
ATOM      1  C   UNL A   1      31.862  29.239  25.728  1.00  0.00     0.002 C 
ENDROOT
BRANCH   1   2
ATOM      2  C   UNL A   1      32.156  27.767  26.030  1.00  0.00     0.021 C 
BRANCH   2   3
ATOM      3  C   UNL A   1      30.927  26.899  26.338  1.00  0.00     0.116 C 
BRANCH   3   4
ATOM      4  N   UNL A   1      30.247  26.492  25.120  1.00  0.00    -0.351 N 
ATOM      5  C   UNL A   1      30.440  25.448  24.236  1.00  0.00     0.273 C 
ATOM      6  O   UNL A   1      29.576  25.331  23.362  1.00  0.00    -0.267 OA
ATOM      7  H   UNL A   1      29.496  27.080  24.874  1.00  0.00     0.163 HD
BRANCH   5   8
ATOM      8  C   UNL A   1      31.545  24.478  24.373  1.00  0.00     0.169 A 
ATOM      9  N   UNL A   1      32.464  22.557  24.729  1.00  0.00    -0.231 N 
ATOM     10  N   UNL A   1      31.264  23.177  24.623  1.00  0.00    -0.160 NA
ATOM     11  C   UNL A   1      33.510  23.460  24.720  1.00  0.00     0.094 A 
ATOM     12  C   UNL A   1      32.944  24.614  24.209  1.00  0.00     0.100 A 
ATOM     13  Cl  UNL A   1      33.835  25.866  23.485  1.00  0.00    -0.079 Cl
BRANCH   9  14
ATOM     14  C   UNL A   1      32.561  21.143  24.685  1.00  0.00     0.065 A 
ATOM     15  C   UNL A   1      33.196  18.443  24.426  1.00  0.00     0.082 A 
ATOM     16  C   UNL A   1      32.703  19.148  23.322  1.00  0.00     0.024 A 
ATOM     17  C   UNL A   1      33.315  19.065  25.672  1.00  0.00     0.024 A 
ATOM     18  C   UNL A   1      32.356  20.496  23.457  1.00  0.00     0.030 A 
ATOM     19  C   UNL A   1      33.014  20.423  25.798  1.00  0.00     0.030 A 
BRANCH  15  20
ATOM     20  S   UNL A   1      33.726  16.774  24.183  1.00  0.00     0.238 S 
ATOM     21  O   UNL A   1      34.846  16.514  25.069  1.00  0.00    -0.207 OA
ATOM     22  O   UNL A   1      33.765  16.499  22.774  1.00  0.00    -0.207 OA
BRANCH  20  23
ATOM     23  N   UNL A   1      32.470  15.829  24.790  1.00  0.00    -0.225 NA
ATOM     24  H   UNL A   1      31.970  16.351  25.510  1.00  0.00     0.137 HD
ATOM     25  H   UNL A   1      32.853  14.974  25.193  1.00  0.00     0.137 HD
ENDBRANCH  20  23
ENDBRANCH  15  20
ENDBRANCH   9  14
BRANCH  11  26
ATOM     26  C   UNL A   1      34.934  23.186  24.871  1.00  0.00     0.002 A 
ATOM     27  C   UNL A   1      35.547  22.306  23.968  1.00  0.00     0.012 A 
ATOM     28  C   UNL A   1      35.639  23.636  25.992  1.00  0.00     0.012 A 
ATOM     29  C   UNL A   1      36.847  21.856  24.201  1.00  0.00     0.021 A 
ATOM     30  C   UNL A   1      36.941  23.184  26.223  1.00  0.00     0.021 A 
ATOM     31  C   UNL A   1      37.533  22.289  25.334  1.00  0.00     0.041 A 
ATOM     32  Cl  UNL A   1      39.112  21.684  25.648  1.00  0.00    -0.084 Cl
ENDBRANCH  11  26
ENDBRANCH   5   8
ENDBRANCH   3   4
ENDBRANCH   2   3
ENDBRANCH   1   2
BRANCH   1  33
ATOM     33  C   UNL A   1      32.113  30.221  26.881  1.00  0.00     0.002 C 
BRANCH  33  34
ATOM     34  C   UNL A   1      33.503  30.185  27.535  1.00  0.00     0.021 C 
BRANCH  34  35
ATOM     35  C   UNL A   1      34.209  31.534  27.597  1.00  0.00     0.116 C 
BRANCH  35  36
ATOM     36  N   UNL A   1      34.055  32.179  28.901  1.00  0.00    -0.352 N 
ATOM     37  C   UNL A   1      34.848  32.060  30.026  1.00  0.00     0.251 C 
ATOM     38  H   UNL A   1      33.281  32.781  28.989  1.00  0.00     0.163 HD
ATOM     39  O   UNL A   1      34.412  32.382  31.127  1.00  0.00    -0.269 OA
BRANCH  37  40
ATOM     40  C   UNL A   1      36.214  31.528  29.887  1.00  0.00     0.039 A 
ATOM     41  C   UNL A   1      37.299  32.381  29.658  1.00  0.00     0.014 A 
ATOM     42  C   UNL A   1      36.407  30.158  30.024  1.00  0.00     0.014 A 
ATOM     43  C   UNL A   1      38.590  31.852  29.659  1.00  0.00     0.010 A 
ATOM     44  C   UNL A   1      37.682  29.664  30.166  1.00  0.00     0.010 A 
ATOM     45  C   UNL A   1      38.781  30.491  29.937  1.00  0.00    -0.014 A 
BRANCH  45  46
ATOM     46  C   UNL A   1      40.129  29.936  30.076  1.00  0.00     0.031 A 
ATOM     47  C   UNL A   1      40.593  29.665  31.470  1.00  0.00     0.074 A 
ATOM     48  C   UNL A   1      40.817  29.435  29.027  1.00  0.00     0.049 A 
ATOM     49  N   UNL A   1      41.620  30.154  32.088  1.00  0.00    -0.248 NA
ATOM     50  C   UNL A   1      39.760  28.791  32.312  1.00  0.00     0.031 C 
ATOM     51  C   UNL A   1      40.374  29.306  27.632  1.00  0.00     0.029 A 
ATOM     52  N   UNL A   1      42.020  28.798  29.016  1.00  0.00    -0.354 N 
ATOM     53  C   UNL A   1      41.685  29.498  33.319  1.00  0.00     0.074 A 
ATOM     54  C   UNL A   1      40.432  28.801  33.463  1.00  0.00     0.031 C 
ATOM     55  C   UNL A   1      41.164  28.422  26.988  1.00  0.00     0.029 A 
ATOM     56  C   UNL A   1      42.269  28.074  27.858  1.00  0.00     0.049 A 
ATOM     57  H   UNL A   1      42.658  28.846  29.765  1.00  0.00     0.167 HD
ATOM     58  C   UNL A   1      42.847  29.402  34.028  1.00  0.00     0.037 A 
ATOM     59  C   UNL A   1      43.294  27.220  27.630  1.00  0.00     0.037 A 
ATOM     60  C   UNL A   1      43.831  30.340  33.550  1.00  0.00     0.049 A 
ATOM     61  C   UNL A   1      44.366  27.551  28.600  1.00  0.00     0.074 A 
ATOM     62  C   UNL A   1      43.895  31.713  33.423  1.00  0.00     0.029 A 
ATOM     63  N   UNL A   1      44.858  29.850  32.781  1.00  0.00    -0.354 N 
ATOM     64  N   UNL A   1      45.030  28.675  28.600  1.00  0.00    -0.248 NA
ATOM     65  C   UNL A   1      44.428  26.793  29.840  1.00  0.00     0.031 C 
ATOM     66  C   UNL A   1      44.627  31.940  32.220  1.00  0.00     0.029 A 
ATOM     67  C   UNL A   1      45.005  30.696  31.712  1.00  0.00     0.049 A 
ATOM     68  H   UNL A   1      45.390  29.041  32.962  1.00  0.00     0.167 HD
ATOM     69  C   UNL A   1      45.234  28.968  29.940  1.00  0.00     0.074 A 
ATOM     70  C   UNL A   1      44.954  27.720  30.644  1.00  0.00     0.031 C 
ATOM     71  C   UNL A   1      45.340  30.260  30.374  1.00  0.00     0.037 A 
BRANCH  58  72
ATOM     72  C   UNL A   1      43.232  28.234  34.917  1.00  0.00     0.058 A 
ATOM     73  C   UNL A   1      43.651  28.481  36.243  1.00  0.00     0.135 A 
ATOM     74  C   UNL A   1      43.493  26.931  34.437  1.00  0.00     0.135 A 
ATOM     75  F   UNL A   1      43.450  29.681  36.812  1.00  0.00    -0.206 F 
ATOM     76  C   UNL A   1      44.366  27.545  36.993  1.00  0.00     0.059 A 
ATOM     77  C   UNL A   1      44.153  25.964  35.189  1.00  0.00     0.059 A 
ATOM     78  F   UNL A   1      43.216  26.562  33.181  1.00  0.00    -0.206 F 
ATOM     79  C   UNL A   1      44.634  26.297  36.444  1.00  0.00     0.060 A 
BRANCH  79  80
ATOM     80  S   UNL A   1      45.687  25.140  37.337  1.00  0.00     0.124 S 
ATOM     81  O   UNL A   1      45.236  23.863  36.795  1.00  0.00    -0.237 OA
ATOM     82  O   UNL A   1      47.024  25.569  36.937  1.00  0.00    -0.237 OA
ATOM     83  O   UNL A   1      45.348  25.390  38.735  1.00  0.00    -0.744 OA
ENDBRANCH  79  80
ENDBRANCH  58  72
BRANCH  59  84
ATOM     84  C   UNL A   1      43.283  25.983  26.812  1.00  0.00     0.058 A 
ATOM     85  C   UNL A   1      44.038  25.880  25.633  1.00  0.00     0.135 A 
ATOM     86  C   UNL A   1      42.735  24.783  27.311  1.00  0.00     0.135 A 
ATOM     87  F   UNL A   1      44.613  26.970  25.103  1.00  0.00    -0.206 F 
ATOM     88  C   UNL A   1      44.271  24.652  25.005  1.00  0.00     0.059 A 
ATOM     89  C   UNL A   1      42.942  23.550  26.696  1.00  0.00     0.059 A 
ATOM     90  F   UNL A   1      42.052  24.761  28.467  1.00  0.00    -0.206 F 
ATOM     91  C   UNL A   1      43.734  23.489  25.557  1.00  0.00     0.060 A 
BRANCH  91  92
ATOM     92  S   UNL A   1      44.179  21.885  24.850  1.00  0.00     0.124 S 
ATOM     93  O   UNL A   1      44.281  22.198  23.430  1.00  0.00    -0.237 OA
ATOM     94  O   UNL A   1      45.434  21.587  25.531  1.00  0.00    -0.237 OA
ATOM     95  O   UNL A   1      43.055  21.028  25.222  1.00  0.00    -0.744 OA
ENDBRANCH  91  92
ENDBRANCH  59  84
BRANCH  71  96
ATOM     96  C   UNL A   1      45.568  31.342  29.348  1.00  0.00     0.058 A 
ATOM     97  C   UNL A   1      46.826  31.687  28.825  1.00  0.00     0.135 A 
ATOM     98  C   UNL A   1      44.445  31.943  28.758  1.00  0.00     0.135 A 
ATOM     99  F   UNL A   1      47.942  31.084  29.256  1.00  0.00    -0.206 F 
ATOM    100  C   UNL A   1      46.966  32.615  27.792  1.00  0.00     0.059 A 
ATOM    101  C   UNL A   1      44.558  32.848  27.706  1.00  0.00     0.059 A 
ATOM    102  F   UNL A   1      43.211  31.609  29.169  1.00  0.00    -0.206 F 
ATOM    103  C   UNL A   1      45.824  33.190  27.235  1.00  0.00     0.060 A 
BRANCH 103 104
ATOM    104  S   UNL A   1      46.002  34.320  25.839  1.00  0.00     0.124 S 
ATOM    105  O   UNL A   1      45.086  33.746  24.860  1.00  0.00    -0.237 OA
ATOM    106  O   UNL A   1      45.595  35.601  26.411  1.00  0.00    -0.237 OA
ATOM    107  O   UNL A   1      47.420  34.225  25.499  1.00  0.00    -0.744 OA
ENDBRANCH 103 104
ENDBRANCH  71  96
ENDBRANCH  45  46
ENDBRANCH  37  40
ENDBRANCH  35  36
ENDBRANCH  34  35
ENDBRANCH  33  34
ENDBRANCH   1  33
TORSDOF 20
ENDMDL
MODEL 3
REMARK VINA RESULT:     -12.7      3.210      7.567
REMARK SMILES NS(=O)(=O)c1ccc(-n2nc(C(=O)NCCCCCCNC(=O)c3ccc(-c4c5nc(c(-c6c(F)cc(S(=O)(=O)[O-])cc6F)c6ccc([nH]6)c(-c6c(F)cc(S(=O)(=O)[O-])cc6F)c6nc(c(-c7c(F)cc(S(=O)(=O)[O-])cc7F)c7ccc4[nH]7)C=C6)C=C5)cc3)c(Cl)c2-c2ccc(Cl)cc2)cc1
REMARK SMILES IDX 17 1 16 2 15 3 14 4 12 5 13 6 11 8 9 9 10 10 92 11 90 12
REMARK SMILES IDX 91 13 8 14 5 15 6 16 101 17 7 18 100 19 2 20 3 21 4 22 1 23
REMARK SMILES IDX 93 26 94 27 99 28 95 29 98 30 96 31 97 32 18 33 19 34 20 35
REMARK SMILES IDX 21 36 22 37 23 39 24 40 25 41 89 42 26 43 88 44 27 45 28 46
REMARK SMILES IDX 29 47 82 48 30 49 87 50 81 51 83 52 31 53 86 54 80 55 79 56
REMARK SMILES IDX 32 58 66 59 45 60 65 61 46 62 49 63 64 64 84 65 47 66 48 67
REMARK SMILES IDX 63 69 85 70 50 71 33 72 34 73 43 74 35 75 36 76 42 77 44 78
REMARK SMILES IDX 37 79 38 80 39 81 40 82 41 83 67 84 68 85 77 86 69 87 70 88
REMARK SMILES IDX 76 89 78 90 71 91 72 92 73 93 74 94 75 95 51 96 52 97 61 98
REMARK SMILES IDX 53 99 54 100 60 101 62 102 55 103 56 104 57 105 58 106
REMARK SMILES IDX 59 107
REMARK H PARENT 14 7 1 24 1 25 21 38 83 57 49 68
REMARK Flexibility Score: inf
ROOT
ATOM      1  C   UNL A   1      36.903  22.767  23.444  1.00  0.00     0.002 C 
ENDROOT
BRANCH   1   2
ATOM      2  C   UNL A   1      35.386  22.896  23.281  1.00  0.00     0.021 C 
BRANCH   2   3
ATOM      3  C   UNL A   1      34.545  22.079  24.272  1.00  0.00     0.116 C 
BRANCH   3   4
ATOM      4  N   UNL A   1      33.243  21.750  23.718  1.00  0.00    -0.351 N 
ATOM      5  C   UNL A   1      32.104  22.494  23.482  1.00  0.00     0.273 C 
ATOM      6  O   UNL A   1      31.209  21.907  22.867  1.00  0.00    -0.267 OA
ATOM      7  H   UNL A   1      33.155  20.804  23.457  1.00  0.00     0.163 HD
BRANCH   5   8
ATOM      8  C   UNL A   1      31.988  23.920  23.851  1.00  0.00     0.169 A 
ATOM      9  N   UNL A   1      31.463  25.998  23.594  1.00  0.00    -0.231 N 
ATOM     10  N   UNL A   1      31.380  24.782  23.001  1.00  0.00    -0.160 NA
ATOM     11  C   UNL A   1      32.256  25.965  24.724  1.00  0.00     0.094 A 
ATOM     12  C   UNL A   1      32.336  24.618  25.031  1.00  0.00     0.100 A 
ATOM     13  Cl  UNL A   1      32.721  24.019  26.573  1.00  0.00    -0.079 Cl
BRANCH   9  14
ATOM     14  C   UNL A   1      30.671  27.085  23.142  1.00  0.00     0.065 A 
ATOM     15  C   UNL A   1      29.188  29.400  22.696  1.00  0.00     0.082 A 
ATOM     16  C   UNL A   1      28.583  28.296  23.308  1.00  0.00     0.024 A 
ATOM     17  C   UNL A   1      30.511  29.330  22.252  1.00  0.00     0.024 A 
ATOM     18  C   UNL A   1      29.317  27.122  23.507  1.00  0.00     0.030 A 
ATOM     19  C   UNL A   1      31.260  28.175  22.491  1.00  0.00     0.030 A 
BRANCH  15  20
ATOM     20  S   UNL A   1      28.257  30.898  22.567  1.00  0.00     0.238 S 
ATOM     21  O   UNL A   1      27.122  30.812  23.465  1.00  0.00    -0.207 OA
ATOM     22  O   UNL A   1      28.131  31.248  21.179  1.00  0.00    -0.207 OA
BRANCH  20  23
ATOM     23  N   UNL A   1      29.250  32.082  23.239  1.00  0.00    -0.225 NA
ATOM     24  H   UNL A   1      29.446  32.798  22.540  1.00  0.00     0.137 HD
ATOM     25  H   UNL A   1      30.125  31.656  23.546  1.00  0.00     0.137 HD
ENDBRANCH  20  23
ENDBRANCH  15  20
ENDBRANCH   9  14
BRANCH  11  26
ATOM     26  C   UNL A   1      32.630  27.075  25.591  1.00  0.00     0.002 A 
ATOM     27  C   UNL A   1      31.667  27.596  26.468  1.00  0.00     0.012 A 
ATOM     28  C   UNL A   1      33.854  27.734  25.432  1.00  0.00     0.012 A 
ATOM     29  C   UNL A   1      31.916  28.782  27.158  1.00  0.00     0.021 A 
ATOM     30  C   UNL A   1      34.101  28.922  26.124  1.00  0.00     0.021 A 
ATOM     31  C   UNL A   1      33.127  29.446  26.973  1.00  0.00     0.041 A 
ATOM     32  Cl  UNL A   1      33.404  30.939  27.780  1.00  0.00    -0.084 Cl
ENDBRANCH  11  26
ENDBRANCH   5   8
ENDBRANCH   3   4
ENDBRANCH   2   3
ENDBRANCH   1   2
BRANCH   1  33
ATOM     33  C   UNL A   1      37.384  22.143  24.761  1.00  0.00     0.002 C 
BRANCH  33  34
ATOM     34  C   UNL A   1      38.105  20.790  24.666  1.00  0.00     0.021 C 
BRANCH  34  35
ATOM     35  C   UNL A   1      38.701  20.296  25.980  1.00  0.00     0.116 C 
BRANCH  35  36
ATOM     36  N   UNL A   1      39.833  19.394  25.770  1.00  0.00    -0.352 N 
ATOM     37  C   UNL A   1      41.184  19.672  25.816  1.00  0.00     0.251 C 
ATOM     38  H   UNL A   1      39.598  18.458  25.568  1.00  0.00     0.163 HD
ATOM     39  O   UNL A   1      41.991  18.912  25.290  1.00  0.00    -0.269 OA
BRANCH  37  40
ATOM     40  C   UNL A   1      41.641  20.900  26.489  1.00  0.00     0.039 A 
ATOM     41  C   UNL A   1      42.117  21.990  25.754  1.00  0.00     0.014 A 
ATOM     42  C   UNL A   1      41.555  20.964  27.876  1.00  0.00     0.014 A 
ATOM     43  C   UNL A   1      42.420  23.178  26.420  1.00  0.00     0.010 A 
ATOM     44  C   UNL A   1      41.718  22.173  28.510  1.00  0.00     0.010 A 
ATOM     45  C   UNL A   1      42.197  23.274  27.801  1.00  0.00    -0.014 A 
BRANCH  45  46
ATOM     46  C   UNL A   1      42.379  24.546  28.504  1.00  0.00     0.031 A 
ATOM     47  C   UNL A   1      41.310  25.571  28.307  1.00  0.00     0.074 A 
ATOM     48  C   UNL A   1      43.295  24.706  29.484  1.00  0.00     0.049 A 
ATOM     49  N   UNL A   1      41.417  26.766  27.822  1.00  0.00    -0.248 NA
ATOM     50  C   UNL A   1      39.925  25.185  28.624  1.00  0.00     0.031 C 
ATOM     51  C   UNL A   1      44.204  23.698  30.047  1.00  0.00     0.029 A 
ATOM     52  N   UNL A   1      43.507  25.782  30.291  1.00  0.00    -0.354 N 
ATOM     53  C   UNL A   1      40.160  27.359  27.961  1.00  0.00     0.074 A 
ATOM     54  C   UNL A   1      39.254  26.292  28.303  1.00  0.00     0.031 C 
ATOM     55  C   UNL A   1      44.667  24.125  31.241  1.00  0.00     0.029 A 
ATOM     56  C   UNL A   1      44.244  25.499  31.433  1.00  0.00     0.049 A 
ATOM     57  H   UNL A   1      43.168  26.683  30.083  1.00  0.00     0.167 HD
ATOM     58  C   UNL A   1      39.999  28.713  27.996  1.00  0.00     0.037 A 
ATOM     59  C   UNL A   1      44.473  26.319  32.485  1.00  0.00     0.037 A 
ATOM     60  C   UNL A   1      41.173  29.394  27.513  1.00  0.00     0.049 A 
ATOM     61  C   UNL A   1      44.243  27.708  32.018  1.00  0.00     0.074 A 
ATOM     62  C   UNL A   1      41.883  29.400  26.328  1.00  0.00     0.029 A 
ATOM     63  N   UNL A   1      41.998  29.981  28.441  1.00  0.00    -0.354 N 
ATOM     64  N   UNL A   1      44.980  28.309  31.124  1.00  0.00    -0.248 NA
ATOM     65  C   UNL A   1      42.935  28.302  32.245  1.00  0.00     0.031 C 
ATOM     66  C   UNL A   1      43.249  29.535  26.716  1.00  0.00     0.029 A 
ATOM     67  C   UNL A   1      43.286  29.650  28.107  1.00  0.00     0.049 A 
ATOM     68  H   UNL A   1      41.718  30.536  29.204  1.00  0.00     0.167 HD
ATOM     69  C   UNL A   1      44.091  29.078  30.388  1.00  0.00     0.074 A 
ATOM     70  C   UNL A   1      42.878  29.129  31.199  1.00  0.00     0.031 C 
ATOM     71  C   UNL A   1      44.326  29.367  29.073  1.00  0.00     0.037 A 
BRANCH  58  72
ATOM     72  C   UNL A   1      38.931  29.444  28.790  1.00  0.00     0.058 A 
ATOM     73  C   UNL A   1      37.953  30.197  28.104  1.00  0.00     0.135 A 
ATOM     74  C   UNL A   1      39.005  29.679  30.181  1.00  0.00     0.135 A 
ATOM     75  F   UNL A   1      37.782  30.054  26.780  1.00  0.00    -0.206 F 
ATOM     76  C   UNL A   1      37.184  31.180  28.731  1.00  0.00     0.059 A 
ATOM     77  C   UNL A   1      38.208  30.614  30.835  1.00  0.00     0.059 A 
ATOM     78  F   UNL A   1      39.923  29.092  30.958  1.00  0.00    -0.206 F 
ATOM     79  C   UNL A   1      37.341  31.398  30.095  1.00  0.00     0.060 A 
BRANCH  79  80
ATOM     80  S   UNL A   1      36.472  32.766  30.883  1.00  0.00     0.124 S 
ATOM     81  O   UNL A   1      37.572  33.462  31.541  1.00  0.00    -0.237 OA
ATOM     82  O   UNL A   1      35.875  33.449  29.740  1.00  0.00    -0.237 OA
ATOM     83  O   UNL A   1      35.526  32.095  31.769  1.00  0.00    -0.744 OA
ENDBRANCH  79  80
ENDBRANCH  58  72
BRANCH  59  84
ATOM     84  C   UNL A   1      44.612  25.948  33.914  1.00  0.00     0.058 A 
ATOM     85  C   UNL A   1      45.870  25.897  34.536  1.00  0.00     0.135 A 
ATOM     86  C   UNL A   1      43.490  25.890  34.766  1.00  0.00     0.135 A 
ATOM     87  F   UNL A   1      46.990  25.968  33.801  1.00  0.00    -0.206 F 
ATOM     88  C   UNL A   1      46.009  25.833  35.926  1.00  0.00     0.059 A 
ATOM     89  C   UNL A   1      43.603  25.814  36.153  1.00  0.00     0.059 A 
ATOM     90  F   UNL A   1      42.243  25.998  34.279  1.00  0.00    -0.206 F 
ATOM     91  C   UNL A   1      44.867  25.812  36.727  1.00  0.00     0.060 A 
BRANCH  91  92
ATOM     92  S   UNL A   1      45.044  25.908  38.525  1.00  0.00     0.124 S 
ATOM     93  O   UNL A   1      43.771  26.498  38.922  1.00  0.00    -0.237 OA
ATOM     94  O   UNL A   1      45.241  24.509  38.889  1.00  0.00    -0.237 OA
ATOM     95  O   UNL A   1      46.214  26.765  38.705  1.00  0.00    -0.744 OA
ENDBRANCH  91  92
ENDBRANCH  59  84
BRANCH  71  96
ATOM     96  C   UNL A   1      45.710  29.128  28.524  1.00  0.00     0.058 A 
ATOM     97  C   UNL A   1      46.119  27.941  27.892  1.00  0.00     0.135 A 
ATOM     98  C   UNL A   1      46.608  30.206  28.497  1.00  0.00     0.135 A 
ATOM     99  F   UNL A   1      45.286  26.898  27.777  1.00  0.00    -0.206 F 
ATOM    100  C   UNL A   1      47.375  27.817  27.297  1.00  0.00     0.059 A 
ATOM    101  C   UNL A   1      47.854  30.116  27.883  1.00  0.00     0.059 A 
ATOM    102  F   UNL A   1      46.254  31.389  29.027  1.00  0.00    -0.206 F 
ATOM    103  C   UNL A   1      48.237  28.912  27.294  1.00  0.00     0.060 A 
BRANCH 103 104
ATOM    104  S   UNL A   1      49.825  28.779  26.445  1.00  0.00     0.124 S 
ATOM    105  O   UNL A   1      50.605  27.972  27.376  1.00  0.00    -0.237 OA
ATOM    106  O   UNL A   1      49.462  28.124  25.191  1.00  0.00    -0.237 OA
ATOM    107  O   UNL A   1      50.257  30.168  26.306  1.00  0.00    -0.744 OA
ENDBRANCH 103 104
ENDBRANCH  71  96
ENDBRANCH  45  46
ENDBRANCH  37  40
ENDBRANCH  35  36
ENDBRANCH  34  35
ENDBRANCH  33  34
ENDBRANCH   1  33
TORSDOF 20
ENDMDL
