MODEL 1
REMARK VINA RESULT:     -11.5      0.000      0.000
REMARK SMILES COc1cc(NS(=O)(=O)c2cc(C(=O)NCCCCCCNC(=O)c3ccc(-c4c5nc(c(-c6c(F)cc(S(=O)(=O)[O-])cc6F)c6ccc([nH]6)c(-c6c(F)cc(S(=O)(=O)[O-])cc6F)c6nc(c(-c7c(F)cc(S(=O)(=O)[O-])cc7F)c7ccc4[nH]7)C=C6)C=C5)cc3)cc(C)c2C)ccc1N1CCCC1=O
REMARK SMILES IDX 18 1 17 2 16 3 15 4 13 5 14 6 12 8 10 9 11 10 94 11 92 12
REMARK SMILES IDX 95 13 91 14 93 15 7 16 8 17 9 18 6 19 5 21 3 22 4 23 98 24
REMARK SMILES IDX 97 25 96 26 2 27 1 28 99 29 100 30 103 31 101 32 102 33
REMARK SMILES IDX 104 34 19 35 20 36 21 37 22 38 23 39 24 41 25 42 26 43 90 44
REMARK SMILES IDX 27 45 89 46 28 47 29 48 30 49 83 50 31 51 88 52 82 53 84 54
REMARK SMILES IDX 32 55 87 56 81 57 80 58 33 60 67 61 46 62 66 63 47 64 50 65
REMARK SMILES IDX 65 66 85 67 48 68 49 69 64 71 86 72 51 73 34 74 35 75 44 76
REMARK SMILES IDX 36 77 37 78 43 79 45 80 38 81 39 82 40 83 41 84 42 85 68 86
REMARK SMILES IDX 69 87 78 88 70 89 71 90 77 91 79 92 72 93 73 94 74 95 75 96
REMARK SMILES IDX 76 97 52 98 53 99 62 100 54 101 55 102 61 103 63 104 56 105
REMARK SMILES IDX 57 106 58 107 59 108 60 109
REMARK H PARENT 15 7 6 20 22 40 84 59 50 70
REMARK Flexibility Score: inf
ROOT
ATOM      1  C   UNL A   1      34.854  32.210  28.958  1.00  0.00     0.002 C 
ENDROOT
BRANCH   1   2
ATOM      2  C   UNL A   1      35.434  31.130  28.047  1.00  0.00     0.021 C 
BRANCH   2   3
ATOM      3  C   UNL A   1      34.442  30.072  27.597  1.00  0.00     0.116 C 
BRANCH   3   4
ATOM      4  N   UNL A   1      33.157  30.644  27.253  1.00  0.00    -0.352 N 
ATOM      5  C   UNL A   1      32.298  30.394  26.215  1.00  0.00     0.251 C 
ATOM      6  O   UNL A   1      31.395  31.203  26.018  1.00  0.00    -0.269 OA
ATOM      7  H   UNL A   1      32.843  31.338  27.878  1.00  0.00     0.163 HD
BRANCH   5   8
ATOM      8  C   UNL A   1      32.404  29.203  25.334  1.00  0.00     0.041 A 
ATOM      9  C   UNL A   1      31.752  26.918  24.886  1.00  0.00     0.091 A 
ATOM     10  C   UNL A   1      31.589  28.101  25.610  1.00  0.00     0.036 A 
ATOM     11  C   UNL A   1      32.464  26.940  23.661  1.00  0.00    -0.028 A 
ATOM     12  C   UNL A   1      33.277  28.054  23.382  1.00  0.00    -0.046 A 
ATOM     13  C   UNL A   1      32.343  25.848  22.629  1.00  0.00     0.046 C 
ATOM     14  C   UNL A   1      33.344  29.093  24.314  1.00  0.00     0.017 A 
ATOM     15  C   UNL A   1      34.048  28.252  22.102  1.00  0.00     0.044 C 
BRANCH   9  16
ATOM     16  S   UNL A   1      31.171  25.376  25.563  1.00  0.00     0.262 S 
ATOM     17  O   UNL A   1      30.523  24.642  24.494  1.00  0.00    -0.201 OA
ATOM     18  O   UNL A   1      30.432  25.717  26.762  1.00  0.00    -0.201 OA
BRANCH  16  19
ATOM     19  N   UNL A   1      32.393  24.339  26.098  1.00  0.00    -0.279 N 
ATOM     20  H   UNL A   1      32.898  24.637  26.889  1.00  0.00     0.180 HD
BRANCH  19  21
ATOM     21  C   UNL A   1      32.783  23.082  25.543  1.00  0.00     0.053 A 
ATOM     22  C   UNL A   1      34.376  21.469  24.633  1.00  0.00     0.144 A 
ATOM     23  C   UNL A   1      34.053  22.781  25.052  1.00  0.00     0.075 A 
ATOM     24  C   UNL A   1      33.368  20.487  24.610  1.00  0.00     0.086 A 
ATOM     25  C   UNL A   1      32.057  20.851  24.934  1.00  0.00     0.032 A 
ATOM     26  C   UNL A   1      31.765  22.140  25.378  1.00  0.00     0.029 A 
BRANCH  22  27
ATOM     27  O   UNL A   1      35.692  21.335  24.277  1.00  0.00    -0.494 OA
ATOM     28  C   UNL A   1      36.692  22.021  25.020  1.00  0.00     0.278 C 
ENDBRANCH  22  27
BRANCH  24  29
ATOM     29  N   UNL A   1      33.576  19.138  24.289  1.00  0.00    -0.309 N 
ATOM     30  C   UNL A   1      34.543  18.304  24.946  1.00  0.00     0.126 C 
ATOM     31  C   UNL A   1      32.905  18.481  23.256  1.00  0.00     0.227 C 
ATOM     32  C   UNL A   1      34.615  17.077  24.049  1.00  0.00     0.032 C 
ATOM     33  C   UNL A   1      33.249  17.022  23.384  1.00  0.00     0.102 C 
ATOM     34  O   UNL A   1      32.126  18.937  22.432  1.00  0.00    -0.275 OA
ENDBRANCH  24  29
ENDBRANCH  19  21
ENDBRANCH  16  19
ENDBRANCH   9  16
ENDBRANCH   5   8
ENDBRANCH   3   4
ENDBRANCH   2   3
ENDBRANCH   1   2
BRANCH   1  35
ATOM     35  C   UNL A   1      34.738  33.604  28.335  1.00  0.00     0.002 C 
BRANCH  35  36
ATOM     36  C   UNL A   1      33.426  34.343  28.607  1.00  0.00     0.021 C 
BRANCH  36  37
ATOM     37  C   UNL A   1      33.578  35.725  29.230  1.00  0.00     0.116 C 
BRANCH  37  38
ATOM     38  N   UNL A   1      32.736  35.900  30.399  1.00  0.00    -0.352 N 
ATOM     39  C   UNL A   1      32.870  35.348  31.648  1.00  0.00     0.251 C 
ATOM     40  H   UNL A   1      31.962  36.498  30.280  1.00  0.00     0.163 HD
ATOM     41  O   UNL A   1      31.968  35.465  32.472  1.00  0.00    -0.269 OA
BRANCH  39  42
ATOM     42  C   UNL A   1      34.094  34.588  31.980  1.00  0.00     0.039 A 
ATOM     43  C   UNL A   1      35.333  35.215  31.842  1.00  0.00     0.014 A 
ATOM     44  C   UNL A   1      34.018  33.269  32.437  1.00  0.00     0.014 A 
ATOM     45  C   UNL A   1      36.495  34.536  32.215  1.00  0.00     0.010 A 
ATOM     46  C   UNL A   1      35.168  32.623  32.882  1.00  0.00     0.010 A 
ATOM     47  C   UNL A   1      36.419  33.248  32.769  1.00  0.00    -0.014 A 
BRANCH  47  48
ATOM     48  C   UNL A   1      37.641  32.539  33.233  1.00  0.00     0.031 A 
ATOM     49  C   UNL A   1      38.313  32.952  34.514  1.00  0.00     0.074 A 
ATOM     50  C   UNL A   1      38.171  31.561  32.473  1.00  0.00     0.049 A 
ATOM     51  N   UNL A   1      39.409  32.489  35.058  1.00  0.00    -0.248 NA
ATOM     52  C   UNL A   1      37.685  34.047  35.272  1.00  0.00     0.031 C 
ATOM     53  C   UNL A   1      37.636  31.102  31.189  1.00  0.00     0.029 A 
ATOM     54  N   UNL A   1      39.283  30.779  32.664  1.00  0.00    -0.354 N 
ATOM     55  C   UNL A   1      39.608  33.240  36.210  1.00  0.00     0.074 A 
ATOM     56  C   UNL A   1      38.553  34.227  36.258  1.00  0.00     0.031 C 
ATOM     57  C   UNL A   1      38.403  30.104  30.723  1.00  0.00     0.029 A 
ATOM     58  C   UNL A   1      39.507  29.878  31.650  1.00  0.00     0.049 A 
ATOM     59  H   UNL A   1      39.865  30.855  33.455  1.00  0.00     0.167 HD
ATOM     60  C   UNL A   1      40.570  33.103  37.155  1.00  0.00     0.037 A 
ATOM     61  C   UNL A   1      40.496  28.979  31.479  1.00  0.00     0.037 A 
ATOM     62  C   UNL A   1      41.605  32.104  37.107  1.00  0.00     0.049 A 
ATOM     63  C   UNL A   1      41.562  28.855  32.535  1.00  0.00     0.074 A 
ATOM     64  C   UNL A   1      42.593  31.845  38.042  1.00  0.00     0.029 A 
ATOM     65  N   UNL A   1      41.795  31.206  36.067  1.00  0.00    -0.354 N 
ATOM     66  N   UNL A   1      41.696  29.528  33.654  1.00  0.00    -0.248 NA
ATOM     67  C   UNL A   1      42.606  27.847  32.310  1.00  0.00     0.031 C 
ATOM     68  C   UNL A   1      43.414  30.830  37.540  1.00  0.00     0.029 A 
ATOM     69  C   UNL A   1      42.901  30.410  36.323  1.00  0.00     0.049 A 
ATOM     70  H   UNL A   1      41.228  31.142  35.265  1.00  0.00     0.167 HD
ATOM     71  C   UNL A   1      42.821  29.003  34.280  1.00  0.00     0.074 A 
ATOM     72  C   UNL A   1      43.323  27.950  33.421  1.00  0.00     0.031 C 
ATOM     73  C   UNL A   1      43.387  29.360  35.461  1.00  0.00     0.037 A 
BRANCH  60  74
ATOM     74  C   UNL A   1      40.548  34.058  38.319  1.00  0.00     0.058 A 
ATOM     75  C   UNL A   1      39.871  33.756  39.512  1.00  0.00     0.135 A 
ATOM     76  C   UNL A   1      41.243  35.276  38.255  1.00  0.00     0.135 A 
ATOM     77  F   UNL A   1      39.176  32.613  39.626  1.00  0.00    -0.206 F 
ATOM     78  C   UNL A   1      39.856  34.641  40.585  1.00  0.00     0.059 A 
ATOM     79  C   UNL A   1      41.270  36.162  39.328  1.00  0.00     0.059 A 
ATOM     80  F   UNL A   1      41.909  35.618  37.140  1.00  0.00    -0.206 F 
ATOM     81  C   UNL A   1      40.559  35.842  40.484  1.00  0.00     0.060 A 
BRANCH  81  82
ATOM     82  S   UNL A   1      40.532  36.977  41.888  1.00  0.00     0.124 S 
ATOM     83  O   UNL A   1      40.893  38.238  41.249  1.00  0.00    -0.237 OA
ATOM     84  O   UNL A   1      39.151  36.871  42.346  1.00  0.00    -0.237 OA
ATOM     85  O   UNL A   1      41.535  36.423  42.793  1.00  0.00    -0.744 OA
ENDBRANCH  81  82
ENDBRANCH  60  74
BRANCH  61  86
ATOM     86  C   UNL A   1      40.511  28.112  30.270  1.00  0.00     0.058 A 
ATOM     87  C   UNL A   1      39.592  27.061  30.121  1.00  0.00     0.135 A 
ATOM     88  C   UNL A   1      41.433  28.323  29.233  1.00  0.00     0.135 A 
ATOM     89  F   UNL A   1      38.694  26.814  31.088  1.00  0.00    -0.206 F 
ATOM     90  C   UNL A   1      39.595  26.243  28.996  1.00  0.00     0.059 A 
ATOM     91  C   UNL A   1      41.437  27.536  28.085  1.00  0.00     0.059 A 
ATOM     92  F   UNL A   1      42.323  29.324  29.317  1.00  0.00    -0.206 F 
ATOM     93  C   UNL A   1      40.519  26.492  27.980  1.00  0.00     0.060 A 
BRANCH  93  94
ATOM     94  S   UNL A   1      40.479  25.457  26.501  1.00  0.00     0.124 S 
ATOM     95  O   UNL A   1      40.883  26.404  25.468  1.00  0.00    -0.237 OA
ATOM     96  O   UNL A   1      41.449  24.418  26.830  1.00  0.00    -0.237 OA
ATOM     97  O   UNL A   1      39.090  25.011  26.441  1.00  0.00    -0.744 OA
ENDBRANCH  93  94
ENDBRANCH  61  86
BRANCH  73  98
ATOM     98  C   UNL A   1      44.591  28.582  35.918  1.00  0.00     0.058 A 
ATOM     99  C   UNL A   1      44.474  27.413  36.684  1.00  0.00     0.135 A 
ATOM    100  C   UNL A   1      45.881  28.987  35.535  1.00  0.00     0.135 A 
ATOM    101  F   UNL A   1      43.264  26.985  37.084  1.00  0.00    -0.206 F 
ATOM    102  C   UNL A   1      45.592  26.685  37.077  1.00  0.00     0.059 A 
ATOM    103  C   UNL A   1      47.011  28.256  35.888  1.00  0.00     0.059 A 
ATOM    104  F   UNL A   1      46.051  30.093  34.792  1.00  0.00    -0.206 F 
ATOM    105  C   UNL A   1      46.857  27.113  36.670  1.00  0.00     0.060 A 
BRANCH 105 106
ATOM    106  S   UNL A   1      48.297  26.139  37.157  1.00  0.00     0.124 S 
ATOM    107  O   UNL A   1      49.152  27.157  37.757  1.00  0.00    -0.237 OA
ATOM    108  O   UNL A   1      47.719  25.169  38.082  1.00  0.00    -0.237 OA
ATOM    109  O   UNL A   1      48.776  25.584  35.893  1.00  0.00    -0.744 OA
ENDBRANCH 105 106
ENDBRANCH  73  98
ENDBRANCH  47  48
ENDBRANCH  39  42
ENDBRANCH  37  38
ENDBRANCH  36  37
ENDBRANCH  35  36
ENDBRANCH   1  35
TORSDOF 21
ENDMDL
MODEL 2
REMARK VINA RESULT:     -11.3      2.788     10.000
REMARK SMILES COc1cc(NS(=O)(=O)c2cc(C(=O)NCCCCCCNC(=O)c3ccc(-c4c5nc(c(-c6c(F)cc(S(=O)(=O)[O-])cc6F)c6ccc([nH]6)c(-c6c(F)cc(S(=O)(=O)[O-])cc6F)c6nc(c(-c7c(F)cc(S(=O)(=O)[O-])cc7F)c7ccc4[nH]7)C=C6)C=C5)cc3)cc(C)c2C)ccc1N1CCCC1=O
REMARK SMILES IDX 18 1 17 2 16 3 15 4 13 5 14 6 12 8 10 9 11 10 94 11 92 12
REMARK SMILES IDX 95 13 91 14 93 15 7 16 8 17 9 18 6 19 5 21 3 22 4 23 98 24
REMARK SMILES IDX 97 25 96 26 2 27 1 28 99 29 100 30 103 31 101 32 102 33
REMARK SMILES IDX 104 34 19 35 20 36 21 37 22 38 23 39 24 41 25 42 26 43 90 44
REMARK SMILES IDX 27 45 89 46 28 47 29 48 30 49 83 50 31 51 88 52 82 53 84 54
REMARK SMILES IDX 32 55 87 56 81 57 80 58 33 60 67 61 46 62 66 63 47 64 50 65
REMARK SMILES IDX 65 66 85 67 48 68 49 69 64 71 86 72 51 73 34 74 35 75 44 76
REMARK SMILES IDX 36 77 37 78 43 79 45 80 38 81 39 82 40 83 41 84 42 85 68 86
REMARK SMILES IDX 69 87 78 88 70 89 71 90 77 91 79 92 72 93 73 94 74 95 75 96
REMARK SMILES IDX 76 97 52 98 53 99 62 100 54 101 55 102 61 103 63 104 56 105
REMARK SMILES IDX 57 106 58 107 59 108 60 109
REMARK H PARENT 15 7 6 20 22 40 84 59 50 70
REMARK Flexibility Score: inf
ROOT
ATOM      1  C   UNL A   1      39.538  25.962  27.736  1.00  0.00     0.002 C 
ENDROOT
BRANCH   1   2
ATOM      2  C   UNL A   1      39.107  24.513  27.519  1.00  0.00     0.021 C 
BRANCH   2   3
ATOM      3  C   UNL A   1      37.956  24.325  26.547  1.00  0.00     0.116 C 
BRANCH   3   4
ATOM      4  N   UNL A   1      38.184  23.216  25.644  1.00  0.00    -0.352 N 
ATOM      5  C   UNL A   1      37.346  22.241  25.170  1.00  0.00     0.251 C 
ATOM      6  O   UNL A   1      37.857  21.270  24.620  1.00  0.00    -0.269 OA
ATOM      7  H   UNL A   1      39.108  23.149  25.311  1.00  0.00     0.163 HD
BRANCH   5   8
ATOM      8  C   UNL A   1      35.866  22.310  25.284  1.00  0.00     0.041 A 
ATOM      9  C   UNL A   1      33.720  22.312  24.169  1.00  0.00     0.091 A 
ATOM     10  C   UNL A   1      35.103  22.126  24.126  1.00  0.00     0.036 A 
ATOM     11  C   UNL A   1      33.054  22.321  25.420  1.00  0.00    -0.028 A 
ATOM     12  C   UNL A   1      33.824  22.497  26.584  1.00  0.00    -0.046 A 
ATOM     13  C   UNL A   1      31.569  22.100  25.554  1.00  0.00     0.046 C 
ATOM     14  C   UNL A   1      35.208  22.645  26.463  1.00  0.00     0.017 A 
ATOM     15  C   UNL A   1      33.273  22.473  27.986  1.00  0.00     0.044 C 
BRANCH   9  16
ATOM     16  S   UNL A   1      32.823  22.651  22.668  1.00  0.00     0.262 S 
ATOM     17  O   UNL A   1      32.227  21.409  22.219  1.00  0.00    -0.201 OA
ATOM     18  O   UNL A   1      33.741  23.370  21.806  1.00  0.00    -0.201 OA
BRANCH  16  19
ATOM     19  N   UNL A   1      31.510  23.699  22.856  1.00  0.00    -0.279 N 
ATOM     20  H   UNL A   1      30.622  23.314  22.678  1.00  0.00     0.180 HD
BRANCH  19  21
ATOM     21  C   UNL A   1      31.532  25.073  23.241  1.00  0.00     0.053 A 
ATOM     22  C   UNL A   1      32.167  27.421  23.013  1.00  0.00     0.144 A 
ATOM     23  C   UNL A   1      32.306  26.064  22.638  1.00  0.00     0.075 A 
ATOM     24  C   UNL A   1      31.317  27.755  24.084  1.00  0.00     0.086 A 
ATOM     25  C   UNL A   1      30.686  26.730  24.796  1.00  0.00     0.032 A 
ATOM     26  C   UNL A   1      30.808  25.402  24.390  1.00  0.00     0.029 A 
BRANCH  22  27
ATOM     27  O   UNL A   1      32.931  28.263  22.248  1.00  0.00    -0.494 OA
ATOM     28  C   UNL A   1      34.167  28.746  22.760  1.00  0.00     0.278 C 
ENDBRANCH  22  27
BRANCH  24  29
ATOM     29  N   UNL A   1      31.037  29.064  24.501  1.00  0.00    -0.309 N 
ATOM     30  C   UNL A   1      29.948  29.847  23.988  1.00  0.00     0.126 C 
ATOM     31  C   UNL A   1      31.825  29.765  25.417  1.00  0.00     0.227 C 
ATOM     32  C   UNL A   1      30.260  31.251  24.486  1.00  0.00     0.032 C 
ATOM     33  C   UNL A   1      31.073  31.024  25.751  1.00  0.00     0.102 C 
ATOM     34  O   UNL A   1      32.882  29.434  25.933  1.00  0.00    -0.275 OA
ENDBRANCH  24  29
ENDBRANCH  19  21
ENDBRANCH  16  19
ENDBRANCH   9  16
ENDBRANCH   5   8
ENDBRANCH   3   4
ENDBRANCH   2   3
ENDBRANCH   1   2
BRANCH   1  35
ATOM     35  C   UNL A   1      40.397  26.567  26.623  1.00  0.00     0.002 C 
BRANCH  35  36
ATOM     36  C   UNL A   1      41.196  25.567  25.785  1.00  0.00     0.021 C 
BRANCH  36  37
ATOM     37  C   UNL A   1      42.551  26.067  25.298  1.00  0.00     0.116 C 
BRANCH  37  38
ATOM     38  N   UNL A   1      43.651  25.281  25.822  1.00  0.00    -0.352 N 
ATOM     39  C   UNL A   1      44.335  25.435  27.002  1.00  0.00     0.251 C 
ATOM     40  H   UNL A   1      43.950  24.534  25.253  1.00  0.00     0.163 HD
ATOM     41  O   UNL A   1      45.356  24.788  27.211  1.00  0.00    -0.269 OA
BRANCH  39  42
ATOM     42  C   UNL A   1      43.845  26.406  28.005  1.00  0.00     0.039 A 
ATOM     43  C   UNL A   1      43.088  25.939  29.080  1.00  0.00     0.014 A 
ATOM     44  C   UNL A   1      44.143  27.767  27.890  1.00  0.00     0.014 A 
ATOM     45  C   UNL A   1      42.676  26.831  30.072  1.00  0.00     0.010 A 
ATOM     46  C   UNL A   1      43.800  28.640  28.918  1.00  0.00     0.010 A 
ATOM     47  C   UNL A   1      43.056  28.182  30.016  1.00  0.00    -0.014 A 
BRANCH  47  48
ATOM     48  C   UNL A   1      42.681  29.130  31.098  1.00  0.00     0.031 A 
ATOM     49  C   UNL A   1      41.420  29.942  30.988  1.00  0.00     0.074 A 
ATOM     50  C   UNL A   1      43.505  29.294  32.153  1.00  0.00     0.049 A 
ATOM     51  N   UNL A   1      40.951  30.852  31.802  1.00  0.00    -0.248 NA
ATOM     52  C   UNL A   1      40.589  29.724  29.793  1.00  0.00     0.031 C 
ATOM     53  C   UNL A   1      44.777  28.596  32.349  1.00  0.00     0.029 A 
ATOM     54  N   UNL A   1      43.400  30.105  33.256  1.00  0.00    -0.354 N 
ATOM     55  C   UNL A   1      39.781  31.321  31.215  1.00  0.00     0.074 A 
ATOM     56  C   UNL A   1      39.642  30.637  29.949  1.00  0.00     0.031 C 
ATOM     57  C   UNL A   1      45.320  28.988  33.513  1.00  0.00     0.029 A 
ATOM     58  C   UNL A   1      44.459  29.995  34.126  1.00  0.00     0.049 A 
ATOM     59  H   UNL A   1      42.636  30.707  33.409  1.00  0.00     0.167 HD
ATOM     60  C   UNL A   1      38.892  32.221  31.701  1.00  0.00     0.037 A 
ATOM     61  C   UNL A   1      44.714  30.638  35.282  1.00  0.00     0.037 A 
ATOM     62  C   UNL A   1      39.030  32.882  32.972  1.00  0.00     0.049 A 
ATOM     63  C   UNL A   1      43.718  31.645  35.792  1.00  0.00     0.074 A 
ATOM     64  C   UNL A   1      38.156  33.767  33.579  1.00  0.00     0.029 A 
ATOM     65  N   UNL A   1      40.113  32.739  33.827  1.00  0.00    -0.354 N 
ATOM     66  N   UNL A   1      42.582  32.026  35.257  1.00  0.00    -0.248 NA
ATOM     67  C   UNL A   1      44.034  32.305  37.065  1.00  0.00     0.031 C 
ATOM     68  C   UNL A   1      38.739  34.203  34.774  1.00  0.00     0.029 A 
ATOM     69  C   UNL A   1      39.944  33.541  34.945  1.00  0.00     0.049 A 
ATOM     70  H   UNL A   1      40.888  32.153  33.666  1.00  0.00     0.167 HD
ATOM     71  C   UNL A   1      42.034  32.947  36.143  1.00  0.00     0.074 A 
ATOM     72  C   UNL A   1      42.957  33.056  37.254  1.00  0.00     0.031 C 
ATOM     73  C   UNL A   1      40.869  33.637  36.047  1.00  0.00     0.037 A 
BRANCH  60  74
ATOM     74  C   UNL A   1      37.691  32.545  30.851  1.00  0.00     0.058 A 
ATOM     75  C   UNL A   1      36.454  31.908  31.043  1.00  0.00     0.135 A 
ATOM     76  C   UNL A   1      37.768  33.532  29.855  1.00  0.00     0.135 A 
ATOM     77  F   UNL A   1      36.324  30.946  31.970  1.00  0.00    -0.206 F 
ATOM     78  C   UNL A   1      35.348  32.213  30.256  1.00  0.00     0.059 A 
ATOM     79  C   UNL A   1      36.665  33.878  29.078  1.00  0.00     0.059 A 
ATOM     80  F   UNL A   1      38.925  34.175  29.627  1.00  0.00    -0.206 F 
ATOM     81  C   UNL A   1      35.463  33.200  29.276  1.00  0.00     0.060 A 
BRANCH  81  82
ATOM     82  S   UNL A   1      34.017  33.586  28.269  1.00  0.00     0.124 S 
ATOM     83  O   UNL A   1      33.112  34.152  29.263  1.00  0.00    -0.237 OA
ATOM     84  O   UNL A   1      34.558  34.528  27.294  1.00  0.00    -0.237 OA
ATOM     85  O   UNL A   1      33.621  32.288  27.729  1.00  0.00    -0.744 OA
ENDBRANCH  81  82
ENDBRANCH  60  74
BRANCH  61  86
ATOM     86  C   UNL A   1      45.955  30.334  36.043  1.00  0.00     0.058 A 
ATOM     87  C   UNL A   1      47.147  31.033  35.795  1.00  0.00     0.135 A 
ATOM     88  C   UNL A   1      45.974  29.350  37.043  1.00  0.00     0.135 A 
ATOM     89  F   UNL A   1      47.183  31.980  34.844  1.00  0.00    -0.206 F 
ATOM     90  C   UNL A   1      48.314  30.758  36.499  1.00  0.00     0.059 A 
ATOM     91  C   UNL A   1      47.122  29.077  37.781  1.00  0.00     0.059 A 
ATOM     92  F   UNL A   1      44.858  28.662  37.332  1.00  0.00    -0.206 F 
ATOM     93  C   UNL A   1      48.291  29.781  37.495  1.00  0.00     0.060 A 
BRANCH  93  94
ATOM     94  S   UNL A   1      49.798  29.469  38.439  1.00  0.00     0.124 S 
ATOM     95  O   UNL A   1      50.828  29.699  37.432  1.00  0.00    -0.237 OA
ATOM     96  O   UNL A   1      49.705  30.466  39.499  1.00  0.00    -0.237 OA
ATOM     97  O   UNL A   1      49.640  28.085  38.875  1.00  0.00    -0.744 OA
ENDBRANCH  93  94
ENDBRANCH  61  86
BRANCH  73  98
ATOM     98  C   UNL A   1      40.504  34.546  37.189  1.00  0.00     0.058 A 
ATOM     99  C   UNL A   1      40.893  35.894  37.219  1.00  0.00     0.135 A 
ATOM    100  C   UNL A   1      39.707  34.072  38.244  1.00  0.00     0.135 A 
ATOM    101  F   UNL A   1      41.662  36.398  36.240  1.00  0.00    -0.206 F 
ATOM    102  C   UNL A   1      40.525  36.734  38.266  1.00  0.00     0.059 A 
ATOM    103  C   UNL A   1      39.299  34.901  39.284  1.00  0.00     0.059 A 
ATOM    104  F   UNL A   1      39.298  32.792  38.260  1.00  0.00    -0.206 F 
ATOM    105  C   UNL A   1      39.724  36.229  39.292  1.00  0.00     0.060 A 
BRANCH 105 106
ATOM    106  S   UNL A   1      39.225  37.339  40.625  1.00  0.00     0.124 S 
ATOM    107  O   UNL A   1      38.698  36.400  41.608  1.00  0.00    -0.237 OA
ATOM    108  O   UNL A   1      40.484  37.988  40.978  1.00  0.00    -0.237 OA
ATOM    109  O   UNL A   1      38.235  38.206  39.992  1.00  0.00    -0.744 OA
ENDBRANCH 105 106
ENDBRANCH  73  98
ENDBRANCH  47  48
ENDBRANCH  39  42
ENDBRANCH  37  38
ENDBRANCH  36  37
ENDBRANCH  35  36
ENDBRANCH   1  35
TORSDOF 21
ENDMDL
MODEL 3
REMARK VINA RESULT:     -11.1      1.801      8.112
REMARK SMILES COc1cc(NS(=O)(=O)c2cc(C(=O)NCCCCCCNC(=O)c3ccc(-c4c5nc(c(-c6c(F)cc(S(=O)(=O)[O-])cc6F)c6ccc([nH]6)c(-c6c(F)cc(S(=O)(=O)[O-])cc6F)c6nc(c(-c7c(F)cc(S(=O)(=O)[O-])cc7F)c7ccc4[nH]7)C=C6)C=C5)cc3)cc(C)c2C)ccc1N1CCCC1=O
REMARK SMILES IDX 18 1 17 2 16 3 15 4 13 5 14 6 12 8 10 9 11 10 94 11 92 12
REMARK SMILES IDX 95 13 91 14 93 15 7 16 8 17 9 18 6 19 5 21 3 22 4 23 98 24
REMARK SMILES IDX 97 25 96 26 2 27 1 28 99 29 100 30 103 31 101 32 102 33
REMARK SMILES IDX 104 34 19 35 20 36 21 37 22 38 23 39 24 41 25 42 26 43 90 44
REMARK SMILES IDX 27 45 89 46 28 47 29 48 30 49 83 50 31 51 88 52 82 53 84 54
REMARK SMILES IDX 32 55 87 56 81 57 80 58 33 60 67 61 46 62 66 63 47 64 50 65
REMARK SMILES IDX 65 66 85 67 48 68 49 69 64 71 86 72 51 73 34 74 35 75 44 76
REMARK SMILES IDX 36 77 37 78 43 79 45 80 38 81 39 82 40 83 41 84 42 85 68 86
REMARK SMILES IDX 69 87 78 88 70 89 71 90 77 91 79 92 72 93 73 94 74 95 75 96
REMARK SMILES IDX 76 97 52 98 53 99 62 100 54 101 55 102 61 103 63 104 56 105
REMARK SMILES IDX 57 106 58 107 59 108 60 109
REMARK H PARENT 15 7 6 20 22 40 84 59 50 70
REMARK Flexibility Score: inf
ROOT
ATOM      1  C   UNL A   1      33.818  30.105  26.658  1.00  0.00     0.002 C 
ENDROOT
BRANCH   1   2
ATOM      2  C   UNL A   1      33.645  28.634  27.027  1.00  0.00     0.021 C 
BRANCH   2   3
ATOM      3  C   UNL A   1      33.800  27.661  25.872  1.00  0.00     0.116 C 
BRANCH   3   4
ATOM      4  N   UNL A   1      34.269  28.317  24.669  1.00  0.00    -0.352 N 
ATOM      5  C   UNL A   1      33.639  28.610  23.487  1.00  0.00     0.251 C 
ATOM      6  O   UNL A   1      34.341  28.941  22.536  1.00  0.00    -0.269 OA
ATOM      7  H   UNL A   1      35.209  28.606  24.707  1.00  0.00     0.163 HD
BRANCH   5   8
ATOM      8  C   UNL A   1      32.165  28.551  23.310  1.00  0.00     0.041 A 
ATOM      9  C   UNL A   1      30.076  27.460  23.849  1.00  0.00     0.091 A 
ATOM     10  C   UNL A   1      31.441  27.636  24.080  1.00  0.00     0.036 A 
ATOM     11  C   UNL A   1      29.359  28.437  23.114  1.00  0.00    -0.028 A 
ATOM     12  C   UNL A   1      30.090  29.362  22.346  1.00  0.00    -0.046 A 
ATOM     13  C   UNL A   1      27.858  28.555  23.164  1.00  0.00     0.046 C 
ATOM     14  C   UNL A   1      31.485  29.288  22.345  1.00  0.00     0.017 A 
ATOM     15  C   UNL A   1      29.478  30.492  21.558  1.00  0.00     0.044 C 
BRANCH   9  16
ATOM     16  S   UNL A   1      29.272  25.960  24.375  1.00  0.00     0.262 S 
ATOM     17  O   UNL A   1      27.932  25.960  23.823  1.00  0.00    -0.201 OA
ATOM     18  O   UNL A   1      29.467  25.882  25.809  1.00  0.00    -0.201 OA
BRANCH  16  19
ATOM     19  N   UNL A   1      29.969  24.542  23.774  1.00  0.00    -0.279 N 
ATOM     20  H   UNL A   1      29.450  24.062  23.089  1.00  0.00     0.180 HD
BRANCH  19  21
ATOM     21  C   UNL A   1      31.218  23.954  24.140  1.00  0.00     0.053 A 
ATOM     22  C   UNL A   1      32.748  22.766  25.627  1.00  0.00     0.144 A 
ATOM     23  C   UNL A   1      31.524  23.437  25.398  1.00  0.00     0.075 A 
ATOM     24  C   UNL A   1      33.710  22.721  24.601  1.00  0.00     0.086 A 
ATOM     25  C   UNL A   1      33.461  23.401  23.405  1.00  0.00     0.032 A 
ATOM     26  C   UNL A   1      32.235  24.027  23.185  1.00  0.00     0.029 A 
BRANCH  22  27
ATOM     27  O   UNL A   1      32.835  22.237  26.889  1.00  0.00    -0.494 OA
ATOM     28  C   UNL A   1      33.966  22.535  27.697  1.00  0.00     0.278 C 
ENDBRANCH  22  27
BRANCH  24  29
ATOM     29  N   UNL A   1      34.926  22.025  24.677  1.00  0.00    -0.309 N 
ATOM     30  C   UNL A   1      36.211  22.665  24.664  1.00  0.00     0.126 C 
ATOM     31  C   UNL A   1      35.013  20.632  24.715  1.00  0.00     0.227 C 
ATOM     32  C   UNL A   1      37.176  21.509  24.437  1.00  0.00     0.032 C 
ATOM     33  C   UNL A   1      36.451  20.302  25.011  1.00  0.00     0.102 C 
ATOM     34  O   UNL A   1      34.122  19.802  24.609  1.00  0.00    -0.275 OA
ENDBRANCH  24  29
ENDBRANCH  19  21
ENDBRANCH  16  19
ENDBRANCH   9  16
ENDBRANCH   5   8
ENDBRANCH   3   4
ENDBRANCH   2   3
ENDBRANCH   1   2
BRANCH   1  35
ATOM     35  C   UNL A   1      34.536  30.966  27.702  1.00  0.00     0.002 C 
BRANCH  35  36
ATOM     36  C   UNL A   1      34.259  32.469  27.623  1.00  0.00     0.021 C 
BRANCH  36  37
ATOM     37  C   UNL A   1      32.788  32.860  27.670  1.00  0.00     0.116 C 
BRANCH  37  38
ATOM     38  N   UNL A   1      32.600  34.280  27.901  1.00  0.00    -0.352 N 
ATOM     39  C   UNL A   1      33.212  35.091  28.824  1.00  0.00     0.251 C 
ATOM     40  H   UNL A   1      31.944  34.724  27.315  1.00  0.00     0.163 HD
ATOM     41  O   UNL A   1      32.809  36.236  29.000  1.00  0.00    -0.269 OA
BRANCH  39  42
ATOM     42  C   UNL A   1      34.341  34.564  29.621  1.00  0.00     0.039 A 
ATOM     43  C   UNL A   1      34.066  33.882  30.808  1.00  0.00     0.014 A 
ATOM     44  C   UNL A   1      35.661  34.729  29.192  1.00  0.00     0.014 A 
ATOM     45  C   UNL A   1      35.114  33.319  31.537  1.00  0.00     0.010 A 
ATOM     46  C   UNL A   1      36.696  34.100  29.878  1.00  0.00     0.010 A 
ATOM     47  C   UNL A   1      36.434  33.394  31.062  1.00  0.00    -0.014 A 
BRANCH  47  48
ATOM     48  C   UNL A   1      37.551  32.742  31.793  1.00  0.00     0.031 A 
ATOM     49  C   UNL A   1      38.227  31.529  31.213  1.00  0.00     0.074 A 
ATOM     50  C   UNL A   1      37.920  33.212  33.002  1.00  0.00     0.049 A 
ATOM     51  N   UNL A   1      39.183  30.795  31.721  1.00  0.00    -0.248 NA
ATOM     52  C   UNL A   1      37.747  31.063  29.902  1.00  0.00     0.031 C 
ATOM     53  C   UNL A   1      37.310  34.353  33.687  1.00  0.00     0.029 A 
ATOM     54  N   UNL A   1      38.891  32.784  33.872  1.00  0.00    -0.354 N 
ATOM     55  C   UNL A   1      39.411  29.778  30.802  1.00  0.00     0.074 A 
ATOM     56  C   UNL A   1      38.455  29.955  29.732  1.00  0.00     0.031 C 
ATOM     57  C   UNL A   1      37.938  34.551  34.857  1.00  0.00     0.029 A 
ATOM     58  C   UNL A   1      38.965  33.528  35.026  1.00  0.00     0.049 A 
ATOM     59  H   UNL A   1      39.481  32.018  33.686  1.00  0.00     0.167 HD
ATOM     60  C   UNL A   1      40.350  28.801  30.835  1.00  0.00     0.037 A 
ATOM     61  C   UNL A   1      39.763  33.396  36.104  1.00  0.00     0.037 A 
ATOM     62  C   UNL A   1      41.310  28.645  31.896  1.00  0.00     0.049 A 
ATOM     63  C   UNL A   1      40.788  32.294  36.125  1.00  0.00     0.074 A 
ATOM     64  C   UNL A   1      42.337  27.723  31.996  1.00  0.00     0.029 A 
ATOM     65  N   UNL A   1      41.357  29.422  33.045  1.00  0.00    -0.354 N 
ATOM     66  N   UNL A   1      41.035  31.382  35.214  1.00  0.00    -0.248 NA
ATOM     67  C   UNL A   1      41.644  32.204  37.314  1.00  0.00     0.031 C 
ATOM     68  C   UNL A   1      42.968  27.906  33.232  1.00  0.00     0.029 A 
ATOM     69  C   UNL A   1      42.378  28.983  33.873  1.00  0.00     0.049 A 
ATOM     70  H   UNL A   1      40.755  30.176  33.243  1.00  0.00     0.167 HD
ATOM     71  C   UNL A   1      42.096  30.631  35.707  1.00  0.00     0.074 A 
ATOM     72  C   UNL A   1      42.450  31.202  36.990  1.00  0.00     0.031 C 
ATOM     73  C   UNL A   1      42.723  29.565  35.147  1.00  0.00     0.037 A 
BRANCH  60  74
ATOM     74  C   UNL A   1      40.381  27.822  29.691  1.00  0.00     0.058 A 
ATOM     75  C   UNL A   1      41.327  27.921  28.658  1.00  0.00     0.135 A 
ATOM     76  C   UNL A   1      39.476  26.750  29.645  1.00  0.00     0.135 A 
ATOM     77  F   UNL A   1      42.209  28.933  28.640  1.00  0.00    -0.206 F 
ATOM     78  C   UNL A   1      41.353  27.012  27.604  1.00  0.00     0.059 A 
ATOM     79  C   UNL A   1      39.504  25.810  28.618  1.00  0.00     0.059 A 
ATOM     80  F   UNL A   1      38.549  26.605  30.606  1.00  0.00    -0.206 F 
ATOM     81  C   UNL A   1      40.437  25.960  27.593  1.00  0.00     0.060 A 
BRANCH  81  82
ATOM     82  S   UNL A   1      40.487  24.788  26.221  1.00  0.00     0.124 S 
ATOM     83  O   UNL A   1      39.077  24.440  26.084  1.00  0.00    -0.237 OA
ATOM     84  O   UNL A   1      41.049  25.596  25.143  1.00  0.00    -0.237 OA
ATOM     85  O   UNL A   1      41.351  23.720  26.716  1.00  0.00    -0.744 OA
ENDBRANCH  81  82
ENDBRANCH  60  74
BRANCH  61  86
ATOM     86  C   UNL A   1      39.637  34.346  37.242  1.00  0.00     0.058 A 
ATOM     87  C   UNL A   1      38.896  34.012  38.386  1.00  0.00     0.135 A 
ATOM     88  C   UNL A   1      40.265  35.601  37.217  1.00  0.00     0.135 A 
ATOM     89  F   UNL A   1      38.271  32.826  38.457  1.00  0.00    -0.206 F 
ATOM     90  C   UNL A   1      38.770  34.891  39.457  1.00  0.00     0.059 A 
ATOM     91  C   UNL A   1      40.177  36.486  38.288  1.00  0.00     0.059 A 
ATOM     92  F   UNL A   1      41.000  35.965  36.154  1.00  0.00    -0.206 F 
ATOM     93  C   UNL A   1      39.419  36.125  39.400  1.00  0.00     0.060 A 
BRANCH  93  94
ATOM     94  S   UNL A   1      39.292  37.236  40.818  1.00  0.00     0.124 S 
ATOM     95  O   UNL A   1      38.530  38.345  40.255  1.00  0.00    -0.237 OA
ATOM     96  O   UNL A   1      38.590  36.408  41.793  1.00  0.00    -0.237 OA
ATOM     97  O   UNL A   1      40.686  37.527  41.142  1.00  0.00    -0.744 OA
ENDBRANCH  93  94
ENDBRANCH  61  86
BRANCH  73  98
ATOM     98  C   UNL A   1      43.883  28.967  35.897  1.00  0.00     0.058 A 
ATOM     99  C   UNL A   1      45.187  29.468  35.770  1.00  0.00     0.135 A 
ATOM    100  C   UNL A   1      43.673  27.910  36.799  1.00  0.00     0.135 A 
ATOM    101  F   UNL A   1      45.446  30.473  34.917  1.00  0.00    -0.206 F 
ATOM    102  C   UNL A   1      46.247  28.927  36.490  1.00  0.00     0.059 A 
ATOM    103  C   UNL A   1      44.711  27.376  37.554  1.00  0.00     0.059 A 
ATOM    104  F   UNL A   1      42.442  27.400  36.967  1.00  0.00    -0.206 F 
ATOM    105  C   UNL A   1      45.998  27.883  37.383  1.00  0.00     0.060 A 
BRANCH 105 106
ATOM    106  S   UNL A   1      47.377  27.214  38.338  1.00  0.00     0.124 S 
ATOM    107  O   UNL A   1      47.730  26.035  37.557  1.00  0.00    -0.237 OA
ATOM    108  O   UNL A   1      48.340  28.311  38.304  1.00  0.00    -0.237 OA
ATOM    109  O   UNL A   1      46.786  26.946  39.646  1.00  0.00    -0.744 OA
ENDBRANCH 105 106
ENDBRANCH  73  98
ENDBRANCH  47  48
ENDBRANCH  39  42
ENDBRANCH  37  38
ENDBRANCH  36  37
ENDBRANCH  35  36
ENDBRANCH   1  35
TORSDOF 21
ENDMDL
