MODEL 1
REMARK VINA RESULT:     -11.0      0.000      0.000
REMARK SMILES O=CN[C@@H](CCS[C@@H]1CCO[C@]2(CCOC2)C1)C(=O)NCCCCCCNC(=O)c1ccc(-c2c3nc(c(-c4c(F)cc(S(=O)(=O)[O-])cc4F)c4ccc([nH]4)c(-c4c(F)cc(S(=O)(=O)[O-])cc4F)c4nc(c(-c5c(F)cc(S(=O)(=O)[O-])cc5F)c5ccc2[nH]5)C=C4)C=C3)cc1
REMARK SMILES IDX 23 1 22 2 21 3 20 4 18 5 19 6 4 8 3 9 1 10 2 11 5 13 6 14
REMARK SMILES IDX 7 15 8 16 9 17 17 18 10 19 12 20 11 21 13 22 16 23 14 24
REMARK SMILES IDX 15 25 24 26 25 27 26 28 27 29 28 30 29 32 30 33 31 34 95 35
REMARK SMILES IDX 32 36 94 37 33 38 34 39 35 40 88 41 36 42 93 43 87 44 89 45
REMARK SMILES IDX 37 46 92 47 86 48 85 49 38 51 72 52 51 53 71 54 52 55 55 56
REMARK SMILES IDX 70 57 90 58 53 59 54 60 69 62 91 63 56 64 39 65 40 66 49 67
REMARK SMILES IDX 41 68 42 69 48 70 50 71 43 72 44 73 45 74 46 75 47 76 73 77
REMARK SMILES IDX 74 78 83 79 75 80 76 81 82 82 84 83 77 84 78 85 79 86 80 87
REMARK SMILES IDX 81 88 57 89 58 90 67 91 59 92 60 93 66 94 68 95 61 96 62 97
REMARK SMILES IDX 63 98 64 99 65 100
REMARK H PARENT 20 7 3 12 27 31 89 50 55 61
REMARK Flexibility Score: inf
ROOT
ATOM      1  C   UNL A   1      33.857  28.396  26.514  1.00  0.00     0.002 C 
ENDROOT
BRANCH   1   2
ATOM      2  C   UNL A   1      32.372  28.773  26.615  1.00  0.00     0.021 C 
BRANCH   2   3
ATOM      3  C   UNL A   1      31.803  29.731  25.573  1.00  0.00     0.116 C 
BRANCH   3   4
ATOM      4  N   UNL A   1      32.569  29.749  24.340  1.00  0.00    -0.354 N 
ATOM      5  C   UNL A   1      32.487  28.908  23.273  1.00  0.00     0.242 C 
ATOM      6  O   UNL A   1      33.498  28.759  22.578  1.00  0.00    -0.273 OA
ATOM      7  H   UNL A   1      33.238  30.467  24.266  1.00  0.00     0.163 HD
BRANCH   5   8
ATOM      8  C   UNL A   1      31.259  28.045  22.996  1.00  0.00     0.171 C 
BRANCH   8   9
ATOM      9  N   UNL A   1      30.613  28.686  21.853  1.00  0.00    -0.347 N 
ATOM     10  O   UNL A   1      29.145  30.305  21.192  1.00  0.00    -0.279 OA
ATOM     11  C   UNL A   1      29.520  29.500  22.032  1.00  0.00     0.337 C 
ATOM     12  H   UNL A   1      30.965  28.534  20.945  1.00  0.00     0.164 HD
ENDBRANCH   8   9
BRANCH   8  13
ATOM     13  C   UNL A   1      31.403  26.514  22.919  1.00  0.00     0.046 C 
BRANCH  13  14
ATOM     14  C   UNL A   1      32.346  25.684  23.817  1.00  0.00     0.072 C 
BRANCH  14  15
ATOM     15  S   UNL A   1      33.612  24.553  23.121  1.00  0.00    -0.158 SA
BRANCH  15  16
ATOM     16  C   UNL A   1      34.883  24.254  24.440  1.00  0.00     0.052 C 
ATOM     17  C   UNL A   1      35.721  22.989  24.186  1.00  0.00     0.043 C 
ATOM     18  C   UNL A   1      34.281  24.119  25.835  1.00  0.00     0.052 C 
ATOM     19  C   UNL A   1      35.008  21.697  24.588  1.00  0.00     0.162 C 
ATOM     20  C   UNL A   1      33.538  22.813  26.119  1.00  0.00     0.095 C 
ATOM     21  O   UNL A   1      34.471  21.746  25.915  1.00  0.00    -0.372 OA
ATOM     22  C   UNL A   1      32.232  22.570  25.366  1.00  0.00     0.066 C 
ATOM     23  C   UNL A   1      33.041  22.844  27.587  1.00  0.00     0.195 C 
ATOM     24  C   UNL A   1      31.177  23.138  26.275  1.00  0.00     0.163 C 
ATOM     25  O   UNL A   1      31.600  22.752  27.580  1.00  0.00    -0.378 OA
ENDBRANCH  15  16
ENDBRANCH  14  15
ENDBRANCH  13  14
ENDBRANCH   8  13
ENDBRANCH   5   8
ENDBRANCH   3   4
ENDBRANCH   2   3
ENDBRANCH   1   2
BRANCH   1  26
ATOM     26  C   UNL A   1      34.854  29.096  27.443  1.00  0.00     0.002 C 
BRANCH  26  27
ATOM     27  C   UNL A   1      34.667  30.589  27.684  1.00  0.00     0.021 C 
BRANCH  27  28
ATOM     28  C   UNL A   1      35.744  31.263  28.514  1.00  0.00     0.116 C 
BRANCH  28  29
ATOM     29  N   UNL A   1      35.572  31.116  29.950  1.00  0.00    -0.352 N 
ATOM     30  C   UNL A   1      36.409  30.472  30.835  1.00  0.00     0.251 C 
ATOM     31  H   UNL A   1      34.763  31.525  30.336  1.00  0.00     0.163 HD
ATOM     32  O   UNL A   1      36.098  30.360  32.018  1.00  0.00    -0.269 OA
BRANCH  30  33
ATOM     33  C   UNL A   1      37.666  29.873  30.330  1.00  0.00     0.039 A 
ATOM     34  C   UNL A   1      38.005  30.033  28.984  1.00  0.00     0.014 A 
ATOM     35  C   UNL A   1      38.543  29.221  31.201  1.00  0.00     0.014 A 
ATOM     36  C   UNL A   1      39.260  29.612  28.532  1.00  0.00     0.010 A 
ATOM     37  C   UNL A   1      39.821  28.883  30.771  1.00  0.00     0.010 A 
ATOM     38  C   UNL A   1      40.195  29.074  29.433  1.00  0.00    -0.014 A 
BRANCH  38  39
ATOM     39  C   UNL A   1      41.568  28.700  29.002  1.00  0.00     0.031 A 
ATOM     40  C   UNL A   1      42.644  29.750  28.934  1.00  0.00     0.074 A 
ATOM     41  C   UNL A   1      41.824  27.440  28.595  1.00  0.00     0.049 A 
ATOM     42  N   UNL A   1      43.872  29.647  28.496  1.00  0.00    -0.248 NA
ATOM     43  C   UNL A   1      42.281  31.103  29.386  1.00  0.00     0.031 C 
ATOM     44  C   UNL A   1      40.851  26.345  28.558  1.00  0.00     0.029 A 
ATOM     45  N   UNL A   1      42.978  26.869  28.118  1.00  0.00    -0.354 N 
ATOM     46  C   UNL A   1      44.420  30.919  28.603  1.00  0.00     0.074 A 
ATOM     47  C   UNL A   1      43.374  31.791  29.091  1.00  0.00     0.031 C 
ATOM     48  C   UNL A   1      41.454  25.234  28.106  1.00  0.00     0.029 A 
ATOM     49  C   UNL A   1      42.844  25.542  27.785  1.00  0.00     0.049 A 
ATOM     50  H   UNL A   1      43.825  27.365  28.023  1.00  0.00     0.167 HD
ATOM     51  C   UNL A   1      45.687  31.322  28.343  1.00  0.00     0.037 A 
ATOM     52  C   UNL A   1      43.738  24.672  27.274  1.00  0.00     0.037 A 
ATOM     53  C   UNL A   1      46.734  30.444  27.892  1.00  0.00     0.049 A 
ATOM     54  C   UNL A   1      45.145  25.138  27.008  1.00  0.00     0.074 A 
ATOM     55  C   UNL A   1      48.066  30.739  27.661  1.00  0.00     0.029 A 
ATOM     56  N   UNL A   1      46.567  29.098  27.601  1.00  0.00    -0.354 N 
ATOM     57  N   UNL A   1      45.662  26.331  27.178  1.00  0.00    -0.248 NA
ATOM     58  C   UNL A   1      46.090  24.140  26.489  1.00  0.00     0.031 C 
ATOM     59  C   UNL A   1      48.695  29.581  27.193  1.00  0.00     0.029 A 
ATOM     60  C   UNL A   1      47.768  28.552  27.178  1.00  0.00     0.049 A 
ATOM     61  H   UNL A   1      45.720  28.603  27.684  1.00  0.00     0.167 HD
ATOM     62  C   UNL A   1      47.000  26.220  26.814  1.00  0.00     0.074 A 
ATOM     63  C   UNL A   1      47.214  24.842  26.425  1.00  0.00     0.031 C 
ATOM     64  C   UNL A   1      47.965  27.174  26.804  1.00  0.00     0.037 A 
BRANCH  51  65
ATOM     65  C   UNL A   1      46.013  32.775  28.555  1.00  0.00     0.058 A 
ATOM     66  C   UNL A   1      45.911  33.713  27.514  1.00  0.00     0.135 A 
ATOM     67  C   UNL A   1      46.406  33.244  29.819  1.00  0.00     0.135 A 
ATOM     68  F   UNL A   1      45.556  33.318  26.281  1.00  0.00    -0.206 F 
ATOM     69  C   UNL A   1      46.218  35.054  27.709  1.00  0.00     0.059 A 
ATOM     70  C   UNL A   1      46.690  34.587  30.045  1.00  0.00     0.059 A 
ATOM     71  F   UNL A   1      46.522  32.391  30.849  1.00  0.00    -0.206 F 
ATOM     72  C   UNL A   1      46.608  35.482  28.979  1.00  0.00     0.060 A 
BRANCH  72  73
ATOM     73  S   UNL A   1      47.002  37.228  29.216  1.00  0.00     0.124 S 
ATOM     74  O   UNL A   1      46.492  37.460  30.565  1.00  0.00    -0.237 OA
ATOM     75  O   UNL A   1      48.454  37.242  29.077  1.00  0.00    -0.237 OA
ATOM     76  O   UNL A   1      46.266  37.892  28.145  1.00  0.00    -0.744 OA
ENDBRANCH  72  73
ENDBRANCH  51  65
BRANCH  52  77
ATOM     77  C   UNL A   1      43.338  23.263  27.007  1.00  0.00     0.058 A 
ATOM     78  C   UNL A   1      43.144  22.356  28.058  1.00  0.00     0.135 A 
ATOM     79  C   UNL A   1      43.130  22.800  25.698  1.00  0.00     0.135 A 
ATOM     80  F   UNL A   1      43.336  22.750  29.327  1.00  0.00    -0.206 F 
ATOM     81  C   UNL A   1      42.774  21.036  27.825  1.00  0.00     0.059 A 
ATOM     82  C   UNL A   1      42.736  21.491  25.439  1.00  0.00     0.059 A 
ATOM     83  F   UNL A   1      43.286  23.633  24.657  1.00  0.00    -0.206 F 
ATOM     84  C   UNL A   1      42.569  20.613  26.511  1.00  0.00     0.060 A 
BRANCH  84  85
ATOM     85  S   UNL A   1      42.038  18.911  26.219  1.00  0.00     0.124 S 
ATOM     86  O   UNL A   1      42.226  18.315  27.536  1.00  0.00    -0.237 OA
ATOM     87  O   UNL A   1      40.654  19.091  25.790  1.00  0.00    -0.237 OA
ATOM     88  O   UNL A   1      42.953  18.449  25.179  1.00  0.00    -0.744 OA
ENDBRANCH  84  85
ENDBRANCH  52  77
BRANCH  64  89
ATOM     89  C   UNL A   1      49.349  26.755  26.396  1.00  0.00     0.058 A 
ATOM     90  C   UNL A   1      50.240  26.163  27.304  1.00  0.00     0.135 A 
ATOM     91  C   UNL A   1      49.767  26.894  25.062  1.00  0.00     0.135 A 
ATOM     92  F   UNL A   1      49.893  26.013  28.592  1.00  0.00    -0.206 F 
ATOM     93  C   UNL A   1      51.506  25.743  26.909  1.00  0.00     0.059 A 
ATOM     94  C   UNL A   1      51.017  26.455  24.639  1.00  0.00     0.059 A 
ATOM     95  F   UNL A   1      48.948  27.444  24.151  1.00  0.00    -0.206 F 
ATOM     96  C   UNL A   1      51.884  25.891  25.573  1.00  0.00     0.060 A 
BRANCH  96  97
ATOM     97  S   UNL A   1      53.514  25.304  25.065  1.00  0.00     0.124 S 
ATOM     98  O   UNL A   1      53.548  25.709  23.663  1.00  0.00    -0.237 OA
ATOM     99  O   UNL A   1      54.404  26.038  25.959  1.00  0.00    -0.237 OA
ATOM    100  O   UNL A   1      53.447  23.865  25.300  1.00  0.00    -0.744 OA
ENDBRANCH  96  97
ENDBRANCH  64  89
ENDBRANCH  38  39
ENDBRANCH  30  33
ENDBRANCH  28  29
ENDBRANCH  27  28
ENDBRANCH  26  27
ENDBRANCH   1  26
TORSDOF 21
ENDMDL
MODEL 2
REMARK VINA RESULT:     -10.7      1.392      8.327
REMARK SMILES O=CN[C@@H](CCS[C@@H]1CCO[C@]2(CCOC2)C1)C(=O)NCCCCCCNC(=O)c1ccc(-c2c3nc(c(-c4c(F)cc(S(=O)(=O)[O-])cc4F)c4ccc([nH]4)c(-c4c(F)cc(S(=O)(=O)[O-])cc4F)c4nc(c(-c5c(F)cc(S(=O)(=O)[O-])cc5F)c5ccc2[nH]5)C=C4)C=C3)cc1
REMARK SMILES IDX 23 1 22 2 21 3 20 4 18 5 19 6 4 8 3 9 1 10 2 11 5 13 6 14
REMARK SMILES IDX 7 15 8 16 9 17 17 18 10 19 12 20 11 21 13 22 16 23 14 24
REMARK SMILES IDX 15 25 24 26 25 27 26 28 27 29 28 30 29 32 30 33 31 34 95 35
REMARK SMILES IDX 32 36 94 37 33 38 34 39 35 40 88 41 36 42 93 43 87 44 89 45
REMARK SMILES IDX 37 46 92 47 86 48 85 49 38 51 72 52 51 53 71 54 52 55 55 56
REMARK SMILES IDX 70 57 90 58 53 59 54 60 69 62 91 63 56 64 39 65 40 66 49 67
REMARK SMILES IDX 41 68 42 69 48 70 50 71 43 72 44 73 45 74 46 75 47 76 73 77
REMARK SMILES IDX 74 78 83 79 75 80 76 81 82 82 84 83 77 84 78 85 79 86 80 87
REMARK SMILES IDX 81 88 57 89 58 90 67 91 59 92 60 93 66 94 68 95 61 96 62 97
REMARK SMILES IDX 63 98 64 99 65 100
REMARK H PARENT 20 7 3 12 27 31 89 50 55 61
REMARK Flexibility Score: inf
ROOT
ATOM      1  C   UNL A   1      33.481  30.527  27.289  1.00  0.00     0.002 C 
ENDROOT
BRANCH   1   2
ATOM      2  C   UNL A   1      32.210  30.569  26.429  1.00  0.00     0.021 C 
BRANCH   2   3
ATOM      3  C   UNL A   1      32.019  29.481  25.378  1.00  0.00     0.116 C 
BRANCH   3   4
ATOM      4  N   UNL A   1      32.911  29.625  24.243  1.00  0.00    -0.354 N 
ATOM      5  C   UNL A   1      33.324  28.677  23.357  1.00  0.00     0.242 C 
ATOM      6  O   UNL A   1      34.416  28.845  22.803  1.00  0.00    -0.273 OA
ATOM      7  H   UNL A   1      33.264  30.531  24.092  1.00  0.00     0.163 HD
BRANCH   5   8
ATOM      8  C   UNL A   1      32.572  27.367  23.141  1.00  0.00     0.171 C 
BRANCH   8   9
ATOM      9  N   UNL A   1      32.788  27.051  21.731  1.00  0.00    -0.347 N 
ATOM     10  O   UNL A   1      32.912  25.380  20.181  1.00  0.00    -0.279 OA
ATOM     11  C   UNL A   1      33.046  25.760  21.334  1.00  0.00     0.337 C 
ATOM     12  H   UNL A   1      32.748  27.769  21.058  1.00  0.00     0.164 HD
ENDBRANCH   8   9
BRANCH   8  13
ATOM     13  C   UNL A   1      32.766  26.204  24.131  1.00  0.00     0.046 C 
BRANCH  13  14
ATOM     14  C   UNL A   1      31.627  25.284  24.626  1.00  0.00     0.072 C 
BRANCH  14  15
ATOM     15  S   UNL A   1      31.947  23.608  25.298  1.00  0.00    -0.158 SA
BRANCH  15  16
ATOM     16  C   UNL A   1      32.525  22.542  23.894  1.00  0.00     0.052 C 
ATOM     17  C   UNL A   1      32.413  21.038  24.200  1.00  0.00     0.043 C 
ATOM     18  C   UNL A   1      33.971  22.809  23.491  1.00  0.00     0.052 C 
ATOM     19  C   UNL A   1      33.556  20.508  25.067  1.00  0.00     0.162 C 
ATOM     20  C   UNL A   1      35.040  22.289  24.453  1.00  0.00     0.095 C 
ATOM     21  O   UNL A   1      34.849  20.874  24.569  1.00  0.00    -0.372 OA
ATOM     22  C   UNL A   1      35.138  22.958  25.822  1.00  0.00     0.066 C 
ATOM     23  C   UNL A   1      36.434  22.615  23.855  1.00  0.00     0.195 C 
ATOM     24  C   UNL A   1      36.139  24.061  25.618  1.00  0.00     0.163 C 
ATOM     25  O   UNL A   1      37.132  23.476  24.780  1.00  0.00    -0.378 OA
ENDBRANCH  15  16
ENDBRANCH  14  15
ENDBRANCH  13  14
ENDBRANCH   8  13
ENDBRANCH   5   8
ENDBRANCH   3   4
ENDBRANCH   2   3
ENDBRANCH   1   2
BRANCH   1  26
ATOM     26  C   UNL A   1      34.378  29.288  27.207  1.00  0.00     0.002 C 
BRANCH  26  27
ATOM     27  C   UNL A   1      35.654  29.283  28.039  1.00  0.00     0.021 C 
BRANCH  27  28
ATOM     28  C   UNL A   1      35.942  30.558  28.811  1.00  0.00     0.116 C 
BRANCH  28  29
ATOM     29  N   UNL A   1      35.808  30.428  30.253  1.00  0.00    -0.352 N 
ATOM     30  C   UNL A   1      36.809  30.197  31.172  1.00  0.00     0.251 C 
ATOM     31  H   UNL A   1      34.897  30.515  30.615  1.00  0.00     0.163 HD
ATOM     32  O   UNL A   1      36.538  30.032  32.359  1.00  0.00    -0.269 OA
BRANCH  30  33
ATOM     33  C   UNL A   1      38.210  30.098  30.702  1.00  0.00     0.039 A 
ATOM     34  C   UNL A   1      39.136  29.379  31.462  1.00  0.00     0.014 A 
ATOM     35  C   UNL A   1      38.588  30.652  29.476  1.00  0.00     0.014 A 
ATOM     36  C   UNL A   1      40.416  29.144  30.951  1.00  0.00     0.010 A 
ATOM     37  C   UNL A   1      39.831  30.344  28.933  1.00  0.00     0.010 A 
ATOM     38  C   UNL A   1      40.758  29.587  29.663  1.00  0.00    -0.014 A 
BRANCH  38  39
ATOM     39  C   UNL A   1      42.080  29.278  29.057  1.00  0.00     0.031 A 
ATOM     40  C   UNL A   1      42.361  27.892  28.539  1.00  0.00     0.074 A 
ATOM     41  C   UNL A   1      43.051  30.214  29.046  1.00  0.00     0.049 A 
ATOM     42  N   UNL A   1      43.475  27.397  28.065  1.00  0.00    -0.248 NA
ATOM     43  C   UNL A   1      41.252  26.925  28.597  1.00  0.00     0.031 C 
ATOM     44  C   UNL A   1      42.921  31.576  29.570  1.00  0.00     0.029 A 
ATOM     45  N   UNL A   1      44.345  30.158  28.591  1.00  0.00    -0.354 N 
ATOM     46  C   UNL A   1      43.207  26.063  27.784  1.00  0.00     0.074 A 
ATOM     47  C   UNL A   1      41.844  25.809  28.197  1.00  0.00     0.031 C 
ATOM     48  C   UNL A   1      44.080  32.231  29.387  1.00  0.00     0.029 A 
ATOM     49  C   UNL A   1      45.046  31.328  28.768  1.00  0.00     0.049 A 
ATOM     50  H   UNL A   1      44.736  29.355  28.176  1.00  0.00     0.167 HD
ATOM     51  C   UNL A   1      44.014  25.138  27.210  1.00  0.00     0.037 A 
ATOM     52  C   UNL A   1      46.324  31.638  28.472  1.00  0.00     0.037 A 
ATOM     53  C   UNL A   1      45.357  25.406  26.770  1.00  0.00     0.049 A 
ATOM     54  C   UNL A   1      47.197  30.598  27.821  1.00  0.00     0.074 A 
ATOM     55  C   UNL A   1      46.235  24.556  26.119  1.00  0.00     0.029 A 
ATOM     56  N   UNL A   1      46.018  26.614  26.934  1.00  0.00    -0.354 N 
ATOM     57  N   UNL A   1      46.905  29.360  27.503  1.00  0.00    -0.248 NA
ATOM     58  C   UNL A   1      48.570  31.000  27.481  1.00  0.00     0.031 C 
ATOM     59  C   UNL A   1      47.440  25.238  25.926  1.00  0.00     0.029 A 
ATOM     60  C   UNL A   1      47.298  26.528  26.412  1.00  0.00     0.049 A 
ATOM     61  H   UNL A   1      45.635  27.415  27.358  1.00  0.00     0.167 HD
ATOM     62  C   UNL A   1      48.047  28.843  26.900  1.00  0.00     0.074 A 
ATOM     63  C   UNL A   1      49.031  29.906  26.890  1.00  0.00     0.031 C 
ATOM     64  C   UNL A   1      48.262  27.600  26.400  1.00  0.00     0.037 A 
BRANCH  51  65
ATOM     65  C   UNL A   1      43.458  23.754  27.016  1.00  0.00     0.058 A 
ATOM     66  C   UNL A   1      43.335  22.852  28.086  1.00  0.00     0.135 A 
ATOM     67  C   UNL A   1      43.017  23.331  25.752  1.00  0.00     0.135 A 
ATOM     68  F   UNL A   1      43.757  23.197  29.313  1.00  0.00    -0.206 F 
ATOM     69  C   UNL A   1      42.827  21.571  27.903  1.00  0.00     0.059 A 
ATOM     70  C   UNL A   1      42.478  22.064  25.552  1.00  0.00     0.059 A 
ATOM     71  F   UNL A   1      43.112  24.152  24.694  1.00  0.00    -0.206 F 
ATOM     72  C   UNL A   1      42.401  21.185  26.632  1.00  0.00     0.060 A 
BRANCH  72  73
ATOM     73  S   UNL A   1      41.742  19.519  26.413  1.00  0.00     0.124 S 
ATOM     74  O   UNL A   1      42.398  19.108  25.174  1.00  0.00    -0.237 OA
ATOM     75  O   UNL A   1      42.196  18.843  27.623  1.00  0.00    -0.237 OA
ATOM     76  O   UNL A   1      40.302  19.732  26.319  1.00  0.00    -0.744 OA
ENDBRANCH  72  73
ENDBRANCH  51  65
BRANCH  52  77
ATOM     77  C   UNL A   1      46.847  33.000  28.762  1.00  0.00     0.058 A 
ATOM     78  C   UNL A   1      46.763  34.024  27.807  1.00  0.00     0.135 A 
ATOM     79  C   UNL A   1      47.429  33.310  30.001  1.00  0.00     0.135 A 
ATOM     80  F   UNL A   1      46.222  33.776  26.605  1.00  0.00    -0.206 F 
ATOM     81  C   UNL A   1      47.251  35.301  28.061  1.00  0.00     0.059 A 
ATOM     82  C   UNL A   1      47.902  34.587  30.289  1.00  0.00     0.059 A 
ATOM     83  F   UNL A   1      47.517  32.371  30.956  1.00  0.00    -0.206 F 
ATOM     84  C   UNL A   1      47.817  35.574  29.307  1.00  0.00     0.060 A 
BRANCH  84  85
ATOM     85  S   UNL A   1      48.401  37.250  29.648  1.00  0.00     0.124 S 
ATOM     86  O   UNL A   1      49.421  37.004  30.660  1.00  0.00    -0.237 OA
ATOM     87  O   UNL A   1      48.888  37.676  28.339  1.00  0.00    -0.237 OA
ATOM     88  O   UNL A   1      47.199  37.934  30.114  1.00  0.00    -0.744 OA
ENDBRANCH  84  85
ENDBRANCH  52  77
BRANCH  64  89
ATOM     89  C   UNL A   1      49.596  27.330  25.764  1.00  0.00     0.058 A 
ATOM     90  C   UNL A   1      50.691  26.868  26.510  1.00  0.00     0.135 A 
ATOM     91  C   UNL A   1      49.762  27.478  24.377  1.00  0.00     0.135 A 
ATOM     92  F   UNL A   1      50.586  26.715  27.840  1.00  0.00    -0.206 F 
ATOM     93  C   UNL A   1      51.911  26.583  25.907  1.00  0.00     0.059 A 
ATOM     94  C   UNL A   1      50.965  27.172  23.749  1.00  0.00     0.059 A 
ATOM     95  F   UNL A   1      48.743  27.907  23.615  1.00  0.00    -0.206 F 
ATOM     96  C   UNL A   1      52.038  26.735  24.525  1.00  0.00     0.060 A 
BRANCH  96  97
ATOM     97  S   UNL A   1      53.616  26.324  23.749  1.00  0.00     0.124 S 
ATOM     98  O   UNL A   1      54.345  27.581  23.883  1.00  0.00    -0.237 OA
ATOM     99  O   UNL A   1      54.094  25.222  24.578  1.00  0.00    -0.237 OA
ATOM    100  O   UNL A   1      53.240  25.959  22.387  1.00  0.00    -0.744 OA
ENDBRANCH  96  97
ENDBRANCH  64  89
ENDBRANCH  38  39
ENDBRANCH  30  33
ENDBRANCH  28  29
ENDBRANCH  27  28
ENDBRANCH  26  27
ENDBRANCH   1  26
TORSDOF 21
ENDMDL
MODEL 3
REMARK VINA RESULT:     -10.2      0.809      2.081
REMARK SMILES O=CN[C@@H](CCS[C@@H]1CCO[C@]2(CCOC2)C1)C(=O)NCCCCCCNC(=O)c1ccc(-c2c3nc(c(-c4c(F)cc(S(=O)(=O)[O-])cc4F)c4ccc([nH]4)c(-c4c(F)cc(S(=O)(=O)[O-])cc4F)c4nc(c(-c5c(F)cc(S(=O)(=O)[O-])cc5F)c5ccc2[nH]5)C=C4)C=C3)cc1
REMARK SMILES IDX 23 1 22 2 21 3 20 4 18 5 19 6 4 8 3 9 1 10 2 11 5 13 6 14
REMARK SMILES IDX 7 15 8 16 9 17 17 18 10 19 12 20 11 21 13 22 16 23 14 24
REMARK SMILES IDX 15 25 24 26 25 27 26 28 27 29 28 30 29 32 30 33 31 34 95 35
REMARK SMILES IDX 32 36 94 37 33 38 34 39 35 40 88 41 36 42 93 43 87 44 89 45
REMARK SMILES IDX 37 46 92 47 86 48 85 49 38 51 72 52 51 53 71 54 52 55 55 56
REMARK SMILES IDX 70 57 90 58 53 59 54 60 69 62 91 63 56 64 39 65 40 66 49 67
REMARK SMILES IDX 41 68 42 69 48 70 50 71 43 72 44 73 45 74 46 75 47 76 73 77
REMARK SMILES IDX 74 78 83 79 75 80 76 81 82 82 84 83 77 84 78 85 79 86 80 87
REMARK SMILES IDX 81 88 57 89 58 90 67 91 59 92 60 93 66 94 68 95 61 96 62 97
REMARK SMILES IDX 63 98 64 99 65 100
REMARK H PARENT 20 7 3 12 27 31 89 50 55 61
REMARK Flexibility Score: inf
ROOT
ATOM      1  C   UNL A   1      33.387  29.587  25.773  1.00  0.00     0.002 C 
ENDROOT
BRANCH   1   2
ATOM      2  C   UNL A   1      32.026  30.242  26.042  1.00  0.00     0.021 C 
BRANCH   2   3
ATOM      3  C   UNL A   1      30.990  30.229  24.923  1.00  0.00     0.116 C 
BRANCH   3   4
ATOM      4  N   UNL A   1      31.445  29.528  23.736  1.00  0.00    -0.354 N 
ATOM      5  C   UNL A   1      31.358  28.201  23.444  1.00  0.00     0.242 C 
ATOM      6  O   UNL A   1      32.202  27.726  22.677  1.00  0.00    -0.273 OA
ATOM      7  H   UNL A   1      31.873  30.088  23.049  1.00  0.00     0.163 HD
BRANCH   5   8
ATOM      8  C   UNL A   1      30.366  27.268  24.132  1.00  0.00     0.171 C 
BRANCH   8   9
ATOM      9  N   UNL A   1      29.141  27.396  23.347  1.00  0.00    -0.347 N 
ATOM     10  O   UNL A   1      27.765  28.842  22.238  1.00  0.00    -0.279 OA
ATOM     11  C   UNL A   1      28.574  28.630  23.129  1.00  0.00     0.337 C 
ATOM     12  H   UNL A   1      28.717  26.591  22.969  1.00  0.00     0.164 HD
ENDBRANCH   8   9
BRANCH   8  13
ATOM     13  C   UNL A   1      30.791  25.834  24.493  1.00  0.00     0.046 C 
BRANCH  13  14
ATOM     14  C   UNL A   1      30.638  24.619  23.552  1.00  0.00     0.072 C 
BRANCH  14  15
ATOM     15  S   UNL A   1      32.066  23.578  23.060  1.00  0.00    -0.158 SA
BRANCH  15  16
ATOM     16  C   UNL A   1      32.065  22.074  24.147  1.00  0.00     0.052 C 
ATOM     17  C   UNL A   1      31.723  22.397  25.613  1.00  0.00     0.043 C 
ATOM     18  C   UNL A   1      33.399  21.334  24.152  1.00  0.00     0.052 C 
ATOM     19  C   UNL A   1      32.906  22.960  26.402  1.00  0.00     0.162 C 
ATOM     20  C   UNL A   1      34.535  22.009  24.921  1.00  0.00     0.095 C 
ATOM     21  O   UNL A   1      34.091  22.165  26.274  1.00  0.00    -0.372 OA
ATOM     22  C   UNL A   1      35.088  23.315  24.356  1.00  0.00     0.066 C 
ATOM     23  C   UNL A   1      35.784  21.093  24.848  1.00  0.00     0.195 C 
ATOM     24  C   UNL A   1      36.216  22.877  23.464  1.00  0.00     0.163 C 
ATOM     25  O   UNL A   1      36.842  21.823  24.190  1.00  0.00    -0.378 OA
ENDBRANCH  15  16
ENDBRANCH  14  15
ENDBRANCH  13  14
ENDBRANCH   8  13
ENDBRANCH   5   8
ENDBRANCH   3   4
ENDBRANCH   2   3
ENDBRANCH   1   2
BRANCH   1  26
ATOM     26  C   UNL A   1      34.430  29.579  26.895  1.00  0.00     0.002 C 
BRANCH  26  27
ATOM     27  C   UNL A   1      34.326  30.660  27.964  1.00  0.00     0.021 C 
BRANCH  27  28
ATOM     28  C   UNL A   1      35.638  31.098  28.589  1.00  0.00     0.116 C 
BRANCH  28  29
ATOM     29  N   UNL A   1      35.607  31.195  30.039  1.00  0.00    -0.352 N 
ATOM     30  C   UNL A   1      36.556  30.747  30.932  1.00  0.00     0.251 C 
ATOM     31  H   UNL A   1      34.815  31.632  30.429  1.00  0.00     0.163 HD
ATOM     32  O   UNL A   1      36.361  30.828  32.142  1.00  0.00    -0.269 OA
BRANCH  30  33
ATOM     33  C   UNL A   1      37.793  30.118  30.413  1.00  0.00     0.039 A 
ATOM     34  C   UNL A   1      38.083  30.210  29.049  1.00  0.00     0.014 A 
ATOM     35  C   UNL A   1      38.698  29.506  31.283  1.00  0.00     0.014 A 
ATOM     36  C   UNL A   1      39.321  29.763  28.574  1.00  0.00     0.010 A 
ATOM     37  C   UNL A   1      39.960  29.143  30.824  1.00  0.00     0.010 A 
ATOM     38  C   UNL A   1      40.286  29.267  29.466  1.00  0.00    -0.014 A 
BRANCH  38  39
ATOM     39  C   UNL A   1      41.641  28.866  29.005  1.00  0.00     0.031 A 
ATOM     40  C   UNL A   1      42.732  29.899  28.899  1.00  0.00     0.074 A 
ATOM     41  C   UNL A   1      41.868  27.598  28.606  1.00  0.00     0.049 A 
ATOM     42  N   UNL A   1      43.947  29.772  28.431  1.00  0.00    -0.248 NA
ATOM     43  C   UNL A   1      42.400  31.262  29.344  1.00  0.00     0.031 C 
ATOM     44  C   UNL A   1      40.877  26.518  28.606  1.00  0.00     0.029 A 
ATOM     45  N   UNL A   1      43.001  27.004  28.108  1.00  0.00    -0.354 N 
ATOM     46  C   UNL A   1      44.517  31.036  28.510  1.00  0.00     0.074 A 
ATOM     47  C   UNL A   1      43.496  31.929  29.014  1.00  0.00     0.031 C 
ATOM     48  C   UNL A   1      41.453  25.393  28.152  1.00  0.00     0.029 A 
ATOM     49  C   UNL A   1      42.838  25.675  27.794  1.00  0.00     0.049 A 
ATOM     50  H   UNL A   1      43.852  27.485  27.986  1.00  0.00     0.167 HD
ATOM     51  C   UNL A   1      45.783  31.416  28.215  1.00  0.00     0.037 A 
ATOM     52  C   UNL A   1      43.706  24.786  27.271  1.00  0.00     0.037 A 
ATOM     53  C   UNL A   1      46.804  30.517  27.747  1.00  0.00     0.049 A 
ATOM     54  C   UNL A   1      45.112  25.227  26.964  1.00  0.00     0.074 A 
ATOM     55  C   UNL A   1      48.134  30.789  27.480  1.00  0.00     0.029 A 
ATOM     56  N   UNL A   1      46.609  29.170  27.476  1.00  0.00    -0.354 N 
ATOM     57  N   UNL A   1      45.652  26.414  27.107  1.00  0.00    -0.248 NA
ATOM     58  C   UNL A   1      46.029  24.209  26.433  1.00  0.00     0.031 C 
ATOM     59  C   UNL A   1      48.734  29.617  27.010  1.00  0.00     0.029 A 
ATOM     60  C   UNL A   1      47.791  28.602  27.030  1.00  0.00     0.049 A 
ATOM     61  H   UNL A   1      45.757  28.690  27.586  1.00  0.00     0.167 HD
ATOM     62  C   UNL A   1      46.979  26.278  26.712  1.00  0.00     0.074 A 
ATOM     63  C   UNL A   1      47.161  24.892  26.333  1.00  0.00     0.031 C 
ATOM     64  C   UNL A   1      47.958  27.217  26.667  1.00  0.00     0.037 A 
BRANCH  51  65
ATOM     65  C   UNL A   1      46.136  32.867  28.401  1.00  0.00     0.058 A 
ATOM     66  C   UNL A   1      46.621  33.356  29.625  1.00  0.00     0.135 A 
ATOM     67  C   UNL A   1      46.014  33.775  27.337  1.00  0.00     0.135 A 
ATOM     68  F   UNL A   1      46.741  32.536  30.681  1.00  0.00    -0.206 F 
ATOM     69  C   UNL A   1      46.940  34.698  29.797  1.00  0.00     0.059 A 
ATOM     70  C   UNL A   1      46.356  35.117  27.478  1.00  0.00     0.059 A 
ATOM     71  F   UNL A   1      45.555  33.362  26.145  1.00  0.00    -0.206 F 
ATOM     72  C   UNL A   1      46.804  35.571  28.718  1.00  0.00     0.060 A 
BRANCH  72  73
ATOM     73  S   UNL A   1      47.226  37.311  28.958  1.00  0.00     0.124 S 
ATOM     74  O   UNL A   1      45.931  37.874  29.331  1.00  0.00    -0.237 OA
ATOM     75  O   UNL A   1      48.219  37.246  30.025  1.00  0.00    -0.237 OA
ATOM     76  O   UNL A   1      47.736  37.720  27.653  1.00  0.00    -0.744 OA
ENDBRANCH  72  73
ENDBRANCH  51  65
BRANCH  52  77
ATOM     77  C   UNL A   1      43.278  23.381  27.029  1.00  0.00     0.058 A 
ATOM     78  C   UNL A   1      43.065  22.905  25.727  1.00  0.00     0.135 A 
ATOM     79  C   UNL A   1      43.083  22.485  28.091  1.00  0.00     0.135 A 
ATOM     80  F   UNL A   1      43.231  23.726  24.678  1.00  0.00    -0.206 F 
ATOM     81  C   UNL A   1      42.660  21.597  25.484  1.00  0.00     0.059 A 
ATOM     82  C   UNL A   1      42.702  21.164  27.874  1.00  0.00     0.059 A 
ATOM     83  F   UNL A   1      43.290  22.885  29.356  1.00  0.00    -0.206 F 
ATOM     84  C   UNL A   1      42.484  20.733  26.565  1.00  0.00     0.060 A 
BRANCH  84  85
ATOM     85  S   UNL A   1      42.008  19.020  26.239  1.00  0.00     0.124 S 
ATOM     86  O   UNL A   1      42.256  18.395  27.533  1.00  0.00    -0.237 OA
ATOM     87  O   UNL A   1      40.607  19.160  25.854  1.00  0.00    -0.237 OA
ATOM     88  O   UNL A   1      42.909  18.623  25.161  1.00  0.00    -0.744 OA
ENDBRANCH  84  85
ENDBRANCH  52  77
BRANCH  64  89
ATOM     89  C   UNL A   1      49.324  26.772  26.229  1.00  0.00     0.058 A 
ATOM     90  C   UNL A   1      49.767  26.936  24.908  1.00  0.00     0.135 A 
ATOM     91  C   UNL A   1      50.225  26.230  27.161  1.00  0.00     0.135 A 
ATOM     92  F   UNL A   1      48.944  27.444  23.977  1.00  0.00    -0.206 F 
ATOM     93  C   UNL A   1      51.048  26.558  24.519  1.00  0.00     0.059 A 
ATOM     94  C   UNL A   1      51.520  25.870  26.801  1.00  0.00     0.059 A 
ATOM     95  F   UNL A   1      49.855  26.062  28.440  1.00  0.00    -0.206 F 
ATOM     96  C   UNL A   1      51.918  26.028  25.474  1.00  0.00     0.060 A 
BRANCH  96  97
ATOM     97  S   UNL A   1      53.591  25.578  24.966  1.00  0.00     0.124 S 
ATOM     98  O   UNL A   1      53.547  25.856  23.534  1.00  0.00    -0.237 OA
ATOM     99  O   UNL A   1      54.415  26.481  25.763  1.00  0.00    -0.237 OA
ATOM    100  O   UNL A   1      53.688  24.167  25.328  1.00  0.00    -0.744 OA
ENDBRANCH  96  97
ENDBRANCH  64  89
ENDBRANCH  38  39
ENDBRANCH  30  33
ENDBRANCH  28  29
ENDBRANCH  27  28
ENDBRANCH  26  27
ENDBRANCH   1  26
TORSDOF 21
ENDMDL
