MODEL 1
REMARK VINA RESULT:     -10.8      0.000      0.000
REMARK SMILES CCC[NH2+]CC(=O)N1[C@@H](C(=O)NCCCCCCNC(=O)c2ccc(-c3c4nc(c(-c5c(F)cc(S(=O)(=O)[O-])cc5F)c5ccc([nH]5)c(-c5c(F)cc(S(=O)(=O)[O-])cc5F)c5nc(c(-c6c(F)cc(S(=O)(=O)[O-])cc6F)c6ccc3[nH]6)C=C5)C=C4)cc2)CC[C@@H]2CCCC[C@@H]21
REMARK SMILES IDX 14 1 13 2 12 3 10 4 11 5 9 7 8 8 95 9 88 10 90 11 94 12
REMARK SMILES IDX 89 13 91 14 93 15 92 16 6 17 7 18 5 19 4 20 3 23 2 24 1 25
REMARK SMILES IDX 15 26 16 27 17 28 18 29 19 30 20 31 21 33 22 34 23 35 87 36
REMARK SMILES IDX 24 37 86 38 25 39 26 40 27 41 80 42 28 43 85 44 79 45 81 46
REMARK SMILES IDX 29 47 84 48 78 49 77 50 30 52 64 53 43 54 63 55 44 56 47 57
REMARK SMILES IDX 62 58 82 59 45 60 46 61 61 63 83 64 48 65 31 66 32 67 41 68
REMARK SMILES IDX 33 69 34 70 40 71 42 72 35 73 36 74 37 75 38 76 39 77 65 78
REMARK SMILES IDX 66 79 75 80 67 81 68 82 74 83 76 84 69 85 70 86 71 87 72 88
REMARK SMILES IDX 73 89 49 90 50 91 59 92 51 93 52 94 58 95 60 96 53 97 54 98
REMARK SMILES IDX 55 99 56 100 57 101
REMARK H PARENT 12 6 4 21 4 22 19 32 81 51 47 62
REMARK Flexibility Score: inf
ROOT
ATOM      1  C   UNL A   1      38.550  22.336  26.068  1.00  0.00     0.021 C 
ENDROOT
BRANCH   1   2
ATOM      2  C   UNL A   1      37.471  23.394  25.831  1.00  0.00     0.116 C 
BRANCH   2   3
ATOM      3  N   UNL A   1      37.301  23.538  24.399  1.00  0.00    -0.354 N 
ATOM      4  C   UNL A   1      36.133  23.327  23.730  1.00  0.00     0.242 C 
ATOM      5  O   UNL A   1      36.148  22.629  22.713  1.00  0.00    -0.273 OA
ATOM      6  H   UNL A   1      38.087  23.808  23.871  1.00  0.00     0.163 HD
BRANCH   4   7
ATOM      7  C   UNL A   1      34.813  23.878  24.277  1.00  0.00     0.175 C 
ATOM      8  N   UNL A   1      33.829  22.912  24.811  1.00  0.00    -0.323 N 
ATOM      9  C   UNL A   1      32.478  23.439  25.092  1.00  0.00     0.089 C 
ATOM     10  C   UNL A   1      34.231  24.688  23.099  1.00  0.00     0.036 C 
ATOM     11  C   UNL A   1      31.914  24.231  23.912  1.00  0.00     0.012 C 
ATOM     12  C   UNL A   1      32.477  24.219  26.427  1.00  0.00     0.025 C 
ATOM     13  C   UNL A   1      32.892  25.308  23.431  1.00  0.00     0.008 C 
ATOM     14  C   UNL A   1      30.558  24.817  24.297  1.00  0.00     0.006 C 
ATOM     15  C   UNL A   1      31.546  25.427  26.582  1.00  0.00     0.002 C 
ATOM     16  C   UNL A   1      30.682  25.853  25.400  1.00  0.00     0.000 C 
BRANCH   8  17
ATOM     17  C   UNL A   1      34.140  21.714  25.453  1.00  0.00     0.278 C 
ATOM     18  O   UNL A   1      34.697  21.749  26.556  1.00  0.00    -0.268 OA
BRANCH  17  19
ATOM     19  C   UNL A   1      34.022  20.371  24.706  1.00  0.00     0.362 C 
BRANCH  19  20
ATOM     20  N   UNL A   1      32.698  20.058  24.144  1.00  0.00    -0.338 N 
ATOM     21  H   UNL A   1      31.983  20.310  24.828  1.00  0.00     0.346 HD
ATOM     22  H   UNL A   1      32.588  20.592  23.282  1.00  0.00     0.346 HD
BRANCH  20  23
ATOM     23  C   UNL A   1      32.560  18.645  23.818  1.00  0.00     0.260 C 
BRANCH  23  24
ATOM     24  C   UNL A   1      33.751  17.737  24.168  1.00  0.00     0.058 C 
ATOM     25  C   UNL A   1      34.185  16.688  23.156  1.00  0.00     0.010 C 
ENDBRANCH  23  24
ENDBRANCH  20  23
ENDBRANCH  19  20
ENDBRANCH  17  19
ENDBRANCH   8  17
ENDBRANCH   4   7
ENDBRANCH   2   3
ENDBRANCH   1   2
BRANCH   1  26
ATOM     26  C   UNL A   1      39.602  22.772  27.102  1.00  0.00     0.002 C 
BRANCH  26  27
ATOM     27  C   UNL A   1      40.929  22.015  27.001  1.00  0.00     0.002 C 
BRANCH  27  28
ATOM     28  C   UNL A   1      41.920  22.351  28.114  1.00  0.00     0.021 C 
BRANCH  28  29
ATOM     29  C   UNL A   1      43.059  23.257  27.665  1.00  0.00     0.116 C 
BRANCH  29  30
ATOM     30  N   UNL A   1      42.737  23.946  26.427  1.00  0.00    -0.352 N 
ATOM     31  C   UNL A   1      42.127  25.164  26.265  1.00  0.00     0.251 C 
ATOM     32  H   UNL A   1      42.989  23.478  25.597  1.00  0.00     0.163 HD
ATOM     33  O   UNL A   1      41.719  25.514  25.166  1.00  0.00    -0.269 OA
BRANCH  31  34
ATOM     34  C   UNL A   1      41.956  26.033  27.447  1.00  0.00     0.039 A 
ATOM     35  C   UNL A   1      42.972  26.928  27.781  1.00  0.00     0.014 A 
ATOM     36  C   UNL A   1      40.777  25.982  28.199  1.00  0.00     0.014 A 
ATOM     37  C   UNL A   1      42.786  27.807  28.847  1.00  0.00     0.010 A 
ATOM     38  C   UNL A   1      40.561  26.913  29.206  1.00  0.00     0.010 A 
ATOM     39  C   UNL A   1      41.569  27.828  29.549  1.00  0.00    -0.014 A 
BRANCH  39  40
ATOM     40  C   UNL A   1      41.332  28.803  30.642  1.00  0.00     0.031 A 
ATOM     41  C   UNL A   1      42.156  28.747  31.898  1.00  0.00     0.074 A 
ATOM     42  C   UNL A   1      40.328  29.695  30.529  1.00  0.00     0.049 A 
ATOM     43  N   UNL A   1      42.070  29.482  32.976  1.00  0.00    -0.248 NA
ATOM     44  C   UNL A   1      43.195  27.706  31.964  1.00  0.00     0.031 C 
ATOM     45  C   UNL A   1      39.417  29.800  29.387  1.00  0.00     0.029 A 
ATOM     46  N   UNL A   1      39.895  30.671  31.391  1.00  0.00    -0.354 N 
ATOM     47  C   UNL A   1      43.025  28.982  33.853  1.00  0.00     0.074 A 
ATOM     48  C   UNL A   1      43.642  27.848  33.203  1.00  0.00     0.031 C 
ATOM     49  C   UNL A   1      38.545  30.794  29.612  1.00  0.00     0.029 A 
ATOM     50  C   UNL A   1      38.805  31.370  30.928  1.00  0.00     0.049 A 
ATOM     51  H   UNL A   1      40.323  30.852  32.259  1.00  0.00     0.167 HD
ATOM     52  C   UNL A   1      43.368  29.440  35.081  1.00  0.00     0.037 A 
ATOM     53  C   UNL A   1      38.088  32.355  31.503  1.00  0.00     0.037 A 
ATOM     54  C   UNL A   1      42.757  30.583  35.710  1.00  0.00     0.049 A 
ATOM     55  C   UNL A   1      38.496  32.862  32.857  1.00  0.00     0.074 A 
ATOM     56  C   UNL A   1      43.089  31.182  36.912  1.00  0.00     0.029 A 
ATOM     57  N   UNL A   1      41.676  31.289  35.197  1.00  0.00    -0.354 N 
ATOM     58  N   UNL A   1      39.467  32.443  33.635  1.00  0.00    -0.248 NA
ATOM     59  C   UNL A   1      37.722  33.980  33.410  1.00  0.00     0.031 C 
ATOM     60  C   UNL A   1      42.169  32.209  37.156  1.00  0.00     0.029 A 
ATOM     61  C   UNL A   1      41.305  32.293  36.075  1.00  0.00     0.049 A 
ATOM     62  H   UNL A   1      41.239  31.102  34.335  1.00  0.00     0.167 HD
ATOM     63  C   UNL A   1      39.431  33.257  34.761  1.00  0.00     0.074 A 
ATOM     64  C   UNL A   1      38.353  34.204  34.555  1.00  0.00     0.031 C 
ATOM     65  C   UNL A   1      40.222  33.223  35.864  1.00  0.00     0.037 A 
BRANCH  52  66
ATOM     66  C   UNL A   1      44.438  28.690  35.830  1.00  0.00     0.058 A 
ATOM     67  C   UNL A   1      44.139  27.619  36.687  1.00  0.00     0.135 A 
ATOM     68  C   UNL A   1      45.789  29.048  35.683  1.00  0.00     0.135 A 
ATOM     69  F   UNL A   1      42.864  27.239  36.876  1.00  0.00    -0.206 F 
ATOM     70  C   UNL A   1      45.131  26.962  37.408  1.00  0.00     0.059 A 
ATOM     71  C   UNL A   1      46.802  28.382  36.367  1.00  0.00     0.059 A 
ATOM     72  F   UNL A   1      46.137  30.062  34.875  1.00  0.00    -0.206 F 
ATOM     73  C   UNL A   1      46.460  27.355  37.245  1.00  0.00     0.060 A 
BRANCH  73  74
ATOM     74  S   UNL A   1      47.734  26.511  38.206  1.00  0.00     0.124 S 
ATOM     75  O   UNL A   1      47.779  27.333  39.412  1.00  0.00    -0.237 OA
ATOM     76  O   UNL A   1      47.168  25.176  38.372  1.00  0.00    -0.237 OA
ATOM     77  O   UNL A   1      48.914  26.588  37.351  1.00  0.00    -0.744 OA
ENDBRANCH  73  74
ENDBRANCH  52  66
BRANCH  53  78
ATOM     78  C   UNL A   1      36.921  32.922  30.777  1.00  0.00     0.058 A 
ATOM     79  C   UNL A   1      35.607  32.654  31.190  1.00  0.00     0.135 A 
ATOM     80  C   UNL A   1      37.100  33.797  29.693  1.00  0.00     0.135 A 
ATOM     81  F   UNL A   1      35.384  31.818  32.215  1.00  0.00    -0.206 F 
ATOM     82  C   UNL A   1      34.512  33.234  30.556  1.00  0.00     0.059 A 
ATOM     83  C   UNL A   1      36.023  34.410  29.061  1.00  0.00     0.059 A 
ATOM     84  F   UNL A   1      38.338  34.098  29.270  1.00  0.00    -0.206 F 
ATOM     85  C   UNL A   1      34.732  34.120  29.499  1.00  0.00     0.060 A 
BRANCH  85  86
ATOM     86  S   UNL A   1      33.308  34.936  28.745  1.00  0.00     0.124 S 
ATOM     87  O   UNL A   1      32.376  34.997  29.865  1.00  0.00    -0.237 OA
ATOM     88  O   UNL A   1      33.878  36.210  28.318  1.00  0.00    -0.237 OA
ATOM     89  O   UNL A   1      32.936  34.030  27.662  1.00  0.00    -0.744 OA
ENDBRANCH  85  86
ENDBRANCH  53  78
BRANCH  65  90
ATOM     90  C   UNL A   1      39.966  34.254  36.932  1.00  0.00     0.058 A 
ATOM     91  C   UNL A   1      39.051  34.029  37.972  1.00  0.00     0.135 A 
ATOM     92  C   UNL A   1      40.691  35.456  36.946  1.00  0.00     0.135 A 
ATOM     93  F   UNL A   1      38.327  32.899  38.005  1.00  0.00    -0.206 F 
ATOM     94  C   UNL A   1      38.846  34.971  38.976  1.00  0.00     0.059 A 
ATOM     95  C   UNL A   1      40.525  36.398  37.956  1.00  0.00     0.059 A 
ATOM     96  F   UNL A   1      41.587  35.719  35.981  1.00  0.00    -0.206 F 
ATOM     97  C   UNL A   1      39.591  36.152  38.961  1.00  0.00     0.060 A 
BRANCH  97  98
ATOM     98  S   UNL A   1      39.340  37.349  40.288  1.00  0.00     0.124 S 
ATOM     99  O   UNL A   1      38.603  36.555  41.266  1.00  0.00    -0.237 OA
ATOM    100  O   UNL A   1      40.708  37.699  40.656  1.00  0.00    -0.237 OA
ATOM    101  O   UNL A   1      38.578  38.416  39.645  1.00  0.00    -0.744 OA
ENDBRANCH  97  98
ENDBRANCH  65  90
ENDBRANCH  39  40
ENDBRANCH  31  34
ENDBRANCH  29  30
ENDBRANCH  28  29
ENDBRANCH  27  28
ENDBRANCH  26  27
ENDBRANCH   1  26
TORSDOF 21
ENDMDL
MODEL 2
REMARK VINA RESULT:     -10.6      0.772      8.199
REMARK SMILES CCC[NH2+]CC(=O)N1[C@@H](C(=O)NCCCCCCNC(=O)c2ccc(-c3c4nc(c(-c5c(F)cc(S(=O)(=O)[O-])cc5F)c5ccc([nH]5)c(-c5c(F)cc(S(=O)(=O)[O-])cc5F)c5nc(c(-c6c(F)cc(S(=O)(=O)[O-])cc6F)c6ccc3[nH]6)C=C5)C=C4)cc2)CC[C@@H]2CCCC[C@@H]21
REMARK SMILES IDX 14 1 13 2 12 3 10 4 11 5 9 7 8 8 95 9 88 10 90 11 94 12
REMARK SMILES IDX 89 13 91 14 93 15 92 16 6 17 7 18 5 19 4 20 3 23 2 24 1 25
REMARK SMILES IDX 15 26 16 27 17 28 18 29 19 30 20 31 21 33 22 34 23 35 87 36
REMARK SMILES IDX 24 37 86 38 25 39 26 40 27 41 80 42 28 43 85 44 79 45 81 46
REMARK SMILES IDX 29 47 84 48 78 49 77 50 30 52 64 53 43 54 63 55 44 56 47 57
REMARK SMILES IDX 62 58 82 59 45 60 46 61 61 63 83 64 48 65 31 66 32 67 41 68
REMARK SMILES IDX 33 69 34 70 40 71 42 72 35 73 36 74 37 75 38 76 39 77 65 78
REMARK SMILES IDX 66 79 75 80 67 81 68 82 74 83 76 84 69 85 70 86 71 87 72 88
REMARK SMILES IDX 73 89 49 90 50 91 59 92 51 93 52 94 58 95 60 96 53 97 54 98
REMARK SMILES IDX 55 99 56 100 57 101
REMARK H PARENT 12 6 4 21 4 22 19 32 81 51 47 62
REMARK Flexibility Score: inf
ROOT
ATOM      1  C   UNL A   1      39.092  21.929  26.054  1.00  0.00     0.021 C 
ENDROOT
BRANCH   1   2
ATOM      2  C   UNL A   1      37.855  22.826  26.011  1.00  0.00     0.116 C 
BRANCH   2   3
ATOM      3  N   UNL A   1      37.665  23.251  24.638  1.00  0.00    -0.354 N 
ATOM      4  C   UNL A   1      36.538  23.028  23.905  1.00  0.00     0.242 C 
ATOM      5  O   UNL A   1      36.651  22.574  22.764  1.00  0.00    -0.273 OA
ATOM      6  H   UNL A   1      38.403  23.735  24.203  1.00  0.00     0.163 HD
BRANCH   4   7
ATOM      7  C   UNL A   1      35.153  23.258  24.518  1.00  0.00     0.175 C 
ATOM      8  N   UNL A   1      34.250  22.094  24.643  1.00  0.00    -0.323 N 
ATOM      9  C   UNL A   1      32.846  22.387  24.995  1.00  0.00     0.089 C 
ATOM     10  C   UNL A   1      34.535  24.364  23.636  1.00  0.00     0.036 C 
ATOM     11  C   UNL A   1      32.247  23.478  24.106  1.00  0.00     0.012 C 
ATOM     12  C   UNL A   1      32.725  22.678  26.509  1.00  0.00     0.025 C 
ATOM     13  C   UNL A   1      33.132  24.728  24.068  1.00  0.00     0.008 C 
ATOM     14  C   UNL A   1      30.829  23.793  24.576  1.00  0.00     0.006 C 
ATOM     15  C   UNL A   1      31.677  23.687  26.992  1.00  0.00     0.002 C 
ATOM     16  C   UNL A   1      30.816  24.411  25.962  1.00  0.00     0.000 C 
BRANCH   8  17
ATOM     17  C   UNL A   1      34.654  20.779  24.875  1.00  0.00     0.278 C 
ATOM     18  O   UNL A   1      35.834  20.556  25.168  1.00  0.00    -0.268 OA
BRANCH  17  19
ATOM     19  C   UNL A   1      33.720  19.601  24.535  1.00  0.00     0.362 C 
BRANCH  19  20
ATOM     20  N   UNL A   1      33.497  18.622  25.612  1.00  0.00    -0.338 N 
ATOM     21  H   UNL A   1      34.384  18.170  25.833  1.00  0.00     0.346 HD
ATOM     22  H   UNL A   1      33.126  19.123  26.419  1.00  0.00     0.346 HD
BRANCH  20  23
ATOM     23  C   UNL A   1      32.529  17.601  25.233  1.00  0.00     0.260 C 
BRANCH  23  24
ATOM     24  C   UNL A   1      32.920  16.678  24.068  1.00  0.00     0.058 C 
ATOM     25  C   UNL A   1      34.378  16.636  23.635  1.00  0.00     0.010 C 
ENDBRANCH  23  24
ENDBRANCH  20  23
ENDBRANCH  19  20
ENDBRANCH  17  19
ENDBRANCH   8  17
ENDBRANCH   4   7
ENDBRANCH   2   3
ENDBRANCH   1   2
BRANCH   1  26
ATOM     26  C   UNL A   1      40.022  22.243  27.238  1.00  0.00     0.002 C 
BRANCH  26  27
ATOM     27  C   UNL A   1      41.494  21.910  26.982  1.00  0.00     0.002 C 
BRANCH  27  28
ATOM     28  C   UNL A   1      42.463  22.622  27.925  1.00  0.00     0.021 C 
BRANCH  28  29
ATOM     29  C   UNL A   1      43.353  23.644  27.230  1.00  0.00     0.116 C 
BRANCH  29  30
ATOM     30  N   UNL A   1      42.673  24.269  26.108  1.00  0.00    -0.352 N 
ATOM     31  C   UNL A   1      41.800  25.328  26.126  1.00  0.00     0.251 C 
ATOM     32  H   UNL A   1      42.863  23.884  25.222  1.00  0.00     0.163 HD
ATOM     33  O   UNL A   1      41.134  25.601  25.138  1.00  0.00    -0.269 OA
BRANCH  31  34
ATOM     34  C   UNL A   1      41.667  26.115  27.369  1.00  0.00     0.039 A 
ATOM     35  C   UNL A   1      42.531  27.188  27.585  1.00  0.00     0.014 A 
ATOM     36  C   UNL A   1      40.666  25.809  28.297  1.00  0.00     0.014 A 
ATOM     37  C   UNL A   1      42.362  27.985  28.717  1.00  0.00     0.010 A 
ATOM     38  C   UNL A   1      40.448  26.653  29.379  1.00  0.00     0.010 A 
ATOM     39  C   UNL A   1      41.301  27.743  29.606  1.00  0.00    -0.014 A 
BRANCH  39  40
ATOM     40  C   UNL A   1      41.069  28.623  30.778  1.00  0.00     0.031 A 
ATOM     41  C   UNL A   1      39.965  29.644  30.751  1.00  0.00     0.074 A 
ATOM     42  C   UNL A   1      41.897  28.548  31.838  1.00  0.00     0.049 A 
ATOM     43  N   UNL A   1      39.636  30.528  31.657  1.00  0.00    -0.248 NA
ATOM     44  C   UNL A   1      39.142  29.699  29.532  1.00  0.00     0.031 C 
ATOM     45  C   UNL A   1      43.044  27.645  31.951  1.00  0.00     0.029 A 
ATOM     46  N   UNL A   1      41.913  29.252  33.016  1.00  0.00    -0.354 N 
ATOM     47  C   UNL A   1      38.585  31.256  31.111  1.00  0.00     0.074 A 
ATOM     48  C   UNL A   1      38.367  30.745  29.776  1.00  0.00     0.031 C 
ATOM     49  C   UNL A   1      43.641  27.838  33.136  1.00  0.00     0.029 A 
ATOM     50  C   UNL A   1      42.947  28.905  33.852  1.00  0.00     0.049 A 
ATOM     51  H   UNL A   1      41.246  29.941  33.240  1.00  0.00     0.167 HD
ATOM     52  C   UNL A   1      37.857  32.246  31.680  1.00  0.00     0.037 A 
ATOM     53  C   UNL A   1      43.306  29.399  35.053  1.00  0.00     0.037 A 
ATOM     54  C   UNL A   1      38.073  32.733  33.018  1.00  0.00     0.049 A 
ATOM     55  C   UNL A   1      42.475  30.484  35.676  1.00  0.00     0.074 A 
ATOM     56  C   UNL A   1      37.338  33.670  33.722  1.00  0.00     0.029 A 
ATOM     57  N   UNL A   1      39.112  32.334  33.850  1.00  0.00    -0.354 N 
ATOM     58  N   UNL A   1      41.420  31.096  35.188  1.00  0.00    -0.248 NA
ATOM     59  C   UNL A   1      42.870  30.940  37.014  1.00  0.00     0.031 C 
ATOM     60  C   UNL A   1      37.969  33.886  34.952  1.00  0.00     0.029 A 
ATOM     61  C   UNL A   1      39.059  33.035  35.044  1.00  0.00     0.049 A 
ATOM     62  H   UNL A   1      39.786  31.654  33.624  1.00  0.00     0.167 HD
ATOM     63  C   UNL A   1      41.017  31.998  36.166  1.00  0.00     0.074 A 
ATOM     64  C   UNL A   1      41.930  31.839  37.280  1.00  0.00     0.031 C 
ATOM     65  C   UNL A   1      39.982  32.875  36.143  1.00  0.00     0.037 A 
BRANCH  52  66
ATOM     66  C   UNL A   1      36.773  32.880  30.848  1.00  0.00     0.058 A 
ATOM     67  C   UNL A   1      37.053  33.850  29.871  1.00  0.00     0.135 A 
ATOM     68  C   UNL A   1      35.430  32.506  31.028  1.00  0.00     0.135 A 
ATOM     69  F   UNL A   1      38.316  34.256  29.662  1.00  0.00    -0.206 F 
ATOM     70  C   UNL A   1      36.040  34.461  29.139  1.00  0.00     0.059 A 
ATOM     71  C   UNL A   1      34.404  33.078  30.282  1.00  0.00     0.059 A 
ATOM     72  F   UNL A   1      35.102  31.581  31.944  1.00  0.00    -0.206 F 
ATOM     73  C   UNL A   1      34.717  34.072  29.356  1.00  0.00     0.060 A 
BRANCH  73  74
ATOM     74  S   UNL A   1      33.411  34.892  28.417  1.00  0.00     0.124 S 
ATOM     75  O   UNL A   1      34.173  35.889  27.672  1.00  0.00    -0.237 OA
ATOM     76  O   UNL A   1      32.860  33.796  27.626  1.00  0.00    -0.237 OA
ATOM     77  O   UNL A   1      32.528  35.421  29.451  1.00  0.00    -0.744 OA
ENDBRANCH  73  74
ENDBRANCH  52  66
BRANCH  53  78
ATOM     78  C   UNL A   1      44.507  28.848  35.735  1.00  0.00     0.058 A 
ATOM     79  C   UNL A   1      45.778  29.405  35.532  1.00  0.00     0.135 A 
ATOM     80  C   UNL A   1      44.395  27.793  36.654  1.00  0.00     0.135 A 
ATOM     81  F   UNL A   1      45.939  30.410  34.658  1.00  0.00    -0.206 F 
ATOM     82  C   UNL A   1      46.896  28.937  36.218  1.00  0.00     0.059 A 
ATOM     83  C   UNL A   1      45.492  27.326  37.371  1.00  0.00     0.059 A 
ATOM     84  F   UNL A   1      43.197  27.237  36.896  1.00  0.00    -0.206 F 
ATOM     85  C   UNL A   1      46.740  27.904  37.144  1.00  0.00     0.060 A 
BRANCH  85  86
ATOM     86  S   UNL A   1      48.180  27.368  38.093  1.00  0.00     0.124 S 
ATOM     87  O   UNL A   1      48.431  28.535  38.931  1.00  0.00    -0.237 OA
ATOM     88  O   UNL A   1      47.669  26.185  38.778  1.00  0.00    -0.237 OA
ATOM     89  O   UNL A   1      49.181  27.103  37.063  1.00  0.00    -0.744 OA
ENDBRANCH  85  86
ENDBRANCH  53  78
BRANCH  65  90
ATOM     90  C   UNL A   1      39.764  33.724  37.368  1.00  0.00     0.058 A 
ATOM     91  C   UNL A   1      40.464  34.924  37.569  1.00  0.00     0.135 A 
ATOM     92  C   UNL A   1      38.801  33.360  38.322  1.00  0.00     0.135 A 
ATOM     93  F   UNL A   1      41.401  35.318  36.691  1.00  0.00    -0.206 F 
ATOM     94  C   UNL A   1      40.232  35.722  38.686  1.00  0.00     0.059 A 
ATOM     95  C   UNL A   1      38.531  34.156  39.429  1.00  0.00     0.059 A 
ATOM     96  F   UNL A   1      38.096  32.227  38.174  1.00  0.00    -0.206 F 
ATOM     97  C   UNL A   1      39.261  35.330  39.609  1.00  0.00     0.060 A 
BRANCH  97  98
ATOM     98  S   UNL A   1      38.946  36.392  41.035  1.00  0.00     0.124 S 
ATOM     99  O   UNL A   1      38.012  35.579  41.807  1.00  0.00    -0.237 OA
ATOM    100  O   UNL A   1      40.278  36.546  41.610  1.00  0.00    -0.237 OA
ATOM    101  O   UNL A   1      38.381  37.601  40.442  1.00  0.00    -0.744 OA
ENDBRANCH  97  98
ENDBRANCH  65  90
ENDBRANCH  39  40
ENDBRANCH  31  34
ENDBRANCH  29  30
ENDBRANCH  28  29
ENDBRANCH  27  28
ENDBRANCH  26  27
ENDBRANCH   1  26
TORSDOF 21
ENDMDL
MODEL 3
REMARK VINA RESULT:     -10.5      3.118      9.280
REMARK SMILES CCC[NH2+]CC(=O)N1[C@@H](C(=O)NCCCCCCNC(=O)c2ccc(-c3c4nc(c(-c5c(F)cc(S(=O)(=O)[O-])cc5F)c5ccc([nH]5)c(-c5c(F)cc(S(=O)(=O)[O-])cc5F)c5nc(c(-c6c(F)cc(S(=O)(=O)[O-])cc6F)c6ccc3[nH]6)C=C5)C=C4)cc2)CC[C@@H]2CCCC[C@@H]21
REMARK SMILES IDX 14 1 13 2 12 3 10 4 11 5 9 7 8 8 95 9 88 10 90 11 94 12
REMARK SMILES IDX 89 13 91 14 93 15 92 16 6 17 7 18 5 19 4 20 3 23 2 24 1 25
REMARK SMILES IDX 15 26 16 27 17 28 18 29 19 30 20 31 21 33 22 34 23 35 87 36
REMARK SMILES IDX 24 37 86 38 25 39 26 40 27 41 80 42 28 43 85 44 79 45 81 46
REMARK SMILES IDX 29 47 84 48 78 49 77 50 30 52 64 53 43 54 63 55 44 56 47 57
REMARK SMILES IDX 62 58 82 59 45 60 46 61 61 63 83 64 48 65 31 66 32 67 41 68
REMARK SMILES IDX 33 69 34 70 40 71 42 72 35 73 36 74 37 75 38 76 39 77 65 78
REMARK SMILES IDX 66 79 75 80 67 81 68 82 74 83 76 84 69 85 70 86 71 87 72 88
REMARK SMILES IDX 73 89 49 90 50 91 59 92 51 93 52 94 58 95 60 96 53 97 54 98
REMARK SMILES IDX 55 99 56 100 57 101
REMARK H PARENT 12 6 4 21 4 22 19 32 81 51 47 62
REMARK Flexibility Score: inf
ROOT
ATOM      1  C   UNL A   1      35.310  30.350  27.434  1.00  0.00     0.021 C 
ENDROOT
BRANCH   1   2
ATOM      2  C   UNL A   1      34.786  29.029  26.868  1.00  0.00     0.116 C 
BRANCH   2   3
ATOM      3  N   UNL A   1      33.612  28.656  27.631  1.00  0.00    -0.354 N 
ATOM      4  C   UNL A   1      32.450  28.193  27.090  1.00  0.00     0.242 C 
ATOM      5  O   UNL A   1      31.383  28.688  27.462  1.00  0.00    -0.273 OA
ATOM      6  H   UNL A   1      33.656  28.744  28.610  1.00  0.00     0.163 HD
BRANCH   4   7
ATOM      7  C   UNL A   1      32.474  27.136  25.981  1.00  0.00     0.175 C 
ATOM      8  N   UNL A   1      31.892  27.497  24.671  1.00  0.00    -0.323 N 
ATOM      9  C   UNL A   1      31.699  26.390  23.712  1.00  0.00     0.089 C 
ATOM     10  C   UNL A   1      31.755  25.924  26.608  1.00  0.00     0.036 C 
ATOM     11  C   UNL A   1      30.977  25.200  24.347  1.00  0.00     0.012 C 
ATOM     12  C   UNL A   1      33.044  26.022  23.044  1.00  0.00     0.025 C 
ATOM     13  C   UNL A   1      31.651  24.757  25.650  1.00  0.00     0.008 C 
ATOM     14  C   UNL A   1      30.887  24.062  23.333  1.00  0.00     0.006 C 
ATOM     15  C   UNL A   1      33.307  24.563  22.655  1.00  0.00     0.002 C 
ATOM     16  C   UNL A   1      32.255  23.508  22.980  1.00  0.00     0.000 C 
BRANCH   8  17
ATOM     17  C   UNL A   1      31.901  28.772  24.106  1.00  0.00     0.278 C 
ATOM     18  O   UNL A   1      32.984  29.330  23.898  1.00  0.00    -0.268 OA
BRANCH  17  19
ATOM     19  C   UNL A   1      30.594  29.577  23.967  1.00  0.00     0.362 C 
BRANCH  19  20
ATOM     20  N   UNL A   1      29.782  29.289  22.773  1.00  0.00    -0.338 N 
ATOM     21  H   UNL A   1      30.189  29.775  21.974  1.00  0.00     0.346 HD
ATOM     22  H   UNL A   1      29.781  28.279  22.630  1.00  0.00     0.346 HD
BRANCH  20  23
ATOM     23  C   UNL A   1      28.399  29.720  22.933  1.00  0.00     0.260 C 
BRANCH  23  24
ATOM     24  C   UNL A   1      28.179  31.121  23.529  1.00  0.00     0.058 C 
ATOM     25  C   UNL A   1      28.380  32.330  22.629  1.00  0.00     0.010 C 
ENDBRANCH  23  24
ENDBRANCH  20  23
ENDBRANCH  19  20
ENDBRANCH  17  19
ENDBRANCH   8  17
ENDBRANCH   4   7
ENDBRANCH   2   3
ENDBRANCH   1   2
BRANCH   1  26
ATOM     26  C   UNL A   1      34.211  31.200  28.093  1.00  0.00     0.002 C 
BRANCH  26  27
ATOM     27  C   UNL A   1      34.653  32.620  28.457  1.00  0.00     0.002 C 
BRANCH  27  28
ATOM     28  C   UNL A   1      33.572  33.679  28.240  1.00  0.00     0.021 C 
BRANCH  28  29
ATOM     29  C   UNL A   1      33.969  35.065  28.730  1.00  0.00     0.116 C 
BRANCH  29  30
ATOM     30  N   UNL A   1      33.042  35.563  29.732  1.00  0.00    -0.352 N 
ATOM     31  C   UNL A   1      33.027  35.304  31.080  1.00  0.00     0.251 C 
ATOM     32  H   UNL A   1      32.335  36.163  29.403  1.00  0.00     0.163 HD
ATOM     33  O   UNL A   1      32.058  35.610  31.760  1.00  0.00    -0.269 OA
BRANCH  31  34
ATOM     34  C   UNL A   1      34.193  34.630  31.685  1.00  0.00     0.039 A 
ATOM     35  C   UNL A   1      34.043  33.337  32.186  1.00  0.00     0.014 A 
ATOM     36  C   UNL A   1      35.438  35.268  31.724  1.00  0.00     0.014 A 
ATOM     37  C   UNL A   1      35.156  32.664  32.687  1.00  0.00     0.010 A 
ATOM     38  C   UNL A   1      36.559  34.566  32.147  1.00  0.00     0.010 A 
ATOM     39  C   UNL A   1      36.428  33.260  32.644  1.00  0.00    -0.014 A 
BRANCH  39  40
ATOM     40  C   UNL A   1      37.632  32.530  33.112  1.00  0.00     0.031 A 
ATOM     41  C   UNL A   1      38.310  32.930  34.393  1.00  0.00     0.074 A 
ATOM     42  C   UNL A   1      38.152  31.550  32.347  1.00  0.00     0.049 A 
ATOM     43  N   UNL A   1      39.392  32.443  34.941  1.00  0.00    -0.248 NA
ATOM     44  C   UNL A   1      37.709  34.047  35.140  1.00  0.00     0.031 C 
ATOM     45  C   UNL A   1      37.622  31.119  31.052  1.00  0.00     0.029 A 
ATOM     46  N   UNL A   1      39.251  30.751  32.538  1.00  0.00    -0.354 N 
ATOM     47  C   UNL A   1      39.614  33.204  36.083  1.00  0.00     0.074 A 
ATOM     48  C   UNL A   1      38.585  34.219  36.119  1.00  0.00     0.031 C 
ATOM     49  C   UNL A   1      38.385  30.125  30.573  1.00  0.00     0.029 A 
ATOM     50  C   UNL A   1      39.482  29.874  31.504  1.00  0.00     0.049 A 
ATOM     51  H   UNL A   1      39.821  30.801  33.340  1.00  0.00     0.167 HD
ATOM     52  C   UNL A   1      40.577  33.056  37.024  1.00  0.00     0.037 A 
ATOM     53  C   UNL A   1      40.472  28.979  31.320  1.00  0.00     0.037 A 
ATOM     54  C   UNL A   1      41.585  32.029  36.985  1.00  0.00     0.049 A 
ATOM     55  C   UNL A   1      41.520  28.817  32.384  1.00  0.00     0.074 A 
ATOM     56  C   UNL A   1      42.553  31.738  37.930  1.00  0.00     0.029 A 
ATOM     57  N   UNL A   1      41.769  31.136  35.937  1.00  0.00    -0.354 N 
ATOM     58  N   UNL A   1      41.660  29.479  33.509  1.00  0.00    -0.248 NA
ATOM     59  C   UNL A   1      42.538  27.783  32.163  1.00  0.00     0.031 C 
ATOM     60  C   UNL A   1      43.360  30.712  37.426  1.00  0.00     0.029 A 
ATOM     61  C   UNL A   1      42.857  30.318  36.195  1.00  0.00     0.049 A 
ATOM     62  H   UNL A   1      41.208  31.091  35.130  1.00  0.00     0.167 HD
ATOM     63  C   UNL A   1      42.772  28.931  34.138  1.00  0.00     0.074 A 
ATOM     64  C   UNL A   1      43.256  27.871  33.276  1.00  0.00     0.031 C 
ATOM     65  C   UNL A   1      43.337  29.273  35.323  1.00  0.00     0.037 A 
BRANCH  52  66
ATOM     66  C   UNL A   1      40.595  34.042  38.163  1.00  0.00     0.058 A 
ATOM     67  C   UNL A   1      41.330  35.238  38.104  1.00  0.00     0.135 A 
ATOM     68  C   UNL A   1      39.858  33.789  39.332  1.00  0.00     0.135 A 
ATOM     69  F   UNL A   1      42.063  35.529  37.017  1.00  0.00    -0.206 F 
ATOM     70  C   UNL A   1      41.375  36.120  39.179  1.00  0.00     0.059 A 
ATOM     71  C   UNL A   1      39.859  34.674  40.406  1.00  0.00     0.059 A 
ATOM     72  F   UNL A   1      39.133  32.664  39.445  1.00  0.00    -0.206 F 
ATOM     73  C   UNL A   1      40.640  35.826  40.328  1.00  0.00     0.060 A 
BRANCH  73  74
ATOM     74  S   UNL A   1      40.728  36.967  41.724  1.00  0.00     0.124 S 
ATOM     75  O   UNL A   1      41.837  37.828  41.325  1.00  0.00    -0.237 OA
ATOM     76  O   UNL A   1      39.407  37.588  41.704  1.00  0.00    -0.237 OA
ATOM     77  O   UNL A   1      40.991  36.094  42.863  1.00  0.00    -0.744 OA
ENDBRANCH  73  74
ENDBRANCH  52  66
BRANCH  53  78
ATOM     78  C   UNL A   1      40.494  28.168  30.074  1.00  0.00     0.058 A 
ATOM     79  C   UNL A   1      41.441  28.404  29.068  1.00  0.00     0.135 A 
ATOM     80  C   UNL A   1      39.604  27.096  29.896  1.00  0.00     0.135 A 
ATOM     81  F   UNL A   1      42.308  29.421  29.188  1.00  0.00    -0.206 F 
ATOM     82  C   UNL A   1      41.510  27.606  27.930  1.00  0.00     0.059 A 
ATOM     83  C   UNL A   1      39.670  26.267  28.779  1.00  0.00     0.059 A 
ATOM     84  F   UNL A   1      38.688  26.818  30.837  1.00  0.00    -0.206 F 
ATOM     85  C   UNL A   1      40.626  26.532  27.801  1.00  0.00     0.060 A 
BRANCH  85  86
ATOM     86  S   UNL A   1      40.784  25.450  26.364  1.00  0.00     0.124 S 
ATOM     87  O   UNL A   1      41.180  26.395  25.325  1.00  0.00    -0.237 OA
ATOM     88  O   UNL A   1      41.813  24.512  26.801  1.00  0.00    -0.237 OA
ATOM     89  O   UNL A   1      39.447  24.880  26.223  1.00  0.00    -0.744 OA
ENDBRANCH  85  86
ENDBRANCH  53  78
BRANCH  65  90
ATOM     90  C   UNL A   1      44.536  28.482  35.774  1.00  0.00     0.058 A 
ATOM     91  C   UNL A   1      44.405  27.312  36.537  1.00  0.00     0.135 A 
ATOM     92  C   UNL A   1      45.829  28.869  35.387  1.00  0.00     0.135 A 
ATOM     93  F   UNL A   1      43.193  26.897  36.940  1.00  0.00    -0.206 F 
ATOM     94  C   UNL A   1      45.516  26.565  36.921  1.00  0.00     0.059 A 
ATOM     95  C   UNL A   1      46.951  28.123  35.732  1.00  0.00     0.059 A 
ATOM     96  F   UNL A   1      46.011  29.975  34.648  1.00  0.00    -0.206 F 
ATOM     97  C   UNL A   1      46.785  26.978  36.510  1.00  0.00     0.060 A 
BRANCH  97  98
ATOM     98  S   UNL A   1      48.214  25.982  36.985  1.00  0.00     0.124 S 
ATOM     99  O   UNL A   1      47.583  24.720  37.358  1.00  0.00    -0.237 OA
ATOM    100  O   UNL A   1      49.000  25.959  35.756  1.00  0.00    -0.237 OA
ATOM    101  O   UNL A   1      48.804  26.737  38.086  1.00  0.00    -0.744 OA
ENDBRANCH  97  98
ENDBRANCH  65  90
ENDBRANCH  39  40
ENDBRANCH  31  34
ENDBRANCH  29  30
ENDBRANCH  28  29
ENDBRANCH  27  28
ENDBRANCH  26  27
ENDBRANCH   1  26
TORSDOF 21
ENDMDL
