MODEL 1
REMARK VINA RESULT:     -12.2      0.000      0.000
REMARK SMILES CC1(C)[C@H](C(=O)NCCCCCCNC(=O)c2ccc(-c3c4nc(c(-c5c(F)cc(S(=O)(=O)[O-])cc5F)c5ccc([nH]5)c(-c5c(F)cc(S(=O)(=O)[O-])cc5F)c5nc(c(-c6c(F)cc(S(=O)(=O)[O-])cc6F)c6ccc3[nH]6)C=C5)C=C4)cc2)[C@H]1C(=O)Nc1cccc2[nH]ccc12
REMARK SMILES IDX 11 1 10 2 9 3 8 4 7 5 5 6 6 7 4 9 1 10 2 11 3 12 83 13 84 14
REMARK SMILES IDX 85 15 86 16 87 18 88 19 95 20 89 21 91 22 94 23 90 24 92 25
REMARK SMILES IDX 93 26 12 28 13 29 14 30 15 31 16 33 17 34 18 35 82 36 19 37
REMARK SMILES IDX 81 38 20 39 21 40 22 41 75 42 23 43 80 44 74 45 76 46 24 47
REMARK SMILES IDX 79 48 73 49 72 50 25 52 59 53 38 54 58 55 39 56 42 57 57 58
REMARK SMILES IDX 77 59 40 60 41 61 56 63 78 64 43 65 26 66 27 67 36 68 28 69
REMARK SMILES IDX 29 70 35 71 37 72 30 73 31 74 32 75 33 76 34 77 60 78 61 79
REMARK SMILES IDX 70 80 62 81 63 82 69 83 71 84 64 85 65 86 66 87 67 88 68 89
REMARK SMILES IDX 44 90 45 91 54 92 46 93 47 94 53 95 55 96 48 97 49 98 50 99
REMARK SMILES IDX 51 100 52 101
REMARK H PARENT 7 8 86 17 92 27 14 32 76 51 42 62
REMARK Flexibility Score: inf
ROOT
ATOM      1  C   UNL A   1      33.261  29.105  26.712  1.00  0.00     0.002 C 
ENDROOT
BRANCH   1   2
ATOM      2  C   UNL A   1      32.520  29.335  25.391  1.00  0.00     0.002 C 
BRANCH   2   3
ATOM      3  C   UNL A   1      33.315  28.977  24.131  1.00  0.00     0.021 C 
BRANCH   3   4
ATOM      4  C   UNL A   1      32.480  28.920  22.851  1.00  0.00     0.116 C 
BRANCH   4   5
ATOM      5  N   UNL A   1      32.957  27.899  21.958  1.00  0.00    -0.356 N 
ATOM      6  C   UNL A   1      33.062  26.542  22.041  1.00  0.00     0.224 C 
ATOM      7  O   UNL A   1      33.517  25.988  21.035  1.00  0.00    -0.275 OA
ATOM      8  H   UNL A   1      33.277  28.257  21.098  1.00  0.00     0.163 HD
BRANCH   6   9
ATOM      9  C   UNL A   1      32.692  25.661  23.182  1.00  0.00     0.098 C 
ATOM     10  C   UNL A   1      31.144  23.805  23.911  1.00  0.00     0.013 C 
ATOM     11  C   UNL A   1      32.470  24.145  23.285  1.00  0.00    -0.011 C 
ATOM     12  C   UNL A   1      32.905  22.992  22.421  1.00  0.00     0.013 C 
ATOM     13  C   UNL A   1      33.643  24.856  23.991  1.00  0.00     0.098 C 
BRANCH  13  14
ATOM     14  C   UNL A   1      33.882  24.791  25.465  1.00  0.00     0.228 C 
ATOM     15  O   UNL A   1      33.415  25.707  26.144  1.00  0.00    -0.274 OA
ATOM     16  N   UNL A   1      34.328  23.668  26.120  1.00  0.00    -0.325 N 
ATOM     17  H   UNL A   1      33.859  23.455  26.959  1.00  0.00     0.169 HD
BRANCH  16  18
ATOM     18  C   UNL A   1      35.351  22.785  25.767  1.00  0.00     0.050 A 
ATOM     19  C   UNL A   1      36.657  23.283  25.704  1.00  0.00     0.027 A 
ATOM     20  C   UNL A   1      35.112  21.463  25.332  1.00  0.00     0.023 A 
ATOM     21  C   UNL A   1      37.727  22.436  25.426  1.00  0.00     0.004 A 
ATOM     22  C   UNL A   1      36.207  20.618  25.129  1.00  0.00     0.047 A 
ATOM     23  C   UNL A   1      33.958  20.708  24.958  1.00  0.00     0.030 A 
ATOM     24  C   UNL A   1      37.528  21.071  25.198  1.00  0.00     0.027 A 
ATOM     25  N   UNL A   1      35.711  19.355  24.895  1.00  0.00    -0.361 N 
ATOM     26  C   UNL A   1      34.352  19.407  24.741  1.00  0.00     0.083 A 
ATOM     27  H   UNL A   1      36.254  18.536  24.846  1.00  0.00     0.166 HD
ENDBRANCH  16  18
ENDBRANCH  13  14
ENDBRANCH   6   9
ENDBRANCH   4   5
ENDBRANCH   3   4
ENDBRANCH   2   3
ENDBRANCH   1   2
BRANCH   1  28
ATOM     28  C   UNL A   1      34.104  30.285  27.203  1.00  0.00     0.021 C 
BRANCH  28  29
ATOM     29  C   UNL A   1      35.359  29.891  27.977  1.00  0.00     0.116 C 
BRANCH  29  30
ATOM     30  N   UNL A   1      35.402  30.527  29.284  1.00  0.00    -0.352 N 
ATOM     31  C   UNL A   1      36.423  30.564  30.201  1.00  0.00     0.251 C 
ATOM     32  H   UNL A   1      34.580  30.999  29.550  1.00  0.00     0.163 HD
ATOM     33  O   UNL A   1      36.193  30.917  31.354  1.00  0.00    -0.269 OA
BRANCH  31  34
ATOM     34  C   UNL A   1      37.792  30.179  29.799  1.00  0.00     0.039 A 
ATOM     35  C   UNL A   1      38.741  29.916  30.790  1.00  0.00     0.014 A 
ATOM     36  C   UNL A   1      38.150  30.116  28.449  1.00  0.00     0.014 A 
ATOM     37  C   UNL A   1      40.038  29.550  30.426  1.00  0.00     0.010 A 
ATOM     38  C   UNL A   1      39.423  29.684  28.087  1.00  0.00     0.010 A 
ATOM     39  C   UNL A   1      40.384  29.409  29.072  1.00  0.00    -0.014 A 
BRANCH  39  40
ATOM     40  C   UNL A   1      41.752  28.990  28.668  1.00  0.00     0.031 A 
ATOM     41  C   UNL A   1      42.860  30.005  28.595  1.00  0.00     0.074 A 
ATOM     42  C   UNL A   1      41.977  27.709  28.317  1.00  0.00     0.049 A 
ATOM     43  N   UNL A   1      44.102  29.844  28.214  1.00  0.00    -0.248 NA
ATOM     44  C   UNL A   1      42.525  31.387  28.973  1.00  0.00     0.031 C 
ATOM     45  C   UNL A   1      40.969  26.647  28.299  1.00  0.00     0.029 A 
ATOM     46  N   UNL A   1      43.125  27.084  27.899  1.00  0.00    -0.354 N 
ATOM     47  C   UNL A   1      44.690  31.102  28.294  1.00  0.00     0.074 A 
ATOM     48  C   UNL A   1      43.656  32.025  28.708  1.00  0.00     0.031 C 
ATOM     49  C   UNL A   1      41.547  25.499  27.910  1.00  0.00     0.029 A 
ATOM     50  C   UNL A   1      42.955  25.748  27.621  1.00  0.00     0.049 A 
ATOM     51  H   UNL A   1      43.988  27.548  27.807  1.00  0.00     0.167 HD
ATOM     52  C   UNL A   1      45.978  31.451  28.064  1.00  0.00     0.037 A 
ATOM     53  C   UNL A   1      43.835  24.829  27.176  1.00  0.00     0.037 A 
ATOM     54  C   UNL A   1      47.008  30.519  27.680  1.00  0.00     0.049 A 
ATOM     55  C   UNL A   1      45.265  25.238  26.945  1.00  0.00     0.074 A 
ATOM     56  C   UNL A   1      48.356  30.761  27.481  1.00  0.00     0.029 A 
ATOM     57  N   UNL A   1      46.805  29.169  27.438  1.00  0.00    -0.354 N 
ATOM     58  N   UNL A   1      45.817  26.420  27.085  1.00  0.00    -0.248 NA
ATOM     59  C   UNL A   1      46.193  24.188  26.504  1.00  0.00     0.031 C 
ATOM     60  C   UNL A   1      48.960  29.565  27.079  1.00  0.00     0.029 A 
ATOM     61  C   UNL A   1      47.998  28.567  27.076  1.00  0.00     0.049 A 
ATOM     62  H   UNL A   1      45.939  28.706  27.513  1.00  0.00     0.167 HD
ATOM     63  C   UNL A   1      47.163  26.249  26.780  1.00  0.00     0.074 A 
ATOM     64  C   UNL A   1      47.342  24.847  26.459  1.00  0.00     0.031 C 
ATOM     65  C   UNL A   1      48.160  27.168  26.768  1.00  0.00     0.037 A 
BRANCH  52  66
ATOM     66  C   UNL A   1      46.351  32.900  28.230  1.00  0.00     0.058 A 
ATOM     67  C   UNL A   1      46.273  33.808  27.162  1.00  0.00     0.135 A 
ATOM     68  C   UNL A   1      46.752  33.396  29.481  1.00  0.00     0.135 A 
ATOM     69  F   UNL A   1      45.910  33.385  25.940  1.00  0.00    -0.206 F 
ATOM     70  C   UNL A   1      46.606  35.149  27.320  1.00  0.00     0.059 A 
ATOM     71  C   UNL A   1      47.064  34.740  29.669  1.00  0.00     0.059 A 
ATOM     72  F   UNL A   1      46.846  32.572  30.537  1.00  0.00    -0.206 F 
ATOM     73  C   UNL A   1      47.000  35.606  28.579  1.00  0.00     0.060 A 
BRANCH  73  74
ATOM     74  S   UNL A   1      47.418  37.351  28.770  1.00  0.00     0.124 S 
ATOM     75  O   UNL A   1      47.139  37.563  30.188  1.00  0.00    -0.237 OA
ATOM     76  O   UNL A   1      48.828  37.379  28.392  1.00  0.00    -0.237 OA
ATOM     77  O   UNL A   1      46.512  38.023  27.845  1.00  0.00    -0.744 OA
ENDBRANCH  73  74
ENDBRANCH  52  66
BRANCH  53  78
ATOM     78  C   UNL A   1      43.394  23.427  26.949  1.00  0.00     0.058 A 
ATOM     79  C   UNL A   1      43.104  22.962  25.657  1.00  0.00     0.135 A 
ATOM     80  C   UNL A   1      43.261  22.523  28.013  1.00  0.00     0.135 A 
ATOM     81  F   UNL A   1      43.213  23.790  24.606  1.00  0.00    -0.206 F 
ATOM     82  C   UNL A   1      42.679  21.657  25.430  1.00  0.00     0.059 A 
ATOM     83  C   UNL A   1      42.863  21.205  27.809  1.00  0.00     0.059 A 
ATOM     84  F   UNL A   1      43.544  22.913  29.266  1.00  0.00    -0.206 F 
ATOM     85  C   UNL A   1      42.562  20.785  26.514  1.00  0.00     0.060 A 
BRANCH  85  86
ATOM     86  S   UNL A   1      42.049  19.082  26.203  1.00  0.00     0.124 S 
ATOM     87  O   UNL A   1      40.657  19.262  25.808  1.00  0.00    -0.237 OA
ATOM     88  O   UNL A   1      42.966  18.674  25.144  1.00  0.00    -0.237 OA
ATOM     89  O   UNL A   1      42.261  18.429  27.492  1.00  0.00    -0.744 OA
ENDBRANCH  85  86
ENDBRANCH  53  78
BRANCH  65  90
ATOM     90  C   UNL A   1      49.543  26.681  26.435  1.00  0.00     0.058 A 
ATOM     91  C   UNL A   1      50.349  26.031  27.382  1.00  0.00     0.135 A 
ATOM     92  C   UNL A   1      50.053  26.834  25.134  1.00  0.00     0.135 A 
ATOM     93  F   UNL A   1      49.910  25.863  28.640  1.00  0.00    -0.206 F 
ATOM     94  C   UNL A   1      51.622  25.574  27.061  1.00  0.00     0.059 A 
ATOM     95  C   UNL A   1      51.313  26.360  24.784  1.00  0.00     0.059 A 
ATOM     96  F   UNL A   1      49.319  27.438  24.187  1.00  0.00    -0.206 F 
ATOM     97  C   UNL A   1      52.096  25.744  25.759  1.00  0.00     0.060 A 
BRANCH  97  98
ATOM     98  S   UNL A   1      53.743  25.128  25.349  1.00  0.00     0.124 S 
ATOM     99  O   UNL A   1      54.549  25.713  26.416  1.00  0.00    -0.237 OA
ATOM    100  O   UNL A   1      53.561  23.682  25.411  1.00  0.00    -0.237 OA
ATOM    101  O   UNL A   1      53.984  25.666  24.013  1.00  0.00    -0.744 OA
ENDBRANCH  97  98
ENDBRANCH  65  90
ENDBRANCH  39  40
ENDBRANCH  31  34
ENDBRANCH  29  30
ENDBRANCH  28  29
ENDBRANCH   1  28
TORSDOF 18
ENDMDL
MODEL 2
REMARK VINA RESULT:     -12.1      6.455     12.131
REMARK SMILES CC1(C)[C@H](C(=O)NCCCCCCNC(=O)c2ccc(-c3c4nc(c(-c5c(F)cc(S(=O)(=O)[O-])cc5F)c5ccc([nH]5)c(-c5c(F)cc(S(=O)(=O)[O-])cc5F)c5nc(c(-c6c(F)cc(S(=O)(=O)[O-])cc6F)c6ccc3[nH]6)C=C5)C=C4)cc2)[C@H]1C(=O)Nc1cccc2[nH]ccc12
REMARK SMILES IDX 11 1 10 2 9 3 8 4 7 5 5 6 6 7 4 9 1 10 2 11 3 12 83 13 84 14
REMARK SMILES IDX 85 15 86 16 87 18 88 19 95 20 89 21 91 22 94 23 90 24 92 25
REMARK SMILES IDX 93 26 12 28 13 29 14 30 15 31 16 33 17 34 18 35 82 36 19 37
REMARK SMILES IDX 81 38 20 39 21 40 22 41 75 42 23 43 80 44 74 45 76 46 24 47
REMARK SMILES IDX 79 48 73 49 72 50 25 52 59 53 38 54 58 55 39 56 42 57 57 58
REMARK SMILES IDX 77 59 40 60 41 61 56 63 78 64 43 65 26 66 27 67 36 68 28 69
REMARK SMILES IDX 29 70 35 71 37 72 30 73 31 74 32 75 33 76 34 77 60 78 61 79
REMARK SMILES IDX 70 80 62 81 63 82 69 83 71 84 64 85 65 86 66 87 67 88 68 89
REMARK SMILES IDX 44 90 45 91 54 92 46 93 47 94 53 95 55 96 48 97 49 98 50 99
REMARK SMILES IDX 51 100 52 101
REMARK H PARENT 7 8 86 17 92 27 14 32 76 51 42 62
REMARK Flexibility Score: inf
ROOT
ATOM      1  C   UNL A   1      40.144  21.708  26.470  1.00  0.00     0.002 C 
ENDROOT
BRANCH   1   2
ATOM      2  C   UNL A   1      38.710  22.180  26.206  1.00  0.00     0.002 C 
BRANCH   2   3
ATOM      3  C   UNL A   1      37.982  21.438  25.080  1.00  0.00     0.021 C 
BRANCH   3   4
ATOM      4  C   UNL A   1      36.772  22.181  24.513  1.00  0.00     0.116 C 
BRANCH   4   5
ATOM      5  N   UNL A   1      35.548  21.473  24.778  1.00  0.00    -0.356 N 
ATOM      6  C   UNL A   1      34.331  21.839  25.274  1.00  0.00     0.224 C 
ATOM      7  O   UNL A   1      33.498  20.929  25.342  1.00  0.00    -0.275 OA
ATOM      8  H   UNL A   1      35.600  20.516  24.553  1.00  0.00     0.163 HD
BRANCH   6   9
ATOM      9  C   UNL A   1      33.892  23.185  25.730  1.00  0.00     0.098 C 
ATOM     10  C   UNL A   1      34.450  25.646  25.665  1.00  0.00     0.013 C 
ATOM     11  C   UNL A   1      33.715  24.519  24.990  1.00  0.00    -0.011 C 
ATOM     12  C   UNL A   1      33.542  24.859  23.535  1.00  0.00     0.013 C 
ATOM     13  C   UNL A   1      32.523  23.740  25.581  1.00  0.00     0.098 C 
BRANCH  13  14
ATOM     14  C   UNL A   1      31.573  24.317  26.581  1.00  0.00     0.228 C 
ATOM     15  O   UNL A   1      31.320  23.626  27.569  1.00  0.00    -0.274 OA
ATOM     16  N   UNL A   1      31.200  25.639  26.609  1.00  0.00    -0.325 N 
ATOM     17  H   UNL A   1      31.193  26.057  27.500  1.00  0.00     0.169 HD
BRANCH  16  18
ATOM     18  C   UNL A   1      30.827  26.476  25.554  1.00  0.00     0.050 A 
ATOM     19  C   UNL A   1      29.966  25.962  24.580  1.00  0.00     0.027 A 
ATOM     20  C   UNL A   1      31.392  27.755  25.350  1.00  0.00     0.023 A 
ATOM     21  C   UNL A   1      29.505  26.770  23.543  1.00  0.00     0.004 A 
ATOM     22  C   UNL A   1      30.858  28.567  24.345  1.00  0.00     0.047 A 
ATOM     23  C   UNL A   1      32.490  28.482  25.902  1.00  0.00     0.030 A 
ATOM     24  C   UNL A   1      29.892  28.110  23.444  1.00  0.00     0.027 A 
ATOM     25  N   UNL A   1      31.443  29.807  24.469  1.00  0.00    -0.361 N 
ATOM     26  C   UNL A   1      32.467  29.754  25.376  1.00  0.00     0.083 A 
ATOM     27  H   UNL A   1      31.166  30.614  23.978  1.00  0.00     0.166 HD
ENDBRANCH  16  18
ENDBRANCH  13  14
ENDBRANCH   6   9
ENDBRANCH   4   5
ENDBRANCH   3   4
ENDBRANCH   2   3
ENDBRANCH   1   2
BRANCH   1  28
ATOM     28  C   UNL A   1      40.758  22.189  27.788  1.00  0.00     0.021 C 
BRANCH  28  29
ATOM     29  C   UNL A   1      41.950  23.129  27.628  1.00  0.00     0.116 C 
BRANCH  29  30
ATOM     30  N   UNL A   1      41.865  23.894  26.394  1.00  0.00    -0.352 N 
ATOM     31  C   UNL A   1      41.434  25.181  26.195  1.00  0.00     0.251 C 
ATOM     32  H   UNL A   1      42.159  23.418  25.583  1.00  0.00     0.163 HD
ATOM     33  O   UNL A   1      41.181  25.569  25.058  1.00  0.00    -0.269 OA
BRANCH  31  34
ATOM     34  C   UNL A   1      41.273  26.093  27.346  1.00  0.00     0.039 A 
ATOM     35  C   UNL A   1      42.246  27.068  27.581  1.00  0.00     0.014 A 
ATOM     36  C   UNL A   1      40.186  25.963  28.216  1.00  0.00     0.014 A 
ATOM     37  C   UNL A   1      42.108  27.937  28.664  1.00  0.00     0.010 A 
ATOM     38  C   UNL A   1      40.013  26.875  29.254  1.00  0.00     0.010 A 
ATOM     39  C   UNL A   1      40.979  27.863  29.496  1.00  0.00    -0.014 A 
BRANCH  39  40
ATOM     40  C   UNL A   1      40.801  28.801  30.635  1.00  0.00     0.031 A 
ATOM     41  C   UNL A   1      41.651  28.660  31.869  1.00  0.00     0.074 A 
ATOM     42  C   UNL A   1      39.839  29.742  30.576  1.00  0.00     0.049 A 
ATOM     43  N   UNL A   1      41.609  29.346  32.982  1.00  0.00    -0.248 NA
ATOM     44  C   UNL A   1      42.663  27.592  31.862  1.00  0.00     0.031 C 
ATOM     45  C   UNL A   1      38.920  29.942  29.453  1.00  0.00     0.029 A 
ATOM     46  N   UNL A   1      39.468  30.702  31.483  1.00  0.00    -0.354 N 
ATOM     47  C   UNL A   1      42.575  28.785  33.811  1.00  0.00     0.074 A 
ATOM     48  C   UNL A   1      43.151  27.670  33.092  1.00  0.00     0.031 C 
ATOM     49  C   UNL A   1      38.104  30.973  29.731  1.00  0.00     0.029 A 
ATOM     50  C   UNL A   1      38.420  31.485  31.060  1.00  0.00     0.049 A 
ATOM     51  H   UNL A   1      39.910  30.819  32.354  1.00  0.00     0.167 HD
ATOM     52  C   UNL A   1      42.961  29.178  35.048  1.00  0.00     0.037 A 
ATOM     53  C   UNL A   1      37.781  32.498  31.677  1.00  0.00     0.037 A 
ATOM     54  C   UNL A   1      42.402  30.308  35.745  1.00  0.00     0.049 A 
ATOM     55  C   UNL A   1      38.240  32.927  33.045  1.00  0.00     0.074 A 
ATOM     56  C   UNL A   1      42.764  30.825  36.976  1.00  0.00     0.029 A 
ATOM     57  N   UNL A   1      41.363  31.096  35.271  1.00  0.00    -0.354 N 
ATOM     58  N   UNL A   1      39.198  32.424  33.788  1.00  0.00    -0.248 NA
ATOM     59  C   UNL A   1      37.539  34.065  33.654  1.00  0.00     0.031 C 
ATOM     60  C   UNL A   1      41.918  31.900  37.265  1.00  0.00     0.029 A 
ATOM     61  C   UNL A   1      41.061  32.086  36.192  1.00  0.00     0.049 A 
ATOM     62  H   UNL A   1      40.908  30.971  34.407  1.00  0.00     0.167 HD
ATOM     63  C   UNL A   1      39.235  33.205  34.938  1.00  0.00     0.074 A 
ATOM     64  C   UNL A   1      38.212  34.219  34.787  1.00  0.00     0.031 C 
ATOM     65  C   UNL A   1      40.044  33.093  36.021  1.00  0.00     0.037 A 
BRANCH  52  66
ATOM     66  C   UNL A   1      44.047  28.386  35.727  1.00  0.00     0.058 A 
ATOM     67  C   UNL A   1      45.403  28.716  35.577  1.00  0.00     0.135 A 
ATOM     68  C   UNL A   1      43.725  27.311  36.571  1.00  0.00     0.135 A 
ATOM     69  F   UNL A   1      45.769  29.725  34.770  1.00  0.00    -0.206 F 
ATOM     70  C   UNL A   1      46.404  27.991  36.215  1.00  0.00     0.059 A 
ATOM     71  C   UNL A   1      44.708  26.589  37.242  1.00  0.00     0.059 A 
ATOM     72  F   UNL A   1      42.444  26.952  36.750  1.00  0.00    -0.206 F 
ATOM     73  C   UNL A   1      46.046  26.928  37.047  1.00  0.00     0.060 A 
BRANCH  73  74
ATOM     74  S   UNL A   1      47.356  26.005  37.878  1.00  0.00     0.124 S 
ATOM     75  O   UNL A   1      46.646  25.472  39.037  1.00  0.00    -0.237 OA
ATOM     76  O   UNL A   1      47.738  25.025  36.865  1.00  0.00    -0.237 OA
ATOM     77  O   UNL A   1      48.360  27.022  38.169  1.00  0.00    -0.744 OA
ENDBRANCH  73  74
ENDBRANCH  52  66
BRANCH  53  78
ATOM     78  C   UNL A   1      36.657  33.194  30.995  1.00  0.00     0.058 A 
ATOM     79  C   UNL A   1      36.894  34.076  29.930  1.00  0.00     0.135 A 
ATOM     80  C   UNL A   1      35.326  32.986  31.387  1.00  0.00     0.135 A 
ATOM     81  F   UNL A   1      38.150  34.311  29.521  1.00  0.00    -0.206 F 
ATOM     82  C   UNL A   1      35.854  34.743  29.290  1.00  0.00     0.059 A 
ATOM     83  C   UNL A   1      34.266  33.621  30.746  1.00  0.00     0.059 A 
ATOM     84  F   UNL A   1      35.044  32.138  32.388  1.00  0.00    -0.206 F 
ATOM     85  C   UNL A   1      34.542  34.508  29.706  1.00  0.00     0.060 A 
BRANCH  85  86
ATOM     86  S   UNL A   1      33.197  35.347  28.841  1.00  0.00     0.124 S 
ATOM     87  O   UNL A   1      33.927  36.321  28.039  1.00  0.00    -0.237 OA
ATOM     88  O   UNL A   1      32.574  34.252  28.106  1.00  0.00    -0.237 OA
ATOM     89  O   UNL A   1      32.394  35.899  29.929  1.00  0.00    -0.744 OA
ENDBRANCH  85  86
ENDBRANCH  53  78
BRANCH  65  90
ATOM     90  C   UNL A   1      39.883  34.116  37.111  1.00  0.00     0.058 A 
ATOM     91  C   UNL A   1      40.443  35.399  37.012  1.00  0.00     0.135 A 
ATOM     92  C   UNL A   1      39.122  33.818  38.254  1.00  0.00     0.135 A 
ATOM     93  F   UNL A   1      41.182  35.732  35.942  1.00  0.00    -0.206 F 
ATOM     94  C   UNL A   1      40.280  36.342  38.021  1.00  0.00     0.059 A 
ATOM     95  C   UNL A   1      38.922  34.756  39.262  1.00  0.00     0.059 A 
ATOM     96  F   UNL A   1      38.555  32.610  38.394  1.00  0.00    -0.206 F 
ATOM     97  C   UNL A   1      39.518  36.011  39.143  1.00  0.00     0.060 A 
BRANCH  97  98
ATOM     98  S   UNL A   1      39.295  37.251  40.435  1.00  0.00     0.124 S 
ATOM     99  O   UNL A   1      38.550  36.498  41.439  1.00  0.00    -0.237 OA
ATOM    100  O   UNL A   1      40.670  37.588  40.787  1.00  0.00    -0.237 OA
ATOM    101  O   UNL A   1      38.549  38.312  39.764  1.00  0.00    -0.744 OA
ENDBRANCH  97  98
ENDBRANCH  65  90
ENDBRANCH  39  40
ENDBRANCH  31  34
ENDBRANCH  29  30
ENDBRANCH  28  29
ENDBRANCH   1  28
TORSDOF 18
ENDMDL
MODEL 3
REMARK VINA RESULT:     -12.1      2.638      3.482
REMARK SMILES CC1(C)[C@H](C(=O)NCCCCCCNC(=O)c2ccc(-c3c4nc(c(-c5c(F)cc(S(=O)(=O)[O-])cc5F)c5ccc([nH]5)c(-c5c(F)cc(S(=O)(=O)[O-])cc5F)c5nc(c(-c6c(F)cc(S(=O)(=O)[O-])cc6F)c6ccc3[nH]6)C=C5)C=C4)cc2)[C@H]1C(=O)Nc1cccc2[nH]ccc12
REMARK SMILES IDX 11 1 10 2 9 3 8 4 7 5 5 6 6 7 4 9 1 10 2 11 3 12 83 13 84 14
REMARK SMILES IDX 85 15 86 16 87 18 88 19 95 20 89 21 91 22 94 23 90 24 92 25
REMARK SMILES IDX 93 26 12 28 13 29 14 30 15 31 16 33 17 34 18 35 82 36 19 37
REMARK SMILES IDX 81 38 20 39 21 40 22 41 75 42 23 43 80 44 74 45 76 46 24 47
REMARK SMILES IDX 79 48 73 49 72 50 25 52 59 53 38 54 58 55 39 56 42 57 57 58
REMARK SMILES IDX 77 59 40 60 41 61 56 63 78 64 43 65 26 66 27 67 36 68 28 69
REMARK SMILES IDX 29 70 35 71 37 72 30 73 31 74 32 75 33 76 34 77 60 78 61 79
REMARK SMILES IDX 70 80 62 81 63 82 69 83 71 84 64 85 65 86 66 87 67 88 68 89
REMARK SMILES IDX 44 90 45 91 54 92 46 93 47 94 53 95 55 96 48 97 49 98 50 99
REMARK SMILES IDX 51 100 52 101
REMARK H PARENT 7 8 86 17 92 27 14 32 76 51 42 62
REMARK Flexibility Score: inf
ROOT
ATOM      1  C   UNL A   1      31.698  28.233  25.538  1.00  0.00     0.002 C 
ENDROOT
BRANCH   1   2
ATOM      2  C   UNL A   1      31.024  29.195  24.555  1.00  0.00     0.002 C 
BRANCH   2   3
ATOM      3  C   UNL A   1      31.488  29.066  23.100  1.00  0.00     0.021 C 
BRANCH   3   4
ATOM      4  C   UNL A   1      31.018  27.791  22.398  1.00  0.00     0.116 C 
BRANCH   4   5
ATOM      5  N   UNL A   1      32.121  27.075  21.815  1.00  0.00    -0.356 N 
ATOM      6  C   UNL A   1      32.775  25.922  22.134  1.00  0.00     0.224 C 
ATOM      7  O   UNL A   1      33.689  25.607  21.364  1.00  0.00    -0.275 OA
ATOM      8  H   UNL A   1      32.482  27.513  21.010  1.00  0.00     0.163 HD
BRANCH   6   9
ATOM      9  C   UNL A   1      32.519  25.007  23.278  1.00  0.00     0.098 C 
ATOM     10  C   UNL A   1      31.077  23.097  24.084  1.00  0.00     0.013 C 
ATOM     11  C   UNL A   1      32.341  23.484  23.363  1.00  0.00    -0.011 C 
ATOM     12  C   UNL A   1      32.732  22.362  22.440  1.00  0.00     0.013 C 
ATOM     13  C   UNL A   1      33.549  24.209  23.990  1.00  0.00     0.098 C 
BRANCH  13  14
ATOM     14  C   UNL A   1      33.907  24.118  25.439  1.00  0.00     0.228 C 
ATOM     15  O   UNL A   1      33.535  25.044  26.162  1.00  0.00    -0.274 OA
ATOM     16  N   UNL A   1      34.360  22.971  26.045  1.00  0.00    -0.325 N 
ATOM     17  H   UNL A   1      33.955  22.767  26.918  1.00  0.00     0.169 HD
BRANCH  16  18
ATOM     18  C   UNL A   1      35.315  22.053  25.601  1.00  0.00     0.050 A 
ATOM     19  C   UNL A   1      36.624  22.506  25.408  1.00  0.00     0.027 A 
ATOM     20  C   UNL A   1      34.990  20.737  25.201  1.00  0.00     0.023 A 
ATOM     21  C   UNL A   1      37.633  21.622  25.034  1.00  0.00     0.004 A 
ATOM     22  C   UNL A   1      36.032  19.856  24.899  1.00  0.00     0.047 A 
ATOM     23  C   UNL A   1      33.781  20.021  24.946  1.00  0.00     0.030 A 
ATOM     24  C   UNL A   1      37.368  20.264  24.837  1.00  0.00     0.027 A 
ATOM     25  N   UNL A   1      35.474  18.609  24.723  1.00  0.00    -0.361 N 
ATOM     26  C   UNL A   1      34.109  18.706  24.701  1.00  0.00     0.083 A 
ATOM     27  H   UNL A   1      35.982  17.771  24.628  1.00  0.00     0.166 HD
ENDBRANCH  16  18
ENDBRANCH  13  14
ENDBRANCH   6   9
ENDBRANCH   4   5
ENDBRANCH   3   4
ENDBRANCH   2   3
ENDBRANCH   1   2
BRANCH   1  28
ATOM     28  C   UNL A   1      33.219  28.119  25.403  1.00  0.00     0.021 C 
BRANCH  28  29
ATOM     29  C   UNL A   1      33.992  28.377  26.694  1.00  0.00     0.116 C 
BRANCH  29  30
ATOM     30  N   UNL A   1      33.762  29.723  27.195  1.00  0.00    -0.352 N 
ATOM     31  C   UNL A   1      34.537  30.484  28.033  1.00  0.00     0.251 C 
ATOM     32  H   UNL A   1      32.930  30.149  26.889  1.00  0.00     0.163 HD
ATOM     33  O   UNL A   1      34.062  31.486  28.559  1.00  0.00    -0.269 OA
BRANCH  31  34
ATOM     34  C   UNL A   1      35.938  30.095  28.301  1.00  0.00     0.039 A 
ATOM     35  C   UNL A   1      36.863  30.126  27.254  1.00  0.00     0.014 A 
ATOM     36  C   UNL A   1      36.329  29.663  29.572  1.00  0.00     0.014 A 
ATOM     37  C   UNL A   1      38.190  29.764  27.492  1.00  0.00     0.010 A 
ATOM     38  C   UNL A   1      37.667  29.368  29.824  1.00  0.00     0.010 A 
ATOM     39  C   UNL A   1      38.608  29.403  28.784  1.00  0.00    -0.014 A 
BRANCH  39  40
ATOM     40  C   UNL A   1      40.023  29.044  29.060  1.00  0.00     0.031 A 
ATOM     41  C   UNL A   1      40.957  30.060  29.659  1.00  0.00     0.074 A 
ATOM     42  C   UNL A   1      40.476  27.821  28.721  1.00  0.00     0.049 A 
ATOM     43  N   UNL A   1      42.234  29.953  29.924  1.00  0.00    -0.248 NA
ATOM     44  C   UNL A   1      40.389  31.380  29.979  1.00  0.00     0.031 C 
ATOM     45  C   UNL A   1      39.677  26.769  28.088  1.00  0.00     0.029 A 
ATOM     46  N   UNL A   1      41.719  27.257  28.854  1.00  0.00    -0.354 N 
ATOM     47  C   UNL A   1      42.623  31.190  30.426  1.00  0.00     0.074 A 
ATOM     48  C   UNL A   1      41.461  32.049  30.380  1.00  0.00     0.031 C 
ATOM     49  C   UNL A   1      40.446  25.683  27.905  1.00  0.00     0.029 A 
ATOM     50  C   UNL A   1      41.797  25.970  28.378  1.00  0.00     0.049 A 
ATOM     51  H   UNL A   1      42.485  27.730  29.253  1.00  0.00     0.167 HD
ATOM     52  C   UNL A   1      43.834  31.568  30.902  1.00  0.00     0.037 A 
ATOM     53  C   UNL A   1      42.840  25.119  28.322  1.00  0.00     0.037 A 
ATOM     54  C   UNL A   1      44.979  30.696  30.971  1.00  0.00     0.049 A 
ATOM     55  C   UNL A   1      44.170  25.557  28.872  1.00  0.00     0.074 A 
ATOM     56  C   UNL A   1      46.233  30.964  31.490  1.00  0.00     0.029 A 
ATOM     57  N   UNL A   1      45.010  29.389  30.507  1.00  0.00    -0.354 N 
ATOM     58  N   UNL A   1      44.504  26.711  29.401  1.00  0.00    -0.248 NA
ATOM     59  C   UNL A   1      45.263  24.576  28.828  1.00  0.00     0.031 C 
ATOM     60  C   UNL A   1      47.034  29.833  31.303  1.00  0.00     0.029 A 
ATOM     61  C   UNL A   1      46.265  28.842  30.713  1.00  0.00     0.049 A 
ATOM     62  H   UNL A   1      44.250  28.919  30.092  1.00  0.00     0.167 HD
ATOM     63  C   UNL A   1      45.836  26.583  29.781  1.00  0.00     0.074 A 
ATOM     64  C   UNL A   1      46.241  25.237  29.431  1.00  0.00     0.031 C 
ATOM     65  C   UNL A   1      46.649  27.497  30.367  1.00  0.00     0.037 A 
BRANCH  52  66
ATOM     66  C   UNL A   1      43.982  32.982  31.394  1.00  0.00     0.058 A 
ATOM     67  C   UNL A   1      44.394  34.020  30.543  1.00  0.00     0.135 A 
ATOM     68  C   UNL A   1      43.668  33.313  32.723  1.00  0.00     0.135 A 
ATOM     69  F   UNL A   1      44.721  33.759  29.267  1.00  0.00    -0.206 F 
ATOM     70  C   UNL A   1      44.518  35.329  30.997  1.00  0.00     0.059 A 
ATOM     71  C   UNL A   1      43.758  34.621  33.191  1.00  0.00     0.059 A 
ATOM     72  F   UNL A   1      43.270  32.360  33.581  1.00  0.00    -0.206 F 
ATOM     73  C   UNL A   1      44.197  35.620  32.324  1.00  0.00     0.060 A 
BRANCH  73  74
ATOM     74  S   UNL A   1      44.352  37.325  32.895  1.00  0.00     0.124 S 
ATOM     75  O   UNL A   1      45.515  37.233  33.774  1.00  0.00    -0.237 OA
ATOM     76  O   UNL A   1      44.558  38.055  31.648  1.00  0.00    -0.237 OA
ATOM     77  O   UNL A   1      43.080  37.579  33.562  1.00  0.00    -0.744 OA
ENDBRANCH  73  74
ENDBRANCH  52  66
BRANCH  53  78
ATOM     78  C   UNL A   1      42.660  23.759  27.747  1.00  0.00     0.058 A 
ATOM     79  C   UNL A   1      42.424  22.651  28.575  1.00  0.00     0.135 A 
ATOM     80  C   UNL A   1      42.712  23.540  26.362  1.00  0.00     0.135 A 
ATOM     81  F   UNL A   1      42.369  22.808  29.907  1.00  0.00    -0.206 F 
ATOM     82  C   UNL A   1      42.266  21.371  28.053  1.00  0.00     0.059 A 
ATOM     83  C   UNL A   1      42.530  22.274  25.814  1.00  0.00     0.059 A 
ATOM     84  F   UNL A   1      42.916  24.570  25.526  1.00  0.00    -0.206 F 
ATOM     85  C   UNL A   1      42.320  21.193  26.669  1.00  0.00     0.060 A 
BRANCH  85  86
ATOM     86  S   UNL A   1      42.072  19.535  26.000  1.00  0.00     0.124 S 
ATOM     87  O   UNL A   1      42.495  18.701  27.119  1.00  0.00    -0.237 OA
ATOM     88  O   UNL A   1      40.643  19.533  25.705  1.00  0.00    -0.237 OA
ATOM     89  O   UNL A   1      42.946  19.513  24.829  1.00  0.00    -0.744 OA
ENDBRANCH  85  86
ENDBRANCH  53  78
BRANCH  65  90
ATOM     90  C   UNL A   1      48.048  27.060  30.704  1.00  0.00     0.058 A 
ATOM     91  C   UNL A   1      49.110  27.214  29.800  1.00  0.00     0.135 A 
ATOM     92  C   UNL A   1      48.334  26.513  31.966  1.00  0.00     0.135 A 
ATOM     93  F   UNL A   1      48.889  27.727  28.579  1.00  0.00    -0.206 F 
ATOM     94  C   UNL A   1      50.403  26.817  30.125  1.00  0.00     0.059 A 
ATOM     95  C   UNL A   1      49.624  26.135  32.322  1.00  0.00     0.059 A 
ATOM     96  F   UNL A   1      47.356  26.354  32.872  1.00  0.00    -0.206 F 
ATOM     97  C   UNL A   1      50.650  26.277  31.388  1.00  0.00     0.060 A 
BRANCH  97  98
ATOM     98  S   UNL A   1      52.335  25.785  31.806  1.00  0.00     0.124 S 
ATOM     99  O   UNL A   1      53.032  26.027  30.546  1.00  0.00    -0.237 OA
ATOM    100  O   UNL A   1      52.666  26.694  32.898  1.00  0.00    -0.237 OA
ATOM    101  O   UNL A   1      52.196  24.382  32.187  1.00  0.00    -0.744 OA
ENDBRANCH  97  98
ENDBRANCH  65  90
ENDBRANCH  39  40
ENDBRANCH  31  34
ENDBRANCH  29  30
ENDBRANCH  28  29
ENDBRANCH   1  28
TORSDOF 18
ENDMDL
