MODEL 1
REMARK VINA RESULT:     -11.0      0.000      0.000
REMARK SMILES COc1cccc(O[C@@H](C)c2nnc(SCC(=O)NCCCCCCNC(=O)c3ccc(-c4c5nc(c(-c6c(F)cc(S(=O)(=O)[O-])cc6F)c6ccc([nH]6)c(-c6c(F)cc(S(=O)(=O)[O-])cc6F)c6nc(c(-c7c(F)cc(S(=O)(=O)[O-])cc7F)c7ccc4[nH]7)C=C6)C=C5)cc3)n2C)c1
REMARK SMILES IDX 21 1 20 2 19 3 17 4 18 5 16 7 15 8 14 9 11 10 12 11 95 12
REMARK SMILES IDX 13 13 96 14 9 15 10 16 8 17 7 18 3 19 4 20 97 21 5 22 6 23
REMARK SMILES IDX 2 24 1 25 22 26 23 27 24 28 25 29 26 30 27 31 28 33 29 34
REMARK SMILES IDX 30 35 94 36 31 37 93 38 32 39 33 40 34 41 87 42 35 43 92 44
REMARK SMILES IDX 86 45 88 46 36 47 91 48 85 49 84 50 37 52 71 53 50 54 70 55
REMARK SMILES IDX 51 56 54 57 69 58 89 59 52 60 53 61 68 63 90 64 55 65 38 66
REMARK SMILES IDX 39 67 48 68 40 69 41 70 47 71 49 72 42 73 43 74 44 75 45 76
REMARK SMILES IDX 46 77 72 78 73 79 82 80 74 81 75 82 81 83 83 84 76 85 77 86
REMARK SMILES IDX 78 87 79 88 80 89 56 90 57 91 66 92 58 93 59 94 65 95 67 96
REMARK SMILES IDX 60 97 61 98 62 99 63 100 64 101
REMARK H PARENT 19 6 26 32 88 51 54 62
REMARK Flexibility Score: inf
ROOT
ATOM      1  C   UNL A   1      36.459  22.577  25.731  1.00  0.00     0.021 C 
ENDROOT
BRANCH   1   2
ATOM      2  C   UNL A   1      35.168  21.819  26.040  1.00  0.00     0.116 C 
BRANCH   2   3
ATOM      3  N   UNL A   1      35.182  20.509  25.419  1.00  0.00    -0.355 N 
ATOM      4  C   UNL A   1      34.167  19.793  24.873  1.00  0.00     0.230 C 
ATOM      5  O   UNL A   1      34.424  18.658  24.458  1.00  0.00    -0.274 OA
ATOM      6  H   UNL A   1      36.064  20.071  25.388  1.00  0.00     0.163 HD
BRANCH   4   7
ATOM      7  C   UNL A   1      32.799  20.393  24.673  1.00  0.00     0.178 C 
BRANCH   7   8
ATOM      8  S   UNL A   1      32.453  21.166  23.102  1.00  0.00    -0.076 SA
BRANCH   8   9
ATOM      9  C   UNL A   1      32.899  22.830  23.068  1.00  0.00     0.191 A 
ATOM     10  C   UNL A   1      33.039  25.025  23.142  1.00  0.00     0.174 A 
ATOM     11  N   UNL A   1      34.029  24.567  22.405  1.00  0.00    -0.130 NA
ATOM     12  N   UNL A   1      32.245  23.948  23.515  1.00  0.00    -0.306 N 
ATOM     13  N   UNL A   1      33.956  23.206  22.382  1.00  0.00    -0.123 NA
ATOM     14  C   UNL A   1      30.959  24.077  24.145  1.00  0.00     0.154 C 
BRANCH  10  15
ATOM     15  C   UNL A   1      32.773  26.464  23.481  1.00  0.00     0.238 C 
ATOM     16  C   UNL A   1      33.548  27.479  22.645  1.00  0.00     0.062 C 
BRANCH  15  17
ATOM     17  O   UNL A   1      32.820  26.687  24.899  1.00  0.00    -0.483 OA
BRANCH  17  18
ATOM     18  C   UNL A   1      32.894  27.913  25.490  1.00  0.00     0.124 A 
ATOM     19  C   UNL A   1      33.879  29.717  26.791  1.00  0.00     0.122 A 
ATOM     20  C   UNL A   1      32.715  30.469  26.632  1.00  0.00     0.046 A 
ATOM     21  C   UNL A   1      33.957  28.438  26.225  1.00  0.00     0.092 A 
ATOM     22  C   UNL A   1      31.650  29.963  25.892  1.00  0.00     0.008 A 
ATOM     23  C   UNL A   1      31.745  28.694  25.320  1.00  0.00     0.047 A 
BRANCH  19  24
ATOM     24  O   UNL A   1      34.858  30.322  27.533  1.00  0.00    -0.497 OA
ATOM     25  C   UNL A   1      34.630  31.676  27.907  1.00  0.00     0.278 C 
ENDBRANCH  19  24
ENDBRANCH  17  18
ENDBRANCH  15  17
ENDBRANCH  10  15
ENDBRANCH   8   9
ENDBRANCH   7   8
ENDBRANCH   4   7
ENDBRANCH   2   3
ENDBRANCH   1   2
BRANCH   1  26
ATOM     26  C   UNL A   1      37.568  21.722  25.099  1.00  0.00     0.002 C 
BRANCH  26  27
ATOM     27  C   UNL A   1      38.952  21.859  25.740  1.00  0.00     0.002 C 
BRANCH  27  28
ATOM     28  C   UNL A   1      39.022  22.798  26.946  1.00  0.00     0.021 C 
BRANCH  28  29
ATOM     29  C   UNL A   1      40.430  23.237  27.336  1.00  0.00     0.116 C 
BRANCH  29  30
ATOM     30  N   UNL A   1      41.099  23.949  26.260  1.00  0.00    -0.352 N 
ATOM     31  C   UNL A   1      41.348  25.290  26.129  1.00  0.00     0.251 C 
ATOM     32  H   UNL A   1      41.420  23.386  25.519  1.00  0.00     0.163 HD
ATOM     33  O   UNL A   1      41.762  25.725  25.053  1.00  0.00    -0.269 OA
BRANCH  31  34
ATOM     34  C   UNL A   1      41.112  26.216  27.259  1.00  0.00     0.039 A 
ATOM     35  C   UNL A   1      41.940  27.335  27.394  1.00  0.00     0.014 A 
ATOM     36  C   UNL A   1      40.115  25.969  28.208  1.00  0.00     0.014 A 
ATOM     37  C   UNL A   1      41.755  28.213  28.465  1.00  0.00     0.010 A 
ATOM     38  C   UNL A   1      39.881  26.887  29.231  1.00  0.00     0.010 A 
ATOM     39  C   UNL A   1      40.715  28.003  29.387  1.00  0.00    -0.014 A 
BRANCH  39  40
ATOM     40  C   UNL A   1      40.535  28.909  30.550  1.00  0.00     0.031 A 
ATOM     41  C   UNL A   1      41.417  28.760  31.763  1.00  0.00     0.074 A 
ATOM     42  C   UNL A   1      39.567  29.847  30.530  1.00  0.00     0.049 A 
ATOM     43  N   UNL A   1      41.412  29.443  32.879  1.00  0.00    -0.248 NA
ATOM     44  C   UNL A   1      42.421  27.684  31.726  1.00  0.00     0.031 C 
ATOM     45  C   UNL A   1      38.620  30.062  29.433  1.00  0.00     0.029 A 
ATOM     46  N   UNL A   1      39.222  30.797  31.457  1.00  0.00    -0.354 N 
ATOM     47  C   UNL A   1      42.400  28.875  33.676  1.00  0.00     0.074 A 
ATOM     48  C   UNL A   1      42.940  27.753  32.942  1.00  0.00     0.031 C 
ATOM     49  C   UNL A   1      37.825  31.099  29.737  1.00  0.00     0.029 A 
ATOM     50  C   UNL A   1      38.184  31.606  31.059  1.00  0.00     0.049 A 
ATOM     51  H   UNL A   1      39.675  30.892  32.326  1.00  0.00     0.167 HD
ATOM     52  C   UNL A   1      42.840  29.270  34.895  1.00  0.00     0.037 A 
ATOM     53  C   UNL A   1      37.595  32.644  31.685  1.00  0.00     0.037 A 
ATOM     54  C   UNL A   1      42.316  30.404  35.611  1.00  0.00     0.049 A 
ATOM     55  C   UNL A   1      38.110  33.074  33.033  1.00  0.00     0.074 A 
ATOM     56  C   UNL A   1      42.716  30.911  36.835  1.00  0.00     0.029 A 
ATOM     57  N   UNL A   1      41.283  31.213  35.162  1.00  0.00    -0.354 N 
ATOM     58  N   UNL A   1      39.079  32.557  33.750  1.00  0.00    -0.248 NA
ATOM     59  C   UNL A   1      37.463  34.241  33.648  1.00  0.00     0.031 C 
ATOM     60  C   UNL A   1      41.901  32.006  37.142  1.00  0.00     0.029 A 
ATOM     61  C   UNL A   1      41.026  32.210  36.086  1.00  0.00     0.049 A 
ATOM     62  H   UNL A   1      40.802  31.095  34.311  1.00  0.00     0.167 HD
ATOM     63  C   UNL A   1      39.183  33.357  34.883  1.00  0.00     0.074 A 
ATOM     64  C   UNL A   1      38.181  34.396  34.752  1.00  0.00     0.031 C 
ATOM     65  C   UNL A   1      40.035  33.247  35.933  1.00  0.00     0.037 A 
BRANCH  52  66
ATOM     66  C   UNL A   1      43.950  28.470  35.523  1.00  0.00     0.058 A 
ATOM     67  C   UNL A   1      43.685  27.356  36.338  1.00  0.00     0.135 A 
ATOM     68  C   UNL A   1      45.294  28.811  35.302  1.00  0.00     0.135 A 
ATOM     69  F   UNL A   1      42.419  26.994  36.597  1.00  0.00    -0.206 F 
ATOM     70  C   UNL A   1      44.709  26.636  36.943  1.00  0.00     0.059 A 
ATOM     71  C   UNL A   1      46.336  28.086  35.873  1.00  0.00     0.059 A 
ATOM     72  F   UNL A   1      45.606  29.864  34.530  1.00  0.00    -0.206 F 
ATOM     73  C   UNL A   1      46.033  27.011  36.707  1.00  0.00     0.060 A 
BRANCH  73  74
ATOM     74  S   UNL A   1      47.351  26.072  37.507  1.00  0.00     0.124 S 
ATOM     75  O   UNL A   1      48.533  26.826  37.101  1.00  0.00    -0.237 OA
ATOM     76  O   UNL A   1      46.993  26.168  38.919  1.00  0.00    -0.237 OA
ATOM     77  O   UNL A   1      47.223  24.741  36.921  1.00  0.00    -0.744 OA
ENDBRANCH  73  74
ENDBRANCH  52  66
BRANCH  53  78
ATOM     78  C   UNL A   1      36.488  33.381  31.020  1.00  0.00     0.058 A 
ATOM     79  C   UNL A   1      35.176  33.305  31.511  1.00  0.00     0.135 A 
ATOM     80  C   UNL A   1      36.719  34.186  29.894  1.00  0.00     0.135 A 
ATOM     81  F   UNL A   1      34.904  32.545  32.583  1.00  0.00    -0.206 F 
ATOM     82  C   UNL A   1      34.128  33.983  30.899  1.00  0.00     0.059 A 
ATOM     83  C   UNL A   1      35.690  34.894  29.279  1.00  0.00     0.059 A 
ATOM     84  F   UNL A   1      37.959  34.308  29.397  1.00  0.00    -0.206 F 
ATOM     85  C   UNL A   1      34.396  34.778  29.783  1.00  0.00     0.060 A 
BRANCH  85  86
ATOM     86  S   UNL A   1      33.036  35.694  29.024  1.00  0.00     0.124 S 
ATOM     87  O   UNL A   1      33.752  36.731  28.293  1.00  0.00    -0.237 OA
ATOM     88  O   UNL A   1      32.389  34.668  28.212  1.00  0.00    -0.237 OA
ATOM     89  O   UNL A   1      32.261  36.153  30.174  1.00  0.00    -0.744 OA
ENDBRANCH  85  86
ENDBRANCH  53  78
BRANCH  65  90
ATOM     90  C   UNL A   1      39.962  34.307  36.996  1.00  0.00     0.058 A 
ATOM     91  C   UNL A   1      40.713  35.490  36.918  1.00  0.00     0.135 A 
ATOM     92  C   UNL A   1      39.098  34.151  38.092  1.00  0.00     0.135 A 
ATOM     93  F   UNL A   1      41.557  35.690  35.893  1.00  0.00    -0.206 F 
ATOM     94  C   UNL A   1      40.634  36.467  37.906  1.00  0.00     0.059 A 
ATOM     95  C   UNL A   1      38.981  35.126  39.076  1.00  0.00     0.059 A 
ATOM     96  F   UNL A   1      38.348  33.042  38.208  1.00  0.00    -0.206 F 
ATOM     97  C   UNL A   1      39.766  36.274  38.983  1.00  0.00     0.060 A 
BRANCH  97  98
ATOM     98  S   UNL A   1      39.659  37.554  40.252  1.00  0.00     0.124 S 
ATOM     99  O   UNL A   1      38.258  37.948  40.154  1.00  0.00    -0.237 OA
ATOM    100  O   UNL A   1      40.029  36.827  41.463  1.00  0.00    -0.237 OA
ATOM    101  O   UNL A   1      40.626  38.553  39.809  1.00  0.00    -0.744 OA
ENDBRANCH  97  98
ENDBRANCH  65  90
ENDBRANCH  39  40
ENDBRANCH  31  34
ENDBRANCH  29  30
ENDBRANCH  28  29
ENDBRANCH  27  28
ENDBRANCH  26  27
ENDBRANCH   1  26
TORSDOF 22
ENDMDL
MODEL 2
REMARK VINA RESULT:     -10.8      6.445     11.746
REMARK SMILES COc1cccc(O[C@@H](C)c2nnc(SCC(=O)NCCCCCCNC(=O)c3ccc(-c4c5nc(c(-c6c(F)cc(S(=O)(=O)[O-])cc6F)c6ccc([nH]6)c(-c6c(F)cc(S(=O)(=O)[O-])cc6F)c6nc(c(-c7c(F)cc(S(=O)(=O)[O-])cc7F)c7ccc4[nH]7)C=C6)C=C5)cc3)n2C)c1
REMARK SMILES IDX 21 1 20 2 19 3 17 4 18 5 16 7 15 8 14 9 11 10 12 11 95 12
REMARK SMILES IDX 13 13 96 14 9 15 10 16 8 17 7 18 3 19 4 20 97 21 5 22 6 23
REMARK SMILES IDX 2 24 1 25 22 26 23 27 24 28 25 29 26 30 27 31 28 33 29 34
REMARK SMILES IDX 30 35 94 36 31 37 93 38 32 39 33 40 34 41 87 42 35 43 92 44
REMARK SMILES IDX 86 45 88 46 36 47 91 48 85 49 84 50 37 52 71 53 50 54 70 55
REMARK SMILES IDX 51 56 54 57 69 58 89 59 52 60 53 61 68 63 90 64 55 65 38 66
REMARK SMILES IDX 39 67 48 68 40 69 41 70 47 71 49 72 42 73 43 74 44 75 45 76
REMARK SMILES IDX 46 77 72 78 73 79 82 80 74 81 75 82 81 83 83 84 76 85 77 86
REMARK SMILES IDX 78 87 79 88 80 89 56 90 57 91 66 92 58 93 59 94 65 95 67 96
REMARK SMILES IDX 60 97 61 98 62 99 63 100 64 101
REMARK H PARENT 19 6 26 32 88 51 54 62
REMARK Flexibility Score: inf
ROOT
ATOM      1  C   UNL A   1      31.823  29.287  26.397  1.00  0.00     0.021 C 
ENDROOT
BRANCH   1   2
ATOM      2  C   UNL A   1      31.920  29.363  24.873  1.00  0.00     0.116 C 
BRANCH   2   3
ATOM      3  N   UNL A   1      30.693  29.886  24.307  1.00  0.00    -0.355 N 
ATOM      4  C   UNL A   1      29.834  29.326  23.419  1.00  0.00     0.230 C 
ATOM      5  O   UNL A   1      28.878  30.007  23.036  1.00  0.00    -0.274 OA
ATOM      6  H   UNL A   1      30.444  30.789  24.614  1.00  0.00     0.163 HD
BRANCH   4   7
ATOM      7  C   UNL A   1      29.969  27.885  22.997  1.00  0.00     0.178 C 
BRANCH   7   8
ATOM      8  S   UNL A   1      29.230  26.641  24.042  1.00  0.00    -0.076 SA
BRANCH   8   9
ATOM      9  C   UNL A   1      30.393  25.794  24.991  1.00  0.00     0.191 A 
ATOM     10  C   UNL A   1      31.887  24.428  25.855  1.00  0.00     0.174 A 
ATOM     11  N   UNL A   1      31.341  25.123  26.831  1.00  0.00    -0.130 NA
ATOM     12  N   UNL A   1      31.244  24.769  24.671  1.00  0.00    -0.306 N 
ATOM     13  N   UNL A   1      30.436  25.988  26.292  1.00  0.00    -0.123 NA
ATOM     14  C   UNL A   1      31.420  24.067  23.429  1.00  0.00     0.154 C 
BRANCH  10  15
ATOM     15  C   UNL A   1      32.974  23.401  25.992  1.00  0.00     0.238 C 
ATOM     16  C   UNL A   1      32.958  22.614  27.300  1.00  0.00     0.062 C 
BRANCH  15  17
ATOM     17  O   UNL A   1      34.254  23.940  25.626  1.00  0.00    -0.483 OA
BRANCH  17  18
ATOM     18  C   UNL A   1      35.403  23.211  25.522  1.00  0.00     0.124 A 
ATOM     19  C   UNL A   1      37.744  22.659  25.878  1.00  0.00     0.122 A 
ATOM     20  C   UNL A   1      37.600  21.527  25.075  1.00  0.00     0.046 A 
ATOM     21  C   UNL A   1      36.644  23.499  26.089  1.00  0.00     0.092 A 
ATOM     22  C   UNL A   1      36.365  21.221  24.511  1.00  0.00     0.008 A 
ATOM     23  C   UNL A   1      35.272  22.058  24.741  1.00  0.00     0.047 A 
BRANCH  19  24
ATOM     24  O   UNL A   1      39.003  22.851  26.381  1.00  0.00    -0.497 OA
ATOM     25  C   UNL A   1      39.441  24.198  26.509  1.00  0.00     0.278 C 
ENDBRANCH  19  24
ENDBRANCH  17  18
ENDBRANCH  15  17
ENDBRANCH  10  15
ENDBRANCH   8   9
ENDBRANCH   7   8
ENDBRANCH   4   7
ENDBRANCH   2   3
ENDBRANCH   1   2
BRANCH   1  26
ATOM     26  C   UNL A   1      33.007  28.587  27.081  1.00  0.00     0.002 C 
BRANCH  26  27
ATOM     27  C   UNL A   1      34.395  29.108  26.695  1.00  0.00     0.002 C 
BRANCH  27  28
ATOM     28  C   UNL A   1      34.974  30.173  27.629  1.00  0.00     0.021 C 
BRANCH  28  29
ATOM     29  C   UNL A   1      35.659  29.627  28.876  1.00  0.00     0.116 C 
BRANCH  29  30
ATOM     30  N   UNL A   1      35.814  30.642  29.905  1.00  0.00    -0.352 N 
ATOM     31  C   UNL A   1      36.947  31.053  30.556  1.00  0.00     0.251 C 
ATOM     32  H   UNL A   1      34.985  31.100  30.173  1.00  0.00     0.163 HD
ATOM     33  O   UNL A   1      36.846  31.796  31.534  1.00  0.00    -0.269 OA
BRANCH  31  34
ATOM     34  C   UNL A   1      38.284  30.604  30.104  1.00  0.00     0.039 A 
ATOM     35  C   UNL A   1      39.227  30.229  31.065  1.00  0.00     0.014 A 
ATOM     36  C   UNL A   1      38.629  30.592  28.749  1.00  0.00     0.014 A 
ATOM     37  C   UNL A   1      40.504  29.824  30.668  1.00  0.00     0.010 A 
ATOM     38  C   UNL A   1      39.875  30.113  28.350  1.00  0.00     0.010 A 
ATOM     39  C   UNL A   1      40.835  29.751  29.305  1.00  0.00    -0.014 A 
BRANCH  39  40
ATOM     40  C   UNL A   1      42.202  29.359  28.874  1.00  0.00     0.031 A 
ATOM     41  C   UNL A   1      42.471  27.948  28.421  1.00  0.00     0.074 A 
ATOM     42  C   UNL A   1      43.204  30.260  28.909  1.00  0.00     0.049 A 
ATOM     43  N   UNL A   1      43.593  27.408  28.016  1.00  0.00    -0.248 NA
ATOM     44  C   UNL A   1      41.335  27.012  28.451  1.00  0.00     0.031 C 
ATOM     45  C   UNL A   1      43.080  31.646  29.369  1.00  0.00     0.029 A 
ATOM     46  N   UNL A   1      44.522  30.147  28.550  1.00  0.00    -0.354 N 
ATOM     47  C   UNL A   1      43.299  26.074  27.755  1.00  0.00     0.074 A 
ATOM     48  C   UNL A   1      41.911  25.871  28.107  1.00  0.00     0.031 C 
ATOM     49  C   UNL A   1      44.265  32.261  29.232  1.00  0.00     0.029 A 
ATOM     50  C   UNL A   1      45.239  31.310  28.703  1.00  0.00     0.049 A 
ATOM     51  H   UNL A   1      44.920  29.311  28.213  1.00  0.00     0.167 HD
ATOM     52  C   UNL A   1      44.102  25.112  27.240  1.00  0.00     0.037 A 
ATOM     53  C   UNL A   1      46.532  31.581  28.438  1.00  0.00     0.037 A 
ATOM     54  C   UNL A   1      45.476  25.326  26.867  1.00  0.00     0.049 A 
ATOM     55  C   UNL A   1      47.403  30.502  27.853  1.00  0.00     0.074 A 
ATOM     56  C   UNL A   1      46.366  24.429  26.303  1.00  0.00     0.029 A 
ATOM     57  N   UNL A   1      46.157  26.525  27.014  1.00  0.00    -0.354 N 
ATOM     58  N   UNL A   1      47.095  29.259  27.565  1.00  0.00    -0.248 NA
ATOM     59  C   UNL A   1      48.790  30.866  27.539  1.00  0.00     0.031 C 
ATOM     60  C   UNL A   1      47.596  25.076  26.140  1.00  0.00     0.029 A 
ATOM     61  C   UNL A   1      47.457  26.391  26.558  1.00  0.00     0.049 A 
ATOM     62  H   UNL A   1      45.772  27.351  27.388  1.00  0.00     0.167 HD
ATOM     63  C   UNL A   1      48.239  28.704  27.001  1.00  0.00     0.074 A 
ATOM     64  C   UNL A   1      49.243  29.749  26.985  1.00  0.00     0.031 C 
ATOM     65  C   UNL A   1      48.439  27.446  26.534  1.00  0.00     0.037 A 
BRANCH  52  66
ATOM     66  C   UNL A   1      43.505  23.744  27.043  1.00  0.00     0.058 A 
ATOM     67  C   UNL A   1      43.324  22.858  28.119  1.00  0.00     0.135 A 
ATOM     68  C   UNL A   1      43.099  23.315  25.770  1.00  0.00     0.135 A 
ATOM     69  F   UNL A   1      43.709  23.209  29.356  1.00  0.00    -0.206 F 
ATOM     70  C   UNL A   1      42.801  21.583  27.932  1.00  0.00     0.059 A 
ATOM     71  C   UNL A   1      42.545  22.054  25.565  1.00  0.00     0.059 A 
ATOM     72  F   UNL A   1      43.246  24.120  24.706  1.00  0.00    -0.206 F 
ATOM     73  C   UNL A   1      42.418  21.188  26.650  1.00  0.00     0.060 A 
BRANCH  73  74
ATOM     74  S   UNL A   1      41.750  19.527  26.422  1.00  0.00     0.124 S 
ATOM     75  O   UNL A   1      42.407  19.115  25.186  1.00  0.00    -0.237 OA
ATOM     76  O   UNL A   1      42.193  18.842  27.633  1.00  0.00    -0.237 OA
ATOM     77  O   UNL A   1      40.311  19.750  26.324  1.00  0.00    -0.744 OA
ENDBRANCH  73  74
ENDBRANCH  52  66
BRANCH  53  78
ATOM     78  C   UNL A   1      47.068  32.948  28.674  1.00  0.00     0.058 A 
ATOM     79  C   UNL A   1      46.994  33.933  27.677  1.00  0.00     0.135 A 
ATOM     80  C   UNL A   1      47.650  33.303  29.900  1.00  0.00     0.135 A 
ATOM     81  F   UNL A   1      46.450  33.640  26.486  1.00  0.00    -0.206 F 
ATOM     82  C   UNL A   1      47.494  35.215  27.878  1.00  0.00     0.059 A 
ATOM     83  C   UNL A   1      48.136  34.587  30.135  1.00  0.00     0.059 A 
ATOM     84  F   UNL A   1      47.728  32.404  30.893  1.00  0.00    -0.206 F 
ATOM     85  C   UNL A   1      48.063  35.533  29.114  1.00  0.00     0.060 A 
BRANCH  85  86
ATOM     86  S   UNL A   1      48.665  37.214  29.382  1.00  0.00     0.124 S 
ATOM     87  O   UNL A   1      47.651  37.750  30.282  1.00  0.00    -0.237 OA
ATOM     88  O   UNL A   1      49.981  36.979  29.969  1.00  0.00    -0.237 OA
ATOM     89  O   UNL A   1      48.681  37.782  28.038  1.00  0.00    -0.744 OA
ENDBRANCH  85  86
ENDBRANCH  53  78
BRANCH  65  90
ATOM     90  C   UNL A   1      49.774  27.145  25.912  1.00  0.00     0.058 A 
ATOM     91  C   UNL A   1      49.992  27.258  24.529  1.00  0.00     0.135 A 
ATOM     92  C   UNL A   1      50.861  26.771  26.718  1.00  0.00     0.135 A 
ATOM     93  F   UNL A   1      48.986  27.609  23.712  1.00  0.00    -0.206 F 
ATOM     94  C   UNL A   1      51.234  26.981  23.965  1.00  0.00     0.059 A 
ATOM     95  C   UNL A   1      52.118  26.517  26.179  1.00  0.00     0.059 A 
ATOM     96  F   UNL A   1      50.709  26.660  28.048  1.00  0.00    -0.206 F 
ATOM     97  C   UNL A   1      52.290  26.608  24.799  1.00  0.00     0.060 A 
BRANCH  97  98
ATOM     98  S   UNL A   1      53.901  26.265  24.059  1.00  0.00     0.124 S 
ATOM     99  O   UNL A   1      53.564  26.195  22.642  1.00  0.00    -0.237 OA
ATOM    100  O   UNL A   1      54.687  27.425  24.467  1.00  0.00    -0.237 OA
ATOM    101  O   UNL A   1      54.295  25.002  24.675  1.00  0.00    -0.744 OA
ENDBRANCH  97  98
ENDBRANCH  65  90
ENDBRANCH  39  40
ENDBRANCH  31  34
ENDBRANCH  29  30
ENDBRANCH  28  29
ENDBRANCH  27  28
ENDBRANCH  26  27
ENDBRANCH   1  26
TORSDOF 22
ENDMDL
MODEL 3
REMARK VINA RESULT:     -10.6      6.379     12.241
REMARK SMILES COc1cccc(O[C@@H](C)c2nnc(SCC(=O)NCCCCCCNC(=O)c3ccc(-c4c5nc(c(-c6c(F)cc(S(=O)(=O)[O-])cc6F)c6ccc([nH]6)c(-c6c(F)cc(S(=O)(=O)[O-])cc6F)c6nc(c(-c7c(F)cc(S(=O)(=O)[O-])cc7F)c7ccc4[nH]7)C=C6)C=C5)cc3)n2C)c1
REMARK SMILES IDX 21 1 20 2 19 3 17 4 18 5 16 7 15 8 14 9 11 10 12 11 95 12
REMARK SMILES IDX 13 13 96 14 9 15 10 16 8 17 7 18 3 19 4 20 97 21 5 22 6 23
REMARK SMILES IDX 2 24 1 25 22 26 23 27 24 28 25 29 26 30 27 31 28 33 29 34
REMARK SMILES IDX 30 35 94 36 31 37 93 38 32 39 33 40 34 41 87 42 35 43 92 44
REMARK SMILES IDX 86 45 88 46 36 47 91 48 85 49 84 50 37 52 71 53 50 54 70 55
REMARK SMILES IDX 51 56 54 57 69 58 89 59 52 60 53 61 68 63 90 64 55 65 38 66
REMARK SMILES IDX 39 67 48 68 40 69 41 70 47 71 49 72 42 73 43 74 44 75 45 76
REMARK SMILES IDX 46 77 72 78 73 79 82 80 74 81 75 82 81 83 83 84 76 85 77 86
REMARK SMILES IDX 78 87 79 88 80 89 56 90 57 91 66 92 58 93 59 94 65 95 67 96
REMARK SMILES IDX 60 97 61 98 62 99 63 100 64 101
REMARK H PARENT 19 6 26 32 88 51 54 62
REMARK Flexibility Score: inf
ROOT
ATOM      1  C   UNL A   1      34.018  28.586  23.991  1.00  0.00     0.021 C 
ENDROOT
BRANCH   1   2
ATOM      2  C   UNL A   1      33.291  28.918  22.688  1.00  0.00     0.116 C 
BRANCH   2   3
ATOM      3  N   UNL A   1      32.865  27.706  22.016  1.00  0.00    -0.355 N 
ATOM      4  C   UNL A   1      31.672  27.061  22.058  1.00  0.00     0.230 C 
ATOM      5  O   UNL A   1      31.574  25.996  21.439  1.00  0.00    -0.274 OA
ATOM      6  H   UNL A   1      33.545  27.286  21.441  1.00  0.00     0.163 HD
BRANCH   4   7
ATOM      7  C   UNL A   1      30.472  27.668  22.737  1.00  0.00     0.178 C 
BRANCH   7   8
ATOM      8  S   UNL A   1      29.547  26.639  23.865  1.00  0.00    -0.076 SA
BRANCH   8   9
ATOM      9  C   UNL A   1      30.562  25.683  24.878  1.00  0.00     0.191 A 
ATOM     10  C   UNL A   1      31.707  24.120  25.921  1.00  0.00     0.174 A 
ATOM     11  N   UNL A   1      31.617  25.170  26.710  1.00  0.00    -0.130 NA
ATOM     12  N   UNL A   1      30.970  24.380  24.772  1.00  0.00    -0.306 N 
ATOM     13  N   UNL A   1      30.932  26.147  26.051  1.00  0.00    -0.123 NA
ATOM     14  C   UNL A   1      30.659  23.392  23.775  1.00  0.00     0.154 C 
BRANCH  10  15
ATOM     15  C   UNL A   1      32.428  22.838  26.223  1.00  0.00     0.238 C 
ATOM     16  C   UNL A   1      32.837  22.655  27.683  1.00  0.00     0.062 C 
BRANCH  15  17
ATOM     17  O   UNL A   1      33.469  22.583  25.267  1.00  0.00    -0.483 OA
BRANCH  17  18
ATOM     18  C   UNL A   1      34.022  21.359  25.029  1.00  0.00     0.124 A 
ATOM     19  C   UNL A   1      34.069  18.994  24.466  1.00  0.00     0.122 A 
ATOM     20  C   UNL A   1      35.449  18.973  24.664  1.00  0.00     0.046 A 
ATOM     21  C   UNL A   1      33.362  20.187  24.659  1.00  0.00     0.092 A 
ATOM     22  C   UNL A   1      36.123  20.137  25.024  1.00  0.00     0.008 A 
ATOM     23  C   UNL A   1      35.410  21.323  25.198  1.00  0.00     0.047 A 
BRANCH  19  24
ATOM     24  O   UNL A   1      33.521  17.791  24.109  1.00  0.00    -0.497 OA
ATOM     25  C   UNL A   1      33.594  16.745  25.071  1.00  0.00     0.278 C 
ENDBRANCH  19  24
ENDBRANCH  17  18
ENDBRANCH  15  17
ENDBRANCH  10  15
ENDBRANCH   8   9
ENDBRANCH   7   8
ENDBRANCH   4   7
ENDBRANCH   2   3
ENDBRANCH   1   2
BRANCH   1  26
ATOM     26  C   UNL A   1      33.241  28.943  25.267  1.00  0.00     0.002 C 
BRANCH  26  27
ATOM     27  C   UNL A   1      33.905  28.526  26.583  1.00  0.00     0.002 C 
BRANCH  27  28
ATOM     28  C   UNL A   1      34.078  29.646  27.610  1.00  0.00     0.021 C 
BRANCH  28  29
ATOM     29  C   UNL A   1      35.508  29.856  28.095  1.00  0.00     0.116 C 
BRANCH  29  30
ATOM     30  N   UNL A   1      35.557  30.340  29.464  1.00  0.00    -0.352 N 
ATOM     31  C   UNL A   1      36.601  30.329  30.352  1.00  0.00     0.251 C 
ATOM     32  H   UNL A   1      34.719  30.729  29.803  1.00  0.00     0.163 HD
ATOM     33  O   UNL A   1      36.392  30.612  31.533  1.00  0.00    -0.269 OA
BRANCH  31  34
ATOM     34  C   UNL A   1      37.966  29.970  29.909  1.00  0.00     0.039 A 
ATOM     35  C   UNL A   1      38.265  30.020  28.544  1.00  0.00     0.014 A 
ATOM     36  C   UNL A   1      38.940  29.542  30.819  1.00  0.00     0.014 A 
ATOM     37  C   UNL A   1      39.539  29.663  28.095  1.00  0.00     0.010 A 
ATOM     38  C   UNL A   1      40.232  29.262  30.378  1.00  0.00     0.010 A 
ATOM     39  C   UNL A   1      40.538  29.292  29.011  1.00  0.00    -0.014 A 
BRANCH  39  40
ATOM     40  C   UNL A   1      41.883  28.873  28.541  1.00  0.00     0.031 A 
ATOM     41  C   UNL A   1      43.001  29.881  28.468  1.00  0.00     0.074 A 
ATOM     42  C   UNL A   1      42.097  27.598  28.159  1.00  0.00     0.049 A 
ATOM     43  N   UNL A   1      44.240  29.716  28.078  1.00  0.00    -0.248 NA
ATOM     44  C   UNL A   1      42.677  31.262  28.861  1.00  0.00     0.031 C 
ATOM     45  C   UNL A   1      41.085  26.539  28.142  1.00  0.00     0.029 A 
ATOM     46  N   UNL A   1      43.236  26.976  27.715  1.00  0.00    -0.354 N 
ATOM     47  C   UNL A   1      44.836  30.969  28.170  1.00  0.00     0.074 A 
ATOM     48  C   UNL A   1      43.808  31.895  28.591  1.00  0.00     0.031 C 
ATOM     49  C   UNL A   1      41.656  25.392  27.741  1.00  0.00     0.029 A 
ATOM     50  C   UNL A   1      43.065  25.638  27.446  1.00  0.00     0.049 A 
ATOM     51  H   UNL A   1      44.095  27.442  27.599  1.00  0.00     0.167 HD
ATOM     52  C   UNL A   1      46.128  31.314  27.953  1.00  0.00     0.037 A 
ATOM     53  C   UNL A   1      43.948  24.713  27.020  1.00  0.00     0.037 A 
ATOM     54  C   UNL A   1      47.153  30.384  27.559  1.00  0.00     0.049 A 
ATOM     55  C   UNL A   1      45.382  25.115  26.800  1.00  0.00     0.074 A 
ATOM     56  C   UNL A   1      48.500  30.622  27.349  1.00  0.00     0.029 A 
ATOM     57  N   UNL A   1      46.946  29.032  27.322  1.00  0.00    -0.354 N 
ATOM     58  N   UNL A   1      45.940  26.294  26.940  1.00  0.00    -0.248 NA
ATOM     59  C   UNL A   1      46.310  24.057  26.381  1.00  0.00     0.031 C 
ATOM     60  C   UNL A   1      49.101  29.422  26.952  1.00  0.00     0.029 A 
ATOM     61  C   UNL A   1      48.136  28.425  26.962  1.00  0.00     0.049 A 
ATOM     62  H   UNL A   1      46.078  28.572  27.399  1.00  0.00     0.167 HD
ATOM     63  C   UNL A   1      47.290  26.112  26.664  1.00  0.00     0.074 A 
ATOM     64  C   UNL A   1      47.465  24.707  26.353  1.00  0.00     0.031 C 
ATOM     65  C   UNL A   1      48.296  27.022  26.673  1.00  0.00     0.037 A 
BRANCH  52  66
ATOM     66  C   UNL A   1      46.501  32.759  28.150  1.00  0.00     0.058 A 
ATOM     67  C   UNL A   1      46.984  33.234  29.381  1.00  0.00     0.135 A 
ATOM     68  C   UNL A   1      46.385  33.680  27.096  1.00  0.00     0.135 A 
ATOM     69  F   UNL A   1      47.100  32.402  30.428  1.00  0.00    -0.206 F 
ATOM     70  C   UNL A   1      47.300  34.575  29.572  1.00  0.00     0.059 A 
ATOM     71  C   UNL A   1      46.724  35.020  27.256  1.00  0.00     0.059 A 
ATOM     72  F   UNL A   1      45.931  33.282  25.897  1.00  0.00    -0.206 F 
ATOM     73  C   UNL A   1      47.162  35.462  28.503  1.00  0.00     0.060 A 
BRANCH  73  74
ATOM     74  S   UNL A   1      47.567  37.201  28.769  1.00  0.00     0.124 S 
ATOM     75  O   UNL A   1      46.250  37.824  28.675  1.00  0.00    -0.237 OA
ATOM     76  O   UNL A   1      48.164  37.185  30.101  1.00  0.00    -0.237 OA
ATOM     77  O   UNL A   1      48.486  37.507  27.677  1.00  0.00    -0.744 OA
ENDBRANCH  73  74
ENDBRANCH  52  66
BRANCH  53  78
ATOM     78  C   UNL A   1      43.512  23.305  26.824  1.00  0.00     0.058 A 
ATOM     79  C   UNL A   1      43.293  22.460  27.923  1.00  0.00     0.135 A 
ATOM     80  C   UNL A   1      43.291  22.780  25.542  1.00  0.00     0.135 A 
ATOM     81  F   UNL A   1      43.496  22.915  29.169  1.00  0.00    -0.206 F 
ATOM     82  C   UNL A   1      42.890  21.139  27.759  1.00  0.00     0.059 A 
ATOM     83  C   UNL A   1      42.863  21.469  25.353  1.00  0.00     0.059 A 
ATOM     84  F   UNL A   1      43.467  23.552  24.459  1.00  0.00    -0.206 F 
ATOM     85  C   UNL A   1      42.676  20.653  26.468  1.00  0.00     0.060 A 
BRANCH  85  86
ATOM     86  S   UNL A   1      42.105  18.951  26.267  1.00  0.00     0.124 S 
ATOM     87  O   UNL A   1      42.225  18.439  27.626  1.00  0.00    -0.237 OA
ATOM     88  O   UNL A   1      40.745  19.139  25.771  1.00  0.00    -0.237 OA
ATOM     89  O   UNL A   1      43.046  18.395  25.298  1.00  0.00    -0.744 OA
ENDBRANCH  85  86
ENDBRANCH  53  78
BRANCH  65  90
ATOM     90  C   UNL A   1      49.685  26.519  26.394  1.00  0.00     0.058 A 
ATOM     91  C   UNL A   1      50.474  25.926  27.392  1.00  0.00     0.135 A 
ATOM     92  C   UNL A   1      50.220  26.602  25.099  1.00  0.00     0.135 A 
ATOM     93  F   UNL A   1      50.013  25.825  28.649  1.00  0.00    -0.206 F 
ATOM     94  C   UNL A   1      51.758  25.460  27.122  1.00  0.00     0.059 A 
ATOM     95  C   UNL A   1      51.489  26.117  24.799  1.00  0.00     0.059 A 
ATOM     96  F   UNL A   1      49.502  27.150  24.105  1.00  0.00    -0.206 F 
ATOM     97  C   UNL A   1      52.257  25.563  25.822  1.00  0.00     0.060 A 
BRANCH  97  98
ATOM     98  S   UNL A   1      53.917  24.942  25.477  1.00  0.00     0.124 S 
ATOM     99  O   UNL A   1      53.650  23.539  25.180  1.00  0.00    -0.237 OA
ATOM    100  O   UNL A   1      54.331  25.763  24.344  1.00  0.00    -0.237 OA
ATOM    101  O   UNL A   1      54.638  25.194  26.721  1.00  0.00    -0.744 OA
ENDBRANCH  97  98
ENDBRANCH  65  90
ENDBRANCH  39  40
ENDBRANCH  31  34
ENDBRANCH  29  30
ENDBRANCH  28  29
ENDBRANCH  27  28
ENDBRANCH  26  27
ENDBRANCH   1  26
TORSDOF 22
ENDMDL
