MODEL 1
REMARK VINA RESULT:     -10.6      0.000      0.000
REMARK SMILES CCCCCCNC(=O)Oc1cccc(-c2ccc(CC(=O)NCCCCCCNC(=O)c3ccc(-c4c5nc(c(-c6c(F)cc(S(=O)(=O)[O-])cc6F)c6ccc([nH]6)c(-c6c(F)cc(S(=O)(=O)[O-])cc6F)c6nc(c(-c7c(F)cc(S(=O)(=O)[O-])cc7F)c7ccc4[nH]7)C=C6)C=C5)cc3)cc2F)c1
REMARK SMILES IDX 21 1 22 2 23 3 20 5 19 6 16 7 17 8 100 9 18 10 99 11 101 12
REMARK SMILES IDX 15 13 11 14 12 15 102 16 13 17 14 18 10 19 8 20 7 21 9 23
REMARK SMILES IDX 6 24 5 25 4 26 3 27 2 28 1 29 24 30 25 31 26 32 27 33 28 34
REMARK SMILES IDX 29 35 30 36 31 37 32 39 33 40 34 41 98 42 35 43 97 44 36 45
REMARK SMILES IDX 37 46 38 47 91 48 39 49 96 50 90 51 92 52 40 53 95 54 89 55
REMARK SMILES IDX 88 56 41 58 75 59 54 60 74 61 55 62 58 63 73 64 93 65 56 66
REMARK SMILES IDX 57 67 72 69 94 70 59 71 42 72 43 73 52 74 44 75 45 76 51 77
REMARK SMILES IDX 53 78 46 79 47 80 48 81 49 82 50 83 76 84 77 85 86 86 78 87
REMARK SMILES IDX 79 88 85 89 87 90 80 91 81 92 82 93 83 94 84 95 60 96 61 97
REMARK SMILES IDX 70 98 62 99 63 100 69 101 71 102 64 103 65 104 66 105 67 106
REMARK SMILES IDX 68 107
REMARK H PARENT 23 4 7 22 30 38 92 57 58 68
REMARK Flexibility Score: inf
ROOT
ATOM      1  C   UNL A   1      34.707  30.842  27.731  1.00  0.00     0.224 C 
ATOM      2  O   UNL A   1      35.450  29.875  27.904  1.00  0.00    -0.275 OA
ATOM      3  N   UNL A   1      35.195  32.093  27.973  1.00  0.00    -0.356 N 
ATOM      4  H   UNL A   1      36.156  32.138  28.186  1.00  0.00     0.163 HD
ENDROOT
BRANCH   1   5
ATOM      5  C   UNL A   1      33.292  30.665  27.206  1.00  0.00     0.135 C 
BRANCH   5   6
ATOM      6  C   UNL A   1      32.935  29.246  26.840  1.00  0.00    -0.036 A 
ATOM      7  C   UNL A   1      32.236  26.612  26.054  1.00  0.00     0.018 A 
ATOM      8  C   UNL A   1      31.491  27.298  27.027  1.00  0.00     0.012 A 
ATOM      9  C   UNL A   1      33.346  27.269  25.505  1.00  0.00     0.131 A 
ATOM     10  C   UNL A   1      31.836  28.598  27.418  1.00  0.00     0.005 A 
ATOM     11  C   UNL A   1      33.705  28.554  25.898  1.00  0.00     0.044 A 
ATOM     12  F   UNL A   1      34.092  26.673  24.563  1.00  0.00    -0.206 F 
BRANCH   7  13
ATOM     13  C   UNL A   1      31.886  25.244  25.645  1.00  0.00    -0.012 A 
ATOM     14  C   UNL A   1      32.126  22.843  25.935  1.00  0.00     0.133 A 
ATOM     15  C   UNL A   1      31.276  22.601  24.862  1.00  0.00     0.047 A 
ATOM     16  C   UNL A   1      32.448  24.145  26.313  1.00  0.00     0.056 A 
ATOM     17  C   UNL A   1      30.709  23.679  24.185  1.00  0.00     0.004 A 
ATOM     18  C   UNL A   1      31.008  24.990  24.578  1.00  0.00     0.009 A 
BRANCH  14  19
ATOM     19  O   UNL A   1      32.737  21.740  26.549  1.00  0.00    -0.410 OA
BRANCH  19  20
ATOM     20  C   UNL A   1      33.067  20.665  25.741  1.00  0.00     0.412 C 
ATOM     21  N   UNL A   1      34.398  20.586  25.453  1.00  0.00    -0.321 N 
ATOM     22  H   UNL A   1      34.678  19.843  24.869  1.00  0.00     0.167 HD
ATOM     23  O   UNL A   1      32.284  19.829  25.288  1.00  0.00    -0.224 OA
BRANCH  21  24
ATOM     24  C   UNL A   1      35.444  21.477  25.914  1.00  0.00     0.119 C 
BRANCH  24  25
ATOM     25  C   UNL A   1      36.656  21.471  24.983  1.00  0.00     0.021 C 
BRANCH  25  26
ATOM     26  C   UNL A   1      36.679  22.594  23.938  1.00  0.00     0.002 C 
BRANCH  26  27
ATOM     27  C   UNL A   1      35.423  23.470  23.880  1.00  0.00    -0.000 C 
BRANCH  27  28
ATOM     28  C   UNL A   1      34.464  23.166  22.726  1.00  0.00    -0.003 C 
ATOM     29  C   UNL A   1      33.555  24.333  22.375  1.00  0.00     0.004 C 
ENDBRANCH  27  28
ENDBRANCH  26  27
ENDBRANCH  25  26
ENDBRANCH  24  25
ENDBRANCH  21  24
ENDBRANCH  19  20
ENDBRANCH  14  19
ENDBRANCH   7  13
ENDBRANCH   5   6
ENDBRANCH   1   5
BRANCH   3  30
ATOM     30  C   UNL A   1      34.501  33.368  27.961  1.00  0.00     0.116 C 
BRANCH  30  31
ATOM     31  C   UNL A   1      35.040  34.301  29.048  1.00  0.00     0.021 C 
BRANCH  31  32
ATOM     32  C   UNL A   1      36.353  33.821  29.681  1.00  0.00     0.002 C 
BRANCH  32  33
ATOM     33  C   UNL A   1      36.428  33.960  31.205  1.00  0.00     0.002 C 
BRANCH  33  34
ATOM     34  C   UNL A   1      37.799  33.665  31.818  1.00  0.00     0.021 C 
BRANCH  34  35
ATOM     35  C   UNL A   1      37.847  32.420  32.700  1.00  0.00     0.116 C 
BRANCH  35  36
ATOM     36  N   UNL A   1      36.804  31.468  32.353  1.00  0.00    -0.352 N 
ATOM     37  C   UNL A   1      36.834  30.433  31.452  1.00  0.00     0.251 C 
ATOM     38  H   UNL A   1      35.953  31.581  32.836  1.00  0.00     0.163 HD
ATOM     39  O   UNL A   1      35.791  29.861  31.143  1.00  0.00    -0.269 OA
BRANCH  37  40
ATOM     40  C   UNL A   1      38.115  30.020  30.840  1.00  0.00     0.039 A 
ATOM     41  C   UNL A   1      38.366  30.353  29.506  1.00  0.00     0.014 A 
ATOM     42  C   UNL A   1      39.062  29.299  31.573  1.00  0.00     0.014 A 
ATOM     43  C   UNL A   1      39.592  30.014  28.928  1.00  0.00     0.010 A 
ATOM     44  C   UNL A   1      40.309  29.023  31.016  1.00  0.00     0.010 A 
ATOM     45  C   UNL A   1      40.586  29.376  29.687  1.00  0.00    -0.014 A 
BRANCH  45  46
ATOM     46  C   UNL A   1      41.921  29.069  29.108  1.00  0.00     0.031 A 
ATOM     47  C   UNL A   1      42.227  27.681  28.610  1.00  0.00     0.074 A 
ATOM     48  C   UNL A   1      42.869  30.027  29.074  1.00  0.00     0.049 A 
ATOM     49  N   UNL A   1      43.352  27.201  28.144  1.00  0.00    -0.248 NA
ATOM     50  C   UNL A   1      41.132  26.699  28.660  1.00  0.00     0.031 C 
ATOM     51  C   UNL A   1      42.705  31.400  29.558  1.00  0.00     0.029 A 
ATOM     52  N   UNL A   1      44.164  29.992  28.618  1.00  0.00    -0.354 N 
ATOM     53  C   UNL A   1      43.100  25.868  27.844  1.00  0.00     0.074 A 
ATOM     54  C   UNL A   1      41.735  25.596  28.238  1.00  0.00     0.031 C 
ATOM     55  C   UNL A   1      43.847  32.078  29.355  1.00  0.00     0.029 A 
ATOM     56  C   UNL A   1      44.836  31.183  28.765  1.00  0.00     0.049 A 
ATOM     57  H   UNL A   1      44.573  29.188  28.222  1.00  0.00     0.167 HD
ATOM     58  C   UNL A   1      43.920  24.960  27.262  1.00  0.00     0.037 A 
ATOM     59  C   UNL A   1      46.108  31.513  28.467  1.00  0.00     0.037 A 
ATOM     60  C   UNL A   1      45.274  25.238  26.857  1.00  0.00     0.049 A 
ATOM     61  C   UNL A   1      47.009  30.473  27.853  1.00  0.00     0.074 A 
ATOM     62  C   UNL A   1      46.181  24.388  26.248  1.00  0.00     0.029 A 
ATOM     63  N   UNL A   1      45.911  26.460  27.009  1.00  0.00    -0.354 N 
ATOM     64  N   UNL A   1      46.740  29.226  27.543  1.00  0.00    -0.248 NA
ATOM     65  C   UNL A   1      48.386  30.883  27.543  1.00  0.00     0.031 C 
ATOM     66  C   UNL A   1      47.378  25.086  26.060  1.00  0.00     0.029 A 
ATOM     67  C   UNL A   1      47.201  26.385  26.511  1.00  0.00     0.049 A 
ATOM     68  H   UNL A   1      45.507  27.262  27.411  1.00  0.00     0.167 HD
ATOM     69  C   UNL A   1      47.900  28.719  26.967  1.00  0.00     0.074 A 
ATOM     70  C   UNL A   1      48.869  29.795  26.961  1.00  0.00     0.031 C 
ATOM     71  C   UNL A   1      48.144  27.475  26.487  1.00  0.00     0.037 A 
BRANCH  58  72
ATOM     72  C   UNL A   1      43.370  23.585  27.001  1.00  0.00     0.058 A 
ATOM     73  C   UNL A   1      43.108  23.143  25.694  1.00  0.00     0.135 A 
ATOM     74  C   UNL A   1      43.166  22.677  28.052  1.00  0.00     0.135 A 
ATOM     75  F   UNL A   1      43.270  23.975  24.653  1.00  0.00    -0.206 F 
ATOM     76  C   UNL A   1      42.648  21.856  25.440  1.00  0.00     0.059 A 
ATOM     77  C   UNL A   1      42.732  21.375  27.819  1.00  0.00     0.059 A 
ATOM     78  F   UNL A   1      43.399  23.048  29.321  1.00  0.00    -0.206 F 
ATOM     79  C   UNL A   1      42.469  20.976  26.509  1.00  0.00     0.060 A 
BRANCH  79  80
ATOM     80  S   UNL A   1      41.903  19.299  26.155  1.00  0.00     0.124 S 
ATOM     81  O   UNL A   1      42.257  18.605  27.390  1.00  0.00    -0.237 OA
ATOM     82  O   UNL A   1      40.475  19.494  25.926  1.00  0.00    -0.237 OA
ATOM     83  O   UNL A   1      42.678  18.919  24.978  1.00  0.00    -0.744 OA
ENDBRANCH  79  80
ENDBRANCH  58  72
BRANCH  59  84
ATOM     84  C   UNL A   1      46.617  32.885  28.734  1.00  0.00     0.058 A 
ATOM     85  C   UNL A   1      46.457  33.911  27.790  1.00  0.00     0.135 A 
ATOM     86  C   UNL A   1      47.314  33.188  29.914  1.00  0.00     0.135 A 
ATOM     87  F   UNL A   1      45.802  33.672  26.644  1.00  0.00    -0.206 F 
ATOM     88  C   UNL A   1      47.008  35.174  27.985  1.00  0.00     0.059 A 
ATOM     89  C   UNL A   1      47.847  34.452  30.145  1.00  0.00     0.059 A 
ATOM     90  F   UNL A   1      47.477  32.249  30.860  1.00  0.00    -0.206 F 
ATOM     91  C   UNL A   1      47.709  35.432  29.163  1.00  0.00     0.060 A 
BRANCH  91  92
ATOM     92  S   UNL A   1      48.430  37.070  29.404  1.00  0.00     0.124 S 
ATOM     93  O   UNL A   1      49.706  36.738  30.027  1.00  0.00    -0.237 OA
ATOM     94  O   UNL A   1      48.497  37.582  28.040  1.00  0.00    -0.237 OA
ATOM     95  O   UNL A   1      47.460  37.737  30.268  1.00  0.00    -0.744 OA
ENDBRANCH  91  92
ENDBRANCH  59  84
BRANCH  71  96
ATOM     96  C   UNL A   1      49.488  27.223  25.863  1.00  0.00     0.058 A 
ATOM     97  C   UNL A   1      50.606  26.865  26.632  1.00  0.00     0.135 A 
ATOM     98  C   UNL A   1      49.645  27.295  24.469  1.00  0.00     0.135 A 
ATOM     99  F   UNL A   1      50.509  26.788  27.969  1.00  0.00    -0.206 F 
ATOM    100  C   UNL A   1      51.839  26.609  26.043  1.00  0.00     0.059 A 
ATOM    101  C   UNL A   1      50.863  27.016  23.857  1.00  0.00     0.059 A 
ATOM    102  F   UNL A   1      48.606  27.624  23.686  1.00  0.00    -0.206 F 
ATOM    103  C   UNL A   1      51.958  26.685  24.654  1.00  0.00     0.060 A 
BRANCH 103 104
ATOM    104  S   UNL A   1      53.557  26.315  23.901  1.00  0.00     0.124 S 
ATOM    105  O   UNL A   1      54.323  27.511  24.236  1.00  0.00    -0.237 OA
ATOM    106  O   UNL A   1      53.953  25.093  24.593  1.00  0.00    -0.237 OA
ATOM    107  O   UNL A   1      53.235  26.151  22.486  1.00  0.00    -0.744 OA
ENDBRANCH 103 104
ENDBRANCH  71  96
ENDBRANCH  45  46
ENDBRANCH  37  40
ENDBRANCH  35  36
ENDBRANCH  34  35
ENDBRANCH  33  34
ENDBRANCH  32  33
ENDBRANCH  31  32
ENDBRANCH  30  31
ENDBRANCH   3  30
TORSDOF 25
ENDMDL
MODEL 2
REMARK VINA RESULT:     -10.3      4.464     11.042
REMARK SMILES CCCCCCNC(=O)Oc1cccc(-c2ccc(CC(=O)NCCCCCCNC(=O)c3ccc(-c4c5nc(c(-c6c(F)cc(S(=O)(=O)[O-])cc6F)c6ccc([nH]6)c(-c6c(F)cc(S(=O)(=O)[O-])cc6F)c6nc(c(-c7c(F)cc(S(=O)(=O)[O-])cc7F)c7ccc4[nH]7)C=C6)C=C5)cc3)cc2F)c1
REMARK SMILES IDX 21 1 22 2 23 3 20 5 19 6 16 7 17 8 100 9 18 10 99 11 101 12
REMARK SMILES IDX 15 13 11 14 12 15 102 16 13 17 14 18 10 19 8 20 7 21 9 23
REMARK SMILES IDX 6 24 5 25 4 26 3 27 2 28 1 29 24 30 25 31 26 32 27 33 28 34
REMARK SMILES IDX 29 35 30 36 31 37 32 39 33 40 34 41 98 42 35 43 97 44 36 45
REMARK SMILES IDX 37 46 38 47 91 48 39 49 96 50 90 51 92 52 40 53 95 54 89 55
REMARK SMILES IDX 88 56 41 58 75 59 54 60 74 61 55 62 58 63 73 64 93 65 56 66
REMARK SMILES IDX 57 67 72 69 94 70 59 71 42 72 43 73 52 74 44 75 45 76 51 77
REMARK SMILES IDX 53 78 46 79 47 80 48 81 49 82 50 83 76 84 77 85 86 86 78 87
REMARK SMILES IDX 79 88 85 89 87 90 80 91 81 92 82 93 83 94 84 95 60 96 61 97
REMARK SMILES IDX 70 98 62 99 63 100 69 101 71 102 64 103 65 104 66 105 67 106
REMARK SMILES IDX 68 107
REMARK H PARENT 23 4 7 22 30 38 92 57 58 68
REMARK Flexibility Score: inf
ROOT
ATOM      1  C   UNL A   1      38.240  34.072  34.535  1.00  0.00     0.224 C 
ATOM      2  O   UNL A   1      39.031  34.780  35.161  1.00  0.00    -0.275 OA
ATOM      3  N   UNL A   1      37.838  34.479  33.296  1.00  0.00    -0.356 N 
ATOM      4  H   UNL A   1      38.289  35.282  32.948  1.00  0.00     0.163 HD
ENDROOT
BRANCH   1   5
ATOM      5  C   UNL A   1      37.759  32.744  35.094  1.00  0.00     0.135 C 
BRANCH   5   6
ATOM      6  C   UNL A   1      38.708  31.592  34.873  1.00  0.00    -0.036 A 
ATOM      7  C   UNL A   1      40.570  29.497  34.442  1.00  0.00     0.018 A 
ATOM      8  C   UNL A   1      39.535  29.743  33.527  1.00  0.00     0.012 A 
ATOM      9  C   UNL A   1      40.633  30.310  35.583  1.00  0.00     0.131 A 
ATOM     10  C   UNL A   1      38.612  30.776  33.739  1.00  0.00     0.005 A 
ATOM     11  C   UNL A   1      39.713  31.327  35.810  1.00  0.00     0.044 A 
ATOM     12  F   UNL A   1      41.606  30.134  36.491  1.00  0.00    -0.206 F 
BRANCH   7  13
ATOM     13  C   UNL A   1      41.536  28.409  34.233  1.00  0.00    -0.012 A 
ATOM     14  C   UNL A   1      42.415  26.234  34.868  1.00  0.00     0.133 A 
ATOM     15  C   UNL A   1      43.401  26.317  33.891  1.00  0.00     0.047 A 
ATOM     16  C   UNL A   1      41.505  27.273  35.056  1.00  0.00     0.056 A 
ATOM     17  C   UNL A   1      43.449  27.439  33.065  1.00  0.00     0.004 A 
ATOM     18  C   UNL A   1      42.520  28.473  33.231  1.00  0.00     0.009 A 
BRANCH  14  19
ATOM     19  O   UNL A   1      42.439  25.129  35.730  1.00  0.00    -0.410 OA
BRANCH  19  20
ATOM     20  C   UNL A   1      42.603  25.380  37.082  1.00  0.00     0.412 C 
ATOM     21  N   UNL A   1      43.768  24.885  37.592  1.00  0.00    -0.321 N 
ATOM     22  H   UNL A   1      43.922  25.028  38.554  1.00  0.00     0.167 HD
ATOM     23  O   UNL A   1      41.812  25.980  37.812  1.00  0.00    -0.224 OA
BRANCH  21  24
ATOM     24  C   UNL A   1      44.802  24.171  36.869  1.00  0.00     0.119 C 
BRANCH  24  25
ATOM     25  C   UNL A   1      45.650  23.297  37.794  1.00  0.00     0.021 C 
BRANCH  25  26
ATOM     26  C   UNL A   1      46.492  22.228  37.085  1.00  0.00     0.002 C 
BRANCH  26  27
ATOM     27  C   UNL A   1      45.739  21.350  36.081  1.00  0.00    -0.000 C 
BRANCH  27  28
ATOM     28  C   UNL A   1      46.326  19.952  35.863  1.00  0.00    -0.003 C 
ATOM     29  C   UNL A   1      45.279  18.909  35.505  1.00  0.00     0.004 C 
ENDBRANCH  27  28
ENDBRANCH  26  27
ENDBRANCH  25  26
ENDBRANCH  24  25
ENDBRANCH  21  24
ENDBRANCH  19  20
ENDBRANCH  14  19
ENDBRANCH   7  13
ENDBRANCH   5   6
ENDBRANCH   1   5
BRANCH   3  30
ATOM     30  C   UNL A   1      36.839  33.897  32.418  1.00  0.00     0.116 C 
BRANCH  30  31
ATOM     31  C   UNL A   1      37.494  33.137  31.262  1.00  0.00     0.021 C 
BRANCH  31  32
ATOM     32  C   UNL A   1      37.658  33.973  29.986  1.00  0.00     0.002 C 
BRANCH  32  33
ATOM     33  C   UNL A   1      37.192  33.288  28.697  1.00  0.00     0.002 C 
BRANCH  33  34
ATOM     34  C   UNL A   1      35.703  33.448  28.378  1.00  0.00     0.021 C 
BRANCH  34  35
ATOM     35  C   UNL A   1      34.769  32.664  29.295  1.00  0.00     0.116 C 
BRANCH  35  36
ATOM     36  N   UNL A   1      34.025  31.645  28.570  1.00  0.00    -0.352 N 
ATOM     37  C   UNL A   1      34.474  30.481  27.999  1.00  0.00     0.251 C 
ATOM     38  H   UNL A   1      33.060  31.814  28.478  1.00  0.00     0.163 HD
ATOM     39  O   UNL A   1      33.737  29.843  27.251  1.00  0.00    -0.269 OA
BRANCH  37  40
ATOM     40  C   UNL A   1      35.849  30.005  28.268  1.00  0.00     0.039 A 
ATOM     41  C   UNL A   1      36.791  30.041  27.236  1.00  0.00     0.014 A 
ATOM     42  C   UNL A   1      36.205  29.516  29.528  1.00  0.00     0.014 A 
ATOM     43  C   UNL A   1      38.106  29.642  27.488  1.00  0.00     0.010 A 
ATOM     44  C   UNL A   1      37.532  29.184  29.794  1.00  0.00     0.010 A 
ATOM     45  C   UNL A   1      38.496  29.242  28.776  1.00  0.00    -0.014 A 
BRANCH  45  46
ATOM     46  C   UNL A   1      39.906  28.879  29.077  1.00  0.00     0.031 A 
ATOM     47  C   UNL A   1      40.818  29.878  29.738  1.00  0.00     0.074 A 
ATOM     48  C   UNL A   1      40.375  27.668  28.714  1.00  0.00     0.049 A 
ATOM     49  N   UNL A   1      42.094  29.776  30.012  1.00  0.00    -0.248 NA
ATOM     50  C   UNL A   1      40.224  31.169  30.124  1.00  0.00     0.031 C 
ATOM     51  C   UNL A   1      39.599  26.626  28.036  1.00  0.00     0.029 A 
ATOM     52  N   UNL A   1      41.621  27.109  28.857  1.00  0.00    -0.354 N 
ATOM     53  C   UNL A   1      42.452  30.982  30.603  1.00  0.00     0.074 A 
ATOM     54  C   UNL A   1      41.277  31.824  30.591  1.00  0.00     0.031 C 
ATOM     55  C   UNL A   1      40.380  25.552  27.840  1.00  0.00     0.029 A 
ATOM     56  C   UNL A   1      41.720  25.837  28.341  1.00  0.00     0.049 A 
ATOM     57  H   UNL A   1      42.373  27.575  29.288  1.00  0.00     0.167 HD
ATOM     58  C   UNL A   1      43.644  31.343  31.136  1.00  0.00     0.037 A 
ATOM     59  C   UNL A   1      42.775  25.002  28.271  1.00  0.00     0.037 A 
ATOM     60  C   UNL A   1      44.808  30.495  31.159  1.00  0.00     0.049 A 
ATOM     61  C   UNL A   1      44.098  25.443  28.841  1.00  0.00     0.074 A 
ATOM     62  C   UNL A   1      46.059  30.766  31.688  1.00  0.00     0.029 A 
ATOM     63  N   UNL A   1      44.863  29.210  30.641  1.00  0.00    -0.354 N 
ATOM     64  N   UNL A   1      44.408  26.575  29.429  1.00  0.00    -0.248 NA
ATOM     65  C   UNL A   1      45.216  24.494  28.743  1.00  0.00     0.031 C 
ATOM     66  C   UNL A   1      46.880  29.657  31.462  1.00  0.00     0.029 A 
ATOM     67  C   UNL A   1      46.127  28.678  30.833  1.00  0.00     0.049 A 
ATOM     68  H   UNL A   1      44.115  28.746  30.202  1.00  0.00     0.167 HD
ATOM     69  C   UNL A   1      45.741  26.455  29.805  1.00  0.00     0.074 A 
ATOM     70  C   UNL A   1      46.177  25.139  29.388  1.00  0.00     0.031 C 
ATOM     71  C   UNL A   1      46.536  27.353  30.436  1.00  0.00     0.037 A 
BRANCH  58  72
ATOM     72  C   UNL A   1      43.746  32.704  31.766  1.00  0.00     0.058 A 
ATOM     73  C   UNL A   1      43.490  32.893  33.134  1.00  0.00     0.135 A 
ATOM     74  C   UNL A   1      44.166  33.816  31.019  1.00  0.00     0.135 A 
ATOM     75  F   UNL A   1      43.069  31.868  33.891  1.00  0.00    -0.206 F 
ATOM     76  C   UNL A   1      43.631  34.139  33.736  1.00  0.00     0.059 A 
ATOM     77  C   UNL A   1      44.341  35.067  31.607  1.00  0.00     0.059 A 
ATOM     78  F   UNL A   1      44.423  33.692  29.708  1.00  0.00    -0.206 F 
ATOM     79  C   UNL A   1      44.063  35.219  32.964  1.00  0.00     0.060 A 
BRANCH  79  80
ATOM     80  S   UNL A   1      44.272  36.820  33.771  1.00  0.00     0.124 S 
ATOM     81  O   UNL A   1      45.068  37.543  32.782  1.00  0.00    -0.237 OA
ATOM     82  O   UNL A   1      42.894  37.273  33.927  1.00  0.00    -0.237 OA
ATOM     83  O   UNL A   1      44.965  36.489  35.012  1.00  0.00    -0.744 OA
ENDBRANCH  79  80
ENDBRANCH  58  72
BRANCH  59  84
ATOM     84  C   UNL A   1      42.637  23.659  27.645  1.00  0.00     0.058 A 
ATOM     85  C   UNL A   1      42.408  22.517  28.428  1.00  0.00     0.135 A 
ATOM     86  C   UNL A   1      42.777  23.482  26.260  1.00  0.00     0.135 A 
ATOM     87  F   UNL A   1      42.271  22.633  29.757  1.00  0.00    -0.206 F 
ATOM     88  C   UNL A   1      42.369  21.244  27.868  1.00  0.00     0.059 A 
ATOM     89  C   UNL A   1      42.710  22.222  25.673  1.00  0.00     0.059 A 
ATOM     90  F   UNL A   1      42.975  24.543  25.461  1.00  0.00    -0.206 F 
ATOM     91  C   UNL A   1      42.529  21.107  26.489  1.00  0.00     0.060 A 
BRANCH  91  92
ATOM     92  S   UNL A   1      42.488  19.451  25.770  1.00  0.00     0.124 S 
ATOM     93  O   UNL A   1      41.078  19.317  25.425  1.00  0.00    -0.237 OA
ATOM     94  O   UNL A   1      43.413  19.577  24.648  1.00  0.00    -0.237 OA
ATOM     95  O   UNL A   1      42.954  18.601  26.863  1.00  0.00    -0.744 OA
ENDBRANCH  91  92
ENDBRANCH  59  84
BRANCH  71  96
ATOM     96  C   UNL A   1      47.938  26.926  30.769  1.00  0.00     0.058 A 
ATOM     97  C   UNL A   1      48.963  26.940  29.810  1.00  0.00     0.135 A 
ATOM     98  C   UNL A   1      48.270  26.544  32.079  1.00  0.00     0.135 A 
ATOM     99  F   UNL A   1      48.697  27.292  28.541  1.00  0.00    -0.206 F 
ATOM    100  C   UNL A   1      50.263  26.567  30.132  1.00  0.00     0.059 A 
ATOM    101  C   UNL A   1      49.570  26.194  32.430  1.00  0.00     0.059 A 
ATOM    102  F   UNL A   1      47.330  26.523  33.037  1.00  0.00    -0.206 F 
ATOM    103  C   UNL A   1      50.558  26.197  31.446  1.00  0.00     0.060 A 
BRANCH 103 104
ATOM    104  S   UNL A   1      52.258  25.750  31.859  1.00  0.00     0.124 S 
ATOM    105  O   UNL A   1      52.170  24.295  31.932  1.00  0.00    -0.237 OA
ATOM    106  O   UNL A   1      53.005  26.285  30.725  1.00  0.00    -0.237 OA
ATOM    107  O   UNL A   1      52.488  26.430  33.130  1.00  0.00    -0.744 OA
ENDBRANCH 103 104
ENDBRANCH  71  96
ENDBRANCH  45  46
ENDBRANCH  37  40
ENDBRANCH  35  36
ENDBRANCH  34  35
ENDBRANCH  33  34
ENDBRANCH  32  33
ENDBRANCH  31  32
ENDBRANCH  30  31
ENDBRANCH   3  30
TORSDOF 25
ENDMDL
MODEL 3
REMARK VINA RESULT:      -9.4      4.261      8.227
REMARK SMILES CCCCCCNC(=O)Oc1cccc(-c2ccc(CC(=O)NCCCCCCNC(=O)c3ccc(-c4c5nc(c(-c6c(F)cc(S(=O)(=O)[O-])cc6F)c6ccc([nH]6)c(-c6c(F)cc(S(=O)(=O)[O-])cc6F)c6nc(c(-c7c(F)cc(S(=O)(=O)[O-])cc7F)c7ccc4[nH]7)C=C6)C=C5)cc3)cc2F)c1
REMARK SMILES IDX 21 1 22 2 23 3 20 5 19 6 16 7 17 8 100 9 18 10 99 11 101 12
REMARK SMILES IDX 15 13 11 14 12 15 102 16 13 17 14 18 10 19 8 20 7 21 9 23
REMARK SMILES IDX 6 24 5 25 4 26 3 27 2 28 1 29 24 30 25 31 26 32 27 33 28 34
REMARK SMILES IDX 29 35 30 36 31 37 32 39 33 40 34 41 98 42 35 43 97 44 36 45
REMARK SMILES IDX 37 46 38 47 91 48 39 49 96 50 90 51 92 52 40 53 95 54 89 55
REMARK SMILES IDX 88 56 41 58 75 59 54 60 74 61 55 62 58 63 73 64 93 65 56 66
REMARK SMILES IDX 57 67 72 69 94 70 59 71 42 72 43 73 52 74 44 75 45 76 51 77
REMARK SMILES IDX 53 78 46 79 47 80 48 81 49 82 50 83 76 84 77 85 86 86 78 87
REMARK SMILES IDX 79 88 85 89 87 90 80 91 81 92 82 93 83 94 84 95 60 96 61 97
REMARK SMILES IDX 70 98 62 99 63 100 69 101 71 102 64 103 65 104 66 105 67 106
REMARK SMILES IDX 68 107
REMARK H PARENT 23 4 7 22 30 38 92 57 58 68
REMARK Flexibility Score: inf
ROOT
ATOM      1  C   UNL A   1      39.178  34.000  33.969  1.00  0.00     0.224 C 
ATOM      2  O   UNL A   1      40.088  34.573  34.572  1.00  0.00    -0.275 OA
ATOM      3  N   UNL A   1      38.695  34.566  32.825  1.00  0.00    -0.356 N 
ATOM      4  H   UNL A   1      39.182  35.362  32.509  1.00  0.00     0.163 HD
ENDROOT
BRANCH   1   5
ATOM      5  C   UNL A   1      38.633  32.666  34.447  1.00  0.00     0.135 C 
BRANCH   5   6
ATOM      6  C   UNL A   1      39.595  31.511  34.305  1.00  0.00    -0.036 A 
ATOM      7  C   UNL A   1      41.483  29.413  34.027  1.00  0.00     0.018 A 
ATOM      8  C   UNL A   1      40.506  29.642  33.045  1.00  0.00     0.012 A 
ATOM      9  C   UNL A   1      41.474  30.245  35.156  1.00  0.00     0.131 A 
ATOM     10  C   UNL A   1      39.571  30.677  33.181  1.00  0.00     0.005 A 
ATOM     11  C   UNL A   1      40.540  31.265  35.308  1.00  0.00     0.044 A 
ATOM     12  F   UNL A   1      42.387  30.086  36.126  1.00  0.00    -0.206 F 
BRANCH   7  13
ATOM     13  C   UNL A   1      42.461  28.323  33.897  1.00  0.00    -0.012 A 
ATOM     14  C   UNL A   1      43.981  26.735  34.932  1.00  0.00     0.133 A 
ATOM     15  C   UNL A   1      44.376  26.260  33.686  1.00  0.00     0.047 A 
ATOM     16  C   UNL A   1      43.052  27.768  35.041  1.00  0.00     0.056 A 
ATOM     17  C   UNL A   1      43.801  26.801  32.537  1.00  0.00     0.004 A 
ATOM     18  C   UNL A   1      42.847  27.820  32.643  1.00  0.00     0.009 A 
BRANCH  14  19
ATOM     19  O   UNL A   1      44.630  26.223  36.064  1.00  0.00    -0.410 OA
BRANCH  19  20
ATOM     20  C   UNL A   1      44.975  27.121  37.060  1.00  0.00     0.412 C 
ATOM     21  N   UNL A   1      46.210  27.676  36.893  1.00  0.00    -0.321 N 
ATOM     22  H   UNL A   1      46.503  28.312  37.585  1.00  0.00     0.167 HD
ATOM     23  O   UNL A   1      44.283  27.429  38.033  1.00  0.00    -0.224 OA
BRANCH  21  24
ATOM     24  C   UNL A   1      47.134  27.431  35.805  1.00  0.00     0.119 C 
BRANCH  24  25
ATOM     25  C   UNL A   1      47.166  28.588  34.806  1.00  0.00     0.021 C 
BRANCH  25  26
ATOM     26  C   UNL A   1      47.265  29.985  35.433  1.00  0.00     0.002 C 
BRANCH  26  27
ATOM     27  C   UNL A   1      46.250  31.013  34.924  1.00  0.00    -0.000 C 
BRANCH  27  28
ATOM     28  C   UNL A   1      45.226  31.490  35.958  1.00  0.00    -0.003 C 
ATOM     29  C   UNL A   1      45.856  31.940  37.266  1.00  0.00     0.004 C 
ENDBRANCH  27  28
ENDBRANCH  26  27
ENDBRANCH  25  26
ENDBRANCH  24  25
ENDBRANCH  21  24
ENDBRANCH  19  20
ENDBRANCH  14  19
ENDBRANCH   7  13
ENDBRANCH   5   6
ENDBRANCH   1   5
BRANCH   3  30
ATOM     30  C   UNL A   1      37.566  34.162  32.007  1.00  0.00     0.116 C 
BRANCH  30  31
ATOM     31  C   UNL A   1      38.013  33.263  30.852  1.00  0.00     0.021 C 
BRANCH  31  32
ATOM     32  C   UNL A   1      37.938  33.941  29.476  1.00  0.00     0.002 C 
BRANCH  32  33
ATOM     33  C   UNL A   1      36.962  33.294  28.487  1.00  0.00     0.002 C 
BRANCH  33  34
ATOM     34  C   UNL A   1      35.484  33.392  28.875  1.00  0.00     0.021 C 
BRANCH  34  35
ATOM     35  C   UNL A   1      34.956  32.203  29.673  1.00  0.00     0.116 C 
BRANCH  35  36
ATOM     36  N   UNL A   1      34.306  31.221  28.818  1.00  0.00    -0.352 N 
ATOM     37  C   UNL A   1      34.858  30.186  28.104  1.00  0.00     0.251 C 
ATOM     38  H   UNL A   1      33.329  31.311  28.741  1.00  0.00     0.163 HD
ATOM     39  O   UNL A   1      34.179  29.585  27.276  1.00  0.00    -0.269 OA
BRANCH  37  40
ATOM     40  C   UNL A   1      36.272  29.809  28.319  1.00  0.00     0.039 A 
ATOM     41  C   UNL A   1      37.171  29.921  27.256  1.00  0.00     0.014 A 
ATOM     42  C   UNL A   1      36.709  29.337  29.561  1.00  0.00     0.014 A 
ATOM     43  C   UNL A   1      38.520  29.616  27.456  1.00  0.00     0.010 A 
ATOM     44  C   UNL A   1      38.064  29.099  29.776  1.00  0.00     0.010 A 
ATOM     45  C   UNL A   1      38.984  29.234  28.725  1.00  0.00    -0.014 A 
BRANCH  45  46
ATOM     46  C   UNL A   1      40.427  28.972  28.972  1.00  0.00     0.031 A 
ATOM     47  C   UNL A   1      41.011  27.618  28.667  1.00  0.00     0.074 A 
ATOM     48  C   UNL A   1      41.197  29.938  29.513  1.00  0.00     0.049 A 
ATOM     49  N   UNL A   1      42.223  27.175  28.884  1.00  0.00    -0.248 NA
ATOM     50  C   UNL A   1      40.111  26.626  28.057  1.00  0.00     0.031 C 
ATOM     51  C   UNL A   1      40.739  31.280  29.884  1.00  0.00     0.029 A 
ATOM     52  N   UNL A   1      42.527  29.940  29.852  1.00  0.00    -0.354 N 
ATOM     53  C   UNL A   1      42.232  25.860  28.436  1.00  0.00     0.074 A 
ATOM     54  C   UNL A   1      40.889  25.555  27.993  1.00  0.00     0.031 C 
ATOM     55  C   UNL A   1      41.774  31.977  30.380  1.00  0.00     0.029 A 
ATOM     56  C   UNL A   1      42.958  31.126  30.400  1.00  0.00     0.049 A 
ATOM     57  H   UNL A   1      43.118  29.164  29.715  1.00  0.00     0.167 HD
ATOM     58  C   UNL A   1      43.271  24.993  28.369  1.00  0.00     0.037 A 
ATOM     59  C   UNL A   1      44.168  31.482  30.874  1.00  0.00     0.037 A 
ATOM     60  C   UNL A   1      44.611  25.306  28.797  1.00  0.00     0.049 A 
ATOM     61  C   UNL A   1      45.298  30.486  30.819  1.00  0.00     0.074 A 
ATOM     62  C   UNL A   1      45.735  24.500  28.758  1.00  0.00     0.029 A 
ATOM     63  N   UNL A   1      45.009  26.521  29.331  1.00  0.00    -0.354 N 
ATOM     64  N   UNL A   1      45.295  29.258  30.357  1.00  0.00    -0.248 NA
ATOM     65  C   UNL A   1      46.598  30.925  31.345  1.00  0.00     0.031 C 
ATOM     66  C   UNL A   1      46.808  25.217  29.298  1.00  0.00     0.029 A 
ATOM     67  C   UNL A   1      46.361  26.485  29.631  1.00  0.00     0.049 A 
ATOM     68  H   UNL A   1      44.419  27.295  29.476  1.00  0.00     0.167 HD
ATOM     69  C   UNL A   1      46.598  28.794  30.501  1.00  0.00     0.074 A 
ATOM     70  C   UNL A   1      47.365  29.876  31.082  1.00  0.00     0.031 C 
ATOM     71  C   UNL A   1      47.115  27.583  30.183  1.00  0.00     0.037 A 
BRANCH  58  72
ATOM     72  C   UNL A   1      43.012  23.632  27.786  1.00  0.00     0.058 A 
ATOM     73  C   UNL A   1      42.678  22.541  28.606  1.00  0.00     0.135 A 
ATOM     74  C   UNL A   1      43.030  23.425  26.398  1.00  0.00     0.135 A 
ATOM     75  F   UNL A   1      42.664  22.679  29.941  1.00  0.00    -0.206 F 
ATOM     76  C   UNL A   1      42.387  21.291  28.072  1.00  0.00     0.059 A 
ATOM     77  C   UNL A   1      42.715  22.189  25.839  1.00  0.00     0.059 A 
ATOM     78  F   UNL A   1      43.344  24.432  25.568  1.00  0.00    -0.206 F 
ATOM     79  C   UNL A   1      42.403  21.127  26.686  1.00  0.00     0.060 A 
BRANCH  79  80
ATOM     80  S   UNL A   1      41.989  19.505  26.009  1.00  0.00     0.124 S 
ATOM     81  O   UNL A   1      42.822  19.467  24.811  1.00  0.00    -0.237 OA
ATOM     82  O   UNL A   1      42.390  18.606  27.087  1.00  0.00    -0.237 OA
ATOM     83  O   UNL A   1      40.552  19.591  25.771  1.00  0.00    -0.744 OA
ENDBRANCH  79  80
ENDBRANCH  58  72
BRANCH  59  84
ATOM     84  C   UNL A   1      44.390  32.840  31.439  1.00  0.00     0.058 A 
ATOM     85  C   UNL A   1      45.023  33.841  30.686  1.00  0.00     0.135 A 
ATOM     86  C   UNL A   1      44.018  33.152  32.755  1.00  0.00     0.135 A 
ATOM     87  F   UNL A   1      45.402  33.592  29.423  1.00  0.00    -0.206 F 
ATOM     88  C   UNL A   1      45.321  35.086  31.231  1.00  0.00     0.059 A 
ATOM     89  C   UNL A   1      44.277  34.401  33.313  1.00  0.00     0.059 A 
ATOM     90  F   UNL A   1      43.391  32.239  33.513  1.00  0.00    -0.206 F 
ATOM     91  C   UNL A   1      44.951  35.353  32.549  1.00  0.00     0.060 A 
BRANCH  91  92
ATOM     92  S   UNL A   1      45.350  36.967  33.254  1.00  0.00     0.124 S 
ATOM     93  O   UNL A   1      46.455  36.633  34.143  1.00  0.00    -0.237 OA
ATOM     94  O   UNL A   1      45.695  37.745  32.068  1.00  0.00    -0.237 OA
ATOM     95  O   UNL A   1      44.106  37.360  33.912  1.00  0.00    -0.744 OA
ENDBRANCH  91  92
ENDBRANCH  59  84
BRANCH  71  96
ATOM     96  C   UNL A   1      48.589  27.378  30.400  1.00  0.00     0.058 A 
ATOM     97  C   UNL A   1      49.089  26.785  31.570  1.00  0.00     0.135 A 
ATOM     98  C   UNL A   1      49.508  27.736  29.401  1.00  0.00     0.135 A 
ATOM     99  F   UNL A   1      48.252  26.430  32.558  1.00  0.00    -0.206 F 
ATOM    100  C   UNL A   1      50.452  26.577  31.752  1.00  0.00     0.059 A 
ATOM    101  C   UNL A   1      50.872  27.512  29.550  1.00  0.00     0.059 A 
ATOM    102  F   UNL A   1      49.081  28.298  28.258  1.00  0.00    -0.206 F 
ATOM    103  C   UNL A   1      51.336  26.942  30.734  1.00  0.00     0.060 A 
BRANCH 103 104
ATOM    104  S   UNL A   1      53.100  26.632  30.969  1.00  0.00     0.124 S 
ATOM    105  O   UNL A   1      53.519  27.840  31.673  1.00  0.00    -0.237 OA
ATOM    106  O   UNL A   1      53.099  25.405  31.759  1.00  0.00    -0.237 OA
ATOM    107  O   UNL A   1      53.604  26.493  29.606  1.00  0.00    -0.744 OA
ENDBRANCH 103 104
ENDBRANCH  71  96
ENDBRANCH  45  46
ENDBRANCH  37  40
ENDBRANCH  35  36
ENDBRANCH  34  35
ENDBRANCH  33  34
ENDBRANCH  32  33
ENDBRANCH  31  32
ENDBRANCH  30  31
ENDBRANCH   3  30
TORSDOF 25
ENDMDL
