MODEL 1
REMARK VINA RESULT:     -13.8      0.000      0.000
REMARK SMILES Cc1cccc(OC2(C(=O)NCCCCCCNC(=O)c3ccc(-c4c5nc(c(-c6c(F)cc(S(=O)(=O)[O-])cc6F)c6ccc([nH]6)c(-c6c(F)cc(S(=O)(=O)[O-])cc6F)c6nc(c(-c7c(F)cc(S(=O)(=O)[O-])cc7F)c7ccc4[nH]7)C=C6)C=C5)cc3)CCN(C(=O)c3cnc[nH]c3=O)CC2)c1
REMARK SMILES IDX 15 1 14 2 13 3 12 4 11 5 9 6 10 7 8 9 87 10 100 11 88 12
REMARK SMILES IDX 99 13 89 14 90 15 91 16 7 17 6 18 1 19 2 20 3 21 101 22 4 23
REMARK SMILES IDX 5 24 92 25 93 26 97 27 94 28 96 29 98 30 95 31 16 33 17 34
REMARK SMILES IDX 18 35 19 36 20 38 21 39 22 40 86 41 23 42 85 43 24 44 25 45
REMARK SMILES IDX 26 46 79 47 27 48 84 49 78 50 80 51 28 52 83 53 77 54 76 55
REMARK SMILES IDX 29 57 63 58 42 59 62 60 43 61 46 62 61 63 81 64 44 65 45 66
REMARK SMILES IDX 60 68 82 69 47 70 30 71 31 72 40 73 32 74 33 75 39 76 41 77
REMARK SMILES IDX 34 78 35 79 36 80 37 81 38 82 64 83 65 84 74 85 66 86 67 87
REMARK SMILES IDX 73 88 75 89 68 90 69 91 70 92 71 93 72 94 48 95 49 96 58 97
REMARK SMILES IDX 50 98 51 99 57 100 59 101 52 102 53 103 54 104 55 105 56 106
REMARK H PARENT 11 8 96 32 18 37 80 56 46 67
REMARK Flexibility Score: inf
ROOT
ATOM      1  C   UNL A   1      33.571  32.254  27.304  1.00  0.00     0.002 C 
ENDROOT
BRANCH   1   2
ATOM      2  C   UNL A   1      32.065  31.984  27.172  1.00  0.00     0.002 C 
BRANCH   2   3
ATOM      3  C   UNL A   1      31.609  30.914  26.176  1.00  0.00     0.021 C 
BRANCH   3   4
ATOM      4  C   UNL A   1      32.426  29.615  26.111  1.00  0.00     0.116 C 
BRANCH   4   5
ATOM      5  N   UNL A   1      33.240  29.481  24.912  1.00  0.00    -0.353 N 
ATOM      6  C   UNL A   1      33.227  28.623  23.848  1.00  0.00     0.264 C 
ATOM      7  O   UNL A   1      33.957  28.967  22.908  1.00  0.00    -0.270 OA
ATOM      8  H   UNL A   1      33.956  30.155  24.855  1.00  0.00     0.163 HD
BRANCH   6   9
ATOM      9  C   UNL A   1      32.338  27.334  23.746  1.00  0.00     0.190 C 
ATOM     10  C   UNL A   1      32.381  26.699  22.349  1.00  0.00     0.080 C 
ATOM     11  C   UNL A   1      32.831  26.304  24.801  1.00  0.00     0.080 C 
ATOM     12  C   UNL A   1      31.736  25.327  22.265  1.00  0.00     0.124 C 
ATOM     13  C   UNL A   1      32.069  24.976  24.660  1.00  0.00     0.124 C 
ATOM     14  N   UNL A   1      32.270  24.478  23.308  1.00  0.00    -0.338 N 
ATOM     15  C   UNL A   1      33.243  23.547  22.997  1.00  0.00     0.261 C 
ATOM     16  O   UNL A   1      34.033  23.682  22.066  1.00  0.00    -0.269 OA
BRANCH   9  17
ATOM     17  O   UNL A   1      31.047  27.702  24.286  1.00  0.00    -0.477 OA
BRANCH  17  18
ATOM     18  C   UNL A   1      30.002  28.390  23.775  1.00  0.00     0.121 A 
ATOM     19  C   UNL A   1      28.920  31.466  21.818  1.00  0.00     0.044 C 
ATOM     20  C   UNL A   1      28.861  30.142  22.525  1.00  0.00    -0.047 A 
ATOM     21  C   UNL A   1      27.702  29.365  22.469  1.00  0.00     0.003 A 
ATOM     22  C   UNL A   1      29.989  29.658  23.213  1.00  0.00     0.049 A 
ATOM     23  C   UNL A   1      27.678  28.117  23.079  1.00  0.00     0.004 A 
ATOM     24  C   UNL A   1      28.824  27.634  23.714  1.00  0.00     0.046 A 
ENDBRANCH  17  18
ENDBRANCH   9  17
BRANCH  15  25
ATOM     25  C   UNL A   1      33.268  22.343  23.849  1.00  0.00     0.123 A 
ATOM     26  C   UNL A   1      32.205  21.529  23.900  1.00  0.00     0.132 A 
ATOM     27  C   UNL A   1      34.415  22.014  24.717  1.00  0.00     0.263 A 
ATOM     28  N   UNL A   1      32.115  20.392  24.668  1.00  0.00    -0.246 NA
ATOM     29  N   UNL A   1      34.241  20.912  25.507  1.00  0.00    -0.312 N 
ATOM     30  O   UNL A   1      35.460  22.652  24.743  1.00  0.00    -0.269 OA
ATOM     31  C   UNL A   1      33.116  20.146  25.445  1.00  0.00     0.199 A 
ATOM     32  H   UNL A   1      34.951  20.664  26.142  1.00  0.00     0.171 HD
ENDBRANCH  15  25
ENDBRANCH   6   9
ENDBRANCH   4   5
ENDBRANCH   3   4
ENDBRANCH   2   3
ENDBRANCH   1   2
BRANCH   1  33
ATOM     33  C   UNL A   1      34.110  32.546  28.705  1.00  0.00     0.021 C 
BRANCH  33  34
ATOM     34  C   UNL A   1      35.315  31.721  29.119  1.00  0.00     0.116 C 
BRANCH  34  35
ATOM     35  N   UNL A   1      35.147  30.282  28.981  1.00  0.00    -0.352 N 
ATOM     36  C   UNL A   1      35.912  29.604  28.029  1.00  0.00     0.251 C 
ATOM     37  H   UNL A   1      34.506  29.795  29.547  1.00  0.00     0.163 HD
ATOM     38  O   UNL A   1      35.514  29.238  26.945  1.00  0.00    -0.269 OA
BRANCH  36  39
ATOM     39  C   UNL A   1      37.340  29.506  28.410  1.00  0.00     0.039 A 
ATOM     40  C   UNL A   1      38.350  29.612  27.453  1.00  0.00     0.014 A 
ATOM     41  C   UNL A   1      37.608  29.056  29.701  1.00  0.00     0.014 A 
ATOM     42  C   UNL A   1      39.626  29.131  27.758  1.00  0.00     0.010 A 
ATOM     43  C   UNL A   1      38.835  28.495  29.964  1.00  0.00     0.010 A 
ATOM     44  C   UNL A   1      39.840  28.508  28.987  1.00  0.00    -0.014 A 
BRANCH  44  45
ATOM     45  C   UNL A   1      41.053  27.806  29.388  1.00  0.00     0.031 A 
ATOM     46  C   UNL A   1      41.274  26.414  28.930  1.00  0.00     0.074 A 
ATOM     47  C   UNL A   1      42.075  28.528  29.896  1.00  0.00     0.049 A 
ATOM     48  N   UNL A   1      42.272  25.673  29.272  1.00  0.00    -0.248 NA
ATOM     49  C   UNL A   1      40.338  25.731  28.045  1.00  0.00     0.031 C 
ATOM     50  C   UNL A   1      43.496  28.202  29.846  1.00  0.00     0.029 A 
ATOM     51  N   UNL A   1      42.000  29.629  30.749  1.00  0.00    -0.354 N 
ATOM     52  C   UNL A   1      42.279  24.562  28.456  1.00  0.00     0.074 A 
ATOM     53  C   UNL A   1      41.019  24.619  27.754  1.00  0.00     0.031 C 
ATOM     54  C   UNL A   1      44.138  28.901  30.793  1.00  0.00     0.029 A 
ATOM     55  C   UNL A   1      43.121  29.553  31.600  1.00  0.00     0.049 A 
ATOM     56  H   UNL A   1      41.302  30.323  30.757  1.00  0.00     0.167 HD
ATOM     57  C   UNL A   1      43.413  23.803  28.383  1.00  0.00     0.037 A 
ATOM     58  C   UNL A   1      42.971  29.351  32.944  1.00  0.00     0.037 A 
ATOM     59  C   UNL A   1      44.399  24.258  29.367  1.00  0.00     0.049 A 
ATOM     60  C   UNL A   1      43.617  28.083  33.454  1.00  0.00     0.074 A 
ATOM     61  C   UNL A   1      45.519  25.069  29.277  1.00  0.00     0.029 A 
ATOM     62  N   UNL A   1      44.122  24.121  30.723  1.00  0.00    -0.354 N 
ATOM     63  N   UNL A   1      43.934  27.066  32.703  1.00  0.00    -0.248 NA
ATOM     64  C   UNL A   1      43.975  27.872  34.854  1.00  0.00     0.031 C 
ATOM     65  C   UNL A   1      45.882  25.464  30.590  1.00  0.00     0.029 A 
ATOM     66  C   UNL A   1      44.995  24.879  31.477  1.00  0.00     0.049 A 
ATOM     67  H   UNL A   1      43.401  23.560  31.094  1.00  0.00     0.167 HD
ATOM     68  C   UNL A   1      44.507  26.081  33.469  1.00  0.00     0.074 A 
ATOM     69  C   UNL A   1      44.532  26.648  34.805  1.00  0.00     0.031 C 
ATOM     70  C   UNL A   1      44.909  24.888  32.933  1.00  0.00     0.037 A 
BRANCH  57  71
ATOM     71  C   UNL A   1      43.744  22.837  27.254  1.00  0.00     0.058 A 
ATOM     72  C   UNL A   1      42.976  21.664  27.059  1.00  0.00     0.135 A 
ATOM     73  C   UNL A   1      44.833  22.963  26.368  1.00  0.00     0.135 A 
ATOM     74  F   UNL A   1      41.850  21.439  27.748  1.00  0.00    -0.206 F 
ATOM     75  C   UNL A   1      43.327  20.658  26.153  1.00  0.00     0.059 A 
ATOM     76  C   UNL A   1      45.235  21.949  25.491  1.00  0.00     0.059 A 
ATOM     77  F   UNL A   1      45.523  24.103  26.262  1.00  0.00    -0.206 F 
ATOM     78  C   UNL A   1      44.482  20.790  25.398  1.00  0.00     0.060 A 
BRANCH  78  79
ATOM     79  S   UNL A   1      44.965  19.452  24.291  1.00  0.00     0.124 S 
ATOM     80  O   UNL A   1      44.478  19.928  23.000  1.00  0.00    -0.237 OA
ATOM     81  O   UNL A   1      46.414  19.428  24.454  1.00  0.00    -0.237 OA
ATOM     82  O   UNL A   1      44.257  18.292  24.828  1.00  0.00    -0.744 OA
ENDBRANCH  78  79
ENDBRANCH  57  71
BRANCH  58  83
ATOM     83  C   UNL A   1      41.732  29.983  33.482  1.00  0.00     0.058 A 
ATOM     84  C   UNL A   1      41.740  31.385  33.627  1.00  0.00     0.135 A 
ATOM     85  C   UNL A   1      40.486  29.353  33.344  1.00  0.00     0.135 A 
ATOM     86  F   UNL A   1      42.906  32.033  33.790  1.00  0.00    -0.206 F 
ATOM     87  C   UNL A   1      40.593  32.145  33.428  1.00  0.00     0.059 A 
ATOM     88  C   UNL A   1      39.318  30.097  33.161  1.00  0.00     0.059 A 
ATOM     89  F   UNL A   1      40.412  28.019  33.219  1.00  0.00    -0.206 F 
ATOM     90  C   UNL A   1      39.405  31.490  33.111  1.00  0.00     0.060 A 
BRANCH  90  91
ATOM     91  S   UNL A   1      38.052  32.484  32.433  1.00  0.00     0.124 S 
ATOM     92  O   UNL A   1      36.880  31.853  33.028  1.00  0.00    -0.237 OA
ATOM     93  O   UNL A   1      38.378  33.818  32.938  1.00  0.00    -0.237 OA
ATOM     94  O   UNL A   1      38.197  32.312  30.992  1.00  0.00    -0.744 OA
ENDBRANCH  90  91
ENDBRANCH  58  83
BRANCH  70  95
ATOM     95  C   UNL A   1      45.346  23.644  33.686  1.00  0.00     0.058 A 
ATOM     96  C   UNL A   1      46.635  23.436  34.206  1.00  0.00     0.135 A 
ATOM     97  C   UNL A   1      44.396  22.647  34.034  1.00  0.00     0.135 A 
ATOM     98  F   UNL A   1      47.605  24.350  34.064  1.00  0.00    -0.206 F 
ATOM     99  C   UNL A   1      46.975  22.303  34.951  1.00  0.00     0.059 A 
ATOM    100  C   UNL A   1      44.698  21.540  34.827  1.00  0.00     0.059 A 
ATOM    101  F   UNL A   1      43.118  22.718  33.631  1.00  0.00    -0.206 F 
ATOM    102  C   UNL A   1      46.000  21.361  35.260  1.00  0.00     0.060 A 
BRANCH 102 103
ATOM    103  S   UNL A   1      46.414  19.940  36.288  1.00  0.00     0.124 S 
ATOM    104  O   UNL A   1      45.778  18.853  35.552  1.00  0.00    -0.237 OA
ATOM    105  O   UNL A   1      47.875  19.943  36.271  1.00  0.00    -0.237 OA
ATOM    106  O   UNL A   1      45.811  20.273  37.575  1.00  0.00    -0.744 OA
ENDBRANCH 102 103
ENDBRANCH  70  95
ENDBRANCH  44  45
ENDBRANCH  36  39
ENDBRANCH  34  35
ENDBRANCH  33  34
ENDBRANCH   1  33
TORSDOF 19
ENDMDL
MODEL 2
REMARK VINA RESULT:     -13.8      1.068      1.792
REMARK SMILES Cc1cccc(OC2(C(=O)NCCCCCCNC(=O)c3ccc(-c4c5nc(c(-c6c(F)cc(S(=O)(=O)[O-])cc6F)c6ccc([nH]6)c(-c6c(F)cc(S(=O)(=O)[O-])cc6F)c6nc(c(-c7c(F)cc(S(=O)(=O)[O-])cc7F)c7ccc4[nH]7)C=C6)C=C5)cc3)CCN(C(=O)c3cnc[nH]c3=O)CC2)c1
REMARK SMILES IDX 15 1 14 2 13 3 12 4 11 5 9 6 10 7 8 9 87 10 100 11 88 12
REMARK SMILES IDX 99 13 89 14 90 15 91 16 7 17 6 18 1 19 2 20 3 21 101 22 4 23
REMARK SMILES IDX 5 24 92 25 93 26 97 27 94 28 96 29 98 30 95 31 16 33 17 34
REMARK SMILES IDX 18 35 19 36 20 38 21 39 22 40 86 41 23 42 85 43 24 44 25 45
REMARK SMILES IDX 26 46 79 47 27 48 84 49 78 50 80 51 28 52 83 53 77 54 76 55
REMARK SMILES IDX 29 57 63 58 42 59 62 60 43 61 46 62 61 63 81 64 44 65 45 66
REMARK SMILES IDX 60 68 82 69 47 70 30 71 31 72 40 73 32 74 33 75 39 76 41 77
REMARK SMILES IDX 34 78 35 79 36 80 37 81 38 82 64 83 65 84 74 85 66 86 67 87
REMARK SMILES IDX 73 88 75 89 68 90 69 91 70 92 71 93 72 94 48 95 49 96 58 97
REMARK SMILES IDX 50 98 51 99 57 100 59 101 52 102 53 103 54 104 55 105 56 106
REMARK H PARENT 11 8 96 32 18 37 80 56 46 67
REMARK Flexibility Score: inf
ROOT
ATOM      1  C   UNL A   1      32.717  31.903  27.576  1.00  0.00     0.002 C 
ENDROOT
BRANCH   1   2
ATOM      2  C   UNL A   1      32.408  30.712  26.659  1.00  0.00     0.002 C 
BRANCH   2   3
ATOM      3  C   UNL A   1      31.732  29.484  27.276  1.00  0.00     0.021 C 
BRANCH   3   4
ATOM      4  C   UNL A   1      32.024  28.119  26.637  1.00  0.00     0.116 C 
BRANCH   4   5
ATOM      5  N   UNL A   1      30.886  27.211  26.620  1.00  0.00    -0.353 N 
ATOM      6  C   UNL A   1      30.686  25.949  26.135  1.00  0.00     0.264 C 
ATOM      7  O   UNL A   1      29.629  25.421  26.507  1.00  0.00    -0.270 OA
ATOM      8  H   UNL A   1      30.085  27.589  27.052  1.00  0.00     0.163 HD
BRANCH   6   9
ATOM      9  C   UNL A   1      31.702  25.164  25.232  1.00  0.00     0.190 C 
ATOM     10  C   UNL A   1      33.124  25.161  25.811  1.00  0.00     0.080 C 
ATOM     11  C   UNL A   1      31.201  23.701  25.075  1.00  0.00     0.080 C 
ATOM     12  C   UNL A   1      34.084  24.220  25.107  1.00  0.00     0.124 C 
ATOM     13  C   UNL A   1      32.224  22.857  24.298  1.00  0.00     0.124 C 
ATOM     14  N   UNL A   1      33.489  22.903  25.014  1.00  0.00    -0.338 N 
ATOM     15  C   UNL A   1      33.877  21.917  25.901  1.00  0.00     0.261 C 
ATOM     16  O   UNL A   1      34.295  22.152  27.031  1.00  0.00    -0.269 OA
BRANCH   9  17
ATOM     17  O   UNL A   1      31.516  25.677  23.891  1.00  0.00    -0.477 OA
BRANCH  17  18
ATOM     18  C   UNL A   1      30.896  26.775  23.408  1.00  0.00     0.121 A 
ATOM     19  C   UNL A   1      27.593  28.632  23.084  1.00  0.00     0.044 C 
ATOM     20  C   UNL A   1      29.063  28.332  23.019  1.00  0.00    -0.047 A 
ATOM     21  C   UNL A   1      29.971  29.335  22.673  1.00  0.00     0.003 A 
ATOM     22  C   UNL A   1      29.537  27.049  23.346  1.00  0.00     0.049 A 
ATOM     23  C   UNL A   1      31.334  29.061  22.671  1.00  0.00     0.004 A 
ATOM     24  C   UNL A   1      31.786  27.794  23.048  1.00  0.00     0.046 A 
ENDBRANCH  17  18
ENDBRANCH   9  17
BRANCH  15  25
ATOM     25  C   UNL A   1      33.780  20.534  25.397  1.00  0.00     0.123 A 
ATOM     26  C   UNL A   1      32.598  19.904  25.378  1.00  0.00     0.132 A 
ATOM     27  C   UNL A   1      34.963  19.769  24.957  1.00  0.00     0.263 A 
ATOM     28  N   UNL A   1      32.397  18.614  24.944  1.00  0.00    -0.246 NA
ATOM     29  N   UNL A   1      34.712  18.474  24.603  1.00  0.00    -0.312 N 
ATOM     30  O   UNL A   1      36.094  20.235  24.893  1.00  0.00    -0.269 OA
ATOM     31  C   UNL A   1      33.452  17.955  24.599  1.00  0.00     0.199 A 
ATOM     32  H   UNL A   1      35.465  17.896  24.341  1.00  0.00     0.171 HD
ENDBRANCH  15  25
ENDBRANCH   6   9
ENDBRANCH   4   5
ENDBRANCH   3   4
ENDBRANCH   2   3
ENDBRANCH   1   2
BRANCH   1  33
ATOM     33  C   UNL A   1      34.162  32.403  27.611  1.00  0.00     0.021 C 
BRANCH  33  34
ATOM     34  C   UNL A   1      35.068  31.690  28.598  1.00  0.00     0.116 C 
BRANCH  34  35
ATOM     35  N   UNL A   1      34.887  30.247  28.663  1.00  0.00    -0.352 N 
ATOM     36  C   UNL A   1      35.653  29.435  27.824  1.00  0.00     0.251 C 
ATOM     37  H   UNL A   1      34.237  29.851  29.286  1.00  0.00     0.163 HD
ATOM     38  O   UNL A   1      35.261  28.923  26.799  1.00  0.00    -0.269 OA
BRANCH  36  39
ATOM     39  C   UNL A   1      37.077  29.379  28.228  1.00  0.00     0.039 A 
ATOM     40  C   UNL A   1      38.099  29.525  27.290  1.00  0.00     0.014 A 
ATOM     41  C   UNL A   1      37.337  28.926  29.520  1.00  0.00     0.014 A 
ATOM     42  C   UNL A   1      39.384  29.082  27.613  1.00  0.00     0.010 A 
ATOM     43  C   UNL A   1      38.577  28.402  29.800  1.00  0.00     0.010 A 
ATOM     44  C   UNL A   1      39.597  28.456  28.840  1.00  0.00    -0.014 A 
BRANCH  44  45
ATOM     45  C   UNL A   1      40.825  27.789  29.256  1.00  0.00     0.031 A 
ATOM     46  C   UNL A   1      41.082  26.397  28.819  1.00  0.00     0.074 A 
ATOM     47  C   UNL A   1      41.827  28.542  29.758  1.00  0.00     0.049 A 
ATOM     48  N   UNL A   1      42.096  25.685  29.176  1.00  0.00    -0.248 NA
ATOM     49  C   UNL A   1      40.167  25.678  27.940  1.00  0.00     0.031 C 
ATOM     50  C   UNL A   1      43.256  28.250  29.718  1.00  0.00     0.029 A 
ATOM     51  N   UNL A   1      41.722  29.653  30.595  1.00  0.00    -0.354 N 
ATOM     52  C   UNL A   1      42.133  24.563  28.376  1.00  0.00     0.074 A 
ATOM     53  C   UNL A   1      40.875  24.579  27.668  1.00  0.00     0.031 C 
ATOM     54  C   UNL A   1      43.877  28.978  30.658  1.00  0.00     0.029 A 
ATOM     55  C   UNL A   1      42.841  29.617  31.451  1.00  0.00     0.049 A 
ATOM     56  H   UNL A   1      41.007  30.331  30.590  1.00  0.00     0.167 HD
ATOM     57  C   UNL A   1      43.286  23.830  28.318  1.00  0.00     0.037 A 
ATOM     58  C   UNL A   1      42.690  29.431  32.797  1.00  0.00     0.037 A 
ATOM     59  C   UNL A   1      44.256  24.322  29.300  1.00  0.00     0.049 A 
ATOM     60  C   UNL A   1      43.364  28.186  33.329  1.00  0.00     0.074 A 
ATOM     61  C   UNL A   1      45.356  25.159  29.203  1.00  0.00     0.029 A 
ATOM     62  N   UNL A   1      43.976  24.198  30.656  1.00  0.00    -0.354 N 
ATOM     63  N   UNL A   1      43.708  27.166  32.593  1.00  0.00    -0.248 NA
ATOM     64  C   UNL A   1      43.720  28.003  34.732  1.00  0.00     0.031 C 
ATOM     65  C   UNL A   1      45.704  25.582  30.511  1.00  0.00     0.029 A 
ATOM     66  C   UNL A   1      44.827  24.988  31.403  1.00  0.00     0.049 A 
ATOM     67  H   UNL A   1      43.268  23.626  31.032  1.00  0.00     0.167 HD
ATOM     68  C   UNL A   1      44.301  26.206  33.376  1.00  0.00     0.074 A 
ATOM     69  C   UNL A   1      44.307  26.792  34.703  1.00  0.00     0.031 C 
ATOM     70  C   UNL A   1      44.734  25.015  32.858  1.00  0.00     0.037 A 
BRANCH  57  71
ATOM     71  C   UNL A   1      43.644  22.857  27.205  1.00  0.00     0.058 A 
ATOM     72  C   UNL A   1      42.924  21.649  27.041  1.00  0.00     0.135 A 
ATOM     73  C   UNL A   1      44.718  23.010  26.304  1.00  0.00     0.135 A 
ATOM     74  F   UNL A   1      41.816  21.391  27.747  1.00  0.00    -0.206 F 
ATOM     75  C   UNL A   1      43.307  20.641  26.151  1.00  0.00     0.059 A 
ATOM     76  C   UNL A   1      45.153  21.996  25.442  1.00  0.00     0.059 A 
ATOM     77  F   UNL A   1      45.359  24.175  26.168  1.00  0.00    -0.206 F 
ATOM     78  C   UNL A   1      44.448  20.805  25.380  1.00  0.00     0.060 A 
BRANCH  78  79
ATOM     79  S   UNL A   1      44.975  19.467  24.295  1.00  0.00     0.124 S 
ATOM     80  O   UNL A   1      44.490  19.916  22.993  1.00  0.00    -0.237 OA
ATOM     81  O   UNL A   1      46.422  19.480  24.473  1.00  0.00    -0.237 OA
ATOM     82  O   UNL A   1      44.289  18.297  24.838  1.00  0.00    -0.744 OA
ENDBRANCH  78  79
ENDBRANCH  57  71
BRANCH  58  83
ATOM     83  C   UNL A   1      41.433  30.039  33.321  1.00  0.00     0.058 A 
ATOM     84  C   UNL A   1      41.385  31.446  33.390  1.00  0.00     0.135 A 
ATOM     85  C   UNL A   1      40.213  29.352  33.239  1.00  0.00     0.135 A 
ATOM     86  F   UNL A   1      42.525  32.150  33.497  1.00  0.00    -0.206 F 
ATOM     87  C   UNL A   1      40.205  32.147  33.169  1.00  0.00     0.059 A 
ATOM     88  C   UNL A   1      39.013  30.037  33.035  1.00  0.00     0.059 A 
ATOM     89  F   UNL A   1      40.193  28.012  33.187  1.00  0.00    -0.206 F 
ATOM     90  C   UNL A   1      39.040  31.427  32.909  1.00  0.00     0.060 A 
BRANCH  90  91
ATOM     91  S   UNL A   1      37.637  32.327  32.201  1.00  0.00     0.124 S 
ATOM     92  O   UNL A   1      37.826  33.667  32.745  1.00  0.00    -0.237 OA
ATOM     93  O   UNL A   1      37.883  32.186  30.765  1.00  0.00    -0.237 OA
ATOM     94  O   UNL A   1      36.480  31.598  32.707  1.00  0.00    -0.744 OA
ENDBRANCH  90  91
ENDBRANCH  58  83
BRANCH  70  95
ATOM     95  C   UNL A   1      45.199  23.793  33.630  1.00  0.00     0.058 A 
ATOM     96  C   UNL A   1      46.470  23.650  34.212  1.00  0.00     0.135 A 
ATOM     97  C   UNL A   1      44.284  22.748  33.933  1.00  0.00     0.135 A 
ATOM     98  F   UNL A   1      47.398  24.612  34.115  1.00  0.00    -0.206 F 
ATOM     99  C   UNL A   1      46.832  22.533  34.971  1.00  0.00     0.059 A 
ATOM    100  C   UNL A   1      44.605  21.657  34.739  1.00  0.00     0.059 A 
ATOM    101  F   UNL A   1      43.026  22.756  33.470  1.00  0.00    -0.206 F 
ATOM    102  C   UNL A   1      45.893  21.542  35.234  1.00  0.00     0.060 A 
BRANCH 102 103
ATOM    103  S   UNL A   1      46.329  20.141  36.279  1.00  0.00     0.124 S 
ATOM    104  O   UNL A   1      45.967  20.641  37.601  1.00  0.00    -0.237 OA
ATOM    105  O   UNL A   1      45.483  19.072  35.756  1.00  0.00    -0.237 OA
ATOM    106  O   UNL A   1      47.758  19.974  36.034  1.00  0.00    -0.744 OA
ENDBRANCH 102 103
ENDBRANCH  70  95
ENDBRANCH  44  45
ENDBRANCH  36  39
ENDBRANCH  34  35
ENDBRANCH  33  34
ENDBRANCH   1  33
TORSDOF 19
ENDMDL
MODEL 3
REMARK VINA RESULT:     -12.9      2.779      5.276
REMARK SMILES Cc1cccc(OC2(C(=O)NCCCCCCNC(=O)c3ccc(-c4c5nc(c(-c6c(F)cc(S(=O)(=O)[O-])cc6F)c6ccc([nH]6)c(-c6c(F)cc(S(=O)(=O)[O-])cc6F)c6nc(c(-c7c(F)cc(S(=O)(=O)[O-])cc7F)c7ccc4[nH]7)C=C6)C=C5)cc3)CCN(C(=O)c3cnc[nH]c3=O)CC2)c1
REMARK SMILES IDX 15 1 14 2 13 3 12 4 11 5 9 6 10 7 8 9 87 10 100 11 88 12
REMARK SMILES IDX 99 13 89 14 90 15 91 16 7 17 6 18 1 19 2 20 3 21 101 22 4 23
REMARK SMILES IDX 5 24 92 25 93 26 97 27 94 28 96 29 98 30 95 31 16 33 17 34
REMARK SMILES IDX 18 35 19 36 20 38 21 39 22 40 86 41 23 42 85 43 24 44 25 45
REMARK SMILES IDX 26 46 79 47 27 48 84 49 78 50 80 51 28 52 83 53 77 54 76 55
REMARK SMILES IDX 29 57 63 58 42 59 62 60 43 61 46 62 61 63 81 64 44 65 45 66
REMARK SMILES IDX 60 68 82 69 47 70 30 71 31 72 40 73 32 74 33 75 39 76 41 77
REMARK SMILES IDX 34 78 35 79 36 80 37 81 38 82 64 83 65 84 74 85 66 86 67 87
REMARK SMILES IDX 73 88 75 89 68 90 69 91 70 92 71 93 72 94 48 95 49 96 58 97
REMARK SMILES IDX 50 98 51 99 57 100 59 101 52 102 53 103 54 104 55 105 56 106
REMARK H PARENT 11 8 96 32 18 37 80 56 46 67
REMARK Flexibility Score: inf
ROOT
ATOM      1  C   UNL A   1      33.272  26.302  25.233  1.00  0.00     0.002 C 
ENDROOT
BRANCH   1   2
ATOM      2  C   UNL A   1      32.535  26.245  23.886  1.00  0.00     0.002 C 
BRANCH   2   3
ATOM      3  C   UNL A   1      31.079  25.772  23.882  1.00  0.00     0.021 C 
BRANCH   3   4
ATOM      4  C   UNL A   1      30.825  24.262  23.997  1.00  0.00     0.116 C 
BRANCH   4   5
ATOM      5  N   UNL A   1      30.684  23.783  25.364  1.00  0.00    -0.353 N 
ATOM      6  C   UNL A   1      31.442  22.981  26.170  1.00  0.00     0.264 C 
ATOM      7  O   UNL A   1      31.092  22.978  27.359  1.00  0.00    -0.270 OA
ATOM      8  H   UNL A   1      29.864  24.107  25.803  1.00  0.00     0.163 HD
BRANCH   6   9
ATOM      9  C   UNL A   1      32.694  22.162  25.699  1.00  0.00     0.190 C 
ATOM     10  C   UNL A   1      33.256  22.662  24.361  1.00  0.00     0.080 C 
ATOM     11  C   UNL A   1      33.794  22.260  26.794  1.00  0.00     0.080 C 
ATOM     12  C   UNL A   1      34.600  22.067  23.984  1.00  0.00     0.124 C 
ATOM     13  C   UNL A   1      35.088  21.574  26.327  1.00  0.00     0.124 C 
ATOM     14  N   UNL A   1      35.520  22.210  25.092  1.00  0.00    -0.338 N 
ATOM     15  C   UNL A   1      36.464  23.219  25.068  1.00  0.00     0.261 C 
ATOM     16  O   UNL A   1      36.305  24.277  24.464  1.00  0.00    -0.269 OA
BRANCH   9  17
ATOM     17  O   UNL A   1      32.315  20.769  25.798  1.00  0.00    -0.477 OA
BRANCH  17  18
ATOM     18  C   UNL A   1      32.440  19.722  24.953  1.00  0.00     0.121 A 
ATOM     19  C   UNL A   1      32.170  18.545  21.347  1.00  0.00     0.044 C 
ATOM     20  C   UNL A   1      32.475  18.551  22.818  1.00  0.00    -0.047 A 
ATOM     21  C   UNL A   1      33.193  17.500  23.391  1.00  0.00     0.003 A 
ATOM     22  C   UNL A   1      32.072  19.635  23.618  1.00  0.00     0.049 A 
ATOM     23  C   UNL A   1      33.518  17.542  24.742  1.00  0.00     0.004 A 
ATOM     24  C   UNL A   1      33.153  18.652  25.508  1.00  0.00     0.046 A 
ENDBRANCH  17  18
ENDBRANCH   9  17
BRANCH  15  25
ATOM     25  C   UNL A   1      37.711  22.942  25.805  1.00  0.00     0.123 A 
ATOM     26  C   UNL A   1      38.231  23.867  26.624  1.00  0.00     0.132 A 
ATOM     27  C   UNL A   1      38.467  21.686  25.635  1.00  0.00     0.263 A 
ATOM     28  N   UNL A   1      39.392  23.720  27.346  1.00  0.00    -0.246 NA
ATOM     29  N   UNL A   1      39.645  21.627  26.324  1.00  0.00    -0.312 N 
ATOM     30  O   UNL A   1      38.089  20.748  24.945  1.00  0.00    -0.269 OA
ATOM     31  C   UNL A   1      40.052  22.629  27.152  1.00  0.00     0.199 A 
ATOM     32  H   UNL A   1      40.219  20.834  26.219  1.00  0.00     0.171 HD
ENDBRANCH  15  25
ENDBRANCH   6   9
ENDBRANCH   4   5
ENDBRANCH   3   4
ENDBRANCH   2   3
ENDBRANCH   1   2
BRANCH   1  33
ATOM     33  C   UNL A   1      33.083  27.561  26.081  1.00  0.00     0.021 C 
BRANCH  33  34
ATOM     34  C   UNL A   1      34.324  28.418  26.250  1.00  0.00     0.116 C 
BRANCH  34  35
ATOM     35  N   UNL A   1      34.112  29.845  26.059  1.00  0.00    -0.352 N 
ATOM     36  C   UNL A   1      33.870  30.646  27.177  1.00  0.00     0.251 C 
ATOM     37  H   UNL A   1      34.138  30.239  25.157  1.00  0.00     0.163 HD
ATOM     38  O   UNL A   1      32.783  31.051  27.524  1.00  0.00    -0.269 OA
BRANCH  36  39
ATOM     39  C   UNL A   1      35.076  30.831  28.017  1.00  0.00     0.039 A 
ATOM     40  C   UNL A   1      36.094  31.705  27.634  1.00  0.00     0.014 A 
ATOM     41  C   UNL A   1      35.256  29.918  29.054  1.00  0.00     0.014 A 
ATOM     42  C   UNL A   1      37.359  31.567  28.212  1.00  0.00     0.010 A 
ATOM     43  C   UNL A   1      36.523  29.720  29.549  1.00  0.00     0.010 A 
ATOM     44  C   UNL A   1      37.583  30.527  29.112  1.00  0.00    -0.014 A 
BRANCH  44  45
ATOM     45  C   UNL A   1      38.875  30.144  29.668  1.00  0.00     0.031 A 
ATOM     46  C   UNL A   1      39.523  28.893  29.209  1.00  0.00     0.074 A 
ATOM     47  C   UNL A   1      39.586  31.073  30.342  1.00  0.00     0.049 A 
ATOM     48  N   UNL A   1      40.628  28.419  29.674  1.00  0.00    -0.248 NA
ATOM     49  C   UNL A   1      38.934  28.048  28.176  1.00  0.00     0.031 C 
ATOM     50  C   UNL A   1      41.036  31.136  30.493  1.00  0.00     0.029 A 
ATOM     51  N   UNL A   1      39.103  32.056  31.205  1.00  0.00    -0.354 N 
ATOM     52  C   UNL A   1      41.044  27.406  28.836  1.00  0.00     0.074 A 
ATOM     53  C   UNL A   1      39.923  27.176  27.957  1.00  0.00     0.031 C 
ATOM     54  C   UNL A   1      41.332  31.915  31.544  1.00  0.00     0.029 A 
ATOM     55  C   UNL A   1      40.078  32.221  32.210  1.00  0.00     0.049 A 
ATOM     56  H   UNL A   1      38.249  32.540  31.130  1.00  0.00     0.167 HD
ATOM     57  C   UNL A   1      42.341  26.978  28.910  1.00  0.00     0.037 A 
ATOM     58  C   UNL A   1      39.808  31.897  33.511  1.00  0.00     0.037 A 
ATOM     59  C   UNL A   1      43.026  27.609  30.041  1.00  0.00     0.049 A 
ATOM     60  C   UNL A   1      40.697  30.813  34.075  1.00  0.00     0.074 A 
ATOM     61  C   UNL A   1      43.887  28.691  30.141  1.00  0.00     0.029 A 
ATOM     62  N   UNL A   1      42.616  27.314  31.336  1.00  0.00    -0.354 N 
ATOM     63  N   UNL A   1      41.375  29.967  33.350  1.00  0.00    -0.248 NA
ATOM     64  C   UNL A   1      40.907  30.610  35.505  1.00  0.00     0.031 C 
ATOM     65  C   UNL A   1      43.950  29.079  31.503  1.00  0.00     0.029 A 
ATOM     66  C   UNL A   1      43.142  28.223  32.233  1.00  0.00     0.049 A 
ATOM     67  H   UNL A   1      42.030  26.560  31.581  1.00  0.00     0.167 HD
ATOM     68  C   UNL A   1      42.084  29.118  34.164  1.00  0.00     0.074 A 
ATOM     69  C   UNL A   1      41.775  29.581  35.505  1.00  0.00     0.031 C 
ATOM     70  C   UNL A   1      42.861  28.111  33.659  1.00  0.00     0.037 A 
BRANCH  57  71
ATOM     71  C   UNL A   1      43.069  26.212  27.815  1.00  0.00     0.058 A 
ATOM     72  C   UNL A   1      43.249  24.811  27.912  1.00  0.00     0.135 A 
ATOM     73  C   UNL A   1      43.670  26.789  26.678  1.00  0.00     0.135 A 
ATOM     74  F   UNL A   1      42.660  24.092  28.876  1.00  0.00    -0.206 F 
ATOM     75  C   UNL A   1      44.049  24.077  27.031  1.00  0.00     0.059 A 
ATOM     76  C   UNL A   1      44.517  26.087  25.813  1.00  0.00     0.059 A 
ATOM     77  F   UNL A   1      43.413  28.049  26.313  1.00  0.00    -0.206 F 
ATOM     78  C   UNL A   1      44.713  24.729  26.003  1.00  0.00     0.060 A 
BRANCH  78  79
ATOM     79  S   UNL A   1      45.802  23.784  24.922  1.00  0.00     0.124 S 
ATOM     80  O   UNL A   1      46.741  24.803  24.464  1.00  0.00    -0.237 OA
ATOM     81  O   UNL A   1      46.346  22.784  25.834  1.00  0.00    -0.237 OA
ATOM     82  O   UNL A   1      44.900  23.269  23.895  1.00  0.00    -0.744 OA
ENDBRANCH  78  79
ENDBRANCH  57  71
BRANCH  58  83
ATOM     83  C   UNL A   1      38.384  32.143  33.878  1.00  0.00     0.058 A 
ATOM     84  C   UNL A   1      38.009  33.479  34.125  1.00  0.00     0.135 A 
ATOM     85  C   UNL A   1      37.376  31.249  33.486  1.00  0.00     0.135 A 
ATOM     86  F   UNL A   1      38.932  34.369  34.529  1.00  0.00    -0.206 F 
ATOM     87  C   UNL A   1      36.746  33.955  33.792  1.00  0.00     0.059 A 
ATOM     88  C   UNL A   1      36.095  31.704  33.164  1.00  0.00     0.059 A 
ATOM     89  F   UNL A   1      37.668  29.961  33.252  1.00  0.00    -0.206 F 
ATOM     90  C   UNL A   1      35.826  33.072  33.233  1.00  0.00     0.060 A 
BRANCH  90  91
ATOM     91  S   UNL A   1      34.375  33.778  32.412  1.00  0.00     0.124 S 
ATOM     92  O   UNL A   1      34.672  35.205  32.437  1.00  0.00    -0.237 OA
ATOM     93  O   UNL A   1      34.434  33.142  31.096  1.00  0.00    -0.237 OA
ATOM     94  O   UNL A   1      33.267  33.350  33.259  1.00  0.00    -0.744 OA
ENDBRANCH  90  91
ENDBRANCH  58  83
BRANCH  70  95
ATOM     95  C   UNL A   1      43.513  26.979  34.433  1.00  0.00     0.058 A 
ATOM     96  C   UNL A   1      42.816  25.915  35.031  1.00  0.00     0.135 A 
ATOM     97  C   UNL A   1      44.928  26.861  34.474  1.00  0.00     0.135 A 
ATOM     98  F   UNL A   1      41.481  25.825  34.965  1.00  0.00    -0.206 F 
ATOM     99  C   UNL A   1      43.463  24.857  35.678  1.00  0.00     0.059 A 
ATOM    100  C   UNL A   1      45.593  25.785  35.059  1.00  0.00     0.059 A 
ATOM    101  F   UNL A   1      45.729  27.787  33.925  1.00  0.00    -0.206 F 
ATOM    102  C   UNL A   1      44.852  24.797  35.685  1.00  0.00     0.060 A 
BRANCH 102 103
ATOM    103  S   UNL A   1      45.690  23.395  36.446  1.00  0.00     0.124 S 
ATOM    104  O   UNL A   1      45.035  22.271  35.785  1.00  0.00    -0.237 OA
ATOM    105  O   UNL A   1      47.087  23.616  36.079  1.00  0.00    -0.237 OA
ATOM    106  O   UNL A   1      45.391  23.559  37.865  1.00  0.00    -0.744 OA
ENDBRANCH 102 103
ENDBRANCH  70  95
ENDBRANCH  44  45
ENDBRANCH  36  39
ENDBRANCH  34  35
ENDBRANCH  33  34
ENDBRANCH   1  33
TORSDOF 19
ENDMDL
