MODEL 1
REMARK VINA RESULT:     -11.0      0.000      0.000
REMARK SMILES C=CC[N@@H+](CC(=O)NCCCCCCNC(=O)c1ccc(-c2c3nc(c(-c4c(F)cc(S(=O)(=O)[O-])cc4F)c4ccc([nH]4)c(-c4c(F)cc(S(=O)(=O)[O-])cc4F)c4nc(c(-c5c(F)cc(S(=O)(=O)[O-])cc5F)c5ccc2[nH]5)C=C4)C=C3)cc1)[C@@H](C)c1c(F)cccc1F
REMARK SMILES IDX 11 1 10 2 9 3 8 4 6 5 7 6 5 8 4 9 3 11 2 12 1 13 84 14 85 15
REMARK SMILES IDX 86 16 87 17 92 18 88 19 89 20 91 21 93 22 90 23 12 24 13 25
REMARK SMILES IDX 14 26 15 27 16 28 17 30 18 31 19 32 83 33 20 34 82 35 21 36
REMARK SMILES IDX 22 37 23 38 76 39 24 40 81 41 75 42 77 43 25 44 80 45 74 46
REMARK SMILES IDX 73 47 26 49 60 50 39 51 59 52 40 53 43 54 58 55 78 56 41 57
REMARK SMILES IDX 42 58 57 60 79 61 44 62 27 63 28 64 37 65 29 66 30 67 36 68
REMARK SMILES IDX 38 69 31 70 32 71 33 72 34 73 35 74 61 75 62 76 71 77 63 78
REMARK SMILES IDX 64 79 70 80 72 81 65 82 66 83 67 84 68 85 69 86 45 87 46 88
REMARK SMILES IDX 55 89 47 90 48 91 54 92 56 93 49 94 50 95 51 96 52 97 53 98
REMARK H PARENT 8 7 4 10 15 29 77 48 43 59
REMARK Flexibility Score: inf
ROOT
ATOM      1  C   UNL A   1      32.014  29.633  26.885  1.00  0.00     0.002 C 
ENDROOT
BRANCH   1   2
ATOM      2  C   UNL A   1      31.614  28.255  27.406  1.00  0.00     0.021 C 
BRANCH   2   3
ATOM      3  C   UNL A   1      31.217  27.221  26.344  1.00  0.00     0.116 C 
BRANCH   3   4
ATOM      4  N   UNL A   1      31.082  25.894  26.915  1.00  0.00    -0.351 N 
ATOM      5  C   UNL A   1      31.444  24.658  26.474  1.00  0.00     0.275 C 
ATOM      6  O   UNL A   1      31.300  23.739  27.293  1.00  0.00    -0.269 OA
ATOM      7  H   UNL A   1      30.642  25.887  27.795  1.00  0.00     0.163 HD
BRANCH   5   8
ATOM      8  C   UNL A   1      32.074  24.364  25.099  1.00  0.00     0.364 C 
BRANCH   8   9
ATOM      9  N   UNL A   1      33.553  24.435  24.948  1.00  0.00    -0.318 N 
ATOM     10  H   UNL A   1      33.949  24.116  25.831  1.00  0.00     0.349 HD
BRANCH   9  11
ATOM     11  C   UNL A   1      34.024  25.806  24.846  1.00  0.00     0.291 C 
BRANCH  11  12
ATOM     12  C   UNL A   1      33.642  26.622  23.651  1.00  0.00     0.025 C 
ATOM     13  C   UNL A   1      33.883  27.940  23.573  1.00  0.00     0.010 C 
ENDBRANCH  11  12
ENDBRANCH   9  11
BRANCH   9  14
ATOM     14  C   UNL A   1      34.182  23.397  24.086  1.00  0.00     0.218 C 
ATOM     15  C   UNL A   1      35.717  23.311  24.126  1.00  0.00     0.081 C 
BRANCH  14  16
ATOM     16  C   UNL A   1      33.531  22.022  24.220  1.00  0.00     0.080 A 
ATOM     17  C   UNL A   1      33.763  21.255  25.369  1.00  0.00     0.135 A 
ATOM     18  C   UNL A   1      32.769  21.422  23.206  1.00  0.00     0.135 A 
ATOM     19  F   UNL A   1      34.483  21.763  26.381  1.00  0.00    -0.206 F 
ATOM     20  C   UNL A   1      33.304  19.941  25.485  1.00  0.00     0.040 A 
ATOM     21  C   UNL A   1      32.284  20.118  23.317  1.00  0.00     0.040 A 
ATOM     22  F   UNL A   1      32.518  22.068  22.057  1.00  0.00    -0.206 F 
ATOM     23  C   UNL A   1      32.567  19.367  24.453  1.00  0.00     0.006 A 
ENDBRANCH  14  16
ENDBRANCH   9  14
ENDBRANCH   8   9
ENDBRANCH   5   8
ENDBRANCH   3   4
ENDBRANCH   2   3
ENDBRANCH   1   2
BRANCH   1  24
ATOM     24  C   UNL A   1      33.517  29.890  26.782  1.00  0.00     0.002 C 
BRANCH  24  25
ATOM     25  C   UNL A   1      34.063  31.054  27.617  1.00  0.00     0.021 C 
BRANCH  25  26
ATOM     26  C   UNL A   1      35.456  30.853  28.213  1.00  0.00     0.116 C 
BRANCH  26  27
ATOM     27  N   UNL A   1      35.444  30.874  29.665  1.00  0.00    -0.352 N 
ATOM     28  C   UNL A   1      36.373  30.419  30.566  1.00  0.00     0.251 C 
ATOM     29  H   UNL A   1      34.643  31.280  30.067  1.00  0.00     0.163 HD
ATOM     30  O   UNL A   1      36.067  30.346  31.756  1.00  0.00    -0.269 OA
BRANCH  28  31
ATOM     31  C   UNL A   1      37.725  30.006  30.131  1.00  0.00     0.039 A 
ATOM     32  C   UNL A   1      38.015  30.001  28.762  1.00  0.00     0.014 A 
ATOM     33  C   UNL A   1      38.687  29.566  31.046  1.00  0.00     0.014 A 
ATOM     34  C   UNL A   1      39.278  29.603  28.317  1.00  0.00     0.010 A 
ATOM     35  C   UNL A   1      39.968  29.227  30.605  1.00  0.00     0.010 A 
ATOM     36  C   UNL A   1      40.275  29.235  29.236  1.00  0.00    -0.014 A 
BRANCH  36  37
ATOM     37  C   UNL A   1      41.637  28.863  28.769  1.00  0.00     0.031 A 
ATOM     38  C   UNL A   1      42.731  29.895  28.694  1.00  0.00     0.074 A 
ATOM     39  C   UNL A   1      41.878  27.597  28.374  1.00  0.00     0.049 A 
ATOM     40  N   UNL A   1      43.971  29.755  28.300  1.00  0.00    -0.248 NA
ATOM     41  C   UNL A   1      42.380  31.268  29.090  1.00  0.00     0.031 C 
ATOM     42  C   UNL A   1      40.887  26.519  28.344  1.00  0.00     0.029 A 
ATOM     43  N   UNL A   1      43.028  27.003  27.917  1.00  0.00    -0.354 N 
ATOM     44  C   UNL A   1      44.545  31.019  28.390  1.00  0.00     0.074 A 
ATOM     45  C   UNL A   1      43.504  31.921  28.832  1.00  0.00     0.031 C 
ATOM     46  C   UNL A   1      41.476  25.392  27.913  1.00  0.00     0.029 A 
ATOM     47  C   UNL A   1      42.877  25.670  27.612  1.00  0.00     0.049 A 
ATOM     48  H   UNL A   1      43.880  27.485  27.817  1.00  0.00     0.167 HD
ATOM     49  C   UNL A   1      45.826  31.388  28.146  1.00  0.00     0.037 A 
ATOM     50  C   UNL A   1      43.766  24.773  27.143  1.00  0.00     0.037 A 
ATOM     51  C   UNL A   1      46.866  30.480  27.736  1.00  0.00     0.049 A 
ATOM     52  C   UNL A   1      45.189  25.200  26.911  1.00  0.00     0.074 A 
ATOM     53  C   UNL A   1      48.209  30.746  27.529  1.00  0.00     0.029 A 
ATOM     54  N   UNL A   1      46.681  29.132  27.467  1.00  0.00    -0.354 N 
ATOM     55  N   UNL A   1      45.730  26.386  27.071  1.00  0.00    -0.248 NA
ATOM     56  C   UNL A   1      46.126  24.168  26.449  1.00  0.00     0.031 C 
ATOM     57  C   UNL A   1      48.830  29.566  27.102  1.00  0.00     0.029 A 
ATOM     58  C   UNL A   1      47.882  28.556  27.082  1.00  0.00     0.049 A 
ATOM     59  H   UNL A   1      45.825  28.654  27.541  1.00  0.00     0.167 HD
ATOM     60  C   UNL A   1      47.074  26.236  26.748  1.00  0.00     0.074 A 
ATOM     61  C   UNL A   1      47.267  24.842  26.402  1.00  0.00     0.031 C 
ATOM     62  C   UNL A   1      48.059  27.168  26.739  1.00  0.00     0.037 A 
BRANCH  49  63
ATOM     63  C   UNL A   1      46.180  32.839  28.327  1.00  0.00     0.058 A 
ATOM     64  C   UNL A   1      46.630  33.339  29.559  1.00  0.00     0.135 A 
ATOM     65  C   UNL A   1      46.113  33.732  27.244  1.00  0.00     0.135 A 
ATOM     66  F   UNL A   1      46.701  32.532  30.631  1.00  0.00    -0.206 F 
ATOM     67  C   UNL A   1      46.975  34.677  29.720  1.00  0.00     0.059 A 
ATOM     68  C   UNL A   1      46.477  35.070  27.376  1.00  0.00     0.059 A 
ATOM     69  F   UNL A   1      45.691  33.307  26.044  1.00  0.00    -0.206 F 
ATOM     70  C   UNL A   1      46.894  35.536  28.623  1.00  0.00     0.060 A 
BRANCH  70  71
ATOM     71  S   UNL A   1      47.352  37.268  28.843  1.00  0.00     0.124 S 
ATOM     72  O   UNL A   1      48.171  37.504  27.656  1.00  0.00    -0.237 OA
ATOM     73  O   UNL A   1      46.052  37.935  28.853  1.00  0.00    -0.237 OA
ATOM     74  O   UNL A   1      48.066  37.274  30.111  1.00  0.00    -0.744 OA
ENDBRANCH  70  71
ENDBRANCH  49  63
BRANCH  50  75
ATOM     75  C   UNL A   1      43.340  23.372  26.888  1.00  0.00     0.058 A 
ATOM     76  C   UNL A   1      43.128  22.909  25.582  1.00  0.00     0.135 A 
ATOM     77  C   UNL A   1      43.148  22.467  27.943  1.00  0.00     0.135 A 
ATOM     78  F   UNL A   1      43.294  23.739  24.541  1.00  0.00    -0.206 F 
ATOM     79  C   UNL A   1      42.726  21.601  25.328  1.00  0.00     0.059 A 
ATOM     80  C   UNL A   1      42.769  21.148  27.714  1.00  0.00     0.059 A 
ATOM     81  F   UNL A   1      43.356  22.858  29.210  1.00  0.00    -0.206 F 
ATOM     82  C   UNL A   1      42.550  20.728  26.403  1.00  0.00     0.060 A 
BRANCH  82  83
ATOM     83  S   UNL A   1      42.076  19.018  26.064  1.00  0.00     0.124 S 
ATOM     84  O   UNL A   1      42.914  18.704  24.913  1.00  0.00    -0.237 OA
ATOM     85  O   UNL A   1      42.428  18.348  27.313  1.00  0.00    -0.237 OA
ATOM     86  O   UNL A   1      40.644  19.116  25.797  1.00  0.00    -0.744 OA
ENDBRANCH  82  83
ENDBRANCH  50  75
BRANCH  62  87
ATOM     87  C   UNL A   1      49.438  26.704  26.364  1.00  0.00     0.058 A 
ATOM     88  C   UNL A   1      50.259  26.023  27.277  1.00  0.00     0.135 A 
ATOM     89  C   UNL A   1      49.935  26.920  25.069  1.00  0.00     0.135 A 
ATOM     90  F   UNL A   1      49.832  25.796  28.530  1.00  0.00    -0.206 F 
ATOM     91  C   UNL A   1      51.538  25.600  26.929  1.00  0.00     0.059 A 
ATOM     92  C   UNL A   1      51.202  26.484  24.691  1.00  0.00     0.059 A 
ATOM     93  F   UNL A   1      49.187  27.556  24.155  1.00  0.00    -0.206 F 
ATOM     94  C   UNL A   1      52.001  25.839  25.634  1.00  0.00     0.060 A 
BRANCH  94  95
ATOM     95  S   UNL A   1      53.658  25.276  25.188  1.00  0.00     0.124 S 
ATOM     96  O   UNL A   1      53.553  23.839  25.423  1.00  0.00    -0.237 OA
ATOM     97  O   UNL A   1      53.763  25.683  23.790  1.00  0.00    -0.237 OA
ATOM     98  O   UNL A   1      54.523  26.003  26.113  1.00  0.00    -0.744 OA
ENDBRANCH  94  95
ENDBRANCH  62  87
ENDBRANCH  36  37
ENDBRANCH  28  31
ENDBRANCH  26  27
ENDBRANCH  25  26
ENDBRANCH  24  25
ENDBRANCH   1  24
TORSDOF 21
ENDMDL
MODEL 2
REMARK VINA RESULT:     -10.9      1.847      3.446
REMARK SMILES C=CC[N@@H+](CC(=O)NCCCCCCNC(=O)c1ccc(-c2c3nc(c(-c4c(F)cc(S(=O)(=O)[O-])cc4F)c4ccc([nH]4)c(-c4c(F)cc(S(=O)(=O)[O-])cc4F)c4nc(c(-c5c(F)cc(S(=O)(=O)[O-])cc5F)c5ccc2[nH]5)C=C4)C=C3)cc1)[C@@H](C)c1c(F)cccc1F
REMARK SMILES IDX 11 1 10 2 9 3 8 4 6 5 7 6 5 8 4 9 3 11 2 12 1 13 84 14 85 15
REMARK SMILES IDX 86 16 87 17 92 18 88 19 89 20 91 21 93 22 90 23 12 24 13 25
REMARK SMILES IDX 14 26 15 27 16 28 17 30 18 31 19 32 83 33 20 34 82 35 21 36
REMARK SMILES IDX 22 37 23 38 76 39 24 40 81 41 75 42 77 43 25 44 80 45 74 46
REMARK SMILES IDX 73 47 26 49 60 50 39 51 59 52 40 53 43 54 58 55 78 56 41 57
REMARK SMILES IDX 42 58 57 60 79 61 44 62 27 63 28 64 37 65 29 66 30 67 36 68
REMARK SMILES IDX 38 69 31 70 32 71 33 72 34 73 35 74 61 75 62 76 71 77 63 78
REMARK SMILES IDX 64 79 70 80 72 81 65 82 66 83 67 84 68 85 69 86 45 87 46 88
REMARK SMILES IDX 55 89 47 90 48 91 54 92 56 93 49 94 50 95 51 96 52 97 53 98
REMARK H PARENT 8 7 4 10 15 29 77 48 43 59
REMARK Flexibility Score: inf
ROOT
ATOM      1  C   UNL A   1      35.732  30.473  28.081  1.00  0.00     0.002 C 
ENDROOT
BRANCH   1   2
ATOM      2  C   UNL A   1      34.912  29.478  27.265  1.00  0.00     0.021 C 
BRANCH   2   3
ATOM      3  C   UNL A   1      33.578  29.996  26.712  1.00  0.00     0.116 C 
BRANCH   3   4
ATOM      4  N   UNL A   1      32.447  29.357  27.359  1.00  0.00    -0.351 N 
ATOM      5  C   UNL A   1      31.829  28.159  27.167  1.00  0.00     0.275 C 
ATOM      6  O   UNL A   1      30.965  27.867  28.006  1.00  0.00    -0.269 OA
ATOM      7  H   UNL A   1      32.049  29.896  28.079  1.00  0.00     0.163 HD
BRANCH   5   8
ATOM      8  C   UNL A   1      32.188  27.151  26.059  1.00  0.00     0.364 C 
BRANCH   8   9
ATOM      9  N   UNL A   1      31.095  26.522  25.268  1.00  0.00    -0.318 N 
ATOM     10  H   UNL A   1      30.256  27.072  25.448  1.00  0.00     0.349 HD
BRANCH   9  11
ATOM     11  C   UNL A   1      30.747  25.205  25.773  1.00  0.00     0.291 C 
BRANCH  11  12
ATOM     12  C   UNL A   1      31.687  24.509  26.707  1.00  0.00     0.025 C 
ATOM     13  C   UNL A   1      32.120  23.257  26.492  1.00  0.00     0.010 C 
ENDBRANCH  11  12
ENDBRANCH   9  11
BRANCH   9  14
ATOM     14  C   UNL A   1      31.135  26.736  23.796  1.00  0.00     0.218 C 
ATOM     15  C   UNL A   1      31.049  25.476  22.917  1.00  0.00     0.081 C 
BRANCH  14  16
ATOM     16  C   UNL A   1      30.183  27.831  23.316  1.00  0.00     0.080 A 
ATOM     17  C   UNL A   1      28.800  27.651  23.449  1.00  0.00     0.135 A 
ATOM     18  C   UNL A   1      30.607  28.993  22.654  1.00  0.00     0.135 A 
ATOM     19  F   UNL A   1      28.320  26.565  24.071  1.00  0.00    -0.206 F 
ATOM     20  C   UNL A   1      27.883  28.557  22.908  1.00  0.00     0.040 A 
ATOM     21  C   UNL A   1      29.703  29.917  22.129  1.00  0.00     0.040 A 
ATOM     22  F   UNL A   1      31.911  29.236  22.454  1.00  0.00    -0.206 F 
ATOM     23  C   UNL A   1      28.336  29.691  22.240  1.00  0.00     0.006 A 
ENDBRANCH  14  16
ENDBRANCH   9  14
ENDBRANCH   8   9
ENDBRANCH   5   8
ENDBRANCH   3   4
ENDBRANCH   2   3
ENDBRANCH   1   2
BRANCH   1  24
ATOM     24  C   UNL A   1      35.336  31.941  27.927  1.00  0.00     0.002 C 
BRANCH  24  25
ATOM     25  C   UNL A   1      35.228  32.752  29.223  1.00  0.00     0.021 C 
BRANCH  25  26
ATOM     26  C   UNL A   1      36.450  32.713  30.141  1.00  0.00     0.116 C 
BRANCH  26  27
ATOM     27  N   UNL A   1      36.260  31.828  31.276  1.00  0.00    -0.352 N 
ATOM     28  C   UNL A   1      36.961  30.713  31.659  1.00  0.00     0.251 C 
ATOM     29  H   UNL A   1      35.508  32.066  31.865  1.00  0.00     0.163 HD
ATOM     30  O   UNL A   1      36.501  29.989  32.541  1.00  0.00    -0.269 OA
BRANCH  28  31
ATOM     31  C   UNL A   1      38.251  30.364  31.025  1.00  0.00     0.039 A 
ATOM     32  C   UNL A   1      39.337  30.043  31.847  1.00  0.00     0.014 A 
ATOM     33  C   UNL A   1      38.421  30.407  29.637  1.00  0.00     0.014 A 
ATOM     34  C   UNL A   1      40.572  29.722  31.279  1.00  0.00     0.010 A 
ATOM     35  C   UNL A   1      39.639  30.027  29.069  1.00  0.00     0.010 A 
ATOM     36  C   UNL A   1      40.729  29.687  29.884  1.00  0.00    -0.014 A 
BRANCH  36  37
ATOM     37  C   UNL A   1      42.028  29.293  29.276  1.00  0.00     0.031 A 
ATOM     38  C   UNL A   1      43.138  30.298  29.122  1.00  0.00     0.074 A 
ATOM     39  C   UNL A   1      42.193  28.034  28.826  1.00  0.00     0.049 A 
ATOM     40  N   UNL A   1      44.330  30.138  28.605  1.00  0.00    -0.248 NA
ATOM     41  C   UNL A   1      42.867  31.668  29.587  1.00  0.00     0.031 C 
ATOM     42  C   UNL A   1      41.173  26.983  28.865  1.00  0.00     0.029 A 
ATOM     43  N   UNL A   1      43.275  27.423  28.243  1.00  0.00    -0.354 N 
ATOM     44  C   UNL A   1      44.946  31.383  28.672  1.00  0.00     0.074 A 
ATOM     45  C   UNL A   1      43.979  32.299  29.237  1.00  0.00     0.031 C 
ATOM     46  C   UNL A   1      41.685  25.854  28.348  1.00  0.00     0.029 A 
ATOM     47  C   UNL A   1      43.057  26.105  27.919  1.00  0.00     0.049 A 
ATOM     48  H   UNL A   1      44.127  27.886  28.073  1.00  0.00     0.167 HD
ATOM     49  C   UNL A   1      46.207  31.726  28.313  1.00  0.00     0.037 A 
ATOM     50  C   UNL A   1      43.870  25.199  27.342  1.00  0.00     0.037 A 
ATOM     51  C   UNL A   1      47.176  30.803  27.779  1.00  0.00     0.049 A 
ATOM     52  C   UNL A   1      45.276  25.595  26.983  1.00  0.00     0.074 A 
ATOM     53  C   UNL A   1      48.500  31.040  27.449  1.00  0.00     0.029 A 
ATOM     54  N   UNL A   1      46.928  29.469  27.494  1.00  0.00    -0.354 N 
ATOM     55  N   UNL A   1      45.863  26.761  27.121  1.00  0.00    -0.248 NA
ATOM     56  C   UNL A   1      46.134  24.553  26.404  1.00  0.00     0.031 C 
ATOM     57  C   UNL A   1      49.042  29.858  26.932  1.00  0.00     0.029 A 
ATOM     58  C   UNL A   1      48.068  28.873  26.978  1.00  0.00     0.049 A 
ATOM     59  H   UNL A   1      46.069  29.011  27.638  1.00  0.00     0.167 HD
ATOM     60  C   UNL A   1      47.165  26.586  26.664  1.00  0.00     0.074 A 
ATOM     61  C   UNL A   1      47.283  25.198  26.263  1.00  0.00     0.031 C 
ATOM     62  C   UNL A   1      48.170  27.491  26.583  1.00  0.00     0.037 A 
BRANCH  49  63
ATOM     63  C   UNL A   1      46.619  33.161  28.497  1.00  0.00     0.058 A 
ATOM     64  C   UNL A   1      46.455  34.110  27.476  1.00  0.00     0.135 A 
ATOM     65  C   UNL A   1      47.143  33.603  29.723  1.00  0.00     0.135 A 
ATOM     66  F   UNL A   1      45.971  33.739  26.278  1.00  0.00    -0.206 F 
ATOM     67  C   UNL A   1      46.820  35.441  27.652  1.00  0.00     0.059 A 
ATOM     68  C   UNL A   1      47.492  34.936  29.931  1.00  0.00     0.059 A 
ATOM     69  F   UNL A   1      47.321  32.739  30.733  1.00  0.00    -0.206 F 
ATOM     70  C   UNL A   1      47.339  35.844  28.883  1.00  0.00     0.060 A 
BRANCH  70  71
ATOM     71  S   UNL A   1      47.802  37.576  29.103  1.00  0.00     0.124 S 
ATOM     72  O   UNL A   1      49.055  37.448  29.842  1.00  0.00    -0.237 OA
ATOM     73  O   UNL A   1      47.927  38.043  27.724  1.00  0.00    -0.237 OA
ATOM     74  O   UNL A   1      46.685  38.135  29.851  1.00  0.00    -0.744 OA
ENDBRANCH  70  71
ENDBRANCH  49  63
BRANCH  50  75
ATOM     75  C   UNL A   1      43.381  23.817  27.092  1.00  0.00     0.058 A 
ATOM     76  C   UNL A   1      43.003  23.407  25.806  1.00  0.00     0.135 A 
ATOM     77  C   UNL A   1      43.294  22.878  28.131  1.00  0.00     0.135 A 
ATOM     78  F   UNL A   1      43.064  24.271  24.781  1.00  0.00    -0.206 F 
ATOM     79  C   UNL A   1      42.540  22.118  25.559  1.00  0.00     0.059 A 
ATOM     80  C   UNL A   1      42.856  21.577  27.905  1.00  0.00     0.059 A 
ATOM     81  F   UNL A   1      43.661  23.218  29.377  1.00  0.00    -0.206 F 
ATOM     82  C   UNL A   1      42.472  21.210  26.616  1.00  0.00     0.060 A 
BRANCH  82  83
ATOM     83  S   UNL A   1      41.918  19.524  26.279  1.00  0.00     0.124 S 
ATOM     84  O   UNL A   1      40.479  19.712  26.132  1.00  0.00    -0.237 OA
ATOM     85  O   UNL A   1      42.649  19.198  25.058  1.00  0.00    -0.237 OA
ATOM     86  O   UNL A   1      42.342  18.790  27.468  1.00  0.00    -0.744 OA
ENDBRANCH  82  83
ENDBRANCH  50  75
BRANCH  62  87
ATOM     87  C   UNL A   1      49.493  27.003  26.062  1.00  0.00     0.058 A 
ATOM     88  C   UNL A   1      49.835  27.110  24.705  1.00  0.00     0.135 A 
ATOM     89  C   UNL A   1      50.441  26.445  26.935  1.00  0.00     0.135 A 
ATOM     90  F   UNL A   1      48.961  27.630  23.827  1.00  0.00    -0.206 F 
ATOM     91  C   UNL A   1      51.056  26.651  24.225  1.00  0.00     0.059 A 
ATOM     92  C   UNL A   1      51.679  26.003  26.482  1.00  0.00     0.059 A 
ATOM     93  F   UNL A   1      50.169  26.331  28.245  1.00  0.00    -0.206 F 
ATOM     94  C   UNL A   1      51.972  26.096  25.121  1.00  0.00     0.060 A 
BRANCH  94  95
ATOM     95  S   UNL A   1      53.560  25.515  24.491  1.00  0.00     0.124 S 
ATOM     96  O   UNL A   1      53.512  24.097  24.835  1.00  0.00    -0.237 OA
ATOM     97  O   UNL A   1      53.468  25.825  23.068  1.00  0.00    -0.237 OA
ATOM     98  O   UNL A   1      54.532  26.309  25.238  1.00  0.00    -0.744 OA
ENDBRANCH  94  95
ENDBRANCH  62  87
ENDBRANCH  36  37
ENDBRANCH  28  31
ENDBRANCH  26  27
ENDBRANCH  25  26
ENDBRANCH  24  25
ENDBRANCH   1  24
TORSDOF 21
ENDMDL
MODEL 3
REMARK VINA RESULT:     -10.8      0.969      8.454
REMARK SMILES C=CC[N@@H+](CC(=O)NCCCCCCNC(=O)c1ccc(-c2c3nc(c(-c4c(F)cc(S(=O)(=O)[O-])cc4F)c4ccc([nH]4)c(-c4c(F)cc(S(=O)(=O)[O-])cc4F)c4nc(c(-c5c(F)cc(S(=O)(=O)[O-])cc5F)c5ccc2[nH]5)C=C4)C=C3)cc1)[C@@H](C)c1c(F)cccc1F
REMARK SMILES IDX 11 1 10 2 9 3 8 4 6 5 7 6 5 8 4 9 3 11 2 12 1 13 84 14 85 15
REMARK SMILES IDX 86 16 87 17 92 18 88 19 89 20 91 21 93 22 90 23 12 24 13 25
REMARK SMILES IDX 14 26 15 27 16 28 17 30 18 31 19 32 83 33 20 34 82 35 21 36
REMARK SMILES IDX 22 37 23 38 76 39 24 40 81 41 75 42 77 43 25 44 80 45 74 46
REMARK SMILES IDX 73 47 26 49 60 50 39 51 59 52 40 53 43 54 58 55 78 56 41 57
REMARK SMILES IDX 42 58 57 60 79 61 44 62 27 63 28 64 37 65 29 66 30 67 36 68
REMARK SMILES IDX 38 69 31 70 32 71 33 72 34 73 35 74 61 75 62 76 71 77 63 78
REMARK SMILES IDX 64 79 70 80 72 81 65 82 66 83 67 84 68 85 69 86 45 87 46 88
REMARK SMILES IDX 55 89 47 90 48 91 54 92 56 93 49 94 50 95 51 96 52 97 53 98
REMARK H PARENT 8 7 4 10 15 29 77 48 43 59
REMARK Flexibility Score: inf
ROOT
ATOM      1  C   UNL A   1      32.371  27.190  26.861  1.00  0.00     0.002 C 
ENDROOT
BRANCH   1   2
ATOM      2  C   UNL A   1      31.143  26.945  25.987  1.00  0.00     0.021 C 
BRANCH   2   3
ATOM      3  C   UNL A   1      30.707  25.483  25.830  1.00  0.00     0.116 C 
BRANCH   3   4
ATOM      4  N   UNL A   1      31.284  24.640  26.860  1.00  0.00    -0.351 N 
ATOM      5  C   UNL A   1      31.657  23.331  26.881  1.00  0.00     0.275 C 
ATOM      6  O   UNL A   1      32.254  22.965  27.904  1.00  0.00    -0.269 OA
ATOM      7  H   UNL A   1      31.434  25.108  27.713  1.00  0.00     0.163 HD
BRANCH   5   8
ATOM      8  C   UNL A   1      31.460  22.341  25.717  1.00  0.00     0.364 C 
BRANCH   8   9
ATOM      9  N   UNL A   1      32.656  21.777  25.034  1.00  0.00    -0.318 N 
ATOM     10  H   UNL A   1      32.439  21.764  24.038  1.00  0.00     0.349 HD
BRANCH   9  11
ATOM     11  C   UNL A   1      32.852  20.373  25.352  1.00  0.00     0.291 C 
BRANCH  11  12
ATOM     12  C   UNL A   1      33.159  19.410  24.247  1.00  0.00     0.025 C 
ATOM     13  C   UNL A   1      32.271  19.106  23.289  1.00  0.00     0.010 C 
ENDBRANCH  11  12
ENDBRANCH   9  11
BRANCH   9  14
ATOM     14  C   UNL A   1      33.849  22.663  24.945  1.00  0.00     0.218 C 
ATOM     15  C   UNL A   1      35.215  21.965  24.836  1.00  0.00     0.081 C 
BRANCH  14  16
ATOM     16  C   UNL A   1      33.697  23.782  23.916  1.00  0.00     0.080 A 
ATOM     17  C   UNL A   1      34.012  25.099  24.275  1.00  0.00     0.135 A 
ATOM     18  C   UNL A   1      33.165  23.589  22.632  1.00  0.00     0.135 A 
ATOM     19  F   UNL A   1      34.525  25.360  25.486  1.00  0.00    -0.206 F 
ATOM     20  C   UNL A   1      33.765  26.176  23.420  1.00  0.00     0.040 A 
ATOM     21  C   UNL A   1      32.935  24.654  21.758  1.00  0.00     0.040 A 
ATOM     22  F   UNL A   1      32.806  22.367  22.210  1.00  0.00    -0.206 F 
ATOM     23  C   UNL A   1      33.219  25.955  22.159  1.00  0.00     0.006 A 
ENDBRANCH  14  16
ENDBRANCH   9  14
ENDBRANCH   8   9
ENDBRANCH   5   8
ENDBRANCH   3   4
ENDBRANCH   2   3
ENDBRANCH   1   2
BRANCH   1  24
ATOM     24  C   UNL A   1      32.629  28.647  27.246  1.00  0.00     0.002 C 
BRANCH  24  25
ATOM     25  C   UNL A   1      33.899  29.283  26.672  1.00  0.00     0.021 C 
BRANCH  25  26
ATOM     26  C   UNL A   1      35.165  29.129  27.515  1.00  0.00     0.116 C 
BRANCH  26  27
ATOM     27  N   UNL A   1      35.156  29.985  28.688  1.00  0.00    -0.352 N 
ATOM     28  C   UNL A   1      36.161  30.292  29.569  1.00  0.00     0.251 C 
ATOM     29  H   UNL A   1      34.291  30.413  28.882  1.00  0.00     0.163 HD
ATOM     30  O   UNL A   1      35.881  30.874  30.618  1.00  0.00    -0.269 OA
BRANCH  28  31
ATOM     31  C   UNL A   1      37.566  29.926  29.287  1.00  0.00     0.039 A 
ATOM     32  C   UNL A   1      38.008  29.943  27.960  1.00  0.00     0.014 A 
ATOM     33  C   UNL A   1      38.433  29.511  30.303  1.00  0.00     0.014 A 
ATOM     34  C   UNL A   1      39.326  29.590  27.659  1.00  0.00     0.010 A 
ATOM     35  C   UNL A   1      39.766  29.217  30.007  1.00  0.00     0.010 A 
ATOM     36  C   UNL A   1      40.225  29.247  28.682  1.00  0.00    -0.014 A 
BRANCH  36  37
ATOM     37  C   UNL A   1      41.642  28.923  28.369  1.00  0.00     0.031 A 
ATOM     38  C   UNL A   1      42.040  27.526  27.973  1.00  0.00     0.074 A 
ATOM     39  C   UNL A   1      42.581  29.884  28.480  1.00  0.00     0.049 A 
ATOM     40  N   UNL A   1      43.227  27.058  27.679  1.00  0.00    -0.248 NA
ATOM     41  C   UNL A   1      40.970  26.516  27.925  1.00  0.00     0.031 C 
ATOM     42  C   UNL A   1      42.331  31.262  28.911  1.00  0.00     0.029 A 
ATOM     43  N   UNL A   1      43.933  29.850  28.247  1.00  0.00    -0.354 N 
ATOM     44  C   UNL A   1      43.050  25.703  27.421  1.00  0.00     0.074 A 
ATOM     45  C   UNL A   1      41.649  25.414  27.639  1.00  0.00     0.031 C 
ATOM     46  C   UNL A   1      43.488  31.944  28.891  1.00  0.00     0.029 A 
ATOM     47  C   UNL A   1      44.563  31.051  28.472  1.00  0.00     0.049 A 
ATOM     48  H   UNL A   1      44.407  29.041  27.947  1.00  0.00     0.167 HD
ATOM     49  C   UNL A   1      43.967  24.789  27.021  1.00  0.00     0.037 A 
ATOM     50  C   UNL A   1      45.859  31.396  28.353  1.00  0.00     0.037 A 
ATOM     51  C   UNL A   1      45.354  25.088  26.775  1.00  0.00     0.049 A 
ATOM     52  C   UNL A   1      46.852  30.372  27.875  1.00  0.00     0.074 A 
ATOM     53  C   UNL A   1      46.347  24.245  26.302  1.00  0.00     0.029 A 
ATOM     54  N   UNL A   1      45.948  26.324  26.984  1.00  0.00    -0.354 N 
ATOM     55  N   UNL A   1      46.651  29.111  27.568  1.00  0.00    -0.248 NA
ATOM     56  C   UNL A   1      48.242  30.817  27.715  1.00  0.00     0.031 C 
ATOM     57  C   UNL A   1      47.547  24.963  26.258  1.00  0.00     0.029 A 
ATOM     58  C   UNL A   1      47.296  26.263  26.664  1.00  0.00     0.049 A 
ATOM     59  H   UNL A   1      45.482  27.127  27.309  1.00  0.00     0.167 HD
ATOM     60  C   UNL A   1      47.886  28.620  27.159  1.00  0.00     0.074 A 
ATOM     61  C   UNL A   1      48.822  29.723  27.242  1.00  0.00     0.031 C 
ATOM     62  C   UNL A   1      48.215  27.369  26.753  1.00  0.00     0.037 A 
BRANCH  49  63
ATOM     63  C   UNL A   1      43.498  23.375  26.811  1.00  0.00     0.058 A 
ATOM     64  C   UNL A   1      43.375  22.823  25.526  1.00  0.00     0.135 A 
ATOM     65  C   UNL A   1      43.209  22.547  27.908  1.00  0.00     0.135 A 
ATOM     66  F   UNL A   1      43.625  23.574  24.441  1.00  0.00    -0.206 F 
ATOM     67  C   UNL A   1      42.959  21.510  25.334  1.00  0.00     0.059 A 
ATOM     68  C   UNL A   1      42.814  21.222  27.741  1.00  0.00     0.059 A 
ATOM     69  F   UNL A   1      43.310  23.023  29.159  1.00  0.00    -0.206 F 
ATOM     70  C   UNL A   1      42.679  20.717  26.448  1.00  0.00     0.060 A 
BRANCH  70  71
ATOM     71  S   UNL A   1      42.147  19.011  26.186  1.00  0.00     0.124 S 
ATOM     72  O   UNL A   1      40.728  19.194  25.890  1.00  0.00    -0.237 OA
ATOM     73  O   UNL A   1      42.978  18.595  25.059  1.00  0.00    -0.237 OA
ATOM     74  O   UNL A   1      42.446  18.362  27.454  1.00  0.00    -0.744 OA
ENDBRANCH  70  71
ENDBRANCH  49  63
BRANCH  50  75
ATOM     75  C   UNL A   1      46.289  32.784  28.667  1.00  0.00     0.058 A 
ATOM     76  C   UNL A   1      46.720  33.132  29.955  1.00  0.00     0.135 A 
ATOM     77  C   UNL A   1      46.287  33.785  27.684  1.00  0.00     0.135 A 
ATOM     78  F   UNL A   1      46.734  32.210  30.929  1.00  0.00    -0.206 F 
ATOM     79  C   UNL A   1      47.122  34.428  30.264  1.00  0.00     0.059 A 
ATOM     80  C   UNL A   1      46.706  35.083  27.962  1.00  0.00     0.059 A 
ATOM     81  F   UNL A   1      45.900  33.497  26.432  1.00  0.00    -0.206 F 
ATOM     82  C   UNL A   1      47.111  35.396  29.259  1.00  0.00     0.060 A 
BRANCH  82  83
ATOM     83  S   UNL A   1      47.681  37.064  29.654  1.00  0.00     0.124 S 
ATOM     84  O   UNL A   1      48.442  37.405  28.457  1.00  0.00    -0.237 OA
ATOM     85  O   UNL A   1      46.423  37.783  29.839  1.00  0.00    -0.237 OA
ATOM     86  O   UNL A   1      48.466  36.869  30.869  1.00  0.00    -0.744 OA
ENDBRANCH  82  83
ENDBRANCH  50  75
BRANCH  62  87
ATOM     87  C   UNL A   1      49.642  27.134  26.344  1.00  0.00     0.058 A 
ATOM     88  C   UNL A   1      50.620  26.747  27.275  1.00  0.00     0.135 A 
ATOM     89  C   UNL A   1      50.032  27.272  25.003  1.00  0.00     0.135 A 
ATOM     90  F   UNL A   1      50.300  26.607  28.572  1.00  0.00    -0.206 F 
ATOM     91  C   UNL A   1      51.941  26.536  26.896  1.00  0.00     0.059 A 
ATOM     92  C   UNL A   1      51.342  27.041  24.596  1.00  0.00     0.059 A 
ATOM     93  F   UNL A   1      49.134  27.628  24.071  1.00  0.00    -0.206 F 
ATOM     94  C   UNL A   1      52.293  26.688  25.553  1.00  0.00     0.060 A 
BRANCH  94  95
ATOM     95  S   UNL A   1      54.008  26.401  25.067  1.00  0.00     0.124 S 
ATOM     96  O   UNL A   1      53.936  25.050  24.520  1.00  0.00    -0.237 OA
ATOM     97  O   UNL A   1      54.244  27.465  24.097  1.00  0.00    -0.237 OA
ATOM     98  O   UNL A   1      54.742  26.531  26.323  1.00  0.00    -0.744 OA
ENDBRANCH  94  95
ENDBRANCH  62  87
ENDBRANCH  36  37
ENDBRANCH  28  31
ENDBRANCH  26  27
ENDBRANCH  25  26
ENDBRANCH  24  25
ENDBRANCH   1  24
TORSDOF 21
ENDMDL
