MODEL 1
REMARK VINA RESULT:     -11.7      0.000      0.000
REMARK SMILES CC(=O)Oc1ccc([C@H]2Nc3c(C(=O)NCCCCCCNC(=O)c4ccc(-c5c6nc(c(-c7c(F)cc(S(=O)(=O)[O-])cc7F)c7ccc([nH]7)c(-c7c(F)cc(S(=O)(=O)[O-])cc7F)c7nc(c(-c8c(F)cc(S(=O)(=O)[O-])cc8F)c8ccc5[nH]8)C=C7)C=C6)cc4)ccc([N+](=O)[O-])c3[C@H]3C=CC[C@@H]32)cc1
REMARK SMILES IDX 18 1 17 2 16 3 15 4 13 5 14 6 12 8 9 9 10 10 102 11 11 12
REMARK SMILES IDX 98 14 101 15 97 16 99 17 100 18 91 19 93 20 92 21 8 22 5 23
REMARK SMILES IDX 6 24 104 25 7 26 103 27 4 28 2 29 1 30 3 31 94 32 95 33
REMARK SMILES IDX 96 34 19 35 20 36 21 37 22 38 23 39 24 41 25 42 26 43 90 44
REMARK SMILES IDX 27 45 89 46 28 47 29 48 30 49 83 50 31 51 88 52 82 53 84 54
REMARK SMILES IDX 32 55 87 56 81 57 80 58 33 60 67 61 46 62 66 63 47 64 50 65
REMARK SMILES IDX 65 66 85 67 48 68 49 69 64 71 86 72 51 73 34 74 35 75 44 76
REMARK SMILES IDX 36 77 37 78 43 79 45 80 38 81 39 82 40 83 41 84 42 85 68 86
REMARK SMILES IDX 69 87 78 88 70 89 71 90 77 91 79 92 72 93 73 94 74 95 75 96
REMARK SMILES IDX 76 97 52 98 53 99 62 100 54 101 55 102 61 103 63 104 56 105
REMARK SMILES IDX 57 106 58 107 59 108 60 109
REMARK H PARENT 15 7 10 13 22 40 84 59 50 70
REMARK Flexibility Score: inf
ROOT
ATOM      1  C   UNL A   1      34.362  21.785  23.953  1.00  0.00     0.002 C 
ENDROOT
BRANCH   1   2
ATOM      2  C   UNL A   1      34.053  21.192  25.329  1.00  0.00     0.021 C 
BRANCH   2   3
ATOM      3  C   UNL A   1      32.573  21.093  25.702  1.00  0.00     0.116 C 
BRANCH   3   4
ATOM      4  N   UNL A   1      32.136  22.054  26.724  1.00  0.00    -0.352 N 
ATOM      5  C   UNL A   1      31.840  23.412  26.618  1.00  0.00     0.253 C 
ATOM      6  O   UNL A   1      31.589  24.065  27.626  1.00  0.00    -0.269 OA
ATOM      7  H   UNL A   1      32.035  21.679  27.628  1.00  0.00     0.163 HD
BRANCH   5   8
ATOM      8  C   UNL A   1      31.847  24.069  25.277  1.00  0.00     0.063 A 
ATOM      9  C   UNL A   1      33.663  27.453  25.564  1.00  0.00     0.114 C 
ATOM     10  N   UNL A   1      33.060  26.150  25.952  1.00  0.00    -0.377 N 
ATOM     11  C   UNL A   1      33.110  27.794  24.172  1.00  0.00     0.031 C 
ATOM     12  C   UNL A   1      32.614  25.223  24.971  1.00  0.00     0.058 A 
ATOM     13  H   UNL A   1      32.969  25.925  26.905  1.00  0.00     0.161 HD
ATOM     14  C   UNL A   1      33.723  26.692  23.285  1.00  0.00     0.056 C 
ATOM     15  C   UNL A   1      33.352  29.119  23.455  1.00  0.00     0.034 C 
ATOM     16  C   UNL A   1      32.852  25.497  23.578  1.00  0.00     0.061 A 
ATOM     17  C   UNL A   1      33.823  27.368  21.963  1.00  0.00    -0.022 C 
ATOM     18  C   UNL A   1      33.643  28.688  22.057  1.00  0.00    -0.030 C 
ATOM     19  C   UNL A   1      31.082  23.444  24.272  1.00  0.00     0.023 A 
ATOM     20  C   UNL A   1      32.238  24.696  22.601  1.00  0.00     0.275 A 
ATOM     21  C   UNL A   1      31.296  23.729  22.932  1.00  0.00     0.087 A 
BRANCH   9  22
ATOM     22  C   UNL A   1      33.650  28.572  26.607  1.00  0.00    -0.025 A 
ATOM     23  C   UNL A   1      33.898  31.064  27.936  1.00  0.00     0.130 A 
ATOM     24  C   UNL A   1      35.008  30.233  27.797  1.00  0.00     0.047 A 
ATOM     25  C   UNL A   1      32.656  30.644  27.473  1.00  0.00     0.047 A 
ATOM     26  C   UNL A   1      34.881  28.996  27.149  1.00  0.00     0.010 A 
ATOM     27  C   UNL A   1      32.530  29.390  26.849  1.00  0.00     0.010 A 
BRANCH  23  28
ATOM     28  O   UNL A   1      34.152  32.353  28.461  1.00  0.00    -0.427 OA
BRANCH  28  29
ATOM     29  C   UNL A   1      33.566  33.514  27.952  1.00  0.00     0.308 C 
ATOM     30  C   UNL A   1      34.646  34.507  27.623  1.00  0.00     0.139 C 
ATOM     31  O   UNL A   1      32.372  33.724  27.790  1.00  0.00    -0.252 OA
ENDBRANCH  28  29
ENDBRANCH  23  28
ENDBRANCH   9  22
BRANCH  20  32
ATOM     32  N   UNL A   1      32.556  24.822  21.197  1.00  0.00     0.063 N 
ATOM     33  O   UNL A   1      33.442  24.083  20.750  1.00  0.00    -0.258 OA
ATOM     34  O   UNL A   1      31.932  25.682  20.561  1.00  0.00    -0.258 OA
ENDBRANCH  20  32
ENDBRANCH   5   8
ENDBRANCH   3   4
ENDBRANCH   2   3
ENDBRANCH   1   2
BRANCH   1  35
ATOM     35  C   UNL A   1      35.707  22.508  23.809  1.00  0.00     0.002 C 
BRANCH  35  36
ATOM     36  C   UNL A   1      35.914  23.760  24.670  1.00  0.00     0.021 C 
BRANCH  36  37
ATOM     37  C   UNL A   1      36.451  23.530  26.083  1.00  0.00     0.116 C 
BRANCH  37  38
ATOM     38  N   UNL A   1      37.585  22.620  26.124  1.00  0.00    -0.352 N 
ATOM     39  C   UNL A   1      38.909  22.856  26.428  1.00  0.00     0.251 C 
ATOM     40  H   UNL A   1      37.373  21.686  25.897  1.00  0.00     0.163 HD
ATOM     41  O   UNL A   1      39.733  21.966  26.275  1.00  0.00    -0.269 OA
BRANCH  39  42
ATOM     42  C   UNL A   1      39.345  24.191  26.907  1.00  0.00     0.039 A 
ATOM     43  C   UNL A   1      39.212  24.492  28.266  1.00  0.00     0.014 A 
ATOM     44  C   UNL A   1      39.883  25.140  26.034  1.00  0.00     0.014 A 
ATOM     45  C   UNL A   1      39.711  25.699  28.765  1.00  0.00     0.010 A 
ATOM     46  C   UNL A   1      40.435  26.317  26.541  1.00  0.00     0.010 A 
ATOM     47  C   UNL A   1      40.381  26.596  27.915  1.00  0.00    -0.014 A 
BRANCH  47  48
ATOM     48  C   UNL A   1      41.104  27.778  28.461  1.00  0.00     0.031 A 
ATOM     49  C   UNL A   1      40.359  28.917  29.096  1.00  0.00     0.074 A 
ATOM     50  C   UNL A   1      42.442  27.855  28.302  1.00  0.00     0.049 A 
ATOM     51  N   UNL A   1      40.822  30.057  29.545  1.00  0.00    -0.248 NA
ATOM     52  C   UNL A   1      38.902  28.768  29.232  1.00  0.00     0.031 C 
ATOM     53  C   UNL A   1      43.276  26.834  27.662  1.00  0.00     0.029 A 
ATOM     54  N   UNL A   1      43.336  28.838  28.648  1.00  0.00    -0.354 N 
ATOM     55  C   UNL A   1      39.718  30.762  30.010  1.00  0.00     0.074 A 
ATOM     56  C   UNL A   1      38.556  29.938  29.749  1.00  0.00     0.031 C 
ATOM     57  C   UNL A   1      44.557  27.237  27.676  1.00  0.00     0.029 A 
ATOM     58  C   UNL A   1      44.632  28.562  28.278  1.00  0.00     0.049 A 
ATOM     59  H   UNL A   1      43.074  29.663  29.118  1.00  0.00     0.167 HD
ATOM     60  C   UNL A   1      39.681  31.975  30.613  1.00  0.00     0.037 A 
ATOM     61  C   UNL A   1      45.754  29.301  28.389  1.00  0.00     0.037 A 
ATOM     62  C   UNL A   1      40.844  32.786  30.875  1.00  0.00     0.049 A 
ATOM     63  C   UNL A   1      45.680  30.660  29.027  1.00  0.00     0.074 A 
ATOM     64  C   UNL A   1      40.912  34.002  31.535  1.00  0.00     0.029 A 
ATOM     65  N   UNL A   1      42.137  32.475  30.482  1.00  0.00    -0.354 N 
ATOM     66  N   UNL A   1      44.637  31.278  29.527  1.00  0.00    -0.248 NA
ATOM     67  C   UNL A   1      46.932  31.425  29.114  1.00  0.00     0.031 C 
ATOM     68  C   UNL A   1      42.235  34.453  31.488  1.00  0.00     0.029 A 
ATOM     69  C   UNL A   1      43.004  33.493  30.851  1.00  0.00     0.049 A 
ATOM     70  H   UNL A   1      42.401  31.652  30.009  1.00  0.00     0.167 HD
ATOM     71  C   UNL A   1      45.109  32.496  30.003  1.00  0.00     0.074 A 
ATOM     72  C   UNL A   1      46.535  32.518  29.751  1.00  0.00     0.031 C 
ATOM     73  C   UNL A   1      44.422  33.508  30.589  1.00  0.00     0.037 A 
BRANCH  60  74
ATOM     74  C   UNL A   1      38.337  32.510  31.036  1.00  0.00     0.058 A 
ATOM     75  C   UNL A   1      37.793  32.221  32.297  1.00  0.00     0.135 A 
ATOM     76  C   UNL A   1      37.614  33.369  30.193  1.00  0.00     0.135 A 
ATOM     77  F   UNL A   1      38.435  31.396  33.138  1.00  0.00    -0.206 F 
ATOM     78  C   UNL A   1      36.568  32.745  32.697  1.00  0.00     0.059 A 
ATOM     79  C   UNL A   1      36.400  33.928  30.584  1.00  0.00     0.059 A 
ATOM     80  F   UNL A   1      38.087  33.681  28.976  1.00  0.00    -0.206 F 
ATOM     81  C   UNL A   1      35.879  33.600  31.836  1.00  0.00     0.060 A 
BRANCH  81  82
ATOM     82  S   UNL A   1      34.298  34.280  32.380  1.00  0.00     0.124 S 
ATOM     83  O   UNL A   1      33.707  33.133  33.063  1.00  0.00    -0.237 OA
ATOM     84  O   UNL A   1      34.713  35.385  33.238  1.00  0.00    -0.237 OA
ATOM     85  O   UNL A   1      33.646  34.670  31.133  1.00  0.00    -0.744 OA
ENDBRANCH  81  82
ENDBRANCH  60  74
BRANCH  61  86
ATOM     86  C   UNL A   1      47.048  28.769  27.877  1.00  0.00     0.058 A 
ATOM     87  C   UNL A   1      47.951  28.120  28.732  1.00  0.00     0.135 A 
ATOM     88  C   UNL A   1      47.403  28.893  26.525  1.00  0.00     0.135 A 
ATOM     89  F   UNL A   1      47.662  27.984  30.035  1.00  0.00    -0.206 F 
ATOM     90  C   UNL A   1      49.166  27.626  28.268  1.00  0.00     0.059 A 
ATOM     91  C   UNL A   1      48.599  28.382  26.032  1.00  0.00     0.059 A 
ATOM     92  F   UNL A   1      46.568  29.492  25.661  1.00  0.00    -0.206 F 
ATOM     93  C   UNL A   1      49.480  27.758  26.915  1.00  0.00     0.060 A 
BRANCH  93  94
ATOM     94  S   UNL A   1      51.038  27.071  26.315  1.00  0.00     0.124 S 
ATOM     95  O   UNL A   1      50.804  25.640  26.466  1.00  0.00    -0.237 OA
ATOM     96  O   UNL A   1      51.085  27.570  24.944  1.00  0.00    -0.237 OA
ATOM     97  O   UNL A   1      52.029  27.649  27.217  1.00  0.00    -0.744 OA
ENDBRANCH  93  94
ENDBRANCH  61  86
BRANCH  73  98
ATOM     98  C   UNL A   1      45.204  34.724  31.009  1.00  0.00     0.058 A 
ATOM     99  C   UNL A   1      45.345  35.835  30.163  1.00  0.00     0.135 A 
ATOM    100  C   UNL A   1      45.777  34.799  32.289  1.00  0.00     0.135 A 
ATOM    101  F   UNL A   1      44.826  35.812  28.925  1.00  0.00    -0.206 F 
ATOM    102  C   UNL A   1      46.043  36.970  30.563  1.00  0.00     0.059 A 
ATOM    103  C   UNL A   1      46.453  35.936  32.722  1.00  0.00     0.059 A 
ATOM    104  F   UNL A   1      45.666  33.768  33.142  1.00  0.00    -0.206 F 
ATOM    105  C   UNL A   1      46.590  37.013  31.846  1.00  0.00     0.060 A 
BRANCH 105 106
ATOM    106  S   UNL A   1      47.459  38.508  32.365  1.00  0.00     0.124 S 
ATOM    107  O   UNL A   1      46.572  39.553  31.866  1.00  0.00    -0.237 OA
ATOM    108  O   UNL A   1      47.503  38.354  33.817  1.00  0.00    -0.237 OA
ATOM    109  O   UNL A   1      48.750  38.404  31.692  1.00  0.00    -0.744 OA
ENDBRANCH 105 106
ENDBRANCH  73  98
ENDBRANCH  47  48
ENDBRANCH  39  42
ENDBRANCH  37  38
ENDBRANCH  36  37
ENDBRANCH  35  36
ENDBRANCH   1  35
TORSDOF 20
ENDMDL
MODEL 2
REMARK VINA RESULT:     -11.6      0.640      7.747
REMARK SMILES CC(=O)Oc1ccc([C@H]2Nc3c(C(=O)NCCCCCCNC(=O)c4ccc(-c5c6nc(c(-c7c(F)cc(S(=O)(=O)[O-])cc7F)c7ccc([nH]7)c(-c7c(F)cc(S(=O)(=O)[O-])cc7F)c7nc(c(-c8c(F)cc(S(=O)(=O)[O-])cc8F)c8ccc5[nH]8)C=C7)C=C6)cc4)ccc([N+](=O)[O-])c3[C@H]3C=CC[C@@H]32)cc1
REMARK SMILES IDX 18 1 17 2 16 3 15 4 13 5 14 6 12 8 9 9 10 10 102 11 11 12
REMARK SMILES IDX 98 14 101 15 97 16 99 17 100 18 91 19 93 20 92 21 8 22 5 23
REMARK SMILES IDX 6 24 104 25 7 26 103 27 4 28 2 29 1 30 3 31 94 32 95 33
REMARK SMILES IDX 96 34 19 35 20 36 21 37 22 38 23 39 24 41 25 42 26 43 90 44
REMARK SMILES IDX 27 45 89 46 28 47 29 48 30 49 83 50 31 51 88 52 82 53 84 54
REMARK SMILES IDX 32 55 87 56 81 57 80 58 33 60 67 61 46 62 66 63 47 64 50 65
REMARK SMILES IDX 65 66 85 67 48 68 49 69 64 71 86 72 51 73 34 74 35 75 44 76
REMARK SMILES IDX 36 77 37 78 43 79 45 80 38 81 39 82 40 83 41 84 42 85 68 86
REMARK SMILES IDX 69 87 78 88 70 89 71 90 77 91 79 92 72 93 73 94 74 95 75 96
REMARK SMILES IDX 76 97 52 98 53 99 62 100 54 101 55 102 61 103 63 104 56 105
REMARK SMILES IDX 57 106 58 107 59 108 60 109
REMARK H PARENT 15 7 10 13 22 40 84 59 50 70
REMARK Flexibility Score: inf
ROOT
ATOM      1  C   UNL A   1      34.953  20.632  24.713  1.00  0.00     0.002 C 
ENDROOT
BRANCH   1   2
ATOM      2  C   UNL A   1      34.040  20.813  25.927  1.00  0.00     0.021 C 
BRANCH   2   3
ATOM      3  C   UNL A   1      32.613  21.275  25.633  1.00  0.00     0.116 C 
BRANCH   3   4
ATOM      4  N   UNL A   1      32.036  22.161  26.654  1.00  0.00    -0.352 N 
ATOM      5  C   UNL A   1      31.639  23.494  26.572  1.00  0.00     0.253 C 
ATOM      6  O   UNL A   1      31.273  24.089  27.581  1.00  0.00    -0.269 OA
ATOM      7  H   UNL A   1      31.911  21.747  27.538  1.00  0.00     0.163 HD
BRANCH   5   8
ATOM      8  C   UNL A   1      31.675  24.197  25.255  1.00  0.00     0.063 A 
ATOM      9  C   UNL A   1      33.724  27.436  25.637  1.00  0.00     0.114 C 
ATOM     10  N   UNL A   1      33.037  26.164  25.987  1.00  0.00    -0.377 N 
ATOM     11  C   UNL A   1      33.180  27.865  24.266  1.00  0.00     0.031 C 
ATOM     12  C   UNL A   1      32.517  25.307  24.980  1.00  0.00     0.058 A 
ATOM     13  H   UNL A   1      32.941  25.912  26.933  1.00  0.00     0.161 HD
ATOM     14  C   UNL A   1      33.705  26.757  23.331  1.00  0.00     0.056 C 
ATOM     15  C   UNL A   1      33.505  29.195  23.594  1.00  0.00     0.034 C 
ATOM     16  C   UNL A   1      32.757  25.614  23.594  1.00  0.00     0.061 A 
ATOM     17  C   UNL A   1      33.836  27.472  22.033  1.00  0.00    -0.022 C 
ATOM     18  C   UNL A   1      33.749  28.797  22.177  1.00  0.00    -0.030 C 
ATOM     19  C   UNL A   1      30.858  23.664  24.239  1.00  0.00     0.023 A 
ATOM     20  C   UNL A   1      32.078  24.893  22.598  1.00  0.00     0.275 A 
ATOM     21  C   UNL A   1      31.075  23.982  22.907  1.00  0.00     0.087 A 
BRANCH   9  22
ATOM     22  C   UNL A   1      33.800  28.515  26.720  1.00  0.00    -0.025 A 
ATOM     23  C   UNL A   1      34.290  30.913  28.149  1.00  0.00     0.130 A 
ATOM     24  C   UNL A   1      35.296  29.957  28.025  1.00  0.00     0.047 A 
ATOM     25  C   UNL A   1      33.028  30.664  27.621  1.00  0.00     0.047 A 
ATOM     26  C   UNL A   1      35.048  28.766  27.327  1.00  0.00     0.010 A 
ATOM     27  C   UNL A   1      32.778  29.456  26.946  1.00  0.00     0.010 A 
BRANCH  23  28
ATOM     28  O   UNL A   1      34.674  32.145  28.731  1.00  0.00    -0.427 OA
BRANCH  28  29
ATOM     29  C   UNL A   1      34.773  33.334  28.007  1.00  0.00     0.308 C 
ATOM     30  C   UNL A   1      33.505  34.123  28.181  1.00  0.00     0.139 C 
ATOM     31  O   UNL A   1      35.720  33.704  27.328  1.00  0.00    -0.252 OA
ENDBRANCH  28  29
ENDBRANCH  23  28
ENDBRANCH   9  22
BRANCH  20  32
ATOM     32  N   UNL A   1      32.387  25.048  21.195  1.00  0.00     0.063 N 
ATOM     33  O   UNL A   1      33.305  24.355  20.739  1.00  0.00    -0.258 OA
ATOM     34  O   UNL A   1      31.725  25.888  20.570  1.00  0.00    -0.258 OA
ENDBRANCH  20  32
ENDBRANCH   5   8
ENDBRANCH   3   4
ENDBRANCH   2   3
ENDBRANCH   1   2
BRANCH   1  35
ATOM     35  C   UNL A   1      35.777  21.856  24.292  1.00  0.00     0.002 C 
BRANCH  35  36
ATOM     36  C   UNL A   1      35.512  23.162  25.050  1.00  0.00     0.021 C 
BRANCH  36  37
ATOM     37  C   UNL A   1      36.534  23.543  26.122  1.00  0.00     0.116 C 
BRANCH  37  38
ATOM     38  N   UNL A   1      37.667  22.633  26.182  1.00  0.00    -0.352 N 
ATOM     39  C   UNL A   1      38.995  22.878  26.459  1.00  0.00     0.251 C 
ATOM     40  H   UNL A   1      37.450  21.691  25.994  1.00  0.00     0.163 HD
ATOM     41  O   UNL A   1      39.816  21.981  26.328  1.00  0.00    -0.269 OA
BRANCH  39  42
ATOM     42  C   UNL A   1      39.440  24.229  26.880  1.00  0.00     0.039 A 
ATOM     43  C   UNL A   1      39.342  24.576  28.230  1.00  0.00     0.014 A 
ATOM     44  C   UNL A   1      39.951  25.149  25.961  1.00  0.00     0.014 A 
ATOM     45  C   UNL A   1      39.851  25.800  28.675  1.00  0.00     0.010 A 
ATOM     46  C   UNL A   1      40.513  26.344  26.413  1.00  0.00     0.010 A 
ATOM     47  C   UNL A   1      40.495  26.670  27.777  1.00  0.00    -0.014 A 
BRANCH  47  48
ATOM     48  C   UNL A   1      41.229  27.871  28.263  1.00  0.00     0.031 A 
ATOM     49  C   UNL A   1      42.728  27.946  28.188  1.00  0.00     0.074 A 
ATOM     50  C   UNL A   1      40.534  28.866  28.853  1.00  0.00     0.049 A 
ATOM     51  N   UNL A   1      43.530  28.876  28.641  1.00  0.00    -0.248 NA
ATOM     52  C   UNL A   1      43.419  26.824  27.537  1.00  0.00     0.031 C 
ATOM     53  C   UNL A   1      39.080  28.893  29.026  1.00  0.00     0.029 A 
ATOM     54  N   UNL A   1      40.954  30.039  29.431  1.00  0.00    -0.354 N 
ATOM     55  C   UNL A   1      44.818  28.453  28.335  1.00  0.00     0.074 A 
ATOM     56  C   UNL A   1      44.692  27.159  27.696  1.00  0.00     0.031 C 
ATOM     57  C   UNL A   1      38.729  30.028  29.652  1.00  0.00     0.029 A 
ATOM     58  C   UNL A   1      39.933  30.787  29.969  1.00  0.00     0.049 A 
ATOM     59  H   UNL A   1      41.898  30.318  29.458  1.00  0.00     0.167 HD
ATOM     60  C   UNL A   1      45.994  29.091  28.553  1.00  0.00     0.037 A 
ATOM     61  C   UNL A   1      39.960  31.944  30.661  1.00  0.00     0.037 A 
ATOM     62  C   UNL A   1      46.110  30.383  29.184  1.00  0.00     0.049 A 
ATOM     63  C   UNL A   1      41.280  32.613  30.923  1.00  0.00     0.074 A 
ATOM     64  C   UNL A   1      47.253  31.137  29.393  1.00  0.00     0.029 A 
ATOM     65  N   UNL A   1      45.054  31.107  29.718  1.00  0.00    -0.354 N 
ATOM     66  N   UNL A   1      42.482  32.232  30.561  1.00  0.00    -0.248 NA
ATOM     67  C   UNL A   1      41.251  33.867  31.689  1.00  0.00     0.031 C 
ATOM     68  C   UNL A   1      46.895  32.286  30.105  1.00  0.00     0.029 A 
ATOM     69  C   UNL A   1      45.523  32.279  30.290  1.00  0.00     0.049 A 
ATOM     70  H   UNL A   1      44.109  30.828  29.695  1.00  0.00     0.167 HD
ATOM     71  C   UNL A   1      43.350  33.207  31.040  1.00  0.00     0.074 A 
ATOM     72  C   UNL A   1      42.533  34.206  31.698  1.00  0.00     0.031 C 
ATOM     73  C   UNL A   1      44.702  33.265  30.950  1.00  0.00     0.037 A 
BRANCH  60  74
ATOM     74  C   UNL A   1      47.259  28.407  28.107  1.00  0.00     0.058 A 
ATOM     75  C   UNL A   1      48.011  27.607  28.981  1.00  0.00     0.135 A 
ATOM     76  C   UNL A   1      47.692  28.503  26.774  1.00  0.00     0.135 A 
ATOM     77  F   UNL A   1      47.651  27.489  30.268  1.00  0.00    -0.206 F 
ATOM     78  C   UNL A   1      49.160  26.947  28.557  1.00  0.00     0.059 A 
ATOM     79  C   UNL A   1      48.822  27.829  26.321  1.00  0.00     0.059 A 
ATOM     80  F   UNL A   1      47.010  29.253  25.894  1.00  0.00    -0.206 F 
ATOM     81  C   UNL A   1      49.557  27.062  27.224  1.00  0.00     0.060 A 
BRANCH  81  82
ATOM     82  S   UNL A   1      51.044  26.187  26.690  1.00  0.00     0.124 S 
ATOM     83  O   UNL A   1      52.088  26.939  27.380  1.00  0.00    -0.237 OA
ATOM     84  O   UNL A   1      50.804  24.835  27.184  1.00  0.00    -0.237 OA
ATOM     85  O   UNL A   1      51.023  26.334  25.238  1.00  0.00    -0.744 OA
ENDBRANCH  81  82
ENDBRANCH  60  74
BRANCH  61  86
ATOM     86  C   UNL A   1      38.690  32.541  31.160  1.00  0.00     0.058 A 
ATOM     87  C   UNL A   1      38.183  32.207  32.424  1.00  0.00     0.135 A 
ATOM     88  C   UNL A   1      37.962  33.459  30.387  1.00  0.00     0.135 A 
ATOM     89  F   UNL A   1      38.836  31.326  33.198  1.00  0.00    -0.206 F 
ATOM     90  C   UNL A   1      36.993  32.750  32.899  1.00  0.00     0.059 A 
ATOM     91  C   UNL A   1      36.786  34.038  30.852  1.00  0.00     0.059 A 
ATOM     92  F   UNL A   1      38.411  33.824  29.176  1.00  0.00    -0.206 F 
ATOM     93  C   UNL A   1      36.303  33.669  32.107  1.00  0.00     0.060 A 
BRANCH  93  94
ATOM     94  S   UNL A   1      34.787  34.405  32.753  1.00  0.00     0.124 S 
ATOM     95  O   UNL A   1      34.547  33.590  33.938  1.00  0.00    -0.237 OA
ATOM     96  O   UNL A   1      35.196  35.784  32.996  1.00  0.00    -0.237 OA
ATOM     97  O   UNL A   1      33.835  34.226  31.660  1.00  0.00    -0.744 OA
ENDBRANCH  93  94
ENDBRANCH  61  86
BRANCH  73  98
ATOM     98  C   UNL A   1      45.387  34.454  31.568  1.00  0.00     0.058 A 
ATOM     99  C   UNL A   1      45.861  34.424  32.889  1.00  0.00     0.135 A 
ATOM    100  C   UNL A   1      45.616  35.619  30.817  1.00  0.00     0.135 A 
ATOM    101  F   UNL A   1      45.659  33.339  33.654  1.00  0.00    -0.206 F 
ATOM    102  C   UNL A   1      46.519  35.512  33.451  1.00  0.00     0.059 A 
ATOM    103  C   UNL A   1      46.299  36.709  31.349  1.00  0.00     0.059 A 
ATOM    104  F   UNL A   1      45.190  35.700  29.547  1.00  0.00    -0.206 F 
ATOM    105  C   UNL A   1      46.738  36.650  32.671  1.00  0.00     0.060 A 
BRANCH 105 106
ATOM    106  S   UNL A   1      47.629  38.039  33.401  1.00  0.00     0.124 S 
ATOM    107  O   UNL A   1      47.970  38.825  32.220  1.00  0.00    -0.237 OA
ATOM    108  O   UNL A   1      46.624  38.625  34.283  1.00  0.00    -0.237 OA
ATOM    109  O   UNL A   1      48.755  37.404  34.080  1.00  0.00    -0.744 OA
ENDBRANCH 105 106
ENDBRANCH  73  98
ENDBRANCH  47  48
ENDBRANCH  39  42
ENDBRANCH  37  38
ENDBRANCH  36  37
ENDBRANCH  35  36
ENDBRANCH   1  35
TORSDOF 20
ENDMDL
MODEL 3
REMARK VINA RESULT:     -10.5      4.290     11.547
REMARK SMILES CC(=O)Oc1ccc([C@H]2Nc3c(C(=O)NCCCCCCNC(=O)c4ccc(-c5c6nc(c(-c7c(F)cc(S(=O)(=O)[O-])cc7F)c7ccc([nH]7)c(-c7c(F)cc(S(=O)(=O)[O-])cc7F)c7nc(c(-c8c(F)cc(S(=O)(=O)[O-])cc8F)c8ccc5[nH]8)C=C7)C=C6)cc4)ccc([N+](=O)[O-])c3[C@H]3C=CC[C@@H]32)cc1
REMARK SMILES IDX 18 1 17 2 16 3 15 4 13 5 14 6 12 8 9 9 10 10 102 11 11 12
REMARK SMILES IDX 98 14 101 15 97 16 99 17 100 18 91 19 93 20 92 21 8 22 5 23
REMARK SMILES IDX 6 24 104 25 7 26 103 27 4 28 2 29 1 30 3 31 94 32 95 33
REMARK SMILES IDX 96 34 19 35 20 36 21 37 22 38 23 39 24 41 25 42 26 43 90 44
REMARK SMILES IDX 27 45 89 46 28 47 29 48 30 49 83 50 31 51 88 52 82 53 84 54
REMARK SMILES IDX 32 55 87 56 81 57 80 58 33 60 67 61 46 62 66 63 47 64 50 65
REMARK SMILES IDX 65 66 85 67 48 68 49 69 64 71 86 72 51 73 34 74 35 75 44 76
REMARK SMILES IDX 36 77 37 78 43 79 45 80 38 81 39 82 40 83 41 84 42 85 68 86
REMARK SMILES IDX 69 87 78 88 70 89 71 90 77 91 79 92 72 93 73 94 74 95 75 96
REMARK SMILES IDX 76 97 52 98 53 99 62 100 54 101 55 102 61 103 63 104 56 105
REMARK SMILES IDX 57 106 58 107 59 108 60 109
REMARK H PARENT 15 7 10 13 22 40 84 59 50 70
REMARK Flexibility Score: inf
ROOT
ATOM      1  C   UNL A   1      37.397  33.175  29.252  1.00  0.00     0.002 C 
ENDROOT
BRANCH   1   2
ATOM      2  C   UNL A   1      37.786  34.000  30.481  1.00  0.00     0.021 C 
BRANCH   2   3
ATOM      3  C   UNL A   1      37.039  33.673  31.774  1.00  0.00     0.116 C 
BRANCH   3   4
ATOM      4  N   UNL A   1      36.768  32.243  31.976  1.00  0.00    -0.352 N 
ATOM      5  C   UNL A   1      37.124  31.396  33.025  1.00  0.00     0.253 C 
ATOM      6  O   UNL A   1      36.885  30.194  32.951  1.00  0.00    -0.269 OA
ATOM      7  H   UNL A   1      36.254  31.814  31.256  1.00  0.00     0.163 HD
BRANCH   5   8
ATOM      8  C   UNL A   1      37.808  31.955  34.228  1.00  0.00     0.063 A 
ATOM      9  C   UNL A   1      41.317  30.389  34.497  1.00  0.00     0.114 C 
ATOM     10  N   UNL A   1      39.945  30.674  33.998  1.00  0.00    -0.377 N 
ATOM     11  C   UNL A   1      41.395  30.968  35.918  1.00  0.00     0.031 C 
ATOM     12  C   UNL A   1      39.187  31.762  34.509  1.00  0.00     0.058 A 
ATOM     13  H   UNL A   1      39.555  30.099  33.301  1.00  0.00     0.161 HD
ATOM     14  C   UNL A   1      41.273  32.485  35.673  1.00  0.00     0.056 C 
ATOM     15  C   UNL A   1      42.579  30.770  36.859  1.00  0.00     0.034 C 
ATOM     16  C   UNL A   1      39.795  32.674  35.442  1.00  0.00     0.061 A 
ATOM     17  C   UNL A   1      42.035  33.053  36.818  1.00  0.00    -0.022 C 
ATOM     18  C   UNL A   1      42.761  32.127  37.449  1.00  0.00    -0.030 C 
ATOM     19  C   UNL A   1      37.023  32.762  35.075  1.00  0.00     0.023 A 
ATOM     20  C   UNL A   1      38.997  33.622  36.104  1.00  0.00     0.275 A 
ATOM     21  C   UNL A   1      37.611  33.620  35.991  1.00  0.00     0.087 A 
BRANCH   9  22
ATOM     22  C   UNL A   1      41.858  28.971  34.297  1.00  0.00    -0.025 A 
ATOM     23  C   UNL A   1      43.489  26.653  34.275  1.00  0.00     0.130 A 
ATOM     24  C   UNL A   1      43.633  27.619  33.280  1.00  0.00     0.047 A 
ATOM     25  C   UNL A   1      42.504  26.801  35.245  1.00  0.00     0.047 A 
ATOM     26  C   UNL A   1      42.818  28.759  33.286  1.00  0.00     0.010 A 
ATOM     27  C   UNL A   1      41.671  27.934  35.229  1.00  0.00     0.010 A 
BRANCH  23  28
ATOM     28  O   UNL A   1      44.455  25.619  34.279  1.00  0.00    -0.427 OA
BRANCH  28  29
ATOM     29  C   UNL A   1      44.284  24.412  33.600  1.00  0.00     0.308 C 
ATOM     30  C   UNL A   1      43.187  23.625  34.262  1.00  0.00     0.139 C 
ATOM     31  O   UNL A   1      44.910  24.023  32.625  1.00  0.00    -0.252 OA
ENDBRANCH  28  29
ENDBRANCH  23  28
ENDBRANCH   9  22
BRANCH  20  32
ATOM     32  N   UNL A   1      39.568  34.659  36.932  1.00  0.00     0.063 N 
ATOM     33  O   UNL A   1      39.599  34.455  38.152  1.00  0.00    -0.258 OA
ATOM     34  O   UNL A   1      39.953  35.683  36.352  1.00  0.00    -0.258 OA
ENDBRANCH  20  32
ENDBRANCH   5   8
ENDBRANCH   3   4
ENDBRANCH   2   3
ENDBRANCH   1   2
BRANCH   1  35
ATOM     35  C   UNL A   1      36.060  33.528  28.589  1.00  0.00     0.002 C 
BRANCH  35  36
ATOM     36  C   UNL A   1      34.895  32.560  28.824  1.00  0.00     0.021 C 
BRANCH  36  37
ATOM     37  C   UNL A   1      34.135  32.098  27.581  1.00  0.00     0.116 C 
BRANCH  37  38
ATOM     38  N   UNL A   1      33.698  30.713  27.658  1.00  0.00    -0.352 N 
ATOM     39  C   UNL A   1      34.423  29.557  27.848  1.00  0.00     0.251 C 
ATOM     40  H   UNL A   1      32.727  30.580  27.558  1.00  0.00     0.163 HD
ATOM     41  O   UNL A   1      33.869  28.471  27.751  1.00  0.00    -0.269 OA
BRANCH  39  42
ATOM     42  C   UNL A   1      35.877  29.619  28.136  1.00  0.00     0.039 A 
ATOM     43  C   UNL A   1      36.313  29.380  29.443  1.00  0.00     0.014 A 
ATOM     44  C   UNL A   1      36.809  29.906  27.134  1.00  0.00     0.014 A 
ATOM     45  C   UNL A   1      37.682  29.327  29.723  1.00  0.00     0.010 A 
ATOM     46  C   UNL A   1      38.174  29.793  27.402  1.00  0.00     0.010 A 
ATOM     47  C   UNL A   1      38.625  29.474  28.691  1.00  0.00    -0.014 A 
BRANCH  47  48
ATOM     48  C   UNL A   1      40.070  29.209  28.927  1.00  0.00     0.031 A 
ATOM     49  C   UNL A   1      40.670  27.863  28.632  1.00  0.00     0.074 A 
ATOM     50  C   UNL A   1      40.828  30.173  29.492  1.00  0.00     0.049 A 
ATOM     51  N   UNL A   1      41.887  27.435  28.857  1.00  0.00    -0.248 NA
ATOM     52  C   UNL A   1      39.785  26.859  28.022  1.00  0.00     0.031 C 
ATOM     53  C   UNL A   1      40.354  31.508  29.866  1.00  0.00     0.029 A 
ATOM     54  N   UNL A   1      42.149  30.177  29.867  1.00  0.00    -0.354 N 
ATOM     55  C   UNL A   1      41.914  26.115  28.421  1.00  0.00     0.074 A 
ATOM     56  C   UNL A   1      40.579  25.799  27.959  1.00  0.00     0.031 C 
ATOM     57  C   UNL A   1      41.369  32.204  30.401  1.00  0.00     0.029 A 
ATOM     58  C   UNL A   1      42.552  31.354  30.455  1.00  0.00     0.049 A 
ATOM     59  H   UNL A   1      42.751  29.410  29.727  1.00  0.00     0.167 HD
ATOM     60  C   UNL A   1      42.961  25.254  28.395  1.00  0.00     0.037 A 
ATOM     61  C   UNL A   1      43.735  31.705  30.999  1.00  0.00     0.037 A 
ATOM     62  C   UNL A   1      44.289  25.579  28.852  1.00  0.00     0.049 A 
ATOM     63  C   UNL A   1      44.869  30.718  30.993  1.00  0.00     0.074 A 
ATOM     64  C   UNL A   1      45.429  24.792  28.809  1.00  0.00     0.029 A 
ATOM     65  N   UNL A   1      44.658  26.778  29.444  1.00  0.00    -0.354 N 
ATOM     66  N   UNL A   1      44.896  29.498  30.510  1.00  0.00    -0.248 NA
ATOM     67  C   UNL A   1      46.132  31.150  31.607  1.00  0.00     0.031 C 
ATOM     68  C   UNL A   1      46.469  25.492  29.428  1.00  0.00     0.029 A 
ATOM     69  C   UNL A   1      45.995  26.738  29.806  1.00  0.00     0.049 A 
ATOM     70  H   UNL A   1      44.057  27.545  29.587  1.00  0.00     0.167 HD
ATOM     71  C   UNL A   1      46.181  29.024  30.746  1.00  0.00     0.074 A 
ATOM     72  C   UNL A   1      46.908  30.096  31.395  1.00  0.00     0.031 C 
ATOM     73  C   UNL A   1      46.709  27.809  30.458  1.00  0.00     0.037 A 
BRANCH  60  74
ATOM     74  C   UNL A   1      42.719  23.869  27.856  1.00  0.00     0.058 A 
ATOM     75  C   UNL A   1      42.510  22.772  28.707  1.00  0.00     0.135 A 
ATOM     76  C   UNL A   1      42.634  23.646  26.471  1.00  0.00     0.135 A 
ATOM     77  F   UNL A   1      42.590  22.925  30.038  1.00  0.00    -0.206 F 
ATOM     78  C   UNL A   1      42.251  21.501  28.205  1.00  0.00     0.059 A 
ATOM     79  C   UNL A   1      42.348  22.388  25.948  1.00  0.00     0.059 A 
ATOM     80  F   UNL A   1      42.824  24.658  25.611  1.00  0.00    -0.206 F 
ATOM     81  C   UNL A   1      42.170  21.318  26.824  1.00  0.00     0.060 A 
BRANCH  81  82
ATOM     82  S   UNL A   1      41.819  19.663  26.193  1.00  0.00     0.124 S 
ATOM     83  O   UNL A   1      42.671  19.617  25.008  1.00  0.00    -0.237 OA
ATOM     84  O   UNL A   1      42.232  18.813  27.304  1.00  0.00    -0.237 OA
ATOM     85  O   UNL A   1      40.384  19.694  25.931  1.00  0.00    -0.744 OA
ENDBRANCH  81  82
ENDBRANCH  60  74
BRANCH  61  86
ATOM     86  C   UNL A   1      43.903  33.056  31.602  1.00  0.00     0.058 A 
ATOM     87  C   UNL A   1      44.063  34.192  30.795  1.00  0.00     0.135 A 
ATOM     88  C   UNL A   1      43.903  33.238  32.993  1.00  0.00     0.135 A 
ATOM     89  F   UNL A   1      44.081  34.069  29.459  1.00  0.00    -0.206 F 
ATOM     90  C   UNL A   1      44.231  35.459  31.346  1.00  0.00     0.059 A 
ATOM     91  C   UNL A   1      44.039  34.498  33.567  1.00  0.00     0.059 A 
ATOM     92  F   UNL A   1      43.738  32.187  33.811  1.00  0.00    -0.206 F 
ATOM     93  C   UNL A   1      44.214  35.603  32.734  1.00  0.00     0.060 A 
BRANCH  93  94
ATOM     94  S   UNL A   1      44.383  37.257  33.436  1.00  0.00     0.124 S 
ATOM     95  O   UNL A   1      43.877  37.055  34.789  1.00  0.00    -0.237 OA
ATOM     96  O   UNL A   1      45.818  37.493  33.320  1.00  0.00    -0.237 OA
ATOM     97  O   UNL A   1      43.548  38.078  32.565  1.00  0.00    -0.744 OA
ENDBRANCH  93  94
ENDBRANCH  61  86
BRANCH  73  98
ATOM     98  C   UNL A   1      48.148  27.572  30.833  1.00  0.00     0.058 A 
ATOM     99  C   UNL A   1      48.502  27.020  32.074  1.00  0.00     0.135 A 
ATOM    100  C   UNL A   1      49.180  27.854  29.923  1.00  0.00     0.135 A 
ATOM    101  F   UNL A   1      47.556  26.741  32.984  1.00  0.00    -0.206 F 
ATOM    102  C   UNL A   1      49.829  26.774  32.408  1.00  0.00     0.059 A 
ATOM    103  C   UNL A   1      50.513  27.589  30.225  1.00  0.00     0.059 A 
ATOM    104  F   UNL A   1      48.898  28.376  28.719  1.00  0.00    -0.206 F 
ATOM    105  C   UNL A   1      50.828  27.058  31.475  1.00  0.00     0.060 A 
BRANCH 105 106
ATOM    106  S   UNL A   1      52.543  26.697  31.908  1.00  0.00     0.124 S 
ATOM    107  O   UNL A   1      52.380  25.657  32.918  1.00  0.00    -0.237 OA
ATOM    108  O   UNL A   1      53.101  26.259  30.632  1.00  0.00    -0.237 OA
ATOM    109  O   UNL A   1      53.048  27.976  32.399  1.00  0.00    -0.744 OA
ENDBRANCH 105 106
ENDBRANCH  73  98
ENDBRANCH  47  48
ENDBRANCH  39  42
ENDBRANCH  37  38
ENDBRANCH  36  37
ENDBRANCH  35  36
ENDBRANCH   1  35
TORSDOF 20
ENDMDL
