MODEL 1
REMARK VINA RESULT:     -10.6      0.000      0.000
REMARK SMILES Cc1ccc(S(=O)(=O)n2cc(C(=O)C(=O)NCC(=O)N[C@H](Cc3c[nH]c4ccccc34)C(=O)NCCCCCCNC(=O)c3ccc(-c4c5nc(c(-c6c(F)cc(S(=O)(=O)[O-])cc6F)c6ccc([nH]6)c(-c6c(F)cc(S(=O)(=O)[O-])cc6F)c6nc(c(-c7c(F)cc(S(=O)(=O)[O-])cc7F)c7ccc4[nH]7)C=C6)C=C5)cc3)c3ccccc32)cc1
REMARK SMILES IDX 35 1 34 2 32 3 33 4 21 6 20 7 18 8 19 9 17 11 16 12 14 13
REMARK SMILES IDX 15 14 12 16 13 17 11 18 9 19 10 20 115 21 110 22 114 23
REMARK SMILES IDX 111 24 113 25 112 26 6 27 7 28 8 29 5 30 1 31 2 32 3 33
REMARK SMILES IDX 117 34 4 35 116 36 22 37 23 38 24 39 31 40 25 41 26 42 30 43
REMARK SMILES IDX 27 45 29 46 28 47 36 48 37 49 38 50 39 51 40 52 41 53 42 54
REMARK SMILES IDX 43 56 44 57 45 58 109 59 46 60 108 61 47 62 48 63 49 64
REMARK SMILES IDX 102 65 50 66 107 67 101 68 103 69 51 70 106 71 100 72 99 73
REMARK SMILES IDX 52 75 86 76 65 77 85 78 66 79 69 80 84 81 104 82 67 83 68 84
REMARK SMILES IDX 83 86 105 87 70 88 53 89 54 90 63 91 55 92 56 93 62 94 64 95
REMARK SMILES IDX 57 96 58 97 59 98 60 99 61 100 87 101 88 102 97 103 89 104
REMARK SMILES IDX 90 105 96 106 98 107 91 108 92 109 93 110 94 111 95 112
REMARK SMILES IDX 71 113 72 114 81 115 73 116 74 117 80 118 82 119 75 120
REMARK SMILES IDX 76 121 77 122 78 123 79 124
REMARK H PARENT 34 5 20 10 16 15 25 44 41 55 103 74 69 85
REMARK Flexibility Score: inf
ROOT
ATOM      1  C   UNL A   1      37.345  28.937  30.404  1.00  0.00     0.116 C 
ENDROOT
BRANCH   1   2
ATOM      2  N   UNL A   1      37.452  29.494  29.069  1.00  0.00    -0.354 N 
ATOM      3  C   UNL A   1      36.582  30.162  28.271  1.00  0.00     0.242 C 
ATOM      4  O   UNL A   1      36.937  30.320  27.097  1.00  0.00    -0.273 OA
ATOM      5  H   UNL A   1      38.337  29.360  28.658  1.00  0.00     0.163 HD
BRANCH   3   6
ATOM      6  C   UNL A   1      35.216  30.701  28.728  1.00  0.00     0.175 C 
BRANCH   6   7
ATOM      7  N   UNL A   1      34.377  30.850  27.528  1.00  0.00    -0.342 N 
ATOM      8  C   UNL A   1      33.689  29.895  26.837  1.00  0.00     0.240 C 
ATOM      9  O   UNL A   1      33.167  30.241  25.773  1.00  0.00    -0.273 OA
ATOM     10  H   UNL A   1      34.302  31.766  27.173  1.00  0.00     0.164 HD
BRANCH   8  11
ATOM     11  C   UNL A   1      33.388  28.504  27.444  1.00  0.00     0.216 C 
BRANCH  11  12
ATOM     12  N   UNL A   1      32.025  27.986  27.374  1.00  0.00    -0.340 N 
ATOM     13  C   UNL A   1      31.472  27.113  26.448  1.00  0.00     0.292 C 
ATOM     14  O   UNL A   1      30.339  26.662  26.565  1.00  0.00    -0.265 OA
ATOM     15  H   UNL A   1      31.414  28.299  28.080  1.00  0.00     0.164 HD
BRANCH  13  16
ATOM     16  C   UNL A   1      32.321  26.655  25.267  1.00  0.00     0.252 C 
ATOM     17  O   UNL A   1      32.066  27.191  24.187  1.00  0.00    -0.283 OA
BRANCH  16  18
ATOM     18  C   UNL A   1      33.260  25.529  25.371  1.00  0.00     0.054 A 
ATOM     19  N   UNL A   1      34.958  24.037  25.176  1.00  0.00    -0.240 N 
ATOM     20  C   UNL A   1      34.449  25.244  24.685  1.00  0.00     0.117 A 
ATOM     21  C   UNL A   1      34.224  23.726  26.338  1.00  0.00     0.065 A 
ATOM     22  C   UNL A   1      33.015  24.402  26.210  1.00  0.00     0.012 A 
ATOM     23  C   UNL A   1      34.391  22.692  27.280  1.00  0.00     0.028 A 
ATOM     24  C   UNL A   1      31.887  23.907  26.899  1.00  0.00     0.011 A 
ATOM     25  C   UNL A   1      33.246  22.164  27.874  1.00  0.00     0.002 A 
ATOM     26  C   UNL A   1      32.001  22.738  27.656  1.00  0.00     0.001 A 
BRANCH  19  27
ATOM     27  S   UNL A   1      35.237  22.584  24.228  1.00  0.00     0.268 S 
ATOM     28  O   UNL A   1      36.585  22.194  24.611  1.00  0.00    -0.201 OA
ATOM     29  O   UNL A   1      34.950  23.044  22.875  1.00  0.00    -0.201 OA
BRANCH  27  30
ATOM     30  C   UNL A   1      34.312  21.090  24.256  1.00  0.00     0.088 A 
ATOM     31  C   UNL A   1      33.053  16.953  24.325  1.00  0.00     0.044 C 
ATOM     32  C   UNL A   1      33.437  18.406  24.339  1.00  0.00    -0.051 A 
ATOM     33  C   UNL A   1      34.731  18.712  24.730  1.00  0.00     0.005 A 
ATOM     34  C   UNL A   1      32.581  19.454  23.927  1.00  0.00     0.005 A 
ATOM     35  C   UNL A   1      35.147  20.030  24.700  1.00  0.00     0.022 A 
ATOM     36  C   UNL A   1      33.013  20.808  23.876  1.00  0.00     0.022 A 
ENDBRANCH  27  30
ENDBRANCH  19  27
ENDBRANCH  16  18
ENDBRANCH  13  16
ENDBRANCH  11  12
ENDBRANCH   8  11
ENDBRANCH   6   7
BRANCH   6  37
ATOM     37  C   UNL A   1      35.193  31.955  29.636  1.00  0.00     0.072 C 
BRANCH  37  38
ATOM     38  C   UNL A   1      34.931  33.333  29.072  1.00  0.00    -0.020 A 
ATOM     39  C   UNL A   1      35.123  33.822  27.795  1.00  0.00     0.087 A 
ATOM     40  C   UNL A   1      34.369  34.440  29.813  1.00  0.00     0.003 A 
ATOM     41  N   UNL A   1      34.464  35.014  27.669  1.00  0.00    -0.361 N 
ATOM     42  C   UNL A   1      34.016  35.428  28.893  1.00  0.00     0.046 A 
ATOM     43  C   UNL A   1      34.091  34.689  31.175  1.00  0.00     0.010 A 
ATOM     44  H   UNL A   1      34.331  35.502  26.824  1.00  0.00     0.166 HD
ATOM     45  C   UNL A   1      33.332  36.598  29.235  1.00  0.00     0.026 A 
ATOM     46  C   UNL A   1      33.472  35.893  31.547  1.00  0.00     0.001 A 
ATOM     47  C   UNL A   1      33.075  36.819  30.586  1.00  0.00     0.002 A 
ENDBRANCH  37  38
ENDBRANCH   6  37
ENDBRANCH   3   6
ENDBRANCH   1   2
BRANCH   1  48
ATOM     48  C   UNL A   1      38.282  29.619  31.400  1.00  0.00     0.021 C 
BRANCH  48  49
ATOM     49  C   UNL A   1      39.197  30.699  30.800  1.00  0.00     0.002 C 
BRANCH  49  50
ATOM     50  C   UNL A   1      38.747  32.157  30.981  1.00  0.00     0.002 C 
BRANCH  50  51
ATOM     51  C   UNL A   1      39.788  33.235  30.670  1.00  0.00     0.021 C 
BRANCH  51  52
ATOM     52  C   UNL A   1      41.096  32.704  30.115  1.00  0.00     0.116 C 
BRANCH  52  53
ATOM     53  N   UNL A   1      42.265  32.926  30.944  1.00  0.00    -0.352 N 
ATOM     54  C   UNL A   1      42.591  31.934  31.870  1.00  0.00     0.251 C 
ATOM     55  H   UNL A   1      42.808  33.744  30.856  1.00  0.00     0.163 HD
ATOM     56  O   UNL A   1      42.159  31.861  33.003  1.00  0.00    -0.269 OA
BRANCH  54  57
ATOM     57  C   UNL A   1      43.252  30.772  31.236  1.00  0.00     0.039 A 
ATOM     58  C   UNL A   1      43.104  29.475  31.723  1.00  0.00     0.014 A 
ATOM     59  C   UNL A   1      44.213  31.084  30.271  1.00  0.00     0.014 A 
ATOM     60  C   UNL A   1      44.024  28.502  31.331  1.00  0.00     0.010 A 
ATOM     61  C   UNL A   1      45.175  30.158  29.966  1.00  0.00     0.010 A 
ATOM     62  C   UNL A   1      45.094  28.876  30.515  1.00  0.00    -0.014 A 
BRANCH  62  63
ATOM     63  C   UNL A   1      46.219  28.028  30.166  1.00  0.00     0.031 A 
ATOM     64  C   UNL A   1      47.571  28.387  30.644  1.00  0.00     0.074 A 
ATOM     65  C   UNL A   1      45.959  26.825  29.611  1.00  0.00     0.049 A 
ATOM     66  N   UNL A   1      48.658  27.869  30.191  1.00  0.00    -0.248 NA
ATOM     67  C   UNL A   1      47.804  29.394  31.677  1.00  0.00     0.031 C 
ATOM     68  C   UNL A   1      46.839  25.664  29.537  1.00  0.00     0.029 A 
ATOM     69  N   UNL A   1      44.860  26.474  28.828  1.00  0.00    -0.354 N 
ATOM     70  C   UNL A   1      49.687  28.259  31.019  1.00  0.00     0.074 A 
ATOM     71  C   UNL A   1      49.114  29.246  31.902  1.00  0.00     0.031 C 
ATOM     72  C   UNL A   1      46.390  24.839  28.575  1.00  0.00     0.029 A 
ATOM     73  C   UNL A   1      45.302  25.523  27.893  1.00  0.00     0.049 A 
ATOM     74  H   UNL A   1      43.946  26.827  28.914  1.00  0.00     0.167 HD
ATOM     75  C   UNL A   1      50.881  27.607  30.944  1.00  0.00     0.037 A 
ATOM     76  C   UNL A   1      45.310  25.834  26.560  1.00  0.00     0.037 A 
ATOM     77  C   UNL A   1      50.854  26.614  29.875  1.00  0.00     0.049 A 
ATOM     78  C   UNL A   1      46.703  25.901  25.970  1.00  0.00     0.074 A 
ATOM     79  C   UNL A   1      50.543  25.264  29.872  1.00  0.00     0.029 A 
ATOM     80  N   UNL A   1      50.796  27.038  28.552  1.00  0.00    -0.354 N 
ATOM     81  N   UNL A   1      47.790  26.055  26.676  1.00  0.00    -0.248 NA
ATOM     82  C   UNL A   1      46.980  25.774  24.543  1.00  0.00     0.031 C 
ATOM     83  C   UNL A   1      50.199  24.899  28.547  1.00  0.00     0.029 A 
ATOM     84  C   UNL A   1      50.332  26.018  27.742  1.00  0.00     0.049 A 
ATOM     85  H   UNL A   1      51.049  27.935  28.238  1.00  0.00     0.167 HD
ATOM     86  C   UNL A   1      48.881  26.063  25.846  1.00  0.00     0.074 A 
ATOM     87  C   UNL A   1      48.322  25.867  24.522  1.00  0.00     0.031 C 
ATOM     88  C   UNL A   1      50.157  26.223  26.313  1.00  0.00     0.037 A 
BRANCH  75  89
ATOM     89  C   UNL A   1      51.949  27.684  32.007  1.00  0.00     0.058 A 
ATOM     90  C   UNL A   1      53.172  28.339  31.745  1.00  0.00     0.135 A 
ATOM     91  C   UNL A   1      51.842  27.110  33.288  1.00  0.00     0.135 A 
ATOM     92  F   UNL A   1      53.401  28.958  30.580  1.00  0.00    -0.206 F 
ATOM     93  C   UNL A   1      54.228  28.368  32.654  1.00  0.00     0.059 A 
ATOM     94  C   UNL A   1      52.904  27.085  34.200  1.00  0.00     0.059 A 
ATOM     95  F   UNL A   1      50.687  26.574  33.711  1.00  0.00    -0.206 F 
ATOM     96  C   UNL A   1      54.096  27.720  33.874  1.00  0.00     0.060 A 
BRANCH  96  97
ATOM     97  S   UNL A   1      55.499  27.729  35.006  1.00  0.00     0.124 S 
ATOM     98  O   UNL A   1      55.081  26.768  36.023  1.00  0.00    -0.237 OA
ATOM     99  O   UNL A   1      56.591  27.300  34.140  1.00  0.00    -0.237 OA
ATOM    100  O   UNL A   1      55.563  29.116  35.457  1.00  0.00    -0.744 OA
ENDBRANCH  96  97
ENDBRANCH  75  89
BRANCH  76 101
ATOM    101  C   UNL A   1      44.143  26.680  26.165  1.00  0.00     0.058 A 
ATOM    102  C   UNL A   1      42.910  26.022  25.983  1.00  0.00     0.135 A 
ATOM    103  C   UNL A   1      44.104  28.052  26.460  1.00  0.00     0.135 A 
ATOM    104  F   UNL A   1      42.890  24.713  25.675  1.00  0.00    -0.206 F 
ATOM    105  C   UNL A   1      41.699  26.638  26.280  1.00  0.00     0.059 A 
ATOM    106  C   UNL A   1      42.896  28.694  26.748  1.00  0.00     0.059 A 
ATOM    107  F   UNL A   1      45.241  28.740  26.632  1.00  0.00    -0.206 F 
ATOM    108  C   UNL A   1      41.714  27.951  26.744  1.00  0.00     0.060 A 
BRANCH 108 109
ATOM    109  S   UNL A   1      40.211  28.585  27.530  1.00  0.00     0.124 S 
ATOM    110  O   UNL A   1      39.597  29.344  26.448  1.00  0.00    -0.237 OA
ATOM    111  O   UNL A   1      39.526  27.346  27.911  1.00  0.00    -0.237 OA
ATOM    112  O   UNL A   1      40.718  29.373  28.647  1.00  0.00    -0.744 OA
ENDBRANCH 108 109
ENDBRANCH  76 101
BRANCH  88 113
ATOM    113  C   UNL A   1      51.379  26.480  25.464  1.00  0.00     0.058 A 
ATOM    114  C   UNL A   1      52.379  25.523  25.226  1.00  0.00     0.135 A 
ATOM    115  C   UNL A   1      51.500  27.686  24.730  1.00  0.00     0.135 A 
ATOM    116  F   UNL A   1      52.316  24.297  25.766  1.00  0.00    -0.206 F 
ATOM    117  C   UNL A   1      53.464  25.772  24.385  1.00  0.00     0.059 A 
ATOM    118  C   UNL A   1      52.541  27.931  23.839  1.00  0.00     0.059 A 
ATOM    119  F   UNL A   1      50.596  28.671  24.844  1.00  0.00    -0.206 F 
ATOM    120  C   UNL A   1      53.539  26.980  23.699  1.00  0.00     0.060 A 
BRANCH 120 121
ATOM    121  S   UNL A   1      54.919  27.291  22.585  1.00  0.00     0.124 S 
ATOM    122  O   UNL A   1      56.023  26.675  23.314  1.00  0.00    -0.237 OA
ATOM    123  O   UNL A   1      54.509  26.605  21.363  1.00  0.00    -0.237 OA
ATOM    124  O   UNL A   1      54.953  28.747  22.495  1.00  0.00    -0.744 OA
ENDBRANCH 120 121
ENDBRANCH  88 113
ENDBRANCH  62  63
ENDBRANCH  54  57
ENDBRANCH  52  53
ENDBRANCH  51  52
ENDBRANCH  50  51
ENDBRANCH  49  50
ENDBRANCH  48  49
ENDBRANCH   1  48
TORSDOF 25
ENDMDL
MODEL 2
REMARK VINA RESULT:     -10.4      4.636      7.797
REMARK SMILES Cc1ccc(S(=O)(=O)n2cc(C(=O)C(=O)NCC(=O)N[C@H](Cc3c[nH]c4ccccc34)C(=O)NCCCCCCNC(=O)c3ccc(-c4c5nc(c(-c6c(F)cc(S(=O)(=O)[O-])cc6F)c6ccc([nH]6)c(-c6c(F)cc(S(=O)(=O)[O-])cc6F)c6nc(c(-c7c(F)cc(S(=O)(=O)[O-])cc7F)c7ccc4[nH]7)C=C6)C=C5)cc3)c3ccccc32)cc1
REMARK SMILES IDX 35 1 34 2 32 3 33 4 21 6 20 7 18 8 19 9 17 11 16 12 14 13
REMARK SMILES IDX 15 14 12 16 13 17 11 18 9 19 10 20 115 21 110 22 114 23
REMARK SMILES IDX 111 24 113 25 112 26 6 27 7 28 8 29 5 30 1 31 2 32 3 33
REMARK SMILES IDX 117 34 4 35 116 36 22 37 23 38 24 39 31 40 25 41 26 42 30 43
REMARK SMILES IDX 27 45 29 46 28 47 36 48 37 49 38 50 39 51 40 52 41 53 42 54
REMARK SMILES IDX 43 56 44 57 45 58 109 59 46 60 108 61 47 62 48 63 49 64
REMARK SMILES IDX 102 65 50 66 107 67 101 68 103 69 51 70 106 71 100 72 99 73
REMARK SMILES IDX 52 75 86 76 65 77 85 78 66 79 69 80 84 81 104 82 67 83 68 84
REMARK SMILES IDX 83 86 105 87 70 88 53 89 54 90 63 91 55 92 56 93 62 94 64 95
REMARK SMILES IDX 57 96 58 97 59 98 60 99 61 100 87 101 88 102 97 103 89 104
REMARK SMILES IDX 90 105 96 106 98 107 91 108 92 109 93 110 94 111 95 112
REMARK SMILES IDX 71 113 72 114 81 115 73 116 74 117 80 118 82 119 75 120
REMARK SMILES IDX 76 121 77 122 78 123 79 124
REMARK H PARENT 34 5 20 10 16 15 25 44 41 55 103 74 69 85
REMARK Flexibility Score: inf
ROOT
ATOM      1  C   UNL A   1      38.651  29.679  28.011  1.00  0.00     0.116 C 
ENDROOT
BRANCH   1   2
ATOM      2  N   UNL A   1      38.898  30.600  29.104  1.00  0.00    -0.354 N 
ATOM      3  C   UNL A   1      38.079  31.314  29.916  1.00  0.00     0.242 C 
ATOM      4  O   UNL A   1      38.629  32.170  30.621  1.00  0.00    -0.273 OA
ATOM      5  H   UNL A   1      39.854  30.735  29.295  1.00  0.00     0.163 HD
BRANCH   3   6
ATOM      6  C   UNL A   1      36.554  31.137  29.993  1.00  0.00     0.175 C 
BRANCH   6   7
ATOM      7  N   UNL A   1      35.942  32.237  29.230  1.00  0.00    -0.342 N 
ATOM      8  C   UNL A   1      35.054  32.175  28.196  1.00  0.00     0.240 C 
ATOM      9  O   UNL A   1      34.791  33.236  27.621  1.00  0.00    -0.273 OA
ATOM     10  H   UNL A   1      36.212  33.144  29.504  1.00  0.00     0.164 HD
BRANCH   8  11
ATOM     11  C   UNL A   1      34.249  30.892  27.885  1.00  0.00     0.216 C 
BRANCH  11  12
ATOM     12  N   UNL A   1      33.213  30.944  26.857  1.00  0.00    -0.340 N 
ATOM     13  C   UNL A   1      32.709  29.913  26.076  1.00  0.00     0.292 C 
ATOM     14  O   UNL A   1      31.754  30.065  25.323  1.00  0.00    -0.265 OA
ATOM     15  H   UNL A   1      32.817  31.830  26.696  1.00  0.00     0.164 HD
BRANCH  13  16
ATOM     16  C   UNL A   1      33.333  28.527  26.193  1.00  0.00     0.252 C 
ATOM     17  O   UNL A   1      34.539  28.504  26.443  1.00  0.00    -0.283 OA
BRANCH  16  18
ATOM     18  C   UNL A   1      32.587  27.305  25.860  1.00  0.00     0.054 A 
ATOM     19  N   UNL A   1      31.271  25.457  25.815  1.00  0.00    -0.240 N 
ATOM     20  C   UNL A   1      31.717  26.510  26.620  1.00  0.00     0.117 A 
ATOM     21  C   UNL A   1      31.658  25.759  24.495  1.00  0.00     0.065 A 
ATOM     22  C   UNL A   1      32.734  26.634  24.610  1.00  0.00     0.012 A 
ATOM     23  C   UNL A   1      31.373  25.103  23.282  1.00  0.00     0.028 A 
ATOM     24  C   UNL A   1      33.662  26.708  23.550  1.00  0.00     0.011 A 
ATOM     25  C   UNL A   1      32.350  25.119  22.288  1.00  0.00     0.002 A 
ATOM     26  C   UNL A   1      33.502  25.880  22.436  1.00  0.00     0.001 A 
BRANCH  19  27
ATOM     27  S   UNL A   1      31.512  23.747  26.142  1.00  0.00     0.268 S 
ATOM     28  O   UNL A   1      30.318  23.133  25.584  1.00  0.00    -0.201 OA
ATOM     29  O   UNL A   1      31.750  23.743  27.580  1.00  0.00    -0.201 OA
BRANCH  27  30
ATOM     30  C   UNL A   1      32.837  22.728  25.600  1.00  0.00     0.088 A 
ATOM     31  C   UNL A   1      36.623  20.690  25.135  1.00  0.00     0.044 C 
ATOM     32  C   UNL A   1      35.277  21.343  25.274  1.00  0.00    -0.051 A 
ATOM     33  C   UNL A   1      34.978  21.915  26.500  1.00  0.00     0.005 A 
ATOM     34  C   UNL A   1      34.338  21.451  24.222  1.00  0.00     0.005 A 
ATOM     35  C   UNL A   1      33.776  22.579  26.656  1.00  0.00     0.022 A 
ATOM     36  C   UNL A   1      33.109  22.151  24.373  1.00  0.00     0.022 A 
ENDBRANCH  27  30
ENDBRANCH  19  27
ENDBRANCH  16  18
ENDBRANCH  13  16
ENDBRANCH  11  12
ENDBRANCH   8  11
ENDBRANCH   6   7
BRANCH   6  37
ATOM     37  C   UNL A   1      35.910  30.944  31.388  1.00  0.00     0.072 C 
BRANCH  37  38
ATOM     38  C   UNL A   1      35.584  32.122  32.276  1.00  0.00    -0.020 A 
ATOM     39  C   UNL A   1      34.541  33.026  32.207  1.00  0.00     0.087 A 
ATOM     40  C   UNL A   1      36.339  32.514  33.446  1.00  0.00     0.003 A 
ATOM     41  N   UNL A   1      34.474  33.720  33.385  1.00  0.00    -0.361 N 
ATOM     42  C   UNL A   1      35.574  33.446  34.148  1.00  0.00     0.046 A 
ATOM     43  C   UNL A   1      37.584  32.143  33.998  1.00  0.00     0.010 A 
ATOM     44  H   UNL A   1      33.742  34.326  33.644  1.00  0.00     0.166 HD
ATOM     45  C   UNL A   1      35.932  33.959  35.398  1.00  0.00     0.026 A 
ATOM     46  C   UNL A   1      37.997  32.707  35.216  1.00  0.00     0.001 A 
ATOM     47  C   UNL A   1      37.169  33.580  35.917  1.00  0.00     0.002 A 
ENDBRANCH  37  38
ENDBRANCH   6  37
ENDBRANCH   3   6
ENDBRANCH   1   2
BRANCH   1  48
ATOM     48  C   UNL A   1      39.162  28.270  28.308  1.00  0.00     0.021 C 
BRANCH  48  49
ATOM     49  C   UNL A   1      40.052  27.655  27.216  1.00  0.00     0.002 C 
BRANCH  49  50
ATOM     50  C   UNL A   1      41.247  28.501  26.748  1.00  0.00     0.002 C 
BRANCH  50  51
ATOM     51  C   UNL A   1      41.771  28.218  25.338  1.00  0.00     0.021 C 
BRANCH  51  52
ATOM     52  C   UNL A   1      42.558  26.928  25.208  1.00  0.00     0.116 C 
BRANCH  52  53
ATOM     53  N   UNL A   1      41.821  25.712  25.497  1.00  0.00    -0.352 N 
ATOM     54  C   UNL A   1      42.564  24.569  25.797  1.00  0.00     0.251 C 
ATOM     55  H   UNL A   1      40.836  25.694  25.482  1.00  0.00     0.163 HD
ATOM     56  O   UNL A   1      42.990  23.773  24.984  1.00  0.00    -0.269 OA
BRANCH  54  57
ATOM     57  C   UNL A   1      43.087  24.589  27.180  1.00  0.00     0.039 A 
ATOM     58  C   UNL A   1      42.643  25.506  28.131  1.00  0.00     0.014 A 
ATOM     59  C   UNL A   1      44.213  23.793  27.405  1.00  0.00     0.014 A 
ATOM     60  C   UNL A   1      43.420  25.721  29.270  1.00  0.00     0.010 A 
ATOM     61  C   UNL A   1      45.028  24.077  28.469  1.00  0.00     0.010 A 
ATOM     62  C   UNL A   1      44.642  25.057  29.388  1.00  0.00    -0.014 A 
BRANCH  62  63
ATOM     63  C   UNL A   1      45.635  25.302  30.418  1.00  0.00     0.031 A 
ATOM     64  C   UNL A   1      45.423  24.750  31.772  1.00  0.00     0.074 A 
ATOM     65  C   UNL A   1      46.819  25.831  30.045  1.00  0.00     0.049 A 
ATOM     66  N   UNL A   1      46.088  25.112  32.812  1.00  0.00    -0.248 NA
ATOM     67  C   UNL A   1      44.409  23.739  32.065  1.00  0.00     0.031 C 
ATOM     68  C   UNL A   1      48.081  25.808  30.776  1.00  0.00     0.029 A 
ATOM     69  N   UNL A   1      47.066  26.673  28.961  1.00  0.00    -0.354 N 
ATOM     70  C   UNL A   1      45.792  24.232  33.829  1.00  0.00     0.074 A 
ATOM     71  C   UNL A   1      44.707  23.423  33.331  1.00  0.00     0.031 C 
ATOM     72  C   UNL A   1      48.885  26.768  30.288  1.00  0.00     0.029 A 
ATOM     73  C   UNL A   1      48.103  27.544  29.337  1.00  0.00     0.049 A 
ATOM     74  H   UNL A   1      46.602  26.659  28.093  1.00  0.00     0.167 HD
ATOM     75  C   UNL A   1      46.587  24.207  34.935  1.00  0.00     0.037 A 
ATOM     76  C   UNL A   1      47.851  28.883  29.465  1.00  0.00     0.037 A 
ATOM     77  C   UNL A   1      47.614  25.240  34.851  1.00  0.00     0.049 A 
ATOM     78  C   UNL A   1      47.979  29.382  30.888  1.00  0.00     0.074 A 
ATOM     79  C   UNL A   1      48.914  25.217  34.375  1.00  0.00     0.029 A 
ATOM     80  N   UNL A   1      47.242  26.578  34.926  1.00  0.00    -0.354 N 
ATOM     81  N   UNL A   1      47.930  28.612  31.941  1.00  0.00    -0.248 NA
ATOM     82  C   UNL A   1      48.199  30.783  31.234  1.00  0.00     0.031 C 
ATOM     83  C   UNL A   1      49.290  26.549  34.069  1.00  0.00     0.029 A 
ATOM     84  C   UNL A   1      48.231  27.381  34.390  1.00  0.00     0.049 A 
ATOM     85  H   UNL A   1      46.396  26.905  35.307  1.00  0.00     0.167 HD
ATOM     86  C   UNL A   1      48.090  29.368  33.073  1.00  0.00     0.074 A 
ATOM     87  C   UNL A   1      48.271  30.719  32.576  1.00  0.00     0.031 C 
ATOM     88  C   UNL A   1      48.067  28.824  34.328  1.00  0.00     0.037 A 
BRANCH  75  89
ATOM     89  C   UNL A   1      46.596  23.080  35.938  1.00  0.00     0.058 A 
ATOM     90  C   UNL A   1      47.147  21.825  35.598  1.00  0.00     0.135 A 
ATOM     91  C   UNL A   1      46.052  23.161  37.234  1.00  0.00     0.135 A 
ATOM     92  F   UNL A   1      47.728  21.612  34.410  1.00  0.00    -0.206 F 
ATOM     93  C   UNL A   1      47.108  20.722  36.449  1.00  0.00     0.059 A 
ATOM     94  C   UNL A   1      45.958  22.055  38.089  1.00  0.00     0.059 A 
ATOM     95  F   UNL A   1      45.617  24.329  37.729  1.00  0.00    -0.206 F 
ATOM     96  C   UNL A   1      46.491  20.837  37.687  1.00  0.00     0.060 A 
BRANCH  96  97
ATOM     97  S   UNL A   1      46.408  19.378  38.743  1.00  0.00     0.124 S 
ATOM     98  O   UNL A   1      45.874  19.927  39.986  1.00  0.00    -0.237 OA
ATOM     99  O   UNL A   1      45.504  18.512  37.993  1.00  0.00    -0.237 OA
ATOM    100  O   UNL A   1      47.794  18.927  38.811  1.00  0.00    -0.744 OA
ENDBRANCH  96  97
ENDBRANCH  75  89
BRANCH  76 101
ATOM    101  C   UNL A   1      46.887  29.382  28.438  1.00  0.00     0.058 A 
ATOM    102  C   UNL A   1      45.661  29.892  28.909  1.00  0.00     0.135 A 
ATOM    103  C   UNL A   1      47.324  29.816  27.176  1.00  0.00     0.135 A 
ATOM    104  F   UNL A   1      45.183  29.493  30.100  1.00  0.00    -0.206 F 
ATOM    105  C   UNL A   1      45.003  30.934  28.262  1.00  0.00     0.059 A 
ATOM    106  C   UNL A   1      46.670  30.852  26.503  1.00  0.00     0.059 A 
ATOM    107  F   UNL A   1      48.476  29.358  26.664  1.00  0.00    -0.206 F 
ATOM    108  C   UNL A   1      45.567  31.462  27.102  1.00  0.00     0.060 A 
BRANCH 108 109
ATOM    109  S   UNL A   1      44.959  33.066  26.523  1.00  0.00     0.124 S 
ATOM    110  O   UNL A   1      46.069  33.951  26.853  1.00  0.00    -0.237 OA
ATOM    111  O   UNL A   1      44.748  32.809  25.095  1.00  0.00    -0.237 OA
ATOM    112  O   UNL A   1      43.740  33.267  27.296  1.00  0.00    -0.744 OA
ENDBRANCH 108 109
ENDBRANCH  76 101
BRANCH  88 113
ATOM    113  C   UNL A   1      47.996  29.600  35.622  1.00  0.00     0.058 A 
ATOM    114  C   UNL A   1      49.103  30.227  36.218  1.00  0.00     0.135 A 
ATOM    115  C   UNL A   1      46.744  29.860  36.234  1.00  0.00     0.135 A 
ATOM    116  F   UNL A   1      50.324  30.159  35.667  1.00  0.00    -0.206 F 
ATOM    117  C   UNL A   1      48.991  30.989  37.381  1.00  0.00     0.059 A 
ATOM    118  C   UNL A   1      46.602  30.667  37.358  1.00  0.00     0.059 A 
ATOM    119  F   UNL A   1      45.604  29.345  35.747  1.00  0.00    -0.206 F 
ATOM    120  C   UNL A   1      47.738  31.201  37.947  1.00  0.00     0.060 A 
BRANCH 120 121
ATOM    121  S   UNL A   1      47.585  32.213  39.427  1.00  0.00     0.124 S 
ATOM    122  O   UNL A   1      48.304  33.419  39.028  1.00  0.00    -0.237 OA
ATOM    123  O   UNL A   1      46.139  32.360  39.571  1.00  0.00    -0.237 OA
ATOM    124  O   UNL A   1      48.230  31.402  40.455  1.00  0.00    -0.744 OA
ENDBRANCH 120 121
ENDBRANCH  88 113
ENDBRANCH  62  63
ENDBRANCH  54  57
ENDBRANCH  52  53
ENDBRANCH  51  52
ENDBRANCH  50  51
ENDBRANCH  49  50
ENDBRANCH  48  49
ENDBRANCH   1  48
TORSDOF 25
ENDMDL
MODEL 3
REMARK VINA RESULT:     -10.2      4.520     10.269
REMARK SMILES Cc1ccc(S(=O)(=O)n2cc(C(=O)C(=O)NCC(=O)N[C@H](Cc3c[nH]c4ccccc34)C(=O)NCCCCCCNC(=O)c3ccc(-c4c5nc(c(-c6c(F)cc(S(=O)(=O)[O-])cc6F)c6ccc([nH]6)c(-c6c(F)cc(S(=O)(=O)[O-])cc6F)c6nc(c(-c7c(F)cc(S(=O)(=O)[O-])cc7F)c7ccc4[nH]7)C=C6)C=C5)cc3)c3ccccc32)cc1
REMARK SMILES IDX 35 1 34 2 32 3 33 4 21 6 20 7 18 8 19 9 17 11 16 12 14 13
REMARK SMILES IDX 15 14 12 16 13 17 11 18 9 19 10 20 115 21 110 22 114 23
REMARK SMILES IDX 111 24 113 25 112 26 6 27 7 28 8 29 5 30 1 31 2 32 3 33
REMARK SMILES IDX 117 34 4 35 116 36 22 37 23 38 24 39 31 40 25 41 26 42 30 43
REMARK SMILES IDX 27 45 29 46 28 47 36 48 37 49 38 50 39 51 40 52 41 53 42 54
REMARK SMILES IDX 43 56 44 57 45 58 109 59 46 60 108 61 47 62 48 63 49 64
REMARK SMILES IDX 102 65 50 66 107 67 101 68 103 69 51 70 106 71 100 72 99 73
REMARK SMILES IDX 52 75 86 76 65 77 85 78 66 79 69 80 84 81 104 82 67 83 68 84
REMARK SMILES IDX 83 86 105 87 70 88 53 89 54 90 63 91 55 92 56 93 62 94 64 95
REMARK SMILES IDX 57 96 58 97 59 98 60 99 61 100 87 101 88 102 97 103 89 104
REMARK SMILES IDX 90 105 96 106 98 107 91 108 92 109 93 110 94 111 95 112
REMARK SMILES IDX 71 113 72 114 81 115 73 116 74 117 80 118 82 119 75 120
REMARK SMILES IDX 76 121 77 122 78 123 79 124
REMARK H PARENT 34 5 20 10 16 15 25 44 41 55 103 74 69 85
REMARK Flexibility Score: inf
ROOT
ATOM      1  C   UNL A   1      42.550  26.317  25.327  1.00  0.00     0.116 C 
ENDROOT
BRANCH   1   2
ATOM      2  N   UNL A   1      41.697  26.826  26.384  1.00  0.00    -0.354 N 
ATOM      3  C   UNL A   1      40.658  26.292  27.073  1.00  0.00     0.242 C 
ATOM      4  O   UNL A   1      40.015  27.080  27.777  1.00  0.00    -0.273 OA
ATOM      5  H   UNL A   1      41.918  27.746  26.657  1.00  0.00     0.163 HD
BRANCH   3   6
ATOM      6  C   UNL A   1      40.238  24.814  27.014  1.00  0.00     0.175 C 
BRANCH   6   7
ATOM      7  N   UNL A   1      38.767  24.773  27.004  1.00  0.00    -0.342 N 
ATOM      8  C   UNL A   1      37.936  23.959  26.289  1.00  0.00     0.240 C 
ATOM      9  O   UNL A   1      36.728  24.209  26.341  1.00  0.00    -0.273 OA
ATOM     10  H   UNL A   1      38.320  25.423  27.593  1.00  0.00     0.164 HD
BRANCH   8  11
ATOM     11  C   UNL A   1      38.441  22.662  25.616  1.00  0.00     0.216 C 
BRANCH  11  12
ATOM     12  N   UNL A   1      37.622  21.456  25.709  1.00  0.00    -0.340 N 
ATOM     13  C   UNL A   1      36.521  21.091  24.946  1.00  0.00     0.292 C 
ATOM     14  O   UNL A   1      35.987  19.994  25.049  1.00  0.00    -0.265 OA
ATOM     15  H   UNL A   1      37.885  20.816  26.408  1.00  0.00     0.164 HD
BRANCH  13  16
ATOM     16  C   UNL A   1      35.988  22.069  23.906  1.00  0.00     0.252 C 
ATOM     17  O   UNL A   1      36.833  22.570  23.162  1.00  0.00    -0.283 OA
BRANCH  16  18
ATOM     18  C   UNL A   1      34.588  22.517  23.901  1.00  0.00     0.054 A 
ATOM     19  N   UNL A   1      32.508  23.277  23.406  1.00  0.00    -0.240 N 
ATOM     20  C   UNL A   1      33.767  22.991  22.867  1.00  0.00     0.117 A 
ATOM     21  C   UNL A   1      32.485  22.730  24.704  1.00  0.00     0.065 A 
ATOM     22  C   UNL A   1      33.816  22.633  25.095  1.00  0.00     0.012 A 
ATOM     23  C   UNL A   1      31.437  22.632  25.640  1.00  0.00     0.028 A 
ATOM     24  C   UNL A   1      34.119  22.634  26.473  1.00  0.00     0.011 A 
ATOM     25  C   UNL A   1      31.761  22.728  26.992  1.00  0.00     0.002 A 
ATOM     26  C   UNL A   1      33.086  22.770  27.404  1.00  0.00     0.001 A 
BRANCH  19  27
ATOM     27  S   UNL A   1      31.726  24.851  23.396  1.00  0.00     0.268 S 
ATOM     28  O   UNL A   1      30.313  24.516  23.315  1.00  0.00    -0.201 OA
ATOM     29  O   UNL A   1      32.400  25.518  22.289  1.00  0.00    -0.201 OA
BRANCH  27  30
ATOM     30  C   UNL A   1      31.821  26.104  24.625  1.00  0.00     0.088 A 
ATOM     31  C   UNL A   1      33.126  29.221  27.323  1.00  0.00     0.044 C 
ATOM     32  C   UNL A   1      32.613  28.169  26.382  1.00  0.00    -0.051 A 
ATOM     33  C   UNL A   1      33.381  27.898  25.261  1.00  0.00     0.005 A 
ATOM     34  C   UNL A   1      31.437  27.414  26.604  1.00  0.00     0.005 A 
ATOM     35  C   UNL A   1      32.979  26.895  24.398  1.00  0.00     0.022 A 
ATOM     36  C   UNL A   1      31.032  26.368  25.729  1.00  0.00     0.022 A 
ENDBRANCH  27  30
ENDBRANCH  19  27
ENDBRANCH  16  18
ENDBRANCH  13  16
ENDBRANCH  11  12
ENDBRANCH   8  11
ENDBRANCH   6   7
BRANCH   6  37
ATOM     37  C   UNL A   1      40.858  23.838  28.044  1.00  0.00     0.072 C 
BRANCH  37  38
ATOM     38  C   UNL A   1      42.266  23.312  27.885  1.00  0.00    -0.020 A 
ATOM     39  C   UNL A   1      42.719  22.146  27.299  1.00  0.00     0.087 A 
ATOM     40  C   UNL A   1      43.462  23.999  28.321  1.00  0.00     0.003 A 
ATOM     41  N   UNL A   1      44.071  22.238  27.110  1.00  0.00    -0.361 N 
ATOM     42  C   UNL A   1      44.555  23.347  27.747  1.00  0.00     0.046 A 
ATOM     43  C   UNL A   1      43.725  25.134  29.118  1.00  0.00     0.010 A 
ATOM     44  H   UNL A   1      44.615  21.601  26.593  1.00  0.00     0.166 HD
ATOM     45  C   UNL A   1      45.872  23.804  27.849  1.00  0.00     0.026 A 
ATOM     46  C   UNL A   1      45.050  25.564  29.295  1.00  0.00     0.001 A 
ATOM     47  C   UNL A   1      46.103  24.923  28.646  1.00  0.00     0.002 A 
ENDBRANCH  37  38
ENDBRANCH   6  37
ENDBRANCH   3   6
ENDBRANCH   1   2
BRANCH   1  48
ATOM     48  C   UNL A   1      43.960  26.904  25.380  1.00  0.00     0.021 C 
BRANCH  48  49
ATOM     49  C   UNL A   1      45.097  25.889  25.180  1.00  0.00     0.002 C 
BRANCH  49  50
ATOM     50  C   UNL A   1      46.499  26.469  24.931  1.00  0.00     0.002 C 
BRANCH  50  51
ATOM     51  C   UNL A   1      47.659  25.471  24.927  1.00  0.00     0.021 C 
BRANCH  51  52
ATOM     52  C   UNL A   1      49.033  26.106  24.836  1.00  0.00     0.116 C 
BRANCH  52  53
ATOM     53  N   UNL A   1      50.005  25.641  25.807  1.00  0.00    -0.352 N 
ATOM     54  C   UNL A   1      50.460  26.565  26.750  1.00  0.00     0.251 C 
ATOM     55  H   UNL A   1      50.330  24.711  25.803  1.00  0.00     0.163 HD
ATOM     56  O   UNL A   1      51.402  27.317  26.598  1.00  0.00    -0.269 OA
BRANCH  54  57
ATOM     57  C   UNL A   1      49.477  26.792  27.830  1.00  0.00     0.039 A 
ATOM     58  C   UNL A   1      48.406  27.673  27.689  1.00  0.00     0.014 A 
ATOM     59  C   UNL A   1      49.819  26.254  29.073  1.00  0.00     0.014 A 
ATOM     60  C   UNL A   1      47.752  28.123  28.837  1.00  0.00     0.010 A 
ATOM     61  C   UNL A   1      49.246  26.772  30.205  1.00  0.00     0.010 A 
ATOM     62  C   UNL A   1      48.230  27.724  30.086  1.00  0.00    -0.014 A 
BRANCH  62  63
ATOM     63  C   UNL A   1      47.771  28.237  31.364  1.00  0.00     0.031 A 
ATOM     64  C   UNL A   1      47.159  27.310  32.338  1.00  0.00     0.074 A 
ATOM     65  C   UNL A   1      48.124  29.495  31.706  1.00  0.00     0.049 A 
ATOM     66  N   UNL A   1      46.493  27.686  33.372  1.00  0.00    -0.248 NA
ATOM     67  C   UNL A   1      47.237  25.856  32.205  1.00  0.00     0.031 C 
ATOM     68  C   UNL A   1      48.138  30.090  33.037  1.00  0.00     0.029 A 
ATOM     69  N   UNL A   1      48.384  30.563  30.849  1.00  0.00    -0.354 N 
ATOM     70  C   UNL A   1      46.283  26.578  34.164  1.00  0.00     0.074 A 
ATOM     71  C   UNL A   1      46.723  25.455  33.373  1.00  0.00     0.031 C 
ATOM     72  C   UNL A   1      48.142  31.429  32.915  1.00  0.00     0.029 A 
ATOM     73  C   UNL A   1      47.966  31.734  31.504  1.00  0.00     0.049 A 
ATOM     74  H   UNL A   1      48.787  30.508  29.953  1.00  0.00     0.167 HD
ATOM     75  C   UNL A   1      45.875  26.752  35.452  1.00  0.00     0.037 A 
ATOM     76  C   UNL A   1      46.915  32.454  31.002  1.00  0.00     0.037 A 
ATOM     77  C   UNL A   1      45.650  28.167  35.730  1.00  0.00     0.049 A 
ATOM     78  C   UNL A   1      45.704  32.455  31.909  1.00  0.00     0.074 A 
ATOM     79  C   UNL A   1      46.473  29.151  36.252  1.00  0.00     0.029 A 
ATOM     80  N   UNL A   1      44.589  28.822  35.114  1.00  0.00    -0.354 N 
ATOM     81  N   UNL A   1      45.493  31.575  32.849  1.00  0.00    -0.248 NA
ATOM     82  C   UNL A   1      44.650  33.463  31.844  1.00  0.00     0.031 C 
ATOM     83  C   UNL A   1      45.952  30.409  35.861  1.00  0.00     0.029 A 
ATOM     84  C   UNL A   1      44.797  30.189  35.129  1.00  0.00     0.049 A 
ATOM     85  H   UNL A   1      43.804  28.377  34.724  1.00  0.00     0.167 HD
ATOM     86  C   UNL A   1      44.317  31.862  33.495  1.00  0.00     0.074 A 
ATOM     87  C   UNL A   1      43.836  33.063  32.838  1.00  0.00     0.031 C 
ATOM     88  C   UNL A   1      43.837  31.095  34.520  1.00  0.00     0.037 A 
BRANCH  75  89
ATOM     89  C   UNL A   1      45.951  25.680  36.510  1.00  0.00     0.058 A 
ATOM     90  C   UNL A   1      47.196  25.119  36.870  1.00  0.00     0.135 A 
ATOM     91  C   UNL A   1      44.837  25.141  37.182  1.00  0.00     0.135 A 
ATOM     92  F   UNL A   1      48.344  25.555  36.335  1.00  0.00    -0.206 F 
ATOM     93  C   UNL A   1      47.321  24.067  37.776  1.00  0.00     0.059 A 
ATOM     94  C   UNL A   1      44.932  24.054  38.060  1.00  0.00     0.059 A 
ATOM     95  F   UNL A   1      43.616  25.674  37.030  1.00  0.00    -0.206 F 
ATOM     96  C   UNL A   1      46.182  23.523  38.352  1.00  0.00     0.060 A 
BRANCH  96  97
ATOM     97  S   UNL A   1      46.373  22.128  39.478  1.00  0.00     0.124 S 
ATOM     98  O   UNL A   1      45.439  22.465  40.548  1.00  0.00    -0.237 OA
ATOM     99  O   UNL A   1      45.989  21.002  38.634  1.00  0.00    -0.237 OA
ATOM    100  O   UNL A   1      47.783  22.181  39.850  1.00  0.00    -0.744 OA
ENDBRANCH  96  97
ENDBRANCH  75  89
BRANCH  76 101
ATOM    101  C   UNL A   1      46.899  32.471  29.508  1.00  0.00     0.058 A 
ATOM    102  C   UNL A   1      45.913  31.692  28.871  1.00  0.00     0.135 A 
ATOM    103  C   UNL A   1      47.435  33.548  28.784  1.00  0.00     0.135 A 
ATOM    104  F   UNL A   1      45.382  30.634  29.508  1.00  0.00    -0.206 F 
ATOM    105  C   UNL A   1      45.337  32.079  27.665  1.00  0.00     0.059 A 
ATOM    106  C   UNL A   1      46.881  33.946  27.564  1.00  0.00     0.059 A 
ATOM    107  F   UNL A   1      48.387  34.322  29.327  1.00  0.00    -0.206 F 
ATOM    108  C   UNL A   1      45.774  33.257  27.065  1.00  0.00     0.060 A 
BRANCH 108 109
ATOM    109  S   UNL A   1      44.743  33.972  25.758  1.00  0.00     0.124 S 
ATOM    110  O   UNL A   1      44.768  32.926  24.743  1.00  0.00    -0.237 OA
ATOM    111  O   UNL A   1      43.465  34.158  26.453  1.00  0.00    -0.237 OA
ATOM    112  O   UNL A   1      45.438  35.205  25.413  1.00  0.00    -0.744 OA
ENDBRANCH 108 109
ENDBRANCH  76 101
BRANCH  88 113
ATOM    113  C   UNL A   1      42.455  31.195  35.121  1.00  0.00     0.058 A 
ATOM    114  C   UNL A   1      42.133  32.031  36.203  1.00  0.00     0.135 A 
ATOM    115  C   UNL A   1      41.358  30.540  34.507  1.00  0.00     0.135 A 
ATOM    116  F   UNL A   1      43.061  32.797  36.794  1.00  0.00    -0.206 F 
ATOM    117  C   UNL A   1      40.832  32.147  36.694  1.00  0.00     0.059 A 
ATOM    118  C   UNL A   1      40.045  30.690  34.942  1.00  0.00     0.059 A 
ATOM    119  F   UNL A   1      41.524  29.736  33.446  1.00  0.00    -0.206 F 
ATOM    120  C   UNL A   1      39.795  31.471  36.060  1.00  0.00     0.060 A 
BRANCH 120 121
ATOM    121  S   UNL A   1      38.110  31.646  36.668  1.00  0.00     0.124 S 
ATOM    122  O   UNL A   1      37.765  30.260  36.967  1.00  0.00    -0.237 OA
ATOM    123  O   UNL A   1      38.273  32.519  37.828  1.00  0.00    -0.237 OA
ATOM    124  O   UNL A   1      37.407  32.245  35.538  1.00  0.00    -0.744 OA
ENDBRANCH 120 121
ENDBRANCH  88 113
ENDBRANCH  62  63
ENDBRANCH  54  57
ENDBRANCH  52  53
ENDBRANCH  51  52
ENDBRANCH  50  51
ENDBRANCH  49  50
ENDBRANCH  48  49
ENDBRANCH   1  48
TORSDOF 25
ENDMDL
