MODEL 1
REMARK VINA RESULT:     -11.0      0.000      0.000
REMARK SMILES Cc1noc(C)c1[C@@H](C)NC(=O)N(CC(=O)NCCCCCCNC(=O)c1ccc(-c2c3nc(c(-c4c(F)cc(S(=O)(=O)[O-])cc4F)c4ccc([nH]4)c(-c4c(F)cc(S(=O)(=O)[O-])cc4F)c4nc(c(-c5c(F)cc(S(=O)(=O)[O-])cc5F)c5ccc2[nH]5)C=C4)C=C3)cc1)C(C)C
REMARK SMILES IDX 20 1 19 2 18 3 17 4 15 5 16 6 14 8 13 9 11 10 10 11 12 13
REMARK SMILES IDX 8 14 9 15 7 16 1 17 2 18 3 19 4 20 5 21 6 22 93 23 94 24
REMARK SMILES IDX 95 25 21 26 22 27 23 28 24 29 25 30 26 32 27 33 28 34 92 35
REMARK SMILES IDX 29 36 91 37 30 38 31 39 32 40 85 41 33 42 90 43 84 44 86 45
REMARK SMILES IDX 34 46 89 47 83 48 82 49 35 51 69 52 48 53 68 54 49 55 52 56
REMARK SMILES IDX 67 57 87 58 50 59 51 60 66 62 88 63 53 64 36 65 37 66 46 67
REMARK SMILES IDX 38 68 39 69 45 70 47 71 40 72 41 73 42 74 43 75 44 76 70 77
REMARK SMILES IDX 71 78 80 79 72 80 73 81 79 82 81 83 74 84 75 85 76 86 77 87
REMARK SMILES IDX 78 88 54 89 55 90 64 91 56 92 57 93 63 94 65 95 58 96 59 97
REMARK SMILES IDX 60 98 61 99 62 100
REMARK H PARENT 17 7 10 12 24 31 86 50 52 61
REMARK Flexibility Score: inf
ROOT
ATOM      1  C   UNL A   1      36.018  21.265  25.446  1.00  0.00     0.002 C 
ENDROOT
BRANCH   1   2
ATOM      2  C   UNL A   1      35.248  22.528  25.069  1.00  0.00     0.021 C 
BRANCH   2   3
ATOM      3  C   UNL A   1      33.755  22.303  24.873  1.00  0.00     0.116 C 
BRANCH   3   4
ATOM      4  N   UNL A   1      32.972  22.550  26.061  1.00  0.00    -0.355 N 
ATOM      5  C   UNL A   1      32.587  23.715  26.648  1.00  0.00     0.239 C 
ATOM      6  O   UNL A   1      31.724  23.629  27.530  1.00  0.00    -0.273 OA
ATOM      7  H   UNL A   1      32.663  21.737  26.524  1.00  0.00     0.163 HD
BRANCH   5   8
ATOM      8  C   UNL A   1      33.030  25.106  26.157  1.00  0.00     0.221 C 
BRANCH   8   9
ATOM      9  N   UNL A   1      32.095  26.224  26.273  1.00  0.00    -0.313 N 
BRANCH   9  10
ATOM     10  C   UNL A   1      30.820  26.318  25.782  1.00  0.00     0.318 C 
ATOM     11  N   UNL A   1      30.466  26.905  24.627  1.00  0.00    -0.331 N 
ATOM     12  H   UNL A   1      29.496  26.805  24.494  1.00  0.00     0.165 HD
ATOM     13  O   UNL A   1      29.855  25.870  26.412  1.00  0.00    -0.249 OA
BRANCH  11  14
ATOM     14  C   UNL A   1      31.035  27.642  23.499  1.00  0.00     0.116 C 
ATOM     15  C   UNL A   1      29.943  28.101  22.527  1.00  0.00     0.036 C 
BRANCH  14  16
ATOM     16  C   UNL A   1      32.067  26.768  22.855  1.00  0.00     0.040 A 
ATOM     17  C   UNL A   1      31.007  24.351  22.903  1.00  0.00     0.071 C 
ATOM     18  C   UNL A   1      32.050  25.361  22.597  1.00  0.00     0.086 A 
ATOM     19  N   UNL A   1      33.169  24.963  21.980  1.00  0.00    -0.085 NA
ATOM     20  O   UNL A   1      33.947  26.088  21.841  1.00  0.00    -0.361 OA
ATOM     21  C   UNL A   1      33.298  27.158  22.361  1.00  0.00     0.139 A 
ATOM     22  C   UNL A   1      34.027  28.438  22.292  1.00  0.00     0.091 C 
ENDBRANCH  14  16
ENDBRANCH  11  14
ENDBRANCH   9  10
BRANCH   9  23
ATOM     23  C   UNL A   1      32.641  27.360  27.073  1.00  0.00     0.081 C 
ATOM     24  C   UNL A   1      33.766  28.123  26.376  1.00  0.00     0.031 C 
ATOM     25  C   UNL A   1      31.565  28.311  27.607  1.00  0.00     0.031 C 
ENDBRANCH   9  23
ENDBRANCH   8   9
ENDBRANCH   5   8
ENDBRANCH   3   4
ENDBRANCH   2   3
ENDBRANCH   1   2
BRANCH   1  26
ATOM     26  C   UNL A   1      37.319  21.064  24.665  1.00  0.00     0.002 C 
BRANCH  26  27
ATOM     27  C   UNL A   1      38.226  19.951  25.200  1.00  0.00     0.021 C 
BRANCH  27  28
ATOM     28  C   UNL A   1      39.463  20.443  25.945  1.00  0.00     0.116 C 
BRANCH  28  29
ATOM     29  N   UNL A   1      40.483  19.411  26.038  1.00  0.00    -0.352 N 
ATOM     30  C   UNL A   1      41.846  19.545  26.118  1.00  0.00     0.251 C 
ATOM     31  H   UNL A   1      40.148  18.485  26.045  1.00  0.00     0.163 HD
ATOM     32  O   UNL A   1      42.571  18.570  25.961  1.00  0.00    -0.269 OA
BRANCH  30  33
ATOM     33  C   UNL A   1      42.429  20.878  26.381  1.00  0.00     0.039 A 
ATOM     34  C   UNL A   1      42.854  21.656  25.303  1.00  0.00     0.014 A 
ATOM     35  C   UNL A   1      42.553  21.354  27.690  1.00  0.00     0.014 A 
ATOM     36  C   UNL A   1      43.359  22.936  25.535  1.00  0.00     0.010 A 
ATOM     37  C   UNL A   1      42.982  22.659  27.913  1.00  0.00     0.010 A 
ATOM     38  C   UNL A   1      43.398  23.460  26.840  1.00  0.00    -0.014 A 
BRANCH  38  39
ATOM     39  C   UNL A   1      43.876  24.842  27.098  1.00  0.00     0.031 A 
ATOM     40  C   UNL A   1      45.331  25.183  26.918  1.00  0.00     0.074 A 
ATOM     41  C   UNL A   1      43.011  25.773  27.546  1.00  0.00     0.049 A 
ATOM     42  N   UNL A   1      45.947  26.315  27.145  1.00  0.00    -0.248 NA
ATOM     43  C   UNL A   1      46.214  24.105  26.445  1.00  0.00     0.031 C 
ATOM     44  C   UNL A   1      41.587  25.548  27.804  1.00  0.00     0.029 A 
ATOM     45  N   UNL A   1      43.203  27.092  27.873  1.00  0.00    -0.354 N 
ATOM     46  C   UNL A   1      47.287  26.082  26.856  1.00  0.00     0.074 A 
ATOM     47  C   UNL A   1      47.404  24.687  26.492  1.00  0.00     0.031 C 
ATOM     48  C   UNL A   1      41.030  26.695  28.226  1.00  0.00     0.029 A 
ATOM     49  C   UNL A   1      42.061  27.724  28.310  1.00  0.00     0.049 A 
ATOM     50  H   UNL A   1      44.074  27.543  27.803  1.00  0.00     0.167 HD
ATOM     51  C   UNL A   1      48.320  26.958  26.866  1.00  0.00     0.037 A 
ATOM     52  C   UNL A   1      41.870  28.987  28.740  1.00  0.00     0.037 A 
ATOM     53  C   UNL A   1      48.190  28.349  27.212  1.00  0.00     0.049 A 
ATOM     54  C   UNL A   1      43.036  29.939  28.754  1.00  0.00     0.074 A 
ATOM     55  C   UNL A   1      49.165  29.332  27.204  1.00  0.00     0.029 A 
ATOM     56  N   UNL A   1      47.016  28.956  27.635  1.00  0.00    -0.354 N 
ATOM     57  N   UNL A   1      44.283  29.719  28.412  1.00  0.00    -0.248 NA
ATOM     58  C   UNL A   1      42.768  31.311  29.205  1.00  0.00     0.031 C 
ATOM     59  C   UNL A   1      48.593  30.519  27.672  1.00  0.00     0.029 A 
ATOM     60  C   UNL A   1      47.247  30.293  27.913  1.00  0.00     0.049 A 
ATOM     61  H   UNL A   1      46.146  28.503  27.725  1.00  0.00     0.167 HD
ATOM     62  C   UNL A   1      44.943  30.932  28.577  1.00  0.00     0.074 A 
ATOM     63  C   UNL A   1      43.952  31.884  29.037  1.00  0.00     0.031 C 
ATOM     64  C   UNL A   1      46.248  31.232  28.364  1.00  0.00     0.037 A 
BRANCH  51  65
ATOM     65  C   UNL A   1      49.682  26.438  26.491  1.00  0.00     0.058 A 
ATOM     66  C   UNL A   1      50.559  25.902  27.449  1.00  0.00     0.135 A 
ATOM     67  C   UNL A   1      50.103  26.439  25.151  1.00  0.00     0.135 A 
ATOM     68  F   UNL A   1      50.217  25.890  28.748  1.00  0.00    -0.206 F 
ATOM     69  C   UNL A   1      51.814  25.417  27.098  1.00  0.00     0.059 A 
ATOM     70  C   UNL A   1      51.342  25.927  24.771  1.00  0.00     0.059 A 
ATOM     71  F   UNL A   1      49.308  26.937  24.192  1.00  0.00    -0.206 F 
ATOM     72  C   UNL A   1      52.196  25.432  25.755  1.00  0.00     0.060 A 
BRANCH  72  73
ATOM     73  S   UNL A   1      53.825  24.789  25.317  1.00  0.00     0.124 S 
ATOM     74  O   UNL A   1      53.522  23.386  25.049  1.00  0.00    -0.237 OA
ATOM     75  O   UNL A   1      54.175  25.595  24.152  1.00  0.00    -0.237 OA
ATOM     76  O   UNL A   1      54.623  25.040  26.513  1.00  0.00    -0.744 OA
ENDBRANCH  72  73
ENDBRANCH  51  65
BRANCH  52  77
ATOM     77  C   UNL A   1      40.516  29.427  29.174  1.00  0.00     0.058 A 
ATOM     78  C   UNL A   1      40.229  29.658  30.528  1.00  0.00     0.135 A 
ATOM     79  C   UNL A   1      39.487  29.639  28.243  1.00  0.00     0.135 A 
ATOM     80  F   UNL A   1      41.177  29.466  31.456  1.00  0.00    -0.206 F 
ATOM     81  C   UNL A   1      38.966  30.064  30.946  1.00  0.00     0.059 A 
ATOM     82  C   UNL A   1      38.224  30.072  28.635  1.00  0.00     0.059 A 
ATOM     83  F   UNL A   1      39.714  29.450  26.933  1.00  0.00    -0.206 F 
ATOM     84  C   UNL A   1      37.970  30.273  29.990  1.00  0.00     0.060 A 
BRANCH  84  85
ATOM     85  S   UNL A   1      36.348  30.847  30.540  1.00  0.00     0.124 S 
ATOM     86  O   UNL A   1      35.617  30.909  29.280  1.00  0.00    -0.237 OA
ATOM     87  O   UNL A   1      35.947  29.789  31.461  1.00  0.00    -0.237 OA
ATOM     88  O   UNL A   1      36.642  32.133  31.164  1.00  0.00    -0.744 OA
ENDBRANCH  84  85
ENDBRANCH  52  77
BRANCH  64  89
ATOM     89  C   UNL A   1      46.679  32.657  28.586  1.00  0.00     0.058 A 
ATOM     90  C   UNL A   1      46.630  33.614  27.561  1.00  0.00     0.135 A 
ATOM     91  C   UNL A   1      47.098  33.079  29.859  1.00  0.00     0.135 A 
ATOM     92  F   UNL A   1      46.243  33.264  26.325  1.00  0.00    -0.206 F 
ATOM     93  C   UNL A   1      47.004  34.936  27.784  1.00  0.00     0.059 A 
ATOM     94  C   UNL A   1      47.447  34.402  30.112  1.00  0.00     0.059 A 
ATOM     95  F   UNL A   1      47.154  32.207  30.877  1.00  0.00    -0.206 F 
ATOM     96  C   UNL A   1      47.408  35.321  29.064  1.00  0.00     0.060 A 
BRANCH  96  97
ATOM     97  S   UNL A   1      47.860  37.046  29.346  1.00  0.00     0.124 S 
ATOM     98  O   UNL A   1      49.188  37.105  28.744  1.00  0.00    -0.237 OA
ATOM     99  O   UNL A   1      46.808  37.763  28.633  1.00  0.00    -0.237 OA
ATOM    100  O   UNL A   1      47.824  37.174  30.800  1.00  0.00    -0.744 OA
ENDBRANCH  96  97
ENDBRANCH  64  89
ENDBRANCH  38  39
ENDBRANCH  30  33
ENDBRANCH  28  29
ENDBRANCH  27  28
ENDBRANCH  26  27
ENDBRANCH   1  26
TORSDOF 21
ENDMDL
MODEL 2
REMARK VINA RESULT:     -11.0      2.347      8.925
REMARK SMILES Cc1noc(C)c1[C@@H](C)NC(=O)N(CC(=O)NCCCCCCNC(=O)c1ccc(-c2c3nc(c(-c4c(F)cc(S(=O)(=O)[O-])cc4F)c4ccc([nH]4)c(-c4c(F)cc(S(=O)(=O)[O-])cc4F)c4nc(c(-c5c(F)cc(S(=O)(=O)[O-])cc5F)c5ccc2[nH]5)C=C4)C=C3)cc1)C(C)C
REMARK SMILES IDX 20 1 19 2 18 3 17 4 15 5 16 6 14 8 13 9 11 10 10 11 12 13
REMARK SMILES IDX 8 14 9 15 7 16 1 17 2 18 3 19 4 20 5 21 6 22 93 23 94 24
REMARK SMILES IDX 95 25 21 26 22 27 23 28 24 29 25 30 26 32 27 33 28 34 92 35
REMARK SMILES IDX 29 36 91 37 30 38 31 39 32 40 85 41 33 42 90 43 84 44 86 45
REMARK SMILES IDX 34 46 89 47 83 48 82 49 35 51 69 52 48 53 68 54 49 55 52 56
REMARK SMILES IDX 67 57 87 58 50 59 51 60 66 62 88 63 53 64 36 65 37 66 46 67
REMARK SMILES IDX 38 68 39 69 45 70 47 71 40 72 41 73 42 74 43 75 44 76 70 77
REMARK SMILES IDX 71 78 80 79 72 80 73 81 79 82 81 83 74 84 75 85 76 86 77 87
REMARK SMILES IDX 78 88 54 89 55 90 64 91 56 92 57 93 63 94 65 95 58 96 59 97
REMARK SMILES IDX 60 98 61 99 62 100
REMARK H PARENT 17 7 10 12 24 31 86 50 52 61
REMARK Flexibility Score: inf
ROOT
ATOM      1  C   UNL A   1      34.327  30.657  27.270  1.00  0.00     0.002 C 
ENDROOT
BRANCH   1   2
ATOM      2  C   UNL A   1      32.974  29.954  27.182  1.00  0.00     0.021 C 
BRANCH   2   3
ATOM      3  C   UNL A   1      32.295  30.094  25.827  1.00  0.00     0.116 C 
BRANCH   3   4
ATOM      4  N   UNL A   1      33.160  29.788  24.711  1.00  0.00    -0.355 N 
ATOM      5  C   UNL A   1      33.544  28.595  24.184  1.00  0.00     0.239 C 
ATOM      6  O   UNL A   1      34.108  28.635  23.083  1.00  0.00    -0.273 OA
ATOM      7  H   UNL A   1      33.534  30.576  24.255  1.00  0.00     0.163 HD
BRANCH   5   8
ATOM      8  C   UNL A   1      33.162  27.230  24.788  1.00  0.00     0.221 C 
BRANCH   8   9
ATOM      9  N   UNL A   1      32.593  26.207  23.913  1.00  0.00    -0.313 N 
BRANCH   9  10
ATOM     10  C   UNL A   1      33.244  25.197  23.255  1.00  0.00     0.318 C 
ATOM     11  N   UNL A   1      33.407  23.944  23.709  1.00  0.00    -0.331 N 
ATOM     12  H   UNL A   1      33.880  23.410  23.030  1.00  0.00     0.165 HD
ATOM     13  O   UNL A   1      33.775  25.386  22.155  1.00  0.00    -0.249 OA
BRANCH  11  14
ATOM     14  C   UNL A   1      33.119  23.103  24.871  1.00  0.00     0.116 C 
ATOM     15  C   UNL A   1      33.089  23.929  26.161  1.00  0.00     0.036 C 
BRANCH  14  16
ATOM     16  C   UNL A   1      34.133  22.001  24.900  1.00  0.00     0.040 A 
ATOM     17  C   UNL A   1      32.728  19.802  24.503  1.00  0.00     0.071 C 
ATOM     18  C   UNL A   1      33.964  20.590  24.737  1.00  0.00     0.086 A 
ATOM     19  N   UNL A   1      35.133  19.944  24.813  1.00  0.00    -0.085 NA
ATOM     20  O   UNL A   1      36.085  20.908  25.046  1.00  0.00    -0.361 OA
ATOM     21  C   UNL A   1      35.495  22.127  25.102  1.00  0.00     0.139 A 
ATOM     22  C   UNL A   1      36.402  23.260  25.362  1.00  0.00     0.091 C 
ENDBRANCH  14  16
ENDBRANCH  11  14
ENDBRANCH   9  10
BRANCH   9  23
ATOM     23  C   UNL A   1      31.109  26.304  23.790  1.00  0.00     0.081 C 
ATOM     24  C   UNL A   1      30.373  26.257  25.127  1.00  0.00     0.031 C 
ATOM     25  C   UNL A   1      30.637  27.480  22.930  1.00  0.00     0.031 C 
ENDBRANCH   9  23
ENDBRANCH   8   9
ENDBRANCH   5   8
ENDBRANCH   3   4
ENDBRANCH   2   3
ENDBRANCH   1   2
BRANCH   1  26
ATOM     26  C   UNL A   1      34.319  31.935  28.112  1.00  0.00     0.002 C 
BRANCH  26  27
ATOM     27  C   UNL A   1      35.576  32.802  27.980  1.00  0.00     0.021 C 
BRANCH  27  28
ATOM     28  C   UNL A   1      36.427  32.881  29.243  1.00  0.00     0.116 C 
BRANCH  28  29
ATOM     29  N   UNL A   1      35.987  31.929  30.251  1.00  0.00    -0.352 N 
ATOM     30  C   UNL A   1      36.561  30.742  30.629  1.00  0.00     0.251 C 
ATOM     31  H   UNL A   1      35.160  32.170  30.728  1.00  0.00     0.163 HD
ATOM     32  O   UNL A   1      35.939  29.954  31.331  1.00  0.00    -0.269 OA
BRANCH  30  33
ATOM     33  C   UNL A   1      37.929  30.419  30.171  1.00  0.00     0.039 A 
ATOM     34  C   UNL A   1      38.963  30.370  31.108  1.00  0.00     0.014 A 
ATOM     35  C   UNL A   1      38.185  30.165  28.821  1.00  0.00     0.014 A 
ATOM     36  C   UNL A   1      40.248  30.016  30.696  1.00  0.00     0.010 A 
ATOM     37  C   UNL A   1      39.449  29.736  28.426  1.00  0.00     0.010 A 
ATOM     38  C   UNL A   1      40.495  29.666  29.356  1.00  0.00    -0.014 A 
BRANCH  38  39
ATOM     39  C   UNL A   1      41.844  29.229  28.913  1.00  0.00     0.031 A 
ATOM     40  C   UNL A   1      42.968  30.226  28.821  1.00  0.00     0.074 A 
ATOM     41  C   UNL A   1      42.040  27.948  28.542  1.00  0.00     0.049 A 
ATOM     42  N   UNL A   1      44.195  30.049  28.405  1.00  0.00    -0.248 NA
ATOM     43  C   UNL A   1      42.666  31.609  29.224  1.00  0.00     0.031 C 
ATOM     44  C   UNL A   1      41.015  26.902  28.544  1.00  0.00     0.029 A 
ATOM     45  N   UNL A   1      43.165  27.309  28.084  1.00  0.00    -0.354 N 
ATOM     46  C   UNL A   1      44.806  31.295  28.485  1.00  0.00     0.074 A 
ATOM     47  C   UNL A   1      43.799  32.231  28.934  1.00  0.00     0.031 C 
ATOM     48  C   UNL A   1      41.564  25.747  28.130  1.00  0.00     0.029 A 
ATOM     49  C   UNL A   1      42.966  25.979  27.794  1.00  0.00     0.049 A 
ATOM     50  H   UNL A   1      44.032  27.760  27.972  1.00  0.00     0.167 HD
ATOM     51  C   UNL A   1      46.096  31.623  28.233  1.00  0.00     0.037 A 
ATOM     52  C   UNL A   1      43.813  25.054  27.303  1.00  0.00     0.037 A 
ATOM     53  C   UNL A   1      47.096  30.681  27.804  1.00  0.00     0.049 A 
ATOM     54  C   UNL A   1      45.238  25.446  27.019  1.00  0.00     0.074 A 
ATOM     55  C   UNL A   1      48.442  30.901  27.572  1.00  0.00     0.029 A 
ATOM     56  N   UNL A   1      46.860  29.340  27.536  1.00  0.00    -0.354 N 
ATOM     57  N   UNL A   1      45.817  26.614  27.165  1.00  0.00    -0.248 NA
ATOM     58  C   UNL A   1      46.129  24.393  26.512  1.00  0.00     0.031 C 
ATOM     59  C   UNL A   1      49.009  29.708  27.112  1.00  0.00     0.029 A 
ATOM     60  C   UNL A   1      48.029  28.727  27.117  1.00  0.00     0.049 A 
ATOM     61  H   UNL A   1      45.988  28.890  27.628  1.00  0.00     0.167 HD
ATOM     62  C   UNL A   1      47.145  26.431  26.797  1.00  0.00     0.074 A 
ATOM     63  C   UNL A   1      47.286  25.035  26.434  1.00  0.00     0.031 C 
ATOM     64  C   UNL A   1      48.156  27.333  26.765  1.00  0.00     0.037 A 
BRANCH  51  65
ATOM     65  C   UNL A   1      46.500  33.062  28.416  1.00  0.00     0.058 A 
ATOM     66  C   UNL A   1      46.421  33.992  27.367  1.00  0.00     0.135 A 
ATOM     67  C   UNL A   1      46.937  33.527  29.668  1.00  0.00     0.135 A 
ATOM     68  F   UNL A   1      46.025  33.601  26.145  1.00  0.00    -0.206 F 
ATOM     69  C   UNL A   1      46.789  35.322  27.542  1.00  0.00     0.059 A 
ATOM     70  C   UNL A   1      47.280  34.861  29.875  1.00  0.00     0.059 A 
ATOM     71  F   UNL A   1      47.033  32.684  30.708  1.00  0.00    -0.206 F 
ATOM     72  C   UNL A   1      47.216  35.748  28.801  1.00  0.00     0.060 A 
BRANCH  72  73
ATOM     73  S   UNL A   1      47.681  37.478  29.011  1.00  0.00     0.124 S 
ATOM     74  O   UNL A   1      48.817  37.367  29.922  1.00  0.00    -0.237 OA
ATOM     75  O   UNL A   1      48.001  37.883  27.646  1.00  0.00    -0.237 OA
ATOM     76  O   UNL A   1      46.482  38.087  29.578  1.00  0.00    -0.744 OA
ENDBRANCH  72  73
ENDBRANCH  51  65
BRANCH  52  77
ATOM     77  C   UNL A   1      43.339  23.663  27.066  1.00  0.00     0.058 A 
ATOM     78  C   UNL A   1      43.150  23.174  25.766  1.00  0.00     0.135 A 
ATOM     79  C   UNL A   1      43.079  22.791  28.136  1.00  0.00     0.135 A 
ATOM     80  F   UNL A   1      43.380  23.969  24.710  1.00  0.00    -0.206 F 
ATOM     81  C   UNL A   1      42.702  21.878  25.532  1.00  0.00     0.059 A 
ATOM     82  C   UNL A   1      42.657  21.483  27.927  1.00  0.00     0.059 A 
ATOM     83  F   UNL A   1      43.261  23.204  29.401  1.00  0.00    -0.206 F 
ATOM     84  C   UNL A   1      42.462  21.037  26.621  1.00  0.00     0.060 A 
BRANCH  84  85
ATOM     85  S   UNL A   1      41.927  19.341  26.305  1.00  0.00     0.124 S 
ATOM     86  O   UNL A   1      40.478  19.469  26.395  1.00  0.00    -0.237 OA
ATOM     87  O   UNL A   1      42.466  19.095  24.972  1.00  0.00    -0.237 OA
ATOM     88  O   UNL A   1      42.564  18.584  27.378  1.00  0.00    -0.744 OA
ENDBRANCH  84  85
ENDBRANCH  52  77
BRANCH  64  89
ATOM     89  C   UNL A   1      49.519  26.837  26.362  1.00  0.00     0.058 A 
ATOM     90  C   UNL A   1      50.335  26.112  27.244  1.00  0.00     0.135 A 
ATOM     91  C   UNL A   1      49.990  27.046  25.055  1.00  0.00     0.135 A 
ATOM     92  F   UNL A   1      49.937  25.890  28.507  1.00  0.00    -0.206 F 
ATOM     93  C   UNL A   1      51.582  25.633  26.853  1.00  0.00     0.059 A 
ATOM     94  C   UNL A   1      51.219  26.549  24.633  1.00  0.00     0.059 A 
ATOM     95  F   UNL A   1      49.245  27.723  24.168  1.00  0.00    -0.206 F 
ATOM     96  C   UNL A   1      52.014  25.854  25.543  1.00  0.00     0.060 A 
BRANCH  96  97
ATOM     97  S   UNL A   1      53.618  25.199  25.040  1.00  0.00     0.124 S 
ATOM     98  O   UNL A   1      54.532  26.025  25.822  1.00  0.00    -0.237 OA
ATOM     99  O   UNL A   1      53.524  23.800  25.445  1.00  0.00    -0.237 OA
ATOM    100  O   UNL A   1      53.643  25.428  23.599  1.00  0.00    -0.744 OA
ENDBRANCH  96  97
ENDBRANCH  64  89
ENDBRANCH  38  39
ENDBRANCH  30  33
ENDBRANCH  28  29
ENDBRANCH  27  28
ENDBRANCH  26  27
ENDBRANCH   1  26
TORSDOF 21
ENDMDL
MODEL 3
REMARK VINA RESULT:     -10.9      1.235      8.363
REMARK SMILES Cc1noc(C)c1[C@@H](C)NC(=O)N(CC(=O)NCCCCCCNC(=O)c1ccc(-c2c3nc(c(-c4c(F)cc(S(=O)(=O)[O-])cc4F)c4ccc([nH]4)c(-c4c(F)cc(S(=O)(=O)[O-])cc4F)c4nc(c(-c5c(F)cc(S(=O)(=O)[O-])cc5F)c5ccc2[nH]5)C=C4)C=C3)cc1)C(C)C
REMARK SMILES IDX 20 1 19 2 18 3 17 4 15 5 16 6 14 8 13 9 11 10 10 11 12 13
REMARK SMILES IDX 8 14 9 15 7 16 1 17 2 18 3 19 4 20 5 21 6 22 93 23 94 24
REMARK SMILES IDX 95 25 21 26 22 27 23 28 24 29 25 30 26 32 27 33 28 34 92 35
REMARK SMILES IDX 29 36 91 37 30 38 31 39 32 40 85 41 33 42 90 43 84 44 86 45
REMARK SMILES IDX 34 46 89 47 83 48 82 49 35 51 69 52 48 53 68 54 49 55 52 56
REMARK SMILES IDX 67 57 87 58 50 59 51 60 66 62 88 63 53 64 36 65 37 66 46 67
REMARK SMILES IDX 38 68 39 69 45 70 47 71 40 72 41 73 42 74 43 75 44 76 70 77
REMARK SMILES IDX 71 78 80 79 72 80 73 81 79 82 81 83 74 84 75 85 76 86 77 87
REMARK SMILES IDX 78 88 54 89 55 90 64 91 56 92 57 93 63 94 65 95 58 96 59 97
REMARK SMILES IDX 60 98 61 99 62 100
REMARK H PARENT 17 7 10 12 24 31 86 50 52 61
REMARK Flexibility Score: inf
ROOT
ATOM      1  C   UNL A   1      36.266  21.441  25.748  1.00  0.00     0.002 C 
ENDROOT
BRANCH   1   2
ATOM      2  C   UNL A   1      36.132  22.931  26.057  1.00  0.00     0.021 C 
BRANCH   2   3
ATOM      3  C   UNL A   1      34.712  23.462  25.919  1.00  0.00     0.116 C 
BRANCH   3   4
ATOM      4  N   UNL A   1      34.651  24.859  25.557  1.00  0.00    -0.355 N 
ATOM      5  C   UNL A   1      34.254  25.464  24.405  1.00  0.00     0.239 C 
ATOM      6  O   UNL A   1      34.085  26.689  24.455  1.00  0.00    -0.273 OA
ATOM      7  H   UNL A   1      34.945  25.479  26.263  1.00  0.00     0.163 HD
BRANCH   5   8
ATOM      8  C   UNL A   1      33.843  24.697  23.134  1.00  0.00     0.221 C 
BRANCH   8   9
ATOM      9  N   UNL A   1      32.430  24.652  22.763  1.00  0.00    -0.313 N 
BRANCH   9  10
ATOM     10  C   UNL A   1      31.687  25.616  22.136  1.00  0.00     0.318 C 
ATOM     11  N   UNL A   1      30.766  26.400  22.719  1.00  0.00    -0.331 N 
ATOM     12  H   UNL A   1      30.404  27.028  22.053  1.00  0.00     0.165 HD
ATOM     13  O   UNL A   1      31.801  25.825  20.922  1.00  0.00    -0.249 OA
BRANCH  11  14
ATOM     14  C   UNL A   1      30.118  26.636  24.008  1.00  0.00     0.116 C 
ATOM     15  C   UNL A   1      28.591  26.628  23.874  1.00  0.00     0.036 C 
BRANCH  14  16
ATOM     16  C   UNL A   1      30.654  27.920  24.561  1.00  0.00     0.040 A 
ATOM     17  C   UNL A   1      31.705  27.248  26.888  1.00  0.00     0.071 C 
ATOM     18  C   UNL A   1      31.337  28.178  25.792  1.00  0.00     0.086 A 
ATOM     19  N   UNL A   1      31.671  29.469  25.905  1.00  0.00    -0.085 NA
ATOM     20  O   UNL A   1      31.200  30.084  24.770  1.00  0.00    -0.361 OA
ATOM     21  C   UNL A   1      30.593  29.170  23.974  1.00  0.00     0.139 A 
ATOM     22  C   UNL A   1      30.025  29.697  22.720  1.00  0.00     0.091 C 
ENDBRANCH  14  16
ENDBRANCH  11  14
ENDBRANCH   9  10
BRANCH   9  23
ATOM     23  C   UNL A   1      31.779  23.352  23.102  1.00  0.00     0.081 C 
ATOM     24  C   UNL A   1      32.651  22.131  22.820  1.00  0.00     0.031 C 
ATOM     25  C   UNL A   1      31.190  23.308  24.515  1.00  0.00     0.031 C 
ENDBRANCH   9  23
ENDBRANCH   8   9
ENDBRANCH   5   8
ENDBRANCH   3   4
ENDBRANCH   2   3
ENDBRANCH   1   2
BRANCH   1  26
ATOM     26  C   UNL A   1      37.306  21.111  24.675  1.00  0.00     0.002 C 
BRANCH  26  27
ATOM     27  C   UNL A   1      38.251  19.958  25.027  1.00  0.00     0.021 C 
BRANCH  27  28
ATOM     28  C   UNL A   1      39.405  20.342  25.948  1.00  0.00     0.116 C 
BRANCH  28  29
ATOM     29  N   UNL A   1      40.382  19.271  26.064  1.00  0.00    -0.352 N 
ATOM     30  C   UNL A   1      41.748  19.352  26.161  1.00  0.00     0.251 C 
ATOM     31  H   UNL A   1      40.011  18.359  26.074  1.00  0.00     0.163 HD
ATOM     32  O   UNL A   1      42.435  18.347  26.023  1.00  0.00    -0.269 OA
BRANCH  30  33
ATOM     33  C   UNL A   1      42.381  20.662  26.420  1.00  0.00     0.039 A 
ATOM     34  C   UNL A   1      42.848  21.414  25.340  1.00  0.00     0.014 A 
ATOM     35  C   UNL A   1      42.509  21.144  27.726  1.00  0.00     0.014 A 
ATOM     36  C   UNL A   1      43.400  22.675  25.568  1.00  0.00     0.010 A 
ATOM     37  C   UNL A   1      42.987  22.433  27.943  1.00  0.00     0.010 A 
ATOM     38  C   UNL A   1      43.446  23.208  26.869  1.00  0.00    -0.014 A 
BRANCH  38  39
ATOM     39  C   UNL A   1      43.975  24.572  27.121  1.00  0.00     0.031 A 
ATOM     40  C   UNL A   1      43.044  25.676  27.548  1.00  0.00     0.074 A 
ATOM     41  C   UNL A   1      45.282  24.829  26.913  1.00  0.00     0.049 A 
ATOM     42  N   UNL A   1      43.306  26.939  27.762  1.00  0.00    -0.248 NA
ATOM     43  C   UNL A   1      41.629  25.318  27.733  1.00  0.00     0.031 C 
ATOM     44  C   UNL A   1      46.272  23.852  26.454  1.00  0.00     0.029 A 
ATOM     45  N   UNL A   1      46.001  25.990  27.051  1.00  0.00    -0.354 N 
ATOM     46  C   UNL A   1      42.092  27.528  28.095  1.00  0.00     0.074 A 
ATOM     47  C   UNL A   1      41.082  26.496  27.998  1.00  0.00     0.031 C 
ATOM     48  C   UNL A   1      47.473  24.448  26.372  1.00  0.00     0.029 A 
ATOM     49  C   UNL A   1      47.332  25.856  26.730  1.00  0.00     0.049 A 
ATOM     50  H   UNL A   1      45.603  26.838  27.352  1.00  0.00     0.167 HD
ATOM     51  C   UNL A   1      41.845  28.805  28.473  1.00  0.00     0.037 A 
ATOM     52  C   UNL A   1      48.324  26.768  26.715  1.00  0.00     0.037 A 
ATOM     53  C   UNL A   1      42.859  29.820  28.584  1.00  0.00     0.049 A 
ATOM     54  C   UNL A   1      48.023  28.183  27.127  1.00  0.00     0.074 A 
ATOM     55  C   UNL A   1      42.722  31.130  29.008  1.00  0.00     0.029 A 
ATOM     56  N   UNL A   1      44.198  29.644  28.264  1.00  0.00    -0.354 N 
ATOM     57  N   UNL A   1      46.881  28.707  27.503  1.00  0.00    -0.248 NA
ATOM     58  C   UNL A   1      49.146  29.131  27.120  1.00  0.00     0.031 C 
ATOM     59  C   UNL A   1      43.964  31.760  28.894  1.00  0.00     0.029 A 
ATOM     60  C   UNL A   1      44.891  30.827  28.458  1.00  0.00     0.049 A 
ATOM     61  H   UNL A   1      44.596  28.801  27.945  1.00  0.00     0.167 HD
ATOM     62  C   UNL A   1      47.152  30.036  27.807  1.00  0.00     0.074 A 
ATOM     63  C   UNL A   1      48.570  30.232  27.583  1.00  0.00     0.031 C 
ATOM     64  C   UNL A   1      46.306  31.005  28.236  1.00  0.00     0.037 A 
BRANCH  51  65
ATOM     65  C   UNL A   1      40.421  29.176  28.795  1.00  0.00     0.058 A 
ATOM     66  C   UNL A   1      39.975  29.316  30.119  1.00  0.00     0.135 A 
ATOM     67  C   UNL A   1      39.501  29.433  27.765  1.00  0.00     0.135 A 
ATOM     68  F   UNL A   1      40.807  29.067  31.143  1.00  0.00    -0.206 F 
ATOM     69  C   UNL A   1      38.661  29.666  30.412  1.00  0.00     0.059 A 
ATOM     70  C   UNL A   1      38.189  29.817  28.035  1.00  0.00     0.059 A 
ATOM     71  F   UNL A   1      39.870  29.316  26.481  1.00  0.00    -0.206 F 
ATOM     72  C   UNL A   1      37.775  29.916  29.362  1.00  0.00     0.060 A 
BRANCH  72  73
ATOM     73  S   UNL A   1      36.077  30.377  29.762  1.00  0.00     0.124 S 
ATOM     74  O   UNL A   1      36.164  31.834  29.768  1.00  0.00    -0.237 OA
ATOM     75  O   UNL A   1      35.326  29.792  28.655  1.00  0.00    -0.237 OA
ATOM     76  O   UNL A   1      35.853  29.758  31.064  1.00  0.00    -0.744 OA
ENDBRANCH  72  73
ENDBRANCH  51  65
BRANCH  52  77
ATOM     77  C   UNL A   1      49.699  26.363  26.312  1.00  0.00     0.058 A 
ATOM     78  C   UNL A   1      50.147  26.531  24.993  1.00  0.00     0.135 A 
ATOM     79  C   UNL A   1      50.597  25.813  27.241  1.00  0.00     0.135 A 
ATOM     80  F   UNL A   1      49.325  27.048  24.067  1.00  0.00    -0.206 F 
ATOM     81  C   UNL A   1      51.427  26.151  24.603  1.00  0.00     0.059 A 
ATOM     82  C   UNL A   1      51.891  25.452  26.881  1.00  0.00     0.059 A 
ATOM     83  F   UNL A   1      50.226  25.648  28.520  1.00  0.00    -0.206 F 
ATOM     84  C   UNL A   1      52.294  25.616  25.557  1.00  0.00     0.060 A 
BRANCH  84  85
ATOM     85  S   UNL A   1      53.971  25.172  25.051  1.00  0.00     0.124 S 
ATOM     86  O   UNL A   1      53.873  23.721  24.955  1.00  0.00    -0.237 OA
ATOM     87  O   UNL A   1      54.108  25.890  23.788  1.00  0.00    -0.237 OA
ATOM     88  O   UNL A   1      54.795  25.679  26.143  1.00  0.00    -0.744 OA
ENDBRANCH  84  85
ENDBRANCH  52  77
BRANCH  64  89
ATOM     89  C   UNL A   1      46.893  32.359  28.532  1.00  0.00     0.058 A 
ATOM     90  C   UNL A   1      46.962  33.367  27.556  1.00  0.00     0.135 A 
ATOM     91  C   UNL A   1      47.344  32.668  29.826  1.00  0.00     0.135 A 
ATOM     92  F   UNL A   1      46.551  33.124  26.302  1.00  0.00    -0.206 F 
ATOM     93  C   UNL A   1      47.480  34.625  27.847  1.00  0.00     0.059 A 
ATOM     94  C   UNL A   1      47.836  33.929  30.147  1.00  0.00     0.059 A 
ATOM     95  F   UNL A   1      47.291  31.746  30.799  1.00  0.00    -0.206 F 
ATOM     96  C   UNL A   1      47.912  34.898  29.147  1.00  0.00     0.060 A 
BRANCH  96  97
ATOM     97  S   UNL A   1      48.552  36.544  29.518  1.00  0.00     0.124 S 
ATOM     98  O   UNL A   1      47.932  36.816  30.811  1.00  0.00    -0.237 OA
ATOM     99  O   UNL A   1      49.993  36.320  29.541  1.00  0.00    -0.237 OA
ATOM    100  O   UNL A   1      48.066  37.357  28.407  1.00  0.00    -0.744 OA
ENDBRANCH  96  97
ENDBRANCH  64  89
ENDBRANCH  38  39
ENDBRANCH  30  33
ENDBRANCH  28  29
ENDBRANCH  27  28
ENDBRANCH  26  27
ENDBRANCH   1  26
TORSDOF 21
ENDMDL
