MODEL 1
REMARK VINA RESULT:     -12.0      0.000      0.000
REMARK SMILES O=C(NCCCCCCNC(=O)c1occc1Cn1ccc2ccc([N+](=O)[O-])cc21)c1ccc(-c2c3nc(c(-c4c(F)cc(S(=O)(=O)[O-])cc4F)c4ccc([nH]4)c(-c4c(F)cc(S(=O)(=O)[O-])cc4F)c4nc(c(-c5c(F)cc(S(=O)(=O)[O-])cc5F)c5ccc2[nH]5)C=C4)C=C3)cc1
REMARK SMILES IDX 6 1 5 2 4 3 3 4 1 5 2 6 31 8 32 9 96 10 33 11 95 12 34 13
REMARK SMILES IDX 35 14 36 15 89 16 37 17 94 18 88 19 90 20 38 21 93 22 87 23
REMARK SMILES IDX 86 24 39 26 73 27 52 28 72 29 53 30 56 31 71 32 91 33 54 34
REMARK SMILES IDX 55 35 70 37 92 38 57 39 40 40 41 41 50 42 42 43 43 44 49 45
REMARK SMILES IDX 51 46 44 47 45 48 46 49 47 50 48 51 74 52 75 53 84 54 76 55
REMARK SMILES IDX 77 56 83 57 85 58 78 59 79 60 80 61 81 62 82 63 58 64 59 65
REMARK SMILES IDX 68 66 60 67 61 68 67 69 69 70 62 71 63 72 64 73 65 74 66 75
REMARK SMILES IDX 7 76 8 77 9 78 10 79 11 80 12 82 13 83 14 84 17 85 15 86
REMARK SMILES IDX 16 87 18 88 19 89 20 90 30 91 21 92 22 93 29 94 23 95 25 96
REMARK SMILES IDX 24 97 26 98 27 99 28 100
REMARK H PARENT 3 7 90 25 56 36 10 81
REMARK Flexibility Score: inf
ROOT
ATOM      1  C   UNL A   1      37.927  21.850  25.495  1.00  0.00     0.002 C 
ENDROOT
BRANCH   1   2
ATOM      2  C   UNL A   1      38.977  22.763  26.146  1.00  0.00     0.021 C 
BRANCH   2   3
ATOM      3  C   UNL A   1      40.131  22.024  26.792  1.00  0.00     0.116 C 
BRANCH   3   4
ATOM      4  N   UNL A   1      41.375  22.065  26.015  1.00  0.00    -0.352 N 
ATOM      5  O   UNL A   1      42.940  23.143  24.765  1.00  0.00    -0.269 OA
ATOM      6  C   UNL A   1      42.174  23.165  25.718  1.00  0.00     0.251 C 
ATOM      7  H   UNL A   1      41.685  21.202  25.656  1.00  0.00     0.163 HD
BRANCH   6   8
ATOM      8  C   UNL A   1      42.080  24.354  26.589  1.00  0.00     0.039 A 
ATOM      9  C   UNL A   1      42.733  24.488  27.815  1.00  0.00     0.014 A 
ATOM     10  C   UNL A   1      41.305  25.395  26.109  1.00  0.00     0.014 A 
ATOM     11  C   UNL A   1      42.553  25.684  28.512  1.00  0.00     0.010 A 
ATOM     12  C   UNL A   1      41.534  26.654  26.554  1.00  0.00     0.010 A 
ATOM     13  C   UNL A   1      41.919  26.758  27.864  1.00  0.00    -0.014 A 
BRANCH  13  14
ATOM     14  C   UNL A   1      41.639  28.037  28.491  1.00  0.00     0.031 A 
ATOM     15  C   UNL A   1      42.691  29.032  28.230  1.00  0.00     0.074 A 
ATOM     16  C   UNL A   1      40.467  28.343  29.101  1.00  0.00     0.049 A 
ATOM     17  N   UNL A   1      43.633  29.380  29.036  1.00  0.00    -0.248 NA
ATOM     18  C   UNL A   1      42.866  29.510  26.852  1.00  0.00     0.031 C 
ATOM     19  C   UNL A   1      39.212  27.576  29.174  1.00  0.00     0.029 A 
ATOM     20  N   UNL A   1      40.139  29.484  29.764  1.00  0.00    -0.354 N 
ATOM     21  C   UNL A   1      44.372  30.330  28.351  1.00  0.00     0.074 A 
ATOM     22  C   UNL A   1      44.008  30.192  26.964  1.00  0.00     0.031 C 
ATOM     23  C   UNL A   1      38.218  28.358  29.656  1.00  0.00     0.029 A 
ATOM     24  C   UNL A   1      38.790  29.616  30.090  1.00  0.00     0.049 A 
ATOM     25  H   UNL A   1      40.808  30.168  29.998  1.00  0.00     0.167 HD
ATOM     26  C   UNL A   1      45.017  31.317  29.026  1.00  0.00     0.037 A 
ATOM     27  C   UNL A   1      38.205  30.692  30.683  1.00  0.00     0.037 A 
ATOM     28  C   UNL A   1      45.097  31.004  30.436  1.00  0.00     0.049 A 
ATOM     29  C   UNL A   1      39.298  31.430  31.374  1.00  0.00     0.074 A 
ATOM     30  C   UNL A   1      45.674  29.981  31.165  1.00  0.00     0.029 A 
ATOM     31  N   UNL A   1      44.158  31.572  31.265  1.00  0.00    -0.354 N 
ATOM     32  N   UNL A   1      39.968  30.945  32.386  1.00  0.00    -0.248 NA
ATOM     33  C   UNL A   1      39.973  32.478  30.626  1.00  0.00     0.031 C 
ATOM     34  C   UNL A   1      44.735  29.686  32.199  1.00  0.00     0.029 A 
ATOM     35  C   UNL A   1      43.678  30.593  32.101  1.00  0.00     0.049 A 
ATOM     36  H   UNL A   1      43.878  32.516  31.261  1.00  0.00     0.167 HD
ATOM     37  C   UNL A   1      41.287  31.309  32.151  1.00  0.00     0.074 A 
ATOM     38  C   UNL A   1      41.217  32.307  31.084  1.00  0.00     0.031 C 
ATOM     39  C   UNL A   1      42.328  30.565  32.633  1.00  0.00     0.037 A 
BRANCH  26  40
ATOM     40  C   UNL A   1      45.226  32.710  28.490  1.00  0.00     0.058 A 
ATOM     41  C   UNL A   1      46.542  33.179  28.307  1.00  0.00     0.135 A 
ATOM     42  C   UNL A   1      44.212  33.690  28.399  1.00  0.00     0.135 A 
ATOM     43  F   UNL A   1      47.584  32.335  28.377  1.00  0.00    -0.206 F 
ATOM     44  C   UNL A   1      46.833  34.529  28.120  1.00  0.00     0.059 A 
ATOM     45  C   UNL A   1      44.476  35.032  28.159  1.00  0.00     0.059 A 
ATOM     46  F   UNL A   1      42.923  33.418  28.632  1.00  0.00    -0.206 F 
ATOM     47  C   UNL A   1      45.791  35.450  28.060  1.00  0.00     0.060 A 
BRANCH  47  48
ATOM     48  S   UNL A   1      46.169  37.201  27.916  1.00  0.00     0.124 S 
ATOM     49  O   UNL A   1      45.272  37.605  26.839  1.00  0.00    -0.237 OA
ATOM     50  O   UNL A   1      45.833  37.690  29.249  1.00  0.00    -0.237 OA
ATOM     51  O   UNL A   1      47.592  37.213  27.589  1.00  0.00    -0.744 OA
ENDBRANCH  47  48
ENDBRANCH  26  40
BRANCH  27  52
ATOM     52  C   UNL A   1      36.905  31.338  30.335  1.00  0.00     0.058 A 
ATOM     53  C   UNL A   1      36.040  31.819  31.339  1.00  0.00     0.135 A 
ATOM     54  C   UNL A   1      36.629  31.777  29.025  1.00  0.00     0.135 A 
ATOM     55  F   UNL A   1      36.229  31.463  32.618  1.00  0.00    -0.206 F 
ATOM     56  C   UNL A   1      35.011  32.733  31.071  1.00  0.00     0.059 A 
ATOM     57  C   UNL A   1      35.607  32.684  28.733  1.00  0.00     0.059 A 
ATOM     58  F   UNL A   1      37.407  31.412  27.995  1.00  0.00    -0.206 F 
ATOM     59  C   UNL A   1      34.821  33.182  29.765  1.00  0.00     0.060 A 
BRANCH  59  60
ATOM     60  S   UNL A   1      33.626  34.504  29.441  1.00  0.00     0.124 S 
ATOM     61  O   UNL A   1      34.443  35.486  28.739  1.00  0.00    -0.237 OA
ATOM     62  O   UNL A   1      32.619  33.818  28.638  1.00  0.00    -0.237 OA
ATOM     63  O   UNL A   1      33.188  34.899  30.779  1.00  0.00    -0.744 OA
ENDBRANCH  59  60
ENDBRANCH  27  52
BRANCH  39  64
ATOM     64  C   UNL A   1      42.028  29.495  33.660  1.00  0.00     0.058 A 
ATOM     65  C   UNL A   1      41.758  28.145  33.362  1.00  0.00     0.135 A 
ATOM     66  C   UNL A   1      42.175  29.827  35.015  1.00  0.00     0.135 A 
ATOM     67  F   UNL A   1      41.691  27.718  32.094  1.00  0.00    -0.206 F 
ATOM     68  C   UNL A   1      41.612  27.181  34.366  1.00  0.00     0.059 A 
ATOM     69  C   UNL A   1      42.065  28.879  36.029  1.00  0.00     0.059 A 
ATOM     70  F   UNL A   1      42.487  31.085  35.366  1.00  0.00    -0.206 F 
ATOM     71  C   UNL A   1      41.773  27.558  35.699  1.00  0.00     0.060 A 
BRANCH  71  72
ATOM     72  S   UNL A   1      41.648  26.305  36.996  1.00  0.00     0.124 S 
ATOM     73  O   UNL A   1      41.617  25.066  36.227  1.00  0.00    -0.237 OA
ATOM     74  O   UNL A   1      42.862  26.537  37.776  1.00  0.00    -0.237 OA
ATOM     75  O   UNL A   1      40.404  26.644  37.681  1.00  0.00    -0.744 OA
ENDBRANCH  71  72
ENDBRANCH  39  64
ENDBRANCH  13  14
ENDBRANCH   6   8
ENDBRANCH   3   4
ENDBRANCH   2   3
ENDBRANCH   1   2
BRANCH   1  76
ATOM     76  C   UNL A   1      36.487  22.380  25.376  1.00  0.00     0.002 C 
BRANCH  76  77
ATOM     77  C   UNL A   1      36.238  23.828  25.804  1.00  0.00     0.021 C 
BRANCH  77  78
ATOM     78  C   UNL A   1      34.868  24.380  25.443  1.00  0.00     0.116 C 
BRANCH  78  79
ATOM     79  N   UNL A   1      33.850  24.088  26.435  1.00  0.00    -0.349 N 
ATOM     80  C   UNL A   1      32.681  23.369  26.292  1.00  0.00     0.287 C 
ATOM     81  H   UNL A   1      34.017  24.453  27.334  1.00  0.00     0.163 HD
ATOM     82  O   UNL A   1      31.910  23.335  27.240  1.00  0.00    -0.266 OA
BRANCH  80  83
ATOM     83  C   UNL A   1      32.444  22.703  25.029  1.00  0.00     0.196 A 
ATOM     84  O   UNL A   1      32.942  21.437  24.896  1.00  0.00    -0.459 OA
ATOM     85  C   UNL A   1      31.759  23.073  23.875  1.00  0.00     0.023 A 
ATOM     86  C   UNL A   1      32.511  20.954  23.710  1.00  0.00     0.196 A 
ATOM     87  C   UNL A   1      31.774  21.904  23.050  1.00  0.00     0.048 A 
BRANCH  85  88
ATOM     88  C   UNL A   1      31.079  24.381  23.612  1.00  0.00     0.162 C 
BRANCH  88  89
ATOM     89  N   UNL A   1      32.008  25.444  23.237  1.00  0.00    -0.343 N 
ATOM     90  C   UNL A   1      32.753  25.449  22.083  1.00  0.00     0.087 A 
ATOM     91  C   UNL A   1      32.317  26.552  23.999  1.00  0.00     0.055 A 
ATOM     92  C   UNL A   1      33.471  26.622  22.048  1.00  0.00     0.028 A 
ATOM     93  C   UNL A   1      33.171  27.347  23.232  1.00  0.00     0.000 A 
ATOM     94  C   UNL A   1      31.884  26.937  25.277  1.00  0.00     0.112 A 
ATOM     95  C   UNL A   1      33.558  28.610  23.727  1.00  0.00     0.017 A 
ATOM     96  C   UNL A   1      32.232  28.220  25.718  1.00  0.00     0.271 A 
ATOM     97  C   UNL A   1      33.059  29.052  24.958  1.00  0.00     0.086 A 
BRANCH  96  98
ATOM     98  N   UNL A   1      31.670  28.710  26.984  1.00  0.00     0.062 N 
ATOM     99  O   UNL A   1      31.683  29.934  27.184  1.00  0.00    -0.258 OA
ATOM    100  O   UNL A   1      31.231  27.871  27.784  1.00  0.00    -0.258 OA
ENDBRANCH  96  98
ENDBRANCH  88  89
ENDBRANCH  85  88
ENDBRANCH  80  83
ENDBRANCH  78  79
ENDBRANCH  77  78
ENDBRANCH  76  77
ENDBRANCH   1  76
TORSDOF 19
ENDMDL
MODEL 2
REMARK VINA RESULT:     -11.9      3.029      9.036
REMARK SMILES O=C(NCCCCCCNC(=O)c1occc1Cn1ccc2ccc([N+](=O)[O-])cc21)c1ccc(-c2c3nc(c(-c4c(F)cc(S(=O)(=O)[O-])cc4F)c4ccc([nH]4)c(-c4c(F)cc(S(=O)(=O)[O-])cc4F)c4nc(c(-c5c(F)cc(S(=O)(=O)[O-])cc5F)c5ccc2[nH]5)C=C4)C=C3)cc1
REMARK SMILES IDX 6 1 5 2 4 3 3 4 1 5 2 6 31 8 32 9 96 10 33 11 95 12 34 13
REMARK SMILES IDX 35 14 36 15 89 16 37 17 94 18 88 19 90 20 38 21 93 22 87 23
REMARK SMILES IDX 86 24 39 26 73 27 52 28 72 29 53 30 56 31 71 32 91 33 54 34
REMARK SMILES IDX 55 35 70 37 92 38 57 39 40 40 41 41 50 42 42 43 43 44 49 45
REMARK SMILES IDX 51 46 44 47 45 48 46 49 47 50 48 51 74 52 75 53 84 54 76 55
REMARK SMILES IDX 77 56 83 57 85 58 78 59 79 60 80 61 81 62 82 63 58 64 59 65
REMARK SMILES IDX 68 66 60 67 61 68 67 69 69 70 62 71 63 72 64 73 65 74 66 75
REMARK SMILES IDX 7 76 8 77 9 78 10 79 11 80 12 82 13 83 14 84 17 85 15 86
REMARK SMILES IDX 16 87 18 88 19 89 20 90 30 91 21 92 22 93 29 94 23 95 25 96
REMARK SMILES IDX 24 97 26 98 27 99 28 100
REMARK H PARENT 3 7 90 25 56 36 10 81
REMARK Flexibility Score: inf
ROOT
ATOM      1  C   UNL A   1      33.905  30.177  27.242  1.00  0.00     0.002 C 
ENDROOT
BRANCH   1   2
ATOM      2  C   UNL A   1      35.280  30.751  27.615  1.00  0.00     0.021 C 
BRANCH   2   3
ATOM      3  C   UNL A   1      35.299  32.255  27.798  1.00  0.00     0.116 C 
BRANCH   3   4
ATOM      4  N   UNL A   1      35.023  32.692  29.172  1.00  0.00    -0.352 N 
ATOM      5  O   UNL A   1      34.778  32.311  31.400  1.00  0.00    -0.269 OA
ATOM      6  C   UNL A   1      35.384  32.073  30.365  1.00  0.00     0.251 C 
ATOM      7  H   UNL A   1      34.518  33.532  29.261  1.00  0.00     0.163 HD
BRANCH   6   8
ATOM      8  C   UNL A   1      36.522  31.132  30.350  1.00  0.00     0.039 A 
ATOM      9  C   UNL A   1      36.396  29.742  30.342  1.00  0.00     0.014 A 
ATOM     10  C   UNL A   1      37.781  31.705  30.313  1.00  0.00     0.014 A 
ATOM     11  C   UNL A   1      37.572  28.990  30.313  1.00  0.00     0.010 A 
ATOM     12  C   UNL A   1      38.821  30.993  29.819  1.00  0.00     0.010 A 
ATOM     13  C   UNL A   1      38.791  29.647  30.074  1.00  0.00    -0.014 A 
BRANCH  13  14
ATOM     14  C   UNL A   1      40.083  28.986  30.056  1.00  0.00     0.031 A 
ATOM     15  C   UNL A   1      40.607  28.741  31.409  1.00  0.00     0.074 A 
ATOM     16  C   UNL A   1      40.666  28.490  28.937  1.00  0.00     0.049 A 
ATOM     17  N   UNL A   1      41.504  29.435  32.020  1.00  0.00    -0.248 NA
ATOM     18  C   UNL A   1      39.895  27.783  32.266  1.00  0.00     0.031 C 
ATOM     19  C   UNL A   1      40.136  28.377  27.567  1.00  0.00     0.029 A 
ATOM     20  N   UNL A   1      41.891  27.914  28.813  1.00  0.00    -0.354 N 
ATOM     21  C   UNL A   1      41.658  28.830  33.256  1.00  0.00     0.074 A 
ATOM     22  C   UNL A   1      40.501  27.992  33.436  1.00  0.00     0.031 C 
ATOM     23  C   UNL A   1      40.947  27.591  26.820  1.00  0.00     0.029 A 
ATOM     24  C   UNL A   1      42.135  27.289  27.591  1.00  0.00     0.049 A 
ATOM     25  H   UNL A   1      42.559  27.937  29.536  1.00  0.00     0.167 HD
ATOM     26  C   UNL A   1      42.856  28.874  33.897  1.00  0.00     0.037 A 
ATOM     27  C   UNL A   1      43.248  26.583  27.254  1.00  0.00     0.037 A 
ATOM     28  C   UNL A   1      43.717  29.874  33.304  1.00  0.00     0.049 A 
ATOM     29  C   UNL A   1      44.323  27.037  28.178  1.00  0.00     0.074 A 
ATOM     30  C   UNL A   1      43.632  31.244  33.140  1.00  0.00     0.029 A 
ATOM     31  N   UNL A   1      44.652  29.444  32.391  1.00  0.00    -0.354 N 
ATOM     32  N   UNL A   1      44.810  28.250  28.178  1.00  0.00    -0.248 NA
ATOM     33  C   UNL A   1      44.492  26.300  29.420  1.00  0.00     0.031 C 
ATOM     34  C   UNL A   1      44.156  31.495  31.836  1.00  0.00     0.029 A 
ATOM     35  C   UNL A   1      44.608  30.285  31.306  1.00  0.00     0.049 A 
ATOM     36  H   UNL A   1      45.249  28.669  32.497  1.00  0.00     0.167 HD
ATOM     37  C   UNL A   1      44.958  28.579  29.519  1.00  0.00     0.074 A 
ATOM     38  C   UNL A   1      44.805  27.312  30.234  1.00  0.00     0.031 C 
ATOM     39  C   UNL A   1      44.901  29.876  29.945  1.00  0.00     0.037 A 
BRANCH  26  40
ATOM     40  C   UNL A   1      43.379  27.776  34.786  1.00  0.00     0.058 A 
ATOM     41  C   UNL A   1      43.753  28.089  36.108  1.00  0.00     0.135 A 
ATOM     42  C   UNL A   1      43.776  26.499  34.327  1.00  0.00     0.135 A 
ATOM     43  F   UNL A   1      43.433  29.277  36.646  1.00  0.00    -0.206 F 
ATOM     44  C   UNL A   1      44.525  27.229  36.888  1.00  0.00     0.059 A 
ATOM     45  C   UNL A   1      44.498  25.605  35.106  1.00  0.00     0.059 A 
ATOM     46  F   UNL A   1      43.571  26.089  33.070  1.00  0.00    -0.206 F 
ATOM     47  C   UNL A   1      44.903  25.994  36.371  1.00  0.00     0.060 A 
BRANCH  47  48
ATOM     48  S   UNL A   1      45.977  24.925  37.338  1.00  0.00     0.124 S 
ATOM     49  O   UNL A   1      47.124  25.796  37.567  1.00  0.00    -0.237 OA
ATOM     50  O   UNL A   1      45.145  24.639  38.502  1.00  0.00    -0.237 OA
ATOM     51  O   UNL A   1      46.213  23.791  36.449  1.00  0.00    -0.744 OA
ENDBRANCH  47  48
ENDBRANCH  26  40
BRANCH  27  52
ATOM     52  C   UNL A   1      43.326  25.285  26.520  1.00  0.00     0.058 A 
ATOM     53  C   UNL A   1      44.164  25.132  25.397  1.00  0.00     0.135 A 
ATOM     54  C   UNL A   1      42.829  24.092  27.082  1.00  0.00     0.135 A 
ATOM     55  F   UNL A   1      44.692  26.211  24.800  1.00  0.00    -0.206 F 
ATOM     56  C   UNL A   1      44.543  23.875  24.907  1.00  0.00     0.059 A 
ATOM     57  C   UNL A   1      43.189  22.828  26.608  1.00  0.00     0.059 A 
ATOM     58  F   UNL A   1      42.050  24.114  28.174  1.00  0.00    -0.206 F 
ATOM     59  C   UNL A   1      44.071  22.726  25.540  1.00  0.00     0.060 A 
BRANCH  59  60
ATOM     60  S   UNL A   1      44.706  21.106  25.037  1.00  0.00     0.124 S 
ATOM     61  O   UNL A   1      44.596  21.174  23.585  1.00  0.00    -0.237 OA
ATOM     62  O   UNL A   1      46.062  21.126  25.577  1.00  0.00    -0.237 OA
ATOM     63  O   UNL A   1      43.794  20.168  25.688  1.00  0.00    -0.744 OA
ENDBRANCH  59  60
ENDBRANCH  27  52
BRANCH  39  64
ATOM     64  C   UNL A   1      44.952  30.974  28.905  1.00  0.00     0.058 A 
ATOM     65  C   UNL A   1      46.128  31.453  28.295  1.00  0.00     0.135 A 
ATOM     66  C   UNL A   1      43.735  31.449  28.393  1.00  0.00     0.135 A 
ATOM     67  F   UNL A   1      47.331  30.986  28.656  1.00  0.00    -0.206 F 
ATOM     68  C   UNL A   1      46.093  32.383  27.251  1.00  0.00     0.059 A 
ATOM     69  C   UNL A   1      43.676  32.352  27.334  1.00  0.00     0.059 A 
ATOM     70  F   UNL A   1      42.575  30.993  28.891  1.00  0.00    -0.206 F 
ATOM     71  C   UNL A   1      44.860  32.823  26.772  1.00  0.00     0.060 A 
BRANCH  71  72
ATOM     72  S   UNL A   1      44.808  33.976  25.381  1.00  0.00     0.124 S 
ATOM     73  O   UNL A   1      46.206  34.375  25.258  1.00  0.00    -0.237 OA
ATOM     74  O   UNL A   1      44.291  33.141  24.299  1.00  0.00    -0.237 OA
ATOM     75  O   UNL A   1      43.899  35.023  25.837  1.00  0.00    -0.744 OA
ENDBRANCH  71  72
ENDBRANCH  39  64
ENDBRANCH  13  14
ENDBRANCH   6   8
ENDBRANCH   3   4
ENDBRANCH   2   3
ENDBRANCH   1   2
BRANCH   1  76
ATOM     76  C   UNL A   1      33.764  28.647  27.156  1.00  0.00     0.002 C 
BRANCH  76  77
ATOM     77  C   UNL A   1      32.770  28.093  26.132  1.00  0.00     0.021 C 
BRANCH  77  78
ATOM     78  C   UNL A   1      32.470  26.608  26.264  1.00  0.00     0.116 C 
BRANCH  78  79
ATOM     79  N   UNL A   1      31.099  26.331  26.650  1.00  0.00    -0.349 N 
ATOM     80  C   UNL A   1      30.335  25.211  26.392  1.00  0.00     0.287 C 
ATOM     81  H   UNL A   1      30.652  27.039  27.167  1.00  0.00     0.163 HD
ATOM     82  O   UNL A   1      29.158  25.230  26.723  1.00  0.00    -0.266 OA
BRANCH  80  83
ATOM     83  C   UNL A   1      30.977  24.085  25.745  1.00  0.00     0.196 A 
ATOM     84  O   UNL A   1      31.613  23.188  26.557  1.00  0.00    -0.459 OA
ATOM     85  C   UNL A   1      31.066  23.679  24.416  1.00  0.00     0.023 A 
ATOM     86  C   UNL A   1      32.032  22.164  25.780  1.00  0.00     0.196 A 
ATOM     87  C   UNL A   1      31.714  22.404  24.468  1.00  0.00     0.048 A 
BRANCH  85  88
ATOM     88  C   UNL A   1      30.515  24.388  23.219  1.00  0.00     0.162 C 
BRANCH  88  89
ATOM     89  N   UNL A   1      31.163  25.672  22.964  1.00  0.00    -0.343 N 
ATOM     90  C   UNL A   1      32.504  25.823  22.708  1.00  0.00     0.087 A 
ATOM     91  C   UNL A   1      30.550  26.908  23.003  1.00  0.00     0.055 A 
ATOM     92  C   UNL A   1      32.742  27.158  22.474  1.00  0.00     0.028 A 
ATOM     93  C   UNL A   1      31.507  27.848  22.614  1.00  0.00     0.000 A 
ATOM     94  C   UNL A   1      29.228  27.268  23.306  1.00  0.00     0.112 A 
ATOM     95  C   UNL A   1      31.118  29.194  22.454  1.00  0.00     0.017 A 
ATOM     96  C   UNL A   1      28.853  28.598  23.079  1.00  0.00     0.271 A 
ATOM     97  C   UNL A   1      29.781  29.556  22.659  1.00  0.00     0.086 A 
BRANCH  96  98
ATOM     98  N   UNL A   1      27.442  28.973  23.243  1.00  0.00     0.062 N 
ATOM     99  O   UNL A   1      27.125  30.144  22.986  1.00  0.00    -0.258 OA
ATOM    100  O   UNL A   1      26.655  28.102  23.641  1.00  0.00    -0.258 OA
ENDBRANCH  96  98
ENDBRANCH  88  89
ENDBRANCH  85  88
ENDBRANCH  80  83
ENDBRANCH  78  79
ENDBRANCH  77  78
ENDBRANCH  76  77
ENDBRANCH   1  76
TORSDOF 19
ENDMDL
MODEL 3
REMARK VINA RESULT:     -11.8      2.941      9.415
REMARK SMILES O=C(NCCCCCCNC(=O)c1occc1Cn1ccc2ccc([N+](=O)[O-])cc21)c1ccc(-c2c3nc(c(-c4c(F)cc(S(=O)(=O)[O-])cc4F)c4ccc([nH]4)c(-c4c(F)cc(S(=O)(=O)[O-])cc4F)c4nc(c(-c5c(F)cc(S(=O)(=O)[O-])cc5F)c5ccc2[nH]5)C=C4)C=C3)cc1
REMARK SMILES IDX 6 1 5 2 4 3 3 4 1 5 2 6 31 8 32 9 96 10 33 11 95 12 34 13
REMARK SMILES IDX 35 14 36 15 89 16 37 17 94 18 88 19 90 20 38 21 93 22 87 23
REMARK SMILES IDX 86 24 39 26 73 27 52 28 72 29 53 30 56 31 71 32 91 33 54 34
REMARK SMILES IDX 55 35 70 37 92 38 57 39 40 40 41 41 50 42 42 43 43 44 49 45
REMARK SMILES IDX 51 46 44 47 45 48 46 49 47 50 48 51 74 52 75 53 84 54 76 55
REMARK SMILES IDX 77 56 83 57 85 58 78 59 79 60 80 61 81 62 82 63 58 64 59 65
REMARK SMILES IDX 68 66 60 67 61 68 67 69 69 70 62 71 63 72 64 73 65 74 66 75
REMARK SMILES IDX 7 76 8 77 9 78 10 79 11 80 12 82 13 83 14 84 17 85 15 86
REMARK SMILES IDX 16 87 18 88 19 89 20 90 30 91 21 92 22 93 29 94 23 95 25 96
REMARK SMILES IDX 24 97 26 98 27 99 28 100
REMARK H PARENT 3 7 90 25 56 36 10 81
REMARK Flexibility Score: inf
ROOT
ATOM      1  C   UNL A   1      34.744  29.810  27.301  1.00  0.00     0.002 C 
ENDROOT
BRANCH   1   2
ATOM      2  C   UNL A   1      34.122  31.178  27.617  1.00  0.00     0.021 C 
BRANCH   2   3
ATOM      3  C   UNL A   1      35.124  32.238  28.028  1.00  0.00     0.116 C 
BRANCH   3   4
ATOM      4  N   UNL A   1      34.954  32.719  29.404  1.00  0.00    -0.352 N 
ATOM      5  O   UNL A   1      34.877  32.408  31.655  1.00  0.00    -0.269 OA
ATOM      6  C   UNL A   1      35.402  32.135  30.585  1.00  0.00     0.251 C 
ATOM      7  H   UNL A   1      34.460  33.564  29.504  1.00  0.00     0.163 HD
BRANCH   6   8
ATOM      8  C   UNL A   1      36.532  31.187  30.514  1.00  0.00     0.039 A 
ATOM      9  C   UNL A   1      36.396  29.806  30.375  1.00  0.00     0.014 A 
ATOM     10  C   UNL A   1      37.796  31.749  30.562  1.00  0.00     0.014 A 
ATOM     11  C   UNL A   1      37.566  29.047  30.308  1.00  0.00     0.010 A 
ATOM     12  C   UNL A   1      38.844  31.073  30.033  1.00  0.00     0.010 A 
ATOM     13  C   UNL A   1      38.797  29.711  30.163  1.00  0.00    -0.014 A 
BRANCH  13  14
ATOM     14  C   UNL A   1      40.083  29.040  30.118  1.00  0.00     0.031 A 
ATOM     15  C   UNL A   1      40.627  28.779  31.460  1.00  0.00     0.074 A 
ATOM     16  C   UNL A   1      40.644  28.551  28.984  1.00  0.00     0.049 A 
ATOM     17  N   UNL A   1      41.537  29.460  32.063  1.00  0.00    -0.248 NA
ATOM     18  C   UNL A   1      39.921  27.817  32.318  1.00  0.00     0.031 C 
ATOM     19  C   UNL A   1      40.092  28.455  27.623  1.00  0.00     0.029 A 
ATOM     20  N   UNL A   1      41.864  27.968  28.836  1.00  0.00    -0.354 N 
ATOM     21  C   UNL A   1      41.707  28.842  33.291  1.00  0.00     0.074 A 
ATOM     22  C   UNL A   1      40.547  28.010  33.481  1.00  0.00     0.031 C 
ATOM     23  C   UNL A   1      40.886  27.671  26.855  1.00  0.00     0.029 A 
ATOM     24  C   UNL A   1      42.084  27.353  27.604  1.00  0.00     0.049 A 
ATOM     25  H   UNL A   1      42.543  27.979  29.549  1.00  0.00     0.167 HD
ATOM     26  C   UNL A   1      42.915  28.871  33.913  1.00  0.00     0.037 A 
ATOM     27  C   UNL A   1      43.187  26.642  27.243  1.00  0.00     0.037 A 
ATOM     28  C   UNL A   1      43.774  29.871  33.317  1.00  0.00     0.049 A 
ATOM     29  C   UNL A   1      44.279  27.080  28.155  1.00  0.00     0.074 A 
ATOM     30  C   UNL A   1      43.696  31.243  33.167  1.00  0.00     0.029 A 
ATOM     31  N   UNL A   1      44.690  29.443  32.385  1.00  0.00    -0.354 N 
ATOM     32  N   UNL A   1      44.775  28.290  28.159  1.00  0.00    -0.248 NA
ATOM     33  C   UNL A   1      44.462  26.329  29.387  1.00  0.00     0.031 C 
ATOM     34  C   UNL A   1      44.201  31.503  31.858  1.00  0.00     0.029 A 
ATOM     35  C   UNL A   1      44.636  30.295  31.309  1.00  0.00     0.049 A 
ATOM     36  H   UNL A   1      45.284  28.663  32.475  1.00  0.00     0.167 HD
ATOM     37  C   UNL A   1      44.946  28.604  29.500  1.00  0.00     0.074 A 
ATOM     38  C   UNL A   1      44.795  27.331  30.206  1.00  0.00     0.031 C 
ATOM     39  C   UNL A   1      44.905  29.897  29.939  1.00  0.00     0.037 A 
BRANCH  26  40
ATOM     40  C   UNL A   1      43.443  27.760  34.784  1.00  0.00     0.058 A 
ATOM     41  C   UNL A   1      43.795  28.048  36.117  1.00  0.00     0.135 A 
ATOM     42  C   UNL A   1      43.867  26.501  34.300  1.00  0.00     0.135 A 
ATOM     43  F   UNL A   1      43.448  29.217  36.679  1.00  0.00    -0.206 F 
ATOM     44  C   UNL A   1      44.570  27.182  36.887  1.00  0.00     0.059 A 
ATOM     45  C   UNL A   1      44.593  25.601  35.068  1.00  0.00     0.059 A 
ATOM     46  F   UNL A   1      43.685  26.118  33.032  1.00  0.00    -0.206 F 
ATOM     47  C   UNL A   1      44.975  25.965  36.347  1.00  0.00     0.060 A 
BRANCH  47  48
ATOM     48  S   UNL A   1      46.053  24.891  37.303  1.00  0.00     0.124 S 
ATOM     49  O   UNL A   1      46.360  25.735  38.453  1.00  0.00    -0.237 OA
ATOM     50  O   UNL A   1      45.184  23.748  37.560  1.00  0.00    -0.237 OA
ATOM     51  O   UNL A   1      47.166  24.635  36.394  1.00  0.00    -0.744 OA
ENDBRANCH  47  48
ENDBRANCH  26  40
BRANCH  27  52
ATOM     52  C   UNL A   1      43.243  25.351  26.496  1.00  0.00     0.058 A 
ATOM     53  C   UNL A   1      44.056  25.206  25.354  1.00  0.00     0.135 A 
ATOM     54  C   UNL A   1      42.754  24.155  27.057  1.00  0.00     0.135 A 
ATOM     55  F   UNL A   1      44.576  26.289  24.755  1.00  0.00    -0.206 F 
ATOM     56  C   UNL A   1      44.420  23.952  24.843  1.00  0.00     0.059 A 
ATOM     57  C   UNL A   1      43.098  22.895  26.563  1.00  0.00     0.059 A 
ATOM     58  F   UNL A   1      41.999  24.170  28.166  1.00  0.00    -0.206 F 
ATOM     59  C   UNL A   1      43.957  22.799  25.475  1.00  0.00     0.060 A 
BRANCH  59  60
ATOM     60  S   UNL A   1      44.575  21.182  24.944  1.00  0.00     0.124 S 
ATOM     61  O   UNL A   1      45.850  21.098  25.647  1.00  0.00    -0.237 OA
ATOM     62  O   UNL A   1      43.526  20.282  25.413  1.00  0.00    -0.237 OA
ATOM     63  O   UNL A   1      44.672  21.317  23.491  1.00  0.00    -0.744 OA
ENDBRANCH  59  60
ENDBRANCH  27  52
BRANCH  39  64
ATOM     64  C   UNL A   1      44.948  31.005  28.910  1.00  0.00     0.058 A 
ATOM     65  C   UNL A   1      46.124  31.539  28.349  1.00  0.00     0.135 A 
ATOM     66  C   UNL A   1      43.732  31.431  28.355  1.00  0.00     0.135 A 
ATOM     67  F   UNL A   1      47.332  31.123  28.753  1.00  0.00    -0.206 F 
ATOM     68  C   UNL A   1      46.089  32.476  27.310  1.00  0.00     0.059 A 
ATOM     69  C   UNL A   1      43.674  32.339  27.300  1.00  0.00     0.059 A 
ATOM     70  F   UNL A   1      42.575  30.921  28.804  1.00  0.00    -0.206 F 
ATOM     71  C   UNL A   1      44.857  32.866  26.788  1.00  0.00     0.060 A 
BRANCH  71  72
ATOM     72  S   UNL A   1      44.808  34.027  25.403  1.00  0.00     0.124 S 
ATOM     73  O   UNL A   1      44.207  33.222  24.345  1.00  0.00    -0.237 OA
ATOM     74  O   UNL A   1      43.977  35.108  25.926  1.00  0.00    -0.237 OA
ATOM     75  O   UNL A   1      46.212  34.375  25.198  1.00  0.00    -0.744 OA
ENDBRANCH  71  72
ENDBRANCH  39  64
ENDBRANCH  13  14
ENDBRANCH   6   8
ENDBRANCH   3   4
ENDBRANCH   2   3
ENDBRANCH   1   2
BRANCH   1  76
ATOM     76  C   UNL A   1      33.839  28.737  26.671  1.00  0.00     0.002 C 
BRANCH  76  77
ATOM     77  C   UNL A   1      33.159  29.087  25.345  1.00  0.00     0.021 C 
BRANCH  77  78
ATOM     78  C   UNL A   1      33.398  28.096  24.217  1.00  0.00     0.116 C 
BRANCH  78  79
ATOM     79  N   UNL A   1      32.394  28.160  23.172  1.00  0.00    -0.349 N 
ATOM     80  C   UNL A   1      31.296  27.348  22.973  1.00  0.00     0.287 C 
ATOM     81  H   UNL A   1      32.511  28.884  22.514  1.00  0.00     0.163 HD
ATOM     82  O   UNL A   1      30.633  27.517  21.959  1.00  0.00    -0.266 OA
BRANCH  80  83
ATOM     83  C   UNL A   1      31.002  26.346  23.977  1.00  0.00     0.196 A 
ATOM     84  O   UNL A   1      30.315  26.766  25.082  1.00  0.00    -0.459 OA
ATOM     85  C   UNL A   1      31.248  24.978  24.054  1.00  0.00     0.023 A 
ATOM     86  C   UNL A   1      30.037  25.671  25.826  1.00  0.00     0.196 A 
ATOM     87  C   UNL A   1      30.571  24.552  25.240  1.00  0.00     0.048 A 
BRANCH  85  88
ATOM     88  C   UNL A   1      31.982  24.139  23.056  1.00  0.00     0.162 C 
BRANCH  88  89
ATOM     89  N   UNL A   1      33.273  23.662  23.546  1.00  0.00    -0.343 N 
ATOM     90  C   UNL A   1      34.375  24.462  23.727  1.00  0.00     0.087 A 
ATOM     91  C   UNL A   1      33.592  22.351  23.835  1.00  0.00     0.055 A 
ATOM     92  C   UNL A   1      35.385  23.681  24.239  1.00  0.00     0.028 A 
ATOM     93  C   UNL A   1      34.889  22.354  24.353  1.00  0.00     0.000 A 
ATOM     94  C   UNL A   1      32.835  21.175  23.723  1.00  0.00     0.112 A 
ATOM     95  C   UNL A   1      35.433  21.149  24.844  1.00  0.00     0.017 A 
ATOM     96  C   UNL A   1      33.373  20.005  24.274  1.00  0.00     0.271 A 
ATOM     97  C   UNL A   1      34.656  19.983  24.828  1.00  0.00     0.086 A 
BRANCH  96  98
ATOM     98  N   UNL A   1      32.544  18.792  24.307  1.00  0.00     0.062 N 
ATOM     99  O   UNL A   1      32.434  18.142  23.257  1.00  0.00    -0.258 OA
ATOM    100  O   UNL A   1      31.992  18.499  25.378  1.00  0.00    -0.258 OA
ENDBRANCH  96  98
ENDBRANCH  88  89
ENDBRANCH  85  88
ENDBRANCH  80  83
ENDBRANCH  78  79
ENDBRANCH  77  78
ENDBRANCH  76  77
ENDBRANCH   1  76
TORSDOF 19
ENDMDL
