MODEL 1
REMARK VINA RESULT:     -11.3      0.000      0.000
REMARK SMILES Cc1noc(C)c1COc1ccc(C(=O)NCCCCCCNC(=O)c2ccc(-c3c4nc(c(-c5c(F)cc(S(=O)(=O)[O-])cc5F)c5ccc([nH]5)c(-c5c(F)cc(S(=O)(=O)[O-])cc5F)c5nc(c(-c6c(F)cc(S(=O)(=O)[O-])cc6F)c6ccc3[nH]6)C=C5)C=C4)cc2)cc1
REMARK SMILES IDX 19 1 18 2 17 3 16 4 14 5 15 6 13 8 10 9 11 10 93 11 12 12
REMARK SMILES IDX 92 13 9 14 8 15 7 16 1 17 2 18 3 19 4 20 5 21 6 22 20 23
REMARK SMILES IDX 21 24 22 25 23 26 24 27 25 29 26 30 27 31 91 32 28 33 90 34
REMARK SMILES IDX 29 35 30 36 31 37 84 38 32 39 89 40 83 41 85 42 33 43 88 44
REMARK SMILES IDX 82 45 81 46 34 48 68 49 47 50 67 51 48 52 51 53 66 54 86 55
REMARK SMILES IDX 49 56 50 57 65 59 87 60 52 61 35 62 36 63 45 64 37 65 38 66
REMARK SMILES IDX 44 67 46 68 39 69 40 70 41 71 42 72 43 73 69 74 70 75 79 76
REMARK SMILES IDX 71 77 72 78 78 79 80 80 73 81 74 82 75 83 76 84 77 85 53 86
REMARK SMILES IDX 54 87 63 88 55 89 56 90 62 91 64 92 57 93 58 94 59 95 60 96
REMARK SMILES IDX 61 97
REMARK H PARENT 16 7 23 28 85 47 51 58
REMARK Flexibility Score: inf
ROOT
ATOM      1  C   UNL A   1      38.691  22.287  26.125  1.00  0.00     0.002 C 
ENDROOT
BRANCH   1   2
ATOM      2  C   UNL A   1      37.775  21.369  25.306  1.00  0.00     0.021 C 
BRANCH   2   3
ATOM      3  C   UNL A   1      36.289  21.528  25.635  1.00  0.00     0.116 C 
BRANCH   3   4
ATOM      4  N   UNL A   1      35.549  20.329  25.278  1.00  0.00    -0.352 N 
ATOM      5  C   UNL A   1      34.255  20.161  24.849  1.00  0.00     0.251 C 
ATOM      6  O   UNL A   1      33.883  19.041  24.505  1.00  0.00    -0.269 OA
ATOM      7  H   UNL A   1      36.063  19.493  25.356  1.00  0.00     0.163 HD
BRANCH   5   8
ATOM      8  C   UNL A   1      33.313  21.302  24.738  1.00  0.00     0.040 A 
ATOM      9  C   UNL A   1      31.463  23.392  24.647  1.00  0.00     0.119 A 
ATOM     10  C   UNL A   1      31.918  22.933  25.880  1.00  0.00     0.047 A 
ATOM     11  C   UNL A   1      31.995  22.881  23.466  1.00  0.00     0.047 A 
ATOM     12  C   UNL A   1      32.840  21.884  25.924  1.00  0.00     0.017 A 
ATOM     13  C   UNL A   1      32.926  21.845  23.511  1.00  0.00     0.017 A 
BRANCH   9  14
ATOM     14  O   UNL A   1      30.554  24.414  24.600  1.00  0.00    -0.489 OA
BRANCH  14  15
ATOM     15  C   UNL A   1      30.841  25.329  23.522  1.00  0.00     0.271 C 
BRANCH  15  16
ATOM     16  C   UNL A   1      31.223  26.695  23.972  1.00  0.00     0.055 A 
ATOM     17  C   UNL A   1      29.204  28.138  23.131  1.00  0.00     0.071 C 
ATOM     18  C   UNL A   1      30.509  27.914  23.797  1.00  0.00     0.087 A 
ATOM     19  N   UNL A   1      31.151  28.941  24.366  1.00  0.00    -0.085 NA
ATOM     20  O   UNL A   1      32.301  28.412  24.915  1.00  0.00    -0.361 OA
ATOM     21  C   UNL A   1      32.342  27.074  24.683  1.00  0.00     0.140 A 
ATOM     22  C   UNL A   1      33.514  26.359  25.222  1.00  0.00     0.091 C 
ENDBRANCH  15  16
ENDBRANCH  14  15
ENDBRANCH   9  14
ENDBRANCH   5   8
ENDBRANCH   3   4
ENDBRANCH   2   3
ENDBRANCH   1   2
BRANCH   1  23
ATOM     23  C   UNL A   1      40.141  21.808  26.252  1.00  0.00     0.002 C 
BRANCH  23  24
ATOM     24  C   UNL A   1      40.800  22.068  27.612  1.00  0.00     0.021 C 
BRANCH  24  25
ATOM     25  C   UNL A   1      41.908  23.120  27.598  1.00  0.00     0.116 C 
BRANCH  25  26
ATOM     26  N   UNL A   1      41.897  23.895  26.369  1.00  0.00    -0.352 N 
ATOM     27  C   UNL A   1      41.498  25.190  26.152  1.00  0.00     0.251 C 
ATOM     28  H   UNL A   1      42.225  23.420  25.573  1.00  0.00     0.163 HD
ATOM     29  O   UNL A   1      41.349  25.587  25.000  1.00  0.00    -0.269 OA
BRANCH  27  30
ATOM     30  C   UNL A   1      41.246  26.106  27.288  1.00  0.00     0.039 A 
ATOM     31  C   UNL A   1      42.145  27.150  27.519  1.00  0.00     0.014 A 
ATOM     32  C   UNL A   1      40.171  25.906  28.161  1.00  0.00     0.014 A 
ATOM     33  C   UNL A   1      41.954  28.007  28.606  1.00  0.00     0.010 A 
ATOM     34  C   UNL A   1      39.944  26.801  29.207  1.00  0.00     0.010 A 
ATOM     35  C   UNL A   1      40.844  27.847  29.452  1.00  0.00    -0.014 A 
BRANCH  35  36
ATOM     36  C   UNL A   1      40.639  28.755  30.610  1.00  0.00     0.031 A 
ATOM     37  C   UNL A   1      41.477  28.603  31.852  1.00  0.00     0.074 A 
ATOM     38  C   UNL A   1      39.681  29.701  30.553  1.00  0.00     0.049 A 
ATOM     39  N   UNL A   1      41.449  29.301  32.958  1.00  0.00    -0.248 NA
ATOM     40  C   UNL A   1      42.460  27.506  31.863  1.00  0.00     0.031 C 
ATOM     41  C   UNL A   1      38.765  29.910  29.430  1.00  0.00     0.029 A 
ATOM     42  N   UNL A   1      39.317  30.663  31.461  1.00  0.00    -0.354 N 
ATOM     43  C   UNL A   1      42.396  28.725  33.797  1.00  0.00     0.074 A 
ATOM     44  C   UNL A   1      42.945  27.586  33.093  1.00  0.00     0.031 C 
ATOM     45  C   UNL A   1      37.962  30.951  29.705  1.00  0.00     0.029 A 
ATOM     46  C   UNL A   1      38.289  31.469  31.030  1.00  0.00     0.049 A 
ATOM     47  H   UNL A   1      39.751  30.767  32.339  1.00  0.00     0.167 HD
ATOM     48  C   UNL A   1      42.791  29.121  35.031  1.00  0.00     0.037 A 
ATOM     49  C   UNL A   1      37.684  32.510  31.631  1.00  0.00     0.037 A 
ATOM     50  C   UNL A   1      42.264  30.274  35.714  1.00  0.00     0.049 A 
ATOM     51  C   UNL A   1      38.165  32.954  32.986  1.00  0.00     0.074 A 
ATOM     52  C   UNL A   1      42.644  30.799  36.938  1.00  0.00     0.029 A 
ATOM     53  N   UNL A   1      41.245  31.082  35.233  1.00  0.00    -0.354 N 
ATOM     54  N   UNL A   1      39.113  32.440  33.734  1.00  0.00    -0.248 NA
ATOM     55  C   UNL A   1      37.503  34.127  33.574  1.00  0.00     0.031 C 
ATOM     56  C   UNL A   1      41.831  31.906  37.212  1.00  0.00     0.029 A 
ATOM     57  C   UNL A   1      40.972  32.093  36.141  1.00  0.00     0.049 A 
ATOM     58  H   UNL A   1      40.783  30.956  34.373  1.00  0.00     0.167 HD
ATOM     59  C   UNL A   1      39.174  33.238  34.870  1.00  0.00     0.074 A 
ATOM     60  C   UNL A   1      38.182  34.281  34.702  1.00  0.00     0.031 C 
ATOM     61  C   UNL A   1      39.977  33.120  35.957  1.00  0.00     0.037 A 
BRANCH  48  62
ATOM     62  C   UNL A   1      43.855  28.308  35.717  1.00  0.00     0.058 A 
ATOM     63  C   UNL A   1      45.221  28.558  35.508  1.00  0.00     0.135 A 
ATOM     64  C   UNL A   1      43.506  27.289  36.618  1.00  0.00     0.135 A 
ATOM     65  F   UNL A   1      45.609  29.510  34.646  1.00  0.00    -0.206 F 
ATOM     66  C   UNL A   1      46.204  27.807  36.144  1.00  0.00     0.059 A 
ATOM     67  C   UNL A   1      44.474  26.542  37.285  1.00  0.00     0.059 A 
ATOM     68  F   UNL A   1      42.216  27.008  36.855  1.00  0.00    -0.206 F 
ATOM     69  C   UNL A   1      45.821  26.799  37.031  1.00  0.00     0.060 A 
BRANCH  69  70
ATOM     70  S   UNL A   1      47.108  25.837  37.853  1.00  0.00     0.124 S 
ATOM     71  O   UNL A   1      48.151  25.815  36.832  1.00  0.00    -0.237 OA
ATOM     72  O   UNL A   1      47.396  26.644  39.034  1.00  0.00    -0.237 OA
ATOM     73  O   UNL A   1      46.460  24.557  38.116  1.00  0.00    -0.744 OA
ENDBRANCH  69  70
ENDBRANCH  48  62
BRANCH  49  74
ATOM     74  C   UNL A   1      36.582  33.228  30.941  1.00  0.00     0.058 A 
ATOM     75  C   UNL A   1      36.835  34.043  29.828  1.00  0.00     0.135 A 
ATOM     76  C   UNL A   1      35.252  33.107  31.373  1.00  0.00     0.135 A 
ATOM     77  F   UNL A   1      38.091  34.194  29.381  1.00  0.00    -0.206 F 
ATOM     78  C   UNL A   1      35.814  34.728  29.177  1.00  0.00     0.059 A 
ATOM     79  C   UNL A   1      34.210  33.763  30.725  1.00  0.00     0.059 A 
ATOM     80  F   UNL A   1      34.955  32.325  32.423  1.00  0.00    -0.206 F 
ATOM     81  C   UNL A   1      34.503  34.581  29.634  1.00  0.00     0.060 A 
BRANCH  81  82
ATOM     82  S   UNL A   1      33.177  35.435  28.756  1.00  0.00     0.124 S 
ATOM     83  O   UNL A   1      32.398  35.984  29.860  1.00  0.00    -0.237 OA
ATOM     84  O   UNL A   1      33.914  36.405  27.951  1.00  0.00    -0.237 OA
ATOM     85  O   UNL A   1      32.534  34.366  27.998  1.00  0.00    -0.744 OA
ENDBRANCH  81  82
ENDBRANCH  49  74
BRANCH  61  86
ATOM     86  C   UNL A   1      39.825  34.156  37.036  1.00  0.00     0.058 A 
ATOM     87  C   UNL A   1      38.998  33.941  38.150  1.00  0.00     0.135 A 
ATOM     88  C   UNL A   1      40.529  35.368  36.965  1.00  0.00     0.135 A 
ATOM     89  F   UNL A   1      38.299  32.800  38.263  1.00  0.00    -0.206 F 
ATOM     90  C   UNL A   1      38.846  34.908  39.138  1.00  0.00     0.059 A 
ATOM     91  C   UNL A   1      40.413  36.338  37.956  1.00  0.00     0.059 A 
ATOM     92  F   UNL A   1      41.344  35.618  35.928  1.00  0.00    -0.206 F 
ATOM     93  C   UNL A   1      39.554  36.106  39.029  1.00  0.00     0.060 A 
BRANCH  93  94
ATOM     94  S   UNL A   1      39.353  37.354  40.319  1.00  0.00     0.124 S 
ATOM     95  O   UNL A   1      38.725  36.577  41.382  1.00  0.00    -0.237 OA
ATOM     96  O   UNL A   1      40.730  37.773  40.568  1.00  0.00    -0.237 OA
ATOM     97  O   UNL A   1      38.504  38.359  39.688  1.00  0.00    -0.744 OA
ENDBRANCH  93  94
ENDBRANCH  61  86
ENDBRANCH  35  36
ENDBRANCH  27  30
ENDBRANCH  25  26
ENDBRANCH  24  25
ENDBRANCH  23  24
ENDBRANCH   1  23
TORSDOF 19
ENDMDL
MODEL 2
REMARK VINA RESULT:     -11.2      6.468     12.237
REMARK SMILES Cc1noc(C)c1COc1ccc(C(=O)NCCCCCCNC(=O)c2ccc(-c3c4nc(c(-c5c(F)cc(S(=O)(=O)[O-])cc5F)c5ccc([nH]5)c(-c5c(F)cc(S(=O)(=O)[O-])cc5F)c5nc(c(-c6c(F)cc(S(=O)(=O)[O-])cc6F)c6ccc3[nH]6)C=C5)C=C4)cc2)cc1
REMARK SMILES IDX 19 1 18 2 17 3 16 4 14 5 15 6 13 8 10 9 11 10 93 11 12 12
REMARK SMILES IDX 92 13 9 14 8 15 7 16 1 17 2 18 3 19 4 20 5 21 6 22 20 23
REMARK SMILES IDX 21 24 22 25 23 26 24 27 25 29 26 30 27 31 91 32 28 33 90 34
REMARK SMILES IDX 29 35 30 36 31 37 84 38 32 39 89 40 83 41 85 42 33 43 88 44
REMARK SMILES IDX 82 45 81 46 34 48 68 49 47 50 67 51 48 52 51 53 66 54 86 55
REMARK SMILES IDX 49 56 50 57 65 59 87 60 52 61 35 62 36 63 45 64 37 65 38 66
REMARK SMILES IDX 44 67 46 68 39 69 40 70 41 71 42 72 43 73 69 74 70 75 79 76
REMARK SMILES IDX 71 77 72 78 78 79 80 80 73 81 74 82 75 83 76 84 77 85 53 86
REMARK SMILES IDX 54 87 63 88 55 89 56 90 62 91 64 92 57 93 58 94 59 95 60 96
REMARK SMILES IDX 61 97
REMARK H PARENT 16 7 23 28 85 47 51 58
REMARK Flexibility Score: inf
ROOT
ATOM      1  C   UNL A   1      33.037  28.604  27.339  1.00  0.00     0.002 C 
ENDROOT
BRANCH   1   2
ATOM      2  C   UNL A   1      31.857  29.134  26.515  1.00  0.00     0.021 C 
BRANCH   2   3
ATOM      3  C   UNL A   1      32.244  29.591  25.106  1.00  0.00     0.116 C 
BRANCH   3   4
ATOM      4  N   UNL A   1      31.061  29.876  24.311  1.00  0.00    -0.352 N 
ATOM      5  C   UNL A   1      30.248  29.052  23.572  1.00  0.00     0.251 C 
ATOM      6  O   UNL A   1      29.232  29.519  23.063  1.00  0.00    -0.269 OA
ATOM      7  H   UNL A   1      30.795  30.825  24.300  1.00  0.00     0.163 HD
BRANCH   5   8
ATOM      8  C   UNL A   1      30.535  27.604  23.418  1.00  0.00     0.040 A 
ATOM      9  C   UNL A   1      31.077  24.869  23.281  1.00  0.00     0.119 A 
ATOM     10  C   UNL A   1      30.181  25.341  24.234  1.00  0.00     0.047 A 
ATOM     11  C   UNL A   1      31.628  25.735  22.339  1.00  0.00     0.047 A 
ATOM     12  C   UNL A   1      29.914  26.711  24.305  1.00  0.00     0.017 A 
ATOM     13  C   UNL A   1      31.349  27.099  22.402  1.00  0.00     0.017 A 
BRANCH   9  14
ATOM     14  O   UNL A   1      31.348  23.528  23.213  1.00  0.00    -0.489 OA
BRANCH  14  15
ATOM     15  C   UNL A   1      31.270  22.906  24.512  1.00  0.00     0.271 C 
BRANCH  15  16
ATOM     16  C   UNL A   1      32.590  22.509  25.074  1.00  0.00     0.055 A 
ATOM     17  C   UNL A   1      33.594  24.815  25.808  1.00  0.00     0.071 C 
ATOM     18  C   UNL A   1      33.599  23.343  25.634  1.00  0.00     0.087 A 
ATOM     19  N   UNL A   1      34.641  22.625  26.066  1.00  0.00    -0.085 NA
ATOM     20  O   UNL A   1      34.336  21.309  25.788  1.00  0.00    -0.361 OA
ATOM     21  C   UNL A   1      33.113  21.239  25.199  1.00  0.00     0.140 A 
ATOM     22  C   UNL A   1      32.638  19.888  24.849  1.00  0.00     0.091 C 
ENDBRANCH  15  16
ENDBRANCH  14  15
ENDBRANCH   9  14
ENDBRANCH   5   8
ENDBRANCH   3   4
ENDBRANCH   2   3
ENDBRANCH   1   2
BRANCH   1  23
ATOM     23  C   UNL A   1      34.374  29.306  27.081  1.00  0.00     0.002 C 
BRANCH  23  24
ATOM     24  C   UNL A   1      34.431  30.779  27.501  1.00  0.00     0.021 C 
BRANCH  24  25
ATOM     25  C   UNL A   1      35.706  31.188  28.236  1.00  0.00     0.116 C 
BRANCH  25  26
ATOM     26  N   UNL A   1      35.606  30.937  29.665  1.00  0.00    -0.352 N 
ATOM     27  C   UNL A   1      36.472  30.281  30.503  1.00  0.00     0.251 C 
ATOM     28  H   UNL A   1      34.796  31.291  30.095  1.00  0.00     0.163 HD
ATOM     29  O   UNL A   1      36.099  29.973  31.631  1.00  0.00    -0.269 OA
BRANCH  27  30
ATOM     30  C   UNL A   1      37.844  29.941  30.060  1.00  0.00     0.039 A 
ATOM     31  C   UNL A   1      38.094  29.823  28.690  1.00  0.00     0.014 A 
ATOM     32  C   UNL A   1      38.864  29.678  30.980  1.00  0.00     0.014 A 
ATOM     33  C   UNL A   1      39.369  29.467  28.243  1.00  0.00     0.010 A 
ATOM     34  C   UNL A   1      40.152  29.386  30.531  1.00  0.00     0.010 A 
ATOM     35  C   UNL A   1      40.413  29.258  29.160  1.00  0.00    -0.014 A 
BRANCH  35  36
ATOM     36  C   UNL A   1      41.769  28.876  28.688  1.00  0.00     0.031 A 
ATOM     37  C   UNL A   1      42.871  29.901  28.636  1.00  0.00     0.074 A 
ATOM     38  C   UNL A   1      42.002  27.612  28.284  1.00  0.00     0.049 A 
ATOM     39  N   UNL A   1      44.117  29.755  28.261  1.00  0.00    -0.248 NA
ATOM     40  C   UNL A   1      42.524  31.275  29.034  1.00  0.00     0.031 C 
ATOM     41  C   UNL A   1      41.001  26.544  28.231  1.00  0.00     0.029 A 
ATOM     42  N   UNL A   1      43.151  27.011  27.839  1.00  0.00    -0.354 N 
ATOM     43  C   UNL A   1      44.696  31.015  28.366  1.00  0.00     0.074 A 
ATOM     44  C   UNL A   1      43.653  31.924  28.790  1.00  0.00     0.031 C 
ATOM     45  C   UNL A   1      41.587  25.413  27.804  1.00  0.00     0.029 A 
ATOM     46  C   UNL A   1      42.996  25.680  27.531  1.00  0.00     0.049 A 
ATOM     47  H   UNL A   1      44.008  27.488  27.748  1.00  0.00     0.167 HD
ATOM     48  C   UNL A   1      45.984  31.378  28.154  1.00  0.00     0.037 A 
ATOM     49  C   UNL A   1      43.889  24.776  27.087  1.00  0.00     0.037 A 
ATOM     50  C   UNL A   1      47.025  30.463  27.763  1.00  0.00     0.049 A 
ATOM     51  C   UNL A   1      45.321  25.194  26.893  1.00  0.00     0.074 A 
ATOM     52  C   UNL A   1      48.375  30.717  27.588  1.00  0.00     0.029 A 
ATOM     53  N   UNL A   1      46.835  29.117  27.490  1.00  0.00    -0.354 N 
ATOM     54  N   UNL A   1      45.866  26.375  27.068  1.00  0.00    -0.248 NA
ATOM     55  C   UNL A   1      46.262  24.155  26.454  1.00  0.00     0.031 C 
ATOM     56  C   UNL A   1      48.995  29.532  27.175  1.00  0.00     0.029 A 
ATOM     57  C   UNL A   1      48.038  28.531  27.132  1.00  0.00     0.049 A 
ATOM     58  H   UNL A   1      45.971  28.647  27.542  1.00  0.00     0.167 HD
ATOM     59  C   UNL A   1      47.216  26.216  26.779  1.00  0.00     0.074 A 
ATOM     60  C   UNL A   1      47.408  24.820  26.439  1.00  0.00     0.031 C 
ATOM     61  C   UNL A   1      48.209  27.140  26.793  1.00  0.00     0.037 A 
BRANCH  48  62
ATOM     62  C   UNL A   1      46.342  32.826  28.352  1.00  0.00     0.058 A 
ATOM     63  C   UNL A   1      46.157  33.775  27.334  1.00  0.00     0.135 A 
ATOM     64  C   UNL A   1      46.844  33.276  29.584  1.00  0.00     0.135 A 
ATOM     65  F   UNL A   1      45.694  33.396  26.133  1.00  0.00    -0.206 F 
ATOM     66  C   UNL A   1      46.486  35.115  27.519  1.00  0.00     0.059 A 
ATOM     67  C   UNL A   1      47.155  34.617  29.799  1.00  0.00     0.059 A 
ATOM     68  F   UNL A   1      47.040  32.412  30.591  1.00  0.00    -0.206 F 
ATOM     69  C   UNL A   1      46.986  35.526  28.756  1.00  0.00     0.060 A 
BRANCH  69  70
ATOM     70  S   UNL A   1      47.403  37.268  28.982  1.00  0.00     0.124 S 
ATOM     71  O   UNL A   1      46.831  37.535  30.299  1.00  0.00    -0.237 OA
ATOM     72  O   UNL A   1      48.861  37.253  28.918  1.00  0.00    -0.237 OA
ATOM     73  O   UNL A   1      46.736  37.925  27.863  1.00  0.00    -0.744 OA
ENDBRANCH  69  70
ENDBRANCH  48  62
BRANCH  49  74
ATOM     74  C   UNL A   1      43.462  23.376  26.828  1.00  0.00     0.058 A 
ATOM     75  C   UNL A   1      43.181  22.500  27.886  1.00  0.00     0.135 A 
ATOM     76  C   UNL A   1      43.318  22.889  25.520  1.00  0.00     0.135 A 
ATOM     77  F   UNL A   1      43.309  22.918  29.155  1.00  0.00    -0.206 F 
ATOM     78  C   UNL A   1      42.789  21.184  27.660  1.00  0.00     0.059 A 
ATOM     79  C   UNL A   1      42.904  21.584  25.267  1.00  0.00     0.059 A 
ATOM     80  F   UNL A   1      43.557  23.694  24.473  1.00  0.00    -0.206 F 
ATOM     81  C   UNL A   1      42.653  20.736  26.344  1.00  0.00     0.060 A 
BRANCH  81  82
ATOM     82  S   UNL A   1      42.099  19.042  26.057  1.00  0.00     0.124 S 
ATOM     83  O   UNL A   1      42.483  18.391  27.304  1.00  0.00    -0.237 OA
ATOM     84  O   UNL A   1      40.665  19.217  25.845  1.00  0.00    -0.237 OA
ATOM     85  O   UNL A   1      42.853  18.639  24.874  1.00  0.00    -0.744 OA
ENDBRANCH  81  82
ENDBRANCH  49  74
BRANCH  61  86
ATOM     86  C   UNL A   1      49.592  26.663  26.447  1.00  0.00     0.058 A 
ATOM     87  C   UNL A   1      50.100  26.765  25.143  1.00  0.00     0.135 A 
ATOM     88  C   UNL A   1      50.426  26.116  27.435  1.00  0.00     0.135 A 
ATOM     89  F   UNL A   1      49.342  27.277  24.160  1.00  0.00    -0.206 F 
ATOM     90  C   UNL A   1      51.374  26.308  24.821  1.00  0.00     0.059 A 
ATOM     91  C   UNL A   1      51.713  25.677  27.143  1.00  0.00     0.059 A 
ATOM     92  F   UNL A   1      49.994  26.008  28.701  1.00  0.00    -0.206 F 
ATOM     93  C   UNL A   1      52.171  25.760  25.828  1.00  0.00     0.060 A 
BRANCH  93  94
ATOM     94  S   UNL A   1      53.825  25.172  25.404  1.00  0.00     0.124 S 
ATOM     95  O   UNL A   1      53.619  23.729  25.356  1.00  0.00    -0.237 OA
ATOM     96  O   UNL A   1      54.069  25.821  24.118  1.00  0.00    -0.237 OA
ATOM     97  O   UNL A   1      54.649  25.654  26.507  1.00  0.00    -0.744 OA
ENDBRANCH  93  94
ENDBRANCH  61  86
ENDBRANCH  35  36
ENDBRANCH  27  30
ENDBRANCH  25  26
ENDBRANCH  24  25
ENDBRANCH  23  24
ENDBRANCH   1  23
TORSDOF 19
ENDMDL
MODEL 3
REMARK VINA RESULT:     -11.0      4.330      7.374
REMARK SMILES Cc1noc(C)c1COc1ccc(C(=O)NCCCCCCNC(=O)c2ccc(-c3c4nc(c(-c5c(F)cc(S(=O)(=O)[O-])cc5F)c5ccc([nH]5)c(-c5c(F)cc(S(=O)(=O)[O-])cc5F)c5nc(c(-c6c(F)cc(S(=O)(=O)[O-])cc6F)c6ccc3[nH]6)C=C5)C=C4)cc2)cc1
REMARK SMILES IDX 19 1 18 2 17 3 16 4 14 5 15 6 13 8 10 9 11 10 93 11 12 12
REMARK SMILES IDX 92 13 9 14 8 15 7 16 1 17 2 18 3 19 4 20 5 21 6 22 20 23
REMARK SMILES IDX 21 24 22 25 23 26 24 27 25 29 26 30 27 31 91 32 28 33 90 34
REMARK SMILES IDX 29 35 30 36 31 37 84 38 32 39 89 40 83 41 85 42 33 43 88 44
REMARK SMILES IDX 82 45 81 46 34 48 68 49 47 50 67 51 48 52 51 53 66 54 86 55
REMARK SMILES IDX 49 56 50 57 65 59 87 60 52 61 35 62 36 63 45 64 37 65 38 66
REMARK SMILES IDX 44 67 46 68 39 69 40 70 41 71 42 72 43 73 69 74 70 75 79 76
REMARK SMILES IDX 71 77 72 78 78 79 80 80 73 81 74 82 75 83 76 84 77 85 53 86
REMARK SMILES IDX 54 87 63 88 55 89 56 90 62 91 64 92 57 93 58 94 59 95 60 96
REMARK SMILES IDX 61 97
REMARK H PARENT 16 7 23 28 85 47 51 58
REMARK Flexibility Score: inf
ROOT
ATOM      1  C   UNL A   1      44.364  22.994  27.117  1.00  0.00     0.002 C 
ENDROOT
BRANCH   1   2
ATOM      2  C   UNL A   1      43.693  24.362  27.290  1.00  0.00     0.021 C 
BRANCH   2   3
ATOM      3  C   UNL A   1      44.470  25.515  26.651  1.00  0.00     0.116 C 
BRANCH   3   4
ATOM      4  N   UNL A   1      43.715  26.106  25.557  1.00  0.00    -0.352 N 
ATOM      5  C   UNL A   1      43.310  27.399  25.334  1.00  0.00     0.251 C 
ATOM      6  O   UNL A   1      42.763  27.675  24.268  1.00  0.00    -0.269 OA
ATOM      7  H   UNL A   1      43.448  25.469  24.855  1.00  0.00     0.163 HD
BRANCH   5   8
ATOM      8  C   UNL A   1      43.564  28.479  26.319  1.00  0.00     0.040 A 
ATOM      9  C   UNL A   1      44.127  30.414  28.251  1.00  0.00     0.119 A 
ATOM     10  C   UNL A   1      45.137  29.557  27.827  1.00  0.00     0.047 A 
ATOM     11  C   UNL A   1      42.871  30.375  27.652  1.00  0.00     0.047 A 
ATOM     12  C   UNL A   1      44.853  28.585  26.863  1.00  0.00     0.017 A 
ATOM     13  C   UNL A   1      42.593  29.416  26.680  1.00  0.00     0.017 A 
BRANCH   9  14
ATOM     14  O   UNL A   1      44.399  31.362  29.201  1.00  0.00    -0.489 OA
BRANCH  14  15
ATOM     15  C   UNL A   1      43.379  32.381  29.240  1.00  0.00     0.271 C 
BRANCH  15  16
ATOM     16  C   UNL A   1      43.851  33.728  28.817  1.00  0.00     0.055 A 
ATOM     17  C   UNL A   1      41.667  35.163  29.005  1.00  0.00     0.071 C 
ATOM     18  C   UNL A   1      43.103  34.934  28.714  1.00  0.00     0.087 A 
ATOM     19  N   UNL A   1      43.876  35.955  28.328  1.00  0.00    -0.085 NA
ATOM     20  O   UNL A   1      45.142  35.433  28.165  1.00  0.00    -0.361 OA
ATOM     21  C   UNL A   1      45.128  34.107  28.458  1.00  0.00     0.140 A 
ATOM     22  C   UNL A   1      46.419  33.403  28.340  1.00  0.00     0.091 C 
ENDBRANCH  15  16
ENDBRANCH  14  15
ENDBRANCH   9  14
ENDBRANCH   5   8
ENDBRANCH   3   4
ENDBRANCH   2   3
ENDBRANCH   1   2
BRANCH   1  23
ATOM     23  C   UNL A   1      43.569  21.984  26.283  1.00  0.00     0.002 C 
BRANCH  23  24
ATOM     24  C   UNL A   1      42.218  22.485  25.761  1.00  0.00     0.021 C 
BRANCH  24  25
ATOM     25  C   UNL A   1      41.000  21.942  26.505  1.00  0.00     0.116 C 
BRANCH  25  26
ATOM     26  N   UNL A   1      39.762  22.259  25.813  1.00  0.00    -0.352 N 
ATOM     27  C   UNL A   1      38.886  23.296  26.011  1.00  0.00     0.251 C 
ATOM     28  H   UNL A   1      39.515  21.635  25.093  1.00  0.00     0.163 HD
ATOM     29  O   UNL A   1      37.781  23.259  25.479  1.00  0.00    -0.269 OA
BRANCH  27  30
ATOM     30  C   UNL A   1      39.261  24.451  26.859  1.00  0.00     0.039 A 
ATOM     31  C   UNL A   1      40.035  25.470  26.298  1.00  0.00     0.014 A 
ATOM     32  C   UNL A   1      38.911  24.507  28.212  1.00  0.00     0.014 A 
ATOM     33  C   UNL A   1      40.435  26.554  27.083  1.00  0.00     0.010 A 
ATOM     34  C   UNL A   1      39.256  25.620  28.978  1.00  0.00     0.010 A 
ATOM     35  C   UNL A   1      40.038  26.645  28.428  1.00  0.00    -0.014 A 
BRANCH  35  36
ATOM     36  C   UNL A   1      40.464  27.794  29.267  1.00  0.00     0.031 A 
ATOM     37  C   UNL A   1      41.807  27.780  29.948  1.00  0.00     0.074 A 
ATOM     38  C   UNL A   1      39.632  28.841  29.435  1.00  0.00     0.049 A 
ATOM     39  N   UNL A   1      42.355  28.691  30.713  1.00  0.00    -0.248 NA
ATOM     40  C   UNL A   1      42.634  26.575  29.768  1.00  0.00     0.031 C 
ATOM     41  C   UNL A   1      38.282  28.945  28.876  1.00  0.00     0.029 A 
ATOM     42  N   UNL A   1      39.796  30.014  30.126  1.00  0.00    -0.354 N 
ATOM     43  C   UNL A   1      43.579  28.166  31.112  1.00  0.00     0.074 A 
ATOM     44  C   UNL A   1      43.672  26.837  30.549  1.00  0.00     0.031 C 
ATOM     45  C   UNL A   1      37.753  30.130  29.225  1.00  0.00     0.029 A 
ATOM     46  C   UNL A   1      38.713  30.857  30.049  1.00  0.00     0.049 A 
ATOM     47  H   UNL A   1      40.614  30.233  30.629  1.00  0.00     0.167 HD
ATOM     48  C   UNL A   1      44.549  28.748  31.858  1.00  0.00     0.037 A 
ATOM     49  C   UNL A   1      38.518  32.080  30.577  1.00  0.00     0.037 A 
ATOM     50  C   UNL A   1      44.465  30.084  32.390  1.00  0.00     0.049 A 
ATOM     51  C   UNL A   1      39.624  32.720  31.372  1.00  0.00     0.074 A 
ATOM     52  C   UNL A   1      45.420  30.789  33.101  1.00  0.00     0.029 A 
ATOM     53  N   UNL A   1      43.364  30.917  32.266  1.00  0.00    -0.354 N 
ATOM     54  N   UNL A   1      40.805  32.237  31.679  1.00  0.00    -0.248 NA
ATOM     55  C   UNL A   1      39.376  34.075  31.883  1.00  0.00     0.031 C 
ATOM     56  C   UNL A   1      44.884  32.038  33.437  1.00  0.00     0.029 A 
ATOM     57  C   UNL A   1      43.609  32.124  32.901  1.00  0.00     0.049 A 
ATOM     58  H   UNL A   1      42.530  30.685  31.796  1.00  0.00     0.167 HD
ATOM     59  C   UNL A   1      41.448  33.236  32.400  1.00  0.00     0.074 A 
ATOM     60  C   UNL A   1      40.532  34.357  32.466  1.00  0.00     0.031 C 
ATOM     61  C   UNL A   1      42.683  33.228  32.959  1.00  0.00     0.037 A 
BRANCH  48  62
ATOM     62  C   UNL A   1      45.791  27.945  32.134  1.00  0.00     0.058 A 
ATOM     63  C   UNL A   1      45.828  26.971  33.144  1.00  0.00     0.135 A 
ATOM     64  C   UNL A   1      46.948  28.129  31.359  1.00  0.00     0.135 A 
ATOM     65  F   UNL A   1      44.756  26.765  33.924  1.00  0.00    -0.206 F 
ATOM     66  C   UNL A   1      46.977  26.227  33.397  1.00  0.00     0.059 A 
ATOM     67  C   UNL A   1      48.100  27.377  31.578  1.00  0.00     0.059 A 
ATOM     68  F   UNL A   1      46.968  29.046  30.380  1.00  0.00    -0.206 F 
ATOM     69  C   UNL A   1      48.109  26.439  32.609  1.00  0.00     0.060 A 
BRANCH  69  70
ATOM     70  S   UNL A   1      49.590  25.462  32.945  1.00  0.00     0.124 S 
ATOM     71  O   UNL A   1      50.503  26.483  33.451  1.00  0.00    -0.237 OA
ATOM     72  O   UNL A   1      49.112  24.497  33.930  1.00  0.00    -0.237 OA
ATOM     73  O   UNL A   1      49.932  24.904  31.641  1.00  0.00    -0.744 OA
ENDBRANCH  69  70
ENDBRANCH  48  62
BRANCH  49  74
ATOM     74  C   UNL A   1      37.237  32.796  30.341  1.00  0.00     0.058 A 
ATOM     75  C   UNL A   1      36.156  32.651  31.222  1.00  0.00     0.135 A 
ATOM     76  C   UNL A   1      37.072  33.647  29.237  1.00  0.00     0.135 A 
ATOM     77  F   UNL A   1      36.264  31.844  32.289  1.00  0.00    -0.206 F 
ATOM     78  C   UNL A   1      34.948  33.308  31.009  1.00  0.00     0.059 A 
ATOM     79  C   UNL A   1      35.882  34.333  29.015  1.00  0.00     0.059 A 
ATOM     80  F   UNL A   1      38.084  33.834  28.375  1.00  0.00    -0.206 F 
ATOM     81  C   UNL A   1      34.822  34.148  29.901  1.00  0.00     0.060 A 
BRANCH  81  82
ATOM     82  S   UNL A   1      33.267  35.034  29.657  1.00  0.00     0.124 S 
ATOM     83  O   UNL A   1      32.581  34.168  28.706  1.00  0.00    -0.237 OA
ATOM     84  O   UNL A   1      32.714  35.065  31.007  1.00  0.00    -0.237 OA
ATOM     85  O   UNL A   1      33.698  36.329  29.136  1.00  0.00    -0.744 OA
ENDBRANCH  81  82
ENDBRANCH  49  74
BRANCH  61  86
ATOM     86  C   UNL A   1      43.119  34.477  33.674  1.00  0.00     0.058 A 
ATOM     87  C   UNL A   1      43.762  35.525  32.997  1.00  0.00     0.135 A 
ATOM     88  C   UNL A   1      42.874  34.635  35.047  1.00  0.00     0.135 A 
ATOM     89  F   UNL A   1      44.024  35.421  31.684  1.00  0.00    -0.206 F 
ATOM     90  C   UNL A   1      44.179  36.672  33.663  1.00  0.00     0.059 A 
ATOM     91  C   UNL A   1      43.259  35.785  35.729  1.00  0.00     0.059 A 
ATOM     92  F   UNL A   1      42.251  33.668  35.740  1.00  0.00    -0.206 F 
ATOM     93  C   UNL A   1      43.928  36.790  35.032  1.00  0.00     0.060 A 
BRANCH  93  94
ATOM     94  S   UNL A   1      44.470  38.284  35.888  1.00  0.00     0.124 S 
ATOM     95  O   UNL A   1      43.969  39.329  35.001  1.00  0.00    -0.237 OA
ATOM     96  O   UNL A   1      43.794  38.171  37.178  1.00  0.00    -0.237 OA
ATOM     97  O   UNL A   1      45.921  38.141  35.935  1.00  0.00    -0.744 OA
ENDBRANCH  93  94
ENDBRANCH  61  86
ENDBRANCH  35  36
ENDBRANCH  27  30
ENDBRANCH  25  26
ENDBRANCH  24  25
ENDBRANCH  23  24
ENDBRANCH   1  23
TORSDOF 19
ENDMDL
