MODEL 1
REMARK VINA RESULT:     -11.3      0.000      0.000
REMARK SMILES C/C(=C(/F)C(=O)NCCCCCCNC(=O)c1ccc(-c2c3nc(c(-c4c(F)cc(S(=O)(=O)[O-])cc4F)c4ccc([nH]4)c(-c4c(F)cc(S(=O)(=O)[O-])cc4F)c4nc(c(-c5c(F)cc(S(=O)(=O)[O-])cc5F)c5ccc2[nH]5)C=C4)C=C3)cc1)c1cccc(-n2cnnn2)c1
REMARK SMILES IDX 11 1 10 2 9 3 8 4 7 5 5 6 6 7 3 9 1 10 2 11 4 12 83 13 84 14
REMARK SMILES IDX 93 15 85 16 87 17 86 18 88 19 89 20 92 21 90 22 91 23 12 24
REMARK SMILES IDX 13 25 14 26 15 27 16 29 17 30 18 31 82 32 19 33 81 34 20 35
REMARK SMILES IDX 21 36 22 37 75 38 23 39 80 40 74 41 76 42 24 43 79 44 73 45
REMARK SMILES IDX 72 46 25 48 59 49 38 50 58 51 39 52 42 53 57 54 77 55 40 56
REMARK SMILES IDX 41 57 56 59 78 60 43 61 26 62 27 63 36 64 28 65 29 66 35 67
REMARK SMILES IDX 37 68 30 69 31 70 32 71 33 72 34 73 60 74 61 75 70 76 62 77
REMARK SMILES IDX 63 78 69 79 71 80 64 81 65 82 66 83 67 84 68 85 44 86 45 87
REMARK SMILES IDX 54 88 46 89 47 90 53 91 55 92 48 93 49 94 50 95 51 96 52 97
REMARK H PARENT 7 8 14 28 76 47 42 58
REMARK Flexibility Score: inf
ROOT
ATOM      1  C   UNL A   1      32.042  29.459  25.293  1.00  0.00     0.002 C 
ENDROOT
BRANCH   1   2
ATOM      2  C   UNL A   1      30.949  29.160  24.261  1.00  0.00     0.002 C 
BRANCH   2   3
ATOM      3  C   UNL A   1      31.452  28.645  22.905  1.00  0.00     0.021 C 
BRANCH   3   4
ATOM      4  C   UNL A   1      30.793  27.345  22.443  1.00  0.00     0.116 C 
BRANCH   4   5
ATOM      5  N   UNL A   1      31.566  26.728  21.380  1.00  0.00    -0.350 N 
ATOM      6  C   UNL A   1      32.669  25.931  21.374  1.00  0.00     0.280 C 
ATOM      7  O   UNL A   1      33.147  25.663  20.272  1.00  0.00    -0.267 OA
ATOM      8  H   UNL A   1      31.222  26.927  20.479  1.00  0.00     0.163 HD
BRANCH   6   9
ATOM      9  C   UNL A   1      33.243  25.392  22.647  1.00  0.00     0.191 C 
ATOM     10  C   UNL A   1      32.515  22.951  22.397  1.00  0.00     0.048 C 
ATOM     11  C   UNL A   1      33.159  24.122  23.090  1.00  0.00    -0.002 C 
ATOM     12  F   UNL A   1      33.896  26.287  23.418  1.00  0.00    -0.201 F 
BRANCH  11  13
ATOM     13  C   UNL A   1      33.724  23.804  24.423  1.00  0.00    -0.017 A 
ATOM     14  C   UNL A   1      32.887  23.699  25.545  1.00  0.00     0.008 A 
ATOM     15  C   UNL A   1      35.093  23.539  24.569  1.00  0.00     0.037 A 
ATOM     16  C   UNL A   1      33.398  23.301  26.780  1.00  0.00     0.003 A 
ATOM     17  C   UNL A   1      35.604  23.122  25.808  1.00  0.00     0.069 A 
ATOM     18  C   UNL A   1      34.750  22.989  26.910  1.00  0.00     0.028 A 
BRANCH  17  19
ATOM     19  N   UNL A   1      36.973  22.807  25.944  1.00  0.00    -0.201 N 
ATOM     20  C   UNL A   1      37.996  23.579  26.434  1.00  0.00     0.252 A 
ATOM     21  N   UNL A   1      37.497  21.625  25.549  1.00  0.00    -0.040 NA
ATOM     22  N   UNL A   1      39.133  22.938  26.290  1.00  0.00    -0.117 NA
ATOM     23  N   UNL A   1      38.807  21.730  25.728  1.00  0.00    -0.024 NA
ENDBRANCH  17  19
ENDBRANCH  11  13
ENDBRANCH   6   9
ENDBRANCH   4   5
ENDBRANCH   3   4
ENDBRANCH   2   3
ENDBRANCH   1   2
BRANCH   1  24
ATOM     24  C   UNL A   1      32.796  28.234  25.813  1.00  0.00     0.021 C 
BRANCH  24  25
ATOM     25  C   UNL A   1      33.864  28.541  26.857  1.00  0.00     0.116 C 
BRANCH  25  26
ATOM     26  N   UNL A   1      33.718  29.874  27.417  1.00  0.00    -0.352 N 
ATOM     27  C   UNL A   1      34.601  30.583  28.194  1.00  0.00     0.251 C 
ATOM     28  H   UNL A   1      32.871  30.332  27.211  1.00  0.00     0.163 HD
ATOM     29  O   UNL A   1      34.246  31.626  28.736  1.00  0.00    -0.269 OA
BRANCH  27  30
ATOM     30  C   UNL A   1      35.971  30.068  28.395  1.00  0.00     0.039 A 
ATOM     31  C   UNL A   1      36.886  30.140  27.343  1.00  0.00     0.014 A 
ATOM     32  C   UNL A   1      36.357  29.534  29.629  1.00  0.00     0.014 A 
ATOM     33  C   UNL A   1      38.209  29.740  27.548  1.00  0.00     0.010 A 
ATOM     34  C   UNL A   1      37.690  29.205  29.853  1.00  0.00     0.010 A 
ATOM     35  C   UNL A   1      38.631  29.305  28.817  1.00  0.00    -0.014 A 
BRANCH  35  36
ATOM     36  C   UNL A   1      40.050  28.960  29.085  1.00  0.00     0.031 A 
ATOM     37  C   UNL A   1      40.989  29.999  29.634  1.00  0.00     0.074 A 
ATOM     38  C   UNL A   1      40.513  27.736  28.758  1.00  0.00     0.049 A 
ATOM     39  N   UNL A   1      42.278  29.921  29.841  1.00  0.00    -0.248 NA
ATOM     40  C   UNL A   1      40.405  31.308  29.969  1.00  0.00     0.031 C 
ATOM     41  C   UNL A   1      39.711  26.656  28.175  1.00  0.00     0.029 A 
ATOM     42  N   UNL A   1      41.772  27.197  28.854  1.00  0.00    -0.354 N 
ATOM     43  C   UNL A   1      42.663  31.170  30.314  1.00  0.00     0.074 A 
ATOM     44  C   UNL A   1      41.480  32.003  30.315  1.00  0.00     0.031 C 
ATOM     45  C   UNL A   1      40.494  25.582  27.981  1.00  0.00     0.029 A 
ATOM     46  C   UNL A   1      41.859  25.907  28.384  1.00  0.00     0.049 A 
ATOM     47  H   UNL A   1      42.540  27.688  29.224  1.00  0.00     0.167 HD
ATOM     48  C   UNL A   1      43.885  31.579  30.730  1.00  0.00     0.037 A 
ATOM     49  C   UNL A   1      42.919  25.083  28.274  1.00  0.00     0.037 A 
ATOM     50  C   UNL A   1      45.053  30.735  30.749  1.00  0.00     0.049 A 
ATOM     51  C   UNL A   1      44.270  25.562  28.736  1.00  0.00     0.074 A 
ATOM     52  C   UNL A   1      46.323  31.037  31.207  1.00  0.00     0.029 A 
ATOM     53  N   UNL A   1      45.095  29.428  30.287  1.00  0.00    -0.354 N 
ATOM     54  N   UNL A   1      44.603  26.727  29.239  1.00  0.00    -0.248 NA
ATOM     55  C   UNL A   1      45.389  24.616  28.619  1.00  0.00     0.031 C 
ATOM     56  C   UNL A   1      47.144  29.929  30.979  1.00  0.00     0.029 A 
ATOM     57  C   UNL A   1      46.375  28.917  30.428  1.00  0.00     0.049 A 
ATOM     58  H   UNL A   1      44.328  28.935  29.913  1.00  0.00     0.167 HD
ATOM     59  C   UNL A   1      45.961  26.644  29.526  1.00  0.00     0.074 A 
ATOM     60  C   UNL A   1      46.386  25.311  29.148  1.00  0.00     0.031 C 
ATOM     61  C   UNL A   1      46.781  27.584  30.056  1.00  0.00     0.037 A 
BRANCH  48  62
ATOM     62  C   UNL A   1      44.025  33.001  31.199  1.00  0.00     0.058 A 
ATOM     63  C   UNL A   1      44.399  34.033  30.323  1.00  0.00     0.135 A 
ATOM     64  C   UNL A   1      43.744  33.345  32.531  1.00  0.00     0.135 A 
ATOM     65  F   UNL A   1      44.693  33.761  29.042  1.00  0.00    -0.206 F 
ATOM     66  C   UNL A   1      44.519  35.349  30.758  1.00  0.00     0.059 A 
ATOM     67  C   UNL A   1      43.829  34.660  32.982  1.00  0.00     0.059 A 
ATOM     68  F   UNL A   1      43.382  32.398  33.411  1.00  0.00    -0.206 F 
ATOM     69  C   UNL A   1      44.232  35.652  32.090  1.00  0.00     0.060 A 
BRANCH  69  70
ATOM     70  S   UNL A   1      44.389  37.366  32.636  1.00  0.00     0.124 S 
ATOM     71  O   UNL A   1      45.813  37.440  32.950  1.00  0.00    -0.237 OA
ATOM     72  O   UNL A   1      43.960  38.110  31.457  1.00  0.00    -0.237 OA
ATOM     73  O   UNL A   1      43.490  37.441  33.783  1.00  0.00    -0.744 OA
ENDBRANCH  69  70
ENDBRANCH  48  62
BRANCH  49  74
ATOM     74  C   UNL A   1      42.744  23.716  27.718  1.00  0.00     0.058 A 
ATOM     75  C   UNL A   1      42.501  22.619  28.558  1.00  0.00     0.135 A 
ATOM     76  C   UNL A   1      42.801  23.478  26.334  1.00  0.00     0.135 A 
ATOM     77  F   UNL A   1      42.445  22.794  29.887  1.00  0.00    -0.206 F 
ATOM     78  C   UNL A   1      42.336  21.334  28.051  1.00  0.00     0.059 A 
ATOM     79  C   UNL A   1      42.612  22.207  25.802  1.00  0.00     0.059 A 
ATOM     80  F   UNL A   1      43.013  24.495  25.485  1.00  0.00    -0.206 F 
ATOM     81  C   UNL A   1      42.390  21.139  26.670  1.00  0.00     0.060 A 
BRANCH  81  82
ATOM     82  S   UNL A   1      42.125  19.474  26.020  1.00  0.00     0.124 S 
ATOM     83  O   UNL A   1      42.903  19.513  24.787  1.00  0.00    -0.237 OA
ATOM     84  O   UNL A   1      42.662  18.640  27.090  1.00  0.00    -0.237 OA
ATOM     85  O   UNL A   1      40.677  19.408  25.851  1.00  0.00    -0.744 OA
ENDBRANCH  81  82
ENDBRANCH  49  74
BRANCH  61  86
ATOM     86  C   UNL A   1      48.215  27.203  30.298  1.00  0.00     0.058 A 
ATOM     87  C   UNL A   1      49.220  27.471  29.357  1.00  0.00     0.135 A 
ATOM     88  C   UNL A   1      48.598  26.621  31.518  1.00  0.00     0.135 A 
ATOM     89  F   UNL A   1      48.908  28.018  28.171  1.00  0.00    -0.206 F 
ATOM     90  C   UNL A   1      50.554  27.163  29.610  1.00  0.00     0.059 A 
ATOM     91  C   UNL A   1      49.928  26.330  31.804  1.00  0.00     0.059 A 
ATOM     92  F   UNL A   1      47.676  26.351  32.457  1.00  0.00    -0.206 F 
ATOM     93  C   UNL A   1      50.898  26.597  30.839  1.00  0.00     0.060 A 
BRANCH  93  94
ATOM     94  S   UNL A   1      52.637  26.248  31.173  1.00  0.00     0.124 S 
ATOM     95  O   UNL A   1      53.206  26.269  29.830  1.00  0.00    -0.237 OA
ATOM     96  O   UNL A   1      53.017  27.358  32.042  1.00  0.00    -0.237 OA
ATOM     97  O   UNL A   1      52.603  24.939  31.820  1.00  0.00    -0.744 OA
ENDBRANCH  93  94
ENDBRANCH  61  86
ENDBRANCH  35  36
ENDBRANCH  27  30
ENDBRANCH  25  26
ENDBRANCH  24  25
ENDBRANCH   1  24
TORSDOF 18
ENDMDL
MODEL 2
REMARK VINA RESULT:     -10.9      3.157      4.015
REMARK SMILES C/C(=C(/F)C(=O)NCCCCCCNC(=O)c1ccc(-c2c3nc(c(-c4c(F)cc(S(=O)(=O)[O-])cc4F)c4ccc([nH]4)c(-c4c(F)cc(S(=O)(=O)[O-])cc4F)c4nc(c(-c5c(F)cc(S(=O)(=O)[O-])cc5F)c5ccc2[nH]5)C=C4)C=C3)cc1)c1cccc(-n2cnnn2)c1
REMARK SMILES IDX 11 1 10 2 9 3 8 4 7 5 5 6 6 7 3 9 1 10 2 11 4 12 83 13 84 14
REMARK SMILES IDX 93 15 85 16 87 17 86 18 88 19 89 20 92 21 90 22 91 23 12 24
REMARK SMILES IDX 13 25 14 26 15 27 16 29 17 30 18 31 82 32 19 33 81 34 20 35
REMARK SMILES IDX 21 36 22 37 75 38 23 39 80 40 74 41 76 42 24 43 79 44 73 45
REMARK SMILES IDX 72 46 25 48 59 49 38 50 58 51 39 52 42 53 57 54 77 55 40 56
REMARK SMILES IDX 41 57 56 59 78 60 43 61 26 62 27 63 36 64 28 65 29 66 35 67
REMARK SMILES IDX 37 68 30 69 31 70 32 71 33 72 34 73 60 74 61 75 70 76 62 77
REMARK SMILES IDX 63 78 69 79 71 80 64 81 65 82 66 83 67 84 68 85 44 86 45 87
REMARK SMILES IDX 54 88 46 89 47 90 53 91 55 92 48 93 49 94 50 95 51 96 52 97
REMARK H PARENT 7 8 14 28 76 47 42 58
REMARK Flexibility Score: inf
ROOT
ATOM      1  C   UNL A   1      33.635  28.874  25.664  1.00  0.00     0.002 C 
ENDROOT
BRANCH   1   2
ATOM      2  C   UNL A   1      32.244  28.401  25.228  1.00  0.00     0.002 C 
BRANCH   2   3
ATOM      3  C   UNL A   1      32.093  26.882  25.059  1.00  0.00     0.021 C 
BRANCH   3   4
ATOM      4  C   UNL A   1      32.561  26.067  26.265  1.00  0.00     0.116 C 
BRANCH   4   5
ATOM      5  N   UNL A   1      31.493  25.209  26.749  1.00  0.00    -0.350 N 
ATOM      6  C   UNL A   1      31.331  23.858  26.786  1.00  0.00     0.280 C 
ATOM      7  O   UNL A   1      30.236  23.448  27.172  1.00  0.00    -0.267 OA
ATOM      8  H   UNL A   1      30.732  25.706  27.127  1.00  0.00     0.163 HD
BRANCH   6   9
ATOM      9  C   UNL A   1      32.441  22.932  26.401  1.00  0.00     0.191 C 
ATOM     10  C   UNL A   1      32.024  22.856  23.876  1.00  0.00     0.048 C 
ATOM     11  C   UNL A   1      32.722  22.490  25.159  1.00  0.00    -0.002 C 
ATOM     12  F   UNL A   1      33.219  22.498  27.416  1.00  0.00    -0.201 F 
BRANCH  11  13
ATOM     13  C   UNL A   1      33.819  21.506  24.995  1.00  0.00    -0.017 A 
ATOM     14  C   UNL A   1      35.153  21.884  25.215  1.00  0.00     0.008 A 
ATOM     15  C   UNL A   1      33.533  20.170  24.681  1.00  0.00     0.037 A 
ATOM     16  C   UNL A   1      36.179  20.940  25.161  1.00  0.00     0.003 A 
ATOM     17  C   UNL A   1      34.563  19.217  24.643  1.00  0.00     0.069 A 
ATOM     18  C   UNL A   1      35.885  19.603  24.899  1.00  0.00     0.028 A 
BRANCH  17  19
ATOM     19  N   UNL A   1      34.270  17.862  24.377  1.00  0.00    -0.201 N 
ATOM     20  C   UNL A   1      34.359  16.776  25.211  1.00  0.00     0.252 A 
ATOM     21  N   UNL A   1      33.865  17.423  23.164  1.00  0.00    -0.040 NA
ATOM     22  N   UNL A   1      34.088  15.684  24.534  1.00  0.00    -0.117 NA
ATOM     23  N   UNL A   1      33.795  16.102  23.261  1.00  0.00    -0.024 NA
ENDBRANCH  17  19
ENDBRANCH  11  13
ENDBRANCH   6   9
ENDBRANCH   4   5
ENDBRANCH   3   4
ENDBRANCH   2   3
ENDBRANCH   1   2
BRANCH   1  24
ATOM     24  C   UNL A   1      33.726  29.377  27.106  1.00  0.00     0.021 C 
BRANCH  24  25
ATOM     25  C   UNL A   1      35.146  29.519  27.641  1.00  0.00     0.116 C 
BRANCH  25  26
ATOM     26  N   UNL A   1      35.202  30.331  28.846  1.00  0.00    -0.352 N 
ATOM     27  C   UNL A   1      36.237  30.485  29.735  1.00  0.00     0.251 C 
ATOM     28  H   UNL A   1      34.385  30.840  29.053  1.00  0.00     0.163 HD
ATOM     29  O   UNL A   1      36.055  31.067  30.800  1.00  0.00    -0.269 OA
BRANCH  27  30
ATOM     30  C   UNL A   1      37.565  29.921  29.411  1.00  0.00     0.039 A 
ATOM     31  C   UNL A   1      37.978  29.877  28.078  1.00  0.00     0.014 A 
ATOM     32  C   UNL A   1      38.408  29.458  30.426  1.00  0.00     0.014 A 
ATOM     33  C   UNL A   1      39.265  29.431  27.768  1.00  0.00     0.010 A 
ATOM     34  C   UNL A   1      39.713  29.083  30.123  1.00  0.00     0.010 A 
ATOM     35  C   UNL A   1      40.157  29.067  28.792  1.00  0.00    -0.014 A 
BRANCH  35  36
ATOM     36  C   UNL A   1      41.559  28.675  28.496  1.00  0.00     0.031 A 
ATOM     37  C   UNL A   1      42.642  29.718  28.464  1.00  0.00     0.074 A 
ATOM     38  C   UNL A   1      41.841  27.396  28.176  1.00  0.00     0.049 A 
ATOM     39  N   UNL A   1      43.900  29.592  28.130  1.00  0.00    -0.248 NA
ATOM     40  C   UNL A   1      42.253  31.090  28.829  1.00  0.00     0.031 C 
ATOM     41  C   UNL A   1      40.868  26.302  28.127  1.00  0.00     0.029 A 
ATOM     42  N   UNL A   1      43.025  26.801  27.817  1.00  0.00    -0.354 N 
ATOM     43  C   UNL A   1      44.450  30.865  28.229  1.00  0.00     0.074 A 
ATOM     44  C   UNL A   1      43.375  31.758  28.604  1.00  0.00     0.031 C 
ATOM     45  C   UNL A   1      41.497  25.168  27.775  1.00  0.00     0.029 A 
ATOM     46  C   UNL A   1      42.907  25.461  27.532  1.00  0.00     0.049 A 
ATOM     47  H   UNL A   1      43.878  27.288  27.768  1.00  0.00     0.167 HD
ATOM     48  C   UNL A   1      45.735  31.250  28.045  1.00  0.00     0.037 A 
ATOM     49  C   UNL A   1      43.824  24.569  27.108  1.00  0.00     0.037 A 
ATOM     50  C   UNL A   1      46.803  30.349  27.696  1.00  0.00     0.049 A 
ATOM     51  C   UNL A   1      45.245  25.023  26.903  1.00  0.00     0.074 A 
ATOM     52  C   UNL A   1      48.149  30.631  27.545  1.00  0.00     0.029 A 
ATOM     53  N   UNL A   1      46.647  28.995  27.438  1.00  0.00    -0.354 N 
ATOM     54  N   UNL A   1      45.759  26.219  27.062  1.00  0.00    -0.248 NA
ATOM     55  C   UNL A   1      46.212  24.006  26.465  1.00  0.00     0.031 C 
ATOM     56  C   UNL A   1      48.799  29.457  27.150  1.00  0.00     0.029 A 
ATOM     57  C   UNL A   1      47.869  28.432  27.108  1.00  0.00     0.049 A 
ATOM     58  H   UNL A   1      45.794  28.505  27.484  1.00  0.00     0.167 HD
ATOM     59  C   UNL A   1      47.113  26.093  26.773  1.00  0.00     0.074 A 
ATOM     60  C   UNL A   1      47.340  24.702  26.437  1.00  0.00     0.031 C 
ATOM     61  C   UNL A   1      48.081  27.042  26.785  1.00  0.00     0.037 A 
BRANCH  48  62
ATOM     62  C   UNL A   1      46.059  32.709  28.218  1.00  0.00     0.058 A 
ATOM     63  C   UNL A   1      45.984  33.613  27.146  1.00  0.00     0.135 A 
ATOM     64  C   UNL A   1      46.412  33.217  29.478  1.00  0.00     0.135 A 
ATOM     65  F   UNL A   1      45.665  33.180  25.916  1.00  0.00    -0.206 F 
ATOM     66  C   UNL A   1      46.277  34.963  27.311  1.00  0.00     0.059 A 
ATOM     67  C   UNL A   1      46.681  34.570  29.673  1.00  0.00     0.059 A 
ATOM     68  F   UNL A   1      46.499  32.398  30.538  1.00  0.00    -0.206 F 
ATOM     69  C   UNL A   1      46.624  35.432  28.579  1.00  0.00     0.060 A 
BRANCH  69  70
ATOM     70  S   UNL A   1      46.997  37.187  28.775  1.00  0.00     0.124 S 
ATOM     71  O   UNL A   1      47.217  37.593  27.391  1.00  0.00    -0.237 OA
ATOM     72  O   UNL A   1      45.780  37.697  29.399  1.00  0.00    -0.237 OA
ATOM     73  O   UNL A   1      48.183  37.190  29.625  1.00  0.00    -0.744 OA
ENDBRANCH  69  70
ENDBRANCH  48  62
BRANCH  49  74
ATOM     74  C   UNL A   1      43.431  23.157  26.864  1.00  0.00     0.058 A 
ATOM     75  C   UNL A   1      43.419  22.624  25.566  1.00  0.00     0.135 A 
ATOM     76  C   UNL A   1      43.073  22.305  27.922  1.00  0.00     0.135 A 
ATOM     77  F   UNL A   1      43.746  23.400  24.521  1.00  0.00    -0.206 F 
ATOM     78  C   UNL A   1      43.052  21.305  25.321  1.00  0.00     0.059 A 
ATOM     79  C   UNL A   1      42.729  20.975  27.706  1.00  0.00     0.059 A 
ATOM     80  F   UNL A   1      43.085  22.759  29.185  1.00  0.00    -0.206 F 
ATOM     81  C   UNL A   1      42.712  20.486  26.400  1.00  0.00     0.060 A 
BRANCH  81  82
ATOM     82  S   UNL A   1      42.285  18.761  26.076  1.00  0.00     0.124 S 
ATOM     83  O   UNL A   1      43.129  18.460  24.926  1.00  0.00    -0.237 OA
ATOM     84  O   UNL A   1      42.657  18.114  27.331  1.00  0.00    -0.237 OA
ATOM     85  O   UNL A   1      40.851  18.816  25.811  1.00  0.00    -0.744 OA
ENDBRANCH  81  82
ENDBRANCH  49  74
BRANCH  61  86
ATOM     86  C   UNL A   1      49.486  26.611  26.464  1.00  0.00     0.058 A 
ATOM     87  C   UNL A   1      50.307  25.996  27.421  1.00  0.00     0.135 A 
ATOM     88  C   UNL A   1      49.990  26.755  25.161  1.00  0.00     0.135 A 
ATOM     89  F   UNL A   1      49.877  25.842  28.684  1.00  0.00    -0.206 F 
ATOM     90  C   UNL A   1      51.587  25.551  27.102  1.00  0.00     0.059 A 
ATOM     91  C   UNL A   1      51.256  26.293  24.812  1.00  0.00     0.059 A 
ATOM     92  F   UNL A   1      49.242  27.328  24.205  1.00  0.00    -0.206 F 
ATOM     93  C   UNL A   1      52.050  25.700  25.793  1.00  0.00     0.060 A 
BRANCH  93  94
ATOM     94  S   UNL A   1      53.692  25.075  25.381  1.00  0.00     0.124 S 
ATOM     95  O   UNL A   1      54.470  25.505  26.538  1.00  0.00    -0.237 OA
ATOM     96  O   UNL A   1      53.461  23.638  25.270  1.00  0.00    -0.237 OA
ATOM     97  O   UNL A   1      54.009  25.751  24.125  1.00  0.00    -0.744 OA
ENDBRANCH  93  94
ENDBRANCH  61  86
ENDBRANCH  35  36
ENDBRANCH  27  30
ENDBRANCH  25  26
ENDBRANCH  24  25
ENDBRANCH   1  24
TORSDOF 18
ENDMDL
MODEL 3
REMARK VINA RESULT:     -10.9      4.926      7.161
REMARK SMILES C/C(=C(/F)C(=O)NCCCCCCNC(=O)c1ccc(-c2c3nc(c(-c4c(F)cc(S(=O)(=O)[O-])cc4F)c4ccc([nH]4)c(-c4c(F)cc(S(=O)(=O)[O-])cc4F)c4nc(c(-c5c(F)cc(S(=O)(=O)[O-])cc5F)c5ccc2[nH]5)C=C4)C=C3)cc1)c1cccc(-n2cnnn2)c1
REMARK SMILES IDX 11 1 10 2 9 3 8 4 7 5 5 6 6 7 3 9 1 10 2 11 4 12 83 13 84 14
REMARK SMILES IDX 93 15 85 16 87 17 86 18 88 19 89 20 92 21 90 22 91 23 12 24
REMARK SMILES IDX 13 25 14 26 15 27 16 29 17 30 18 31 82 32 19 33 81 34 20 35
REMARK SMILES IDX 21 36 22 37 75 38 23 39 80 40 74 41 76 42 24 43 79 44 73 45
REMARK SMILES IDX 72 46 25 48 59 49 38 50 58 51 39 52 42 53 57 54 77 55 40 56
REMARK SMILES IDX 41 57 56 59 78 60 43 61 26 62 27 63 36 64 28 65 29 66 35 67
REMARK SMILES IDX 37 68 30 69 31 70 32 71 33 72 34 73 60 74 61 75 70 76 62 77
REMARK SMILES IDX 63 78 69 79 71 80 64 81 65 82 66 83 67 84 68 85 44 86 45 87
REMARK SMILES IDX 54 88 46 89 47 90 53 91 55 92 48 93 49 94 50 95 51 96 52 97
REMARK H PARENT 7 8 14 28 76 47 42 58
REMARK Flexibility Score: inf
ROOT
ATOM      1  C   UNL A   1      34.901  31.144  28.147  1.00  0.00     0.002 C 
ENDROOT
BRANCH   1   2
ATOM      2  C   UNL A   1      34.963  29.659  27.773  1.00  0.00     0.002 C 
BRANCH   2   3
ATOM      3  C   UNL A   1      33.713  29.109  27.072  1.00  0.00     0.021 C 
BRANCH   3   4
ATOM      4  C   UNL A   1      33.967  28.576  25.661  1.00  0.00     0.116 C 
BRANCH   4   5
ATOM      5  N   UNL A   1      33.756  27.141  25.609  1.00  0.00    -0.350 N 
ATOM      6  C   UNL A   1      32.667  26.370  25.341  1.00  0.00     0.280 C 
ATOM      7  O   UNL A   1      32.804  25.156  25.490  1.00  0.00    -0.267 OA
ATOM      8  H   UNL A   1      34.566  26.618  25.808  1.00  0.00     0.163 HD
BRANCH   6   9
ATOM      9  C   UNL A   1      31.385  26.977  24.864  1.00  0.00     0.191 C 
ATOM     10  C   UNL A   1      32.017  27.336  22.409  1.00  0.00     0.048 C 
ATOM     11  C   UNL A   1      31.118  27.407  23.615  1.00  0.00    -0.002 C 
ATOM     12  F   UNL A   1      30.418  27.110  25.797  1.00  0.00    -0.201 F 
BRANCH  11  13
ATOM     13  C   UNL A   1      29.811  28.059  23.360  1.00  0.00    -0.017 A 
ATOM     14  C   UNL A   1      28.615  27.341  23.521  1.00  0.00     0.008 A 
ATOM     15  C   UNL A   1      29.749  29.416  23.019  1.00  0.00     0.037 A 
ATOM     16  C   UNL A   1      27.380  27.975  23.381  1.00  0.00     0.003 A 
ATOM     17  C   UNL A   1      28.507  30.058  22.895  1.00  0.00     0.069 A 
ATOM     18  C   UNL A   1      27.322  29.337  23.092  1.00  0.00     0.028 A 
BRANCH  17  19
ATOM     19  N   UNL A   1      28.444  31.437  22.601  1.00  0.00    -0.201 N 
ATOM     20  C   UNL A   1      28.834  32.506  23.369  1.00  0.00     0.252 A 
ATOM     21  N   UNL A   1      27.922  31.920  21.451  1.00  0.00    -0.040 NA
ATOM     22  N   UNL A   1      28.507  33.622  22.759  1.00  0.00    -0.117 NA
ATOM     23  N   UNL A   1      27.931  33.240  21.575  1.00  0.00    -0.024 NA
ENDBRANCH  17  19
ENDBRANCH  11  13
ENDBRANCH   6   9
ENDBRANCH   4   5
ENDBRANCH   3   4
ENDBRANCH   2   3
ENDBRANCH   1   2
BRANCH   1  24
ATOM     24  C   UNL A   1      34.009  32.002  27.248  1.00  0.00     0.021 C 
BRANCH  24  25
ATOM     25  C   UNL A   1      32.830  32.657  27.961  1.00  0.00     0.116 C 
BRANCH  25  26
ATOM     26  N   UNL A   1      32.889  34.109  27.901  1.00  0.00    -0.352 N 
ATOM     27  C   UNL A   1      33.684  34.970  28.616  1.00  0.00     0.251 C 
ATOM     28  H   UNL A   1      32.274  34.532  27.259  1.00  0.00     0.163 HD
ATOM     29  O   UNL A   1      33.478  36.179  28.574  1.00  0.00    -0.269 OA
BRANCH  27  30
ATOM     30  C   UNL A   1      34.771  34.428  29.457  1.00  0.00     0.039 A 
ATOM     31  C   UNL A   1      34.452  33.806  30.666  1.00  0.00     0.014 A 
ATOM     32  C   UNL A   1      36.104  34.515  29.040  1.00  0.00     0.014 A 
ATOM     33  C   UNL A   1      35.462  33.209  31.425  1.00  0.00     0.010 A 
ATOM     34  C   UNL A   1      37.097  33.859  29.760  1.00  0.00     0.010 A 
ATOM     35  C   UNL A   1      36.788  33.198  30.959  1.00  0.00    -0.014 A 
BRANCH  35  36
ATOM     36  C   UNL A   1      37.864  32.494  31.702  1.00  0.00     0.031 A 
ATOM     37  C   UNL A   1      38.322  33.013  33.037  1.00  0.00     0.074 A 
ATOM     38  C   UNL A   1      38.483  31.436  31.139  1.00  0.00     0.049 A 
ATOM     39  N   UNL A   1      39.307  32.599  33.791  1.00  0.00    -0.248 NA
ATOM     40  C   UNL A   1      37.592  34.168  33.586  1.00  0.00     0.031 C 
ATOM     41  C   UNL A   1      38.160  30.867  29.828  1.00  0.00     0.029 A 
ATOM     42  N   UNL A   1      39.523  30.661  31.589  1.00  0.00    -0.354 N 
ATOM     43  C   UNL A   1      39.328  33.448  34.891  1.00  0.00     0.074 A 
ATOM     44  C   UNL A   1      38.288  34.432  34.682  1.00  0.00     0.031 C 
ATOM     45  C   UNL A   1      38.974  29.825  29.588  1.00  0.00     0.029 A 
ATOM     46  C   UNL A   1      39.902  29.678  30.704  1.00  0.00     0.049 A 
ATOM     47  H   UNL A   1      39.956  30.796  32.461  1.00  0.00     0.167 HD
ATOM     48  C   UNL A   1      40.125  33.399  35.984  1.00  0.00     0.037 A 
ATOM     49  C   UNL A   1      40.895  28.770  30.776  1.00  0.00     0.037 A 
ATOM     50  C   UNL A   1      41.141  32.401  36.196  1.00  0.00     0.049 A 
ATOM     51  C   UNL A   1      41.774  28.740  31.998  1.00  0.00     0.074 A 
ATOM     52  C   UNL A   1      41.961  32.230  37.297  1.00  0.00     0.029 A 
ATOM     53  N   UNL A   1      41.480  31.408  35.288  1.00  0.00    -0.354 N 
ATOM     54  N   UNL A   1      41.738  29.512  33.057  1.00  0.00    -0.248 NA
ATOM     55  C   UNL A   1      42.825  27.714  32.038  1.00  0.00     0.031 C 
ATOM     56  C   UNL A   1      42.827  31.163  37.035  1.00  0.00     0.029 A 
ATOM     57  C   UNL A   1      42.512  30.635  35.795  1.00  0.00     0.049 A 
ATOM     58  H   UNL A   1      41.050  31.273  34.412  1.00  0.00     0.167 HD
ATOM     59  C   UNL A   1      42.740  29.047  33.902  1.00  0.00     0.074 A 
ATOM     60  C   UNL A   1      43.359  27.921  33.234  1.00  0.00     0.031 C 
ATOM     61  C   UNL A   1      43.112  29.510  35.121  1.00  0.00     0.037 A 
BRANCH  48  62
ATOM     62  C   UNL A   1      39.932  34.455  37.039  1.00  0.00     0.058 A 
ATOM     63  C   UNL A   1      40.650  35.661  37.015  1.00  0.00     0.135 A 
ATOM     64  C   UNL A   1      38.989  34.277  38.064  1.00  0.00     0.135 A 
ATOM     65  F   UNL A   1      41.575  35.880  36.066  1.00  0.00    -0.206 F 
ATOM     66  C   UNL A   1      40.464  36.639  37.986  1.00  0.00     0.059 A 
ATOM     67  C   UNL A   1      38.764  35.254  39.029  1.00  0.00     0.059 A 
ATOM     68  F   UNL A   1      38.273  33.143  38.135  1.00  0.00    -0.206 F 
ATOM     69  C   UNL A   1      39.517  36.426  38.990  1.00  0.00     0.060 A 
BRANCH  69  70
ATOM     70  S   UNL A   1      39.285  37.708  40.240  1.00  0.00     0.124 S 
ATOM     71  O   UNL A   1      38.192  38.483  39.660  1.00  0.00    -0.237 OA
ATOM     72  O   UNL A   1      38.949  36.929  41.427  1.00  0.00    -0.237 OA
ATOM     73  O   UNL A   1      40.578  38.382  40.280  1.00  0.00    -0.744 OA
ENDBRANCH  69  70
ENDBRANCH  48  62
BRANCH  49  74
ATOM     74  C   UNL A   1      41.102  27.806  29.663  1.00  0.00     0.058 A 
ATOM     75  C   UNL A   1      42.202  27.923  28.800  1.00  0.00     0.135 A 
ATOM     76  C   UNL A   1      40.215  26.739  29.448  1.00  0.00     0.135 A 
ATOM     77  F   UNL A   1      43.075  28.929  28.962  1.00  0.00    -0.206 F 
ATOM     78  C   UNL A   1      42.409  27.029  27.754  1.00  0.00     0.059 A 
ATOM     79  C   UNL A   1      40.414  25.816  28.426  1.00  0.00     0.059 A 
ATOM     80  F   UNL A   1      39.156  26.570  30.255  1.00  0.00    -0.206 F 
ATOM     81  C   UNL A   1      41.510  25.976  27.578  1.00  0.00     0.060 A 
BRANCH  81  82
ATOM     82  S   UNL A   1      41.814  24.792  26.247  1.00  0.00     0.124 S 
ATOM     83  O   UNL A   1      43.163  24.339  26.560  1.00  0.00    -0.237 OA
ATOM     84  O   UNL A   1      40.746  23.818  26.455  1.00  0.00    -0.237 OA
ATOM     85  O   UNL A   1      41.683  25.605  25.042  1.00  0.00    -0.744 OA
ENDBRANCH  81  82
ENDBRANCH  49  74
BRANCH  61  86
ATOM     86  C   UNL A   1      44.216  28.781  35.836  1.00  0.00     0.058 A 
ATOM     87  C   UNL A   1      45.555  29.185  35.735  1.00  0.00     0.135 A 
ATOM     88  C   UNL A   1      43.919  27.704  36.688  1.00  0.00     0.135 A 
ATOM     89  F   UNL A   1      45.896  30.204  34.929  1.00  0.00    -0.206 F 
ATOM     90  C   UNL A   1      46.565  28.539  36.442  1.00  0.00     0.059 A 
ATOM     91  C   UNL A   1      44.907  27.060  37.425  1.00  0.00     0.059 A 
ATOM     92  F   UNL A   1      42.651  27.282  36.827  1.00  0.00    -0.206 F 
ATOM     93  C   UNL A   1      46.230  27.480  37.289  1.00  0.00     0.060 A 
BRANCH  93  94
ATOM     94  S   UNL A   1      47.542  26.682  38.236  1.00  0.00     0.124 S 
ATOM     95  O   UNL A   1      46.834  26.295  39.452  1.00  0.00    -0.237 OA
ATOM     96  O   UNL A   1      47.939  25.586  37.356  1.00  0.00    -0.237 OA
ATOM     97  O   UNL A   1      48.537  27.738  38.398  1.00  0.00    -0.744 OA
ENDBRANCH  93  94
ENDBRANCH  61  86
ENDBRANCH  35  36
ENDBRANCH  27  30
ENDBRANCH  25  26
ENDBRANCH  24  25
ENDBRANCH   1  24
TORSDOF 18
ENDMDL
