MODEL 1
REMARK VINA RESULT:     -12.7      0.000      0.000
REMARK SMILES CCCOC(=O)c1c(NC(=O)[C@@H]2CC=CC[C@H]2C(=O)NCCCCCCNC(=O)c2ccc(-c3c4nc(c(-c5c(F)cc(S(=O)(=O)[O-])cc5F)c5ccc([nH]5)c(-c5c(F)cc(S(=O)(=O)[O-])cc5F)c5nc(c(-c6c(F)cc(S(=O)(=O)[O-])cc6F)c6ccc3[nH]6)C=C5)C=C4)cc2)sc2c1CCCC2
REMARK SMILES IDX 22 1 21 2 20 3 18 4 19 5 17 7 12 8 13 9 14 10 16 11 15 12
REMARK SMILES IDX 10 13 9 14 11 16 8 17 7 18 98 19 96 20 97 21 99 22 102 23
REMARK SMILES IDX 100 24 101 25 5 26 6 27 4 28 3 29 2 30 1 31 23 32 24 33
REMARK SMILES IDX 25 34 26 35 27 36 28 37 29 39 30 40 31 41 95 42 32 43 94 44
REMARK SMILES IDX 33 45 34 46 35 47 88 48 36 49 93 50 87 51 89 52 37 53 92 54
REMARK SMILES IDX 86 55 85 56 38 58 72 59 51 60 71 61 52 62 55 63 70 64 90 65
REMARK SMILES IDX 53 66 54 67 69 69 91 70 56 71 39 72 40 73 49 74 41 75 42 76
REMARK SMILES IDX 48 77 50 78 43 79 44 80 45 81 46 82 47 83 73 84 74 85 83 86
REMARK SMILES IDX 75 87 76 88 82 89 84 90 77 91 78 92 79 93 80 94 81 95 57 96
REMARK SMILES IDX 58 97 67 98 59 99 60 100 66 101 68 102 61 103 62 104 63 105
REMARK SMILES IDX 64 106 65 107
REMARK H PARENT 20 6 9 15 27 38 89 57 55 68
REMARK Flexibility Score: inf
ROOT
ATOM      1  C   UNL A   1      36.620  23.056  25.234  1.00  0.00     0.021 C 
ENDROOT
BRANCH   1   2
ATOM      2  C   UNL A   1      35.543  23.464  26.242  1.00  0.00     0.116 C 
BRANCH   2   3
ATOM      3  N   UNL A   1      35.094  22.293  26.946  1.00  0.00    -0.356 N 
ATOM      4  C   UNL A   1      33.759  22.117  27.107  1.00  0.00     0.224 C 
ATOM      5  O   UNL A   1      33.254  22.134  28.226  1.00  0.00    -0.275 OA
ATOM      6  H   UNL A   1      35.737  21.637  27.300  1.00  0.00     0.163 HD
BRANCH   4   7
ATOM      7  C   UNL A   1      32.996  21.692  25.897  1.00  0.00     0.095 C 
ATOM      8  C   UNL A   1      31.687  22.974  25.171  1.00  0.00     0.095 C 
ATOM      9  C   UNL A   1      30.914  22.524  23.419  1.00  0.00     0.041 C 
ATOM     10  C   UNL A   1      31.807  21.210  22.351  1.00  0.00    -0.030 C 
ATOM     11  C   UNL A   1      33.709  20.390  24.602  1.00  0.00     0.041 C 
ATOM     12  C   UNL A   1      32.918  20.309  22.839  1.00  0.00    -0.030 C 
BRANCH   8  13
ATOM     13  C   UNL A   1      30.566  23.387  26.066  1.00  0.00     0.229 C 
ATOM     14  N   UNL A   1      30.364  24.660  26.439  1.00  0.00    -0.317 N 
ATOM     15  H   UNL A   1      29.648  24.799  27.100  1.00  0.00     0.170 HD
ATOM     16  O   UNL A   1      29.811  22.522  26.526  1.00  0.00    -0.274 OA
BRANCH  14  17
ATOM     17  C   UNL A   1      31.010  25.788  26.034  1.00  0.00     0.110 A 
ATOM     18  C   UNL A   1      30.762  26.874  25.214  1.00  0.00     0.098 A 
ATOM     19  C   UNL A   1      31.681  27.950  25.608  1.00  0.00    -0.017 A 
ATOM     20  S   UNL A   1      32.515  25.870  26.833  1.00  0.00    -0.122 S 
ATOM     21  C   UNL A   1      32.666  27.512  26.473  1.00  0.00     0.011 A 
ATOM     22  C   UNL A   1      31.562  29.413  25.273  1.00  0.00     0.038 C 
ATOM     23  C   UNL A   1      33.770  28.338  27.053  1.00  0.00     0.047 C 
ATOM     24  C   UNL A   1      32.877  30.168  25.526  1.00  0.00     0.005 C 
ATOM     25  C   UNL A   1      33.476  29.835  26.901  1.00  0.00     0.006 C 
BRANCH  18  26
ATOM     26  C   UNL A   1      29.669  27.064  24.220  1.00  0.00     0.341 C 
ATOM     27  O   UNL A   1      28.853  26.156  24.087  1.00  0.00    -0.246 OA
BRANCH  26  28
ATOM     28  O   UNL A   1      29.773  28.241  23.369  1.00  0.00    -0.462 OA
BRANCH  28  29
ATOM     29  C   UNL A   1      29.536  29.626  22.013  1.00  0.00     0.233 C 
BRANCH  29  30
ATOM     30  C   UNL A   1      29.173  31.172  22.137  1.00  0.00     0.038 C 
ATOM     31  C   UNL A   1      27.655  31.361  22.320  1.00  0.00     0.007 C 
ENDBRANCH  29  30
ENDBRANCH  28  29
ENDBRANCH  26  28
ENDBRANCH  18  26
ENDBRANCH  14  17
ENDBRANCH   8  13
ENDBRANCH   4   7
ENDBRANCH   2   3
ENDBRANCH   1   2
BRANCH   1  32
ATOM     32  C   UNL A   1      37.366  21.779  25.654  1.00  0.00     0.002 C 
BRANCH  32  33
ATOM     33  C   UNL A   1      38.851  22.008  25.952  1.00  0.00     0.002 C 
BRANCH  33  34
ATOM     34  C   UNL A   1      39.122  23.279  26.759  1.00  0.00     0.021 C 
BRANCH  34  35
ATOM     35  C   UNL A   1      40.579  23.426  27.156  1.00  0.00     0.116 C 
BRANCH  35  36
ATOM     36  N   UNL A   1      41.304  24.166  26.143  1.00  0.00    -0.352 N 
ATOM     37  C   UNL A   1      41.454  25.520  26.063  1.00  0.00     0.251 C 
ATOM     38  H   UNL A   1      41.733  23.633  25.435  1.00  0.00     0.163 HD
ATOM     39  O   UNL A   1      41.755  26.053  24.996  1.00  0.00    -0.269 OA
BRANCH  37  40
ATOM     40  C   UNL A   1      41.241  26.320  27.281  1.00  0.00     0.039 A 
ATOM     41  C   UNL A   1      42.170  27.301  27.615  1.00  0.00     0.014 A 
ATOM     42  C   UNL A   1      40.102  26.109  28.070  1.00  0.00     0.014 A 
ATOM     43  C   UNL A   1      41.949  28.080  28.746  1.00  0.00     0.010 A 
ATOM     44  C   UNL A   1      39.833  26.958  29.134  1.00  0.00     0.010 A 
ATOM     45  C   UNL A   1      40.772  27.928  29.501  1.00  0.00    -0.014 A 
BRANCH  45  46
ATOM     46  C   UNL A   1      40.538  28.783  30.685  1.00  0.00     0.031 A 
ATOM     47  C   UNL A   1      41.374  28.621  31.922  1.00  0.00     0.074 A 
ATOM     48  C   UNL A   1      39.558  29.705  30.636  1.00  0.00     0.049 A 
ATOM     49  N   UNL A   1      41.381  29.346  33.011  1.00  0.00    -0.248 NA
ATOM     50  C   UNL A   1      42.304  27.481  31.957  1.00  0.00     0.031 C 
ATOM     51  C   UNL A   1      38.626  29.883  29.521  1.00  0.00     0.029 A 
ATOM     52  N   UNL A   1      39.191  30.668  31.536  1.00  0.00    -0.354 N 
ATOM     53  C   UNL A   1      42.310  28.750  33.857  1.00  0.00     0.074 A 
ATOM     54  C   UNL A   1      42.790  27.563  33.185  1.00  0.00     0.031 C 
ATOM     55  C   UNL A   1      37.824  30.926  29.783  1.00  0.00     0.029 A 
ATOM     56  C   UNL A   1      38.164  31.467  31.095  1.00  0.00     0.049 A 
ATOM     57  H   UNL A   1      39.621  30.779  32.415  1.00  0.00     0.167 HD
ATOM     58  C   UNL A   1      42.742  29.172  35.069  1.00  0.00     0.037 A 
ATOM     59  C   UNL A   1      37.569  32.523  31.678  1.00  0.00     0.037 A 
ATOM     60  C   UNL A   1      42.248  30.358  35.722  1.00  0.00     0.049 A 
ATOM     61  C   UNL A   1      38.088  33.002  33.003  1.00  0.00     0.074 A 
ATOM     62  C   UNL A   1      42.657  30.919  36.917  1.00  0.00     0.029 A 
ATOM     63  N   UNL A   1      41.217  31.156  35.239  1.00  0.00    -0.354 N 
ATOM     64  N   UNL A   1      39.041  32.491  33.749  1.00  0.00    -0.248 NA
ATOM     65  C   UNL A   1      37.469  34.211  33.556  1.00  0.00     0.031 C 
ATOM     66  C   UNL A   1      41.833  32.018  37.188  1.00  0.00     0.029 A 
ATOM     67  C   UNL A   1      40.954  32.185  36.129  1.00  0.00     0.049 A 
ATOM     68  H   UNL A   1      40.743  31.011  34.388  1.00  0.00     0.167 HD
ATOM     69  C   UNL A   1      39.142  33.322  34.859  1.00  0.00     0.074 A 
ATOM     70  C   UNL A   1      38.173  34.384  34.666  1.00  0.00     0.031 C 
ATOM     71  C   UNL A   1      39.960  33.216  35.937  1.00  0.00     0.037 A 
BRANCH  58  72
ATOM     72  C   UNL A   1      43.782  28.330  35.762  1.00  0.00     0.058 A 
ATOM     73  C   UNL A   1      45.157  28.493  35.522  1.00  0.00     0.135 A 
ATOM     74  C   UNL A   1      43.397  27.327  36.668  1.00  0.00     0.135 A 
ATOM     75  F   UNL A   1      45.587  29.426  34.657  1.00  0.00    -0.206 F 
ATOM     76  C   UNL A   1      46.106  27.658  36.106  1.00  0.00     0.059 A 
ATOM     77  C   UNL A   1      44.330  26.504  37.292  1.00  0.00     0.059 A 
ATOM     78  F   UNL A   1      42.099  27.124  36.941  1.00  0.00    -0.206 F 
ATOM     79  C   UNL A   1      45.682  26.660  36.983  1.00  0.00     0.060 A 
BRANCH  79  80
ATOM     80  S   UNL A   1      46.918  25.560  37.702  1.00  0.00     0.124 S 
ATOM     81  O   UNL A   1      47.762  26.505  38.426  1.00  0.00    -0.237 OA
ATOM     82  O   UNL A   1      46.105  24.675  38.530  1.00  0.00    -0.237 OA
ATOM     83  O   UNL A   1      47.534  24.934  36.537  1.00  0.00    -0.744 OA
ENDBRANCH  79  80
ENDBRANCH  58  72
BRANCH  59  84
ATOM     84  C   UNL A   1      36.447  33.198  30.978  1.00  0.00     0.058 A 
ATOM     85  C   UNL A   1      35.136  33.136  31.468  1.00  0.00     0.135 A 
ATOM     86  C   UNL A   1      36.687  33.995  29.847  1.00  0.00     0.135 A 
ATOM     87  F   UNL A   1      34.855  32.386  32.545  1.00  0.00    -0.206 F 
ATOM     88  C   UNL A   1      34.101  33.847  30.868  1.00  0.00     0.059 A 
ATOM     89  C   UNL A   1      35.675  34.736  29.246  1.00  0.00     0.059 A 
ATOM     90  F   UNL A   1      37.930  34.104  29.353  1.00  0.00    -0.206 F 
ATOM     91  C   UNL A   1      34.384  34.657  29.765  1.00  0.00     0.060 A 
BRANCH  91  92
ATOM     92  S   UNL A   1      33.058  35.660  29.062  1.00  0.00     0.124 S 
ATOM     93  O   UNL A   1      33.808  36.728  28.412  1.00  0.00    -0.237 OA
ATOM     94  O   UNL A   1      32.396  34.710  28.173  1.00  0.00    -0.237 OA
ATOM     95  O   UNL A   1      32.280  36.056  30.233  1.00  0.00    -0.744 OA
ENDBRANCH  91  92
ENDBRANCH  59  84
BRANCH  71  96
ATOM     96  C   UNL A   1      39.835  34.286  36.989  1.00  0.00     0.058 A 
ATOM     97  C   UNL A   1      39.060  34.101  38.146  1.00  0.00     0.135 A 
ATOM     98  C   UNL A   1      40.495  35.516  36.835  1.00  0.00     0.135 A 
ATOM     99  F   UNL A   1      38.406  32.946  38.344  1.00  0.00    -0.206 F 
ATOM    100  C   UNL A   1      38.894  35.118  39.081  1.00  0.00     0.059 A 
ATOM    101  C   UNL A   1      40.374  36.533  37.776  1.00  0.00     0.059 A 
ATOM    102  F   UNL A   1      41.265  35.742  35.759  1.00  0.00    -0.206 F 
ATOM    103  C   UNL A   1      39.549  36.334  38.882  1.00  0.00     0.060 A 
BRANCH 103 104
ATOM    104  S   UNL A   1      39.302  37.657  40.084  1.00  0.00     0.124 S 
ATOM    105  O   UNL A   1      40.595  38.332  40.046  1.00  0.00    -0.237 OA
ATOM    106  O   UNL A   1      38.182  38.396  39.509  1.00  0.00    -0.237 OA
ATOM    107  O   UNL A   1      39.004  36.940  41.320  1.00  0.00    -0.744 OA
ENDBRANCH 103 104
ENDBRANCH  71  96
ENDBRANCH  45  46
ENDBRANCH  37  40
ENDBRANCH  35  36
ENDBRANCH  34  35
ENDBRANCH  33  34
ENDBRANCH  32  33
ENDBRANCH   1  32
TORSDOF 22
ENDMDL
MODEL 2
REMARK VINA RESULT:     -12.6      1.481      2.665
REMARK SMILES CCCOC(=O)c1c(NC(=O)[C@@H]2CC=CC[C@H]2C(=O)NCCCCCCNC(=O)c2ccc(-c3c4nc(c(-c5c(F)cc(S(=O)(=O)[O-])cc5F)c5ccc([nH]5)c(-c5c(F)cc(S(=O)(=O)[O-])cc5F)c5nc(c(-c6c(F)cc(S(=O)(=O)[O-])cc6F)c6ccc3[nH]6)C=C5)C=C4)cc2)sc2c1CCCC2
REMARK SMILES IDX 22 1 21 2 20 3 18 4 19 5 17 7 12 8 13 9 14 10 16 11 15 12
REMARK SMILES IDX 10 13 9 14 11 16 8 17 7 18 98 19 96 20 97 21 99 22 102 23
REMARK SMILES IDX 100 24 101 25 5 26 6 27 4 28 3 29 2 30 1 31 23 32 24 33
REMARK SMILES IDX 25 34 26 35 27 36 28 37 29 39 30 40 31 41 95 42 32 43 94 44
REMARK SMILES IDX 33 45 34 46 35 47 88 48 36 49 93 50 87 51 89 52 37 53 92 54
REMARK SMILES IDX 86 55 85 56 38 58 72 59 51 60 71 61 52 62 55 63 70 64 90 65
REMARK SMILES IDX 53 66 54 67 69 69 91 70 56 71 39 72 40 73 49 74 41 75 42 76
REMARK SMILES IDX 48 77 50 78 43 79 44 80 45 81 46 82 47 83 73 84 74 85 83 86
REMARK SMILES IDX 75 87 76 88 82 89 84 90 77 91 78 92 79 93 80 94 81 95 57 96
REMARK SMILES IDX 58 97 67 98 59 99 60 100 66 101 68 102 61 103 62 104 63 105
REMARK SMILES IDX 64 106 65 107
REMARK H PARENT 20 6 9 15 27 38 89 57 55 68
REMARK Flexibility Score: inf
ROOT
ATOM      1  C   UNL A   1      40.500  22.425  26.693  1.00  0.00     0.021 C 
ENDROOT
BRANCH   1   2
ATOM      2  C   UNL A   1      39.286  21.678  26.135  1.00  0.00     0.116 C 
BRANCH   2   3
ATOM      3  N   UNL A   1      38.136  22.538  26.205  1.00  0.00    -0.356 N 
ATOM      4  C   UNL A   1      37.161  22.378  25.275  1.00  0.00     0.224 C 
ATOM      5  O   UNL A   1      36.912  23.268  24.466  1.00  0.00    -0.275 OA
ATOM      6  H   UNL A   1      38.058  23.224  26.907  1.00  0.00     0.163 HD
BRANCH   4   7
ATOM      7  C   UNL A   1      36.285  21.181  25.434  1.00  0.00     0.095 C 
ATOM      8  C   UNL A   1      34.360  21.513  25.696  1.00  0.00     0.095 C 
ATOM      9  C   UNL A   1      33.188  19.936  25.604  1.00  0.00     0.041 C 
ATOM     10  C   UNL A   1      33.884  18.343  24.801  1.00  0.00    -0.030 C 
ATOM     11  C   UNL A   1      36.740  19.428  24.660  1.00  0.00     0.041 C 
ATOM     12  C   UNL A   1      35.336  18.114  24.453  1.00  0.00    -0.030 C 
BRANCH   8  13
ATOM     13  C   UNL A   1      33.960  22.303  26.898  1.00  0.00     0.229 C 
ATOM     14  N   UNL A   1      33.231  23.426  26.822  1.00  0.00    -0.317 N 
ATOM     15  H   UNL A   1      33.104  23.907  27.672  1.00  0.00     0.170 HD
ATOM     16  O   UNL A   1      34.349  21.940  28.015  1.00  0.00    -0.274 OA
BRANCH  14  17
ATOM     17  C   UNL A   1      32.641  23.997  25.735  1.00  0.00     0.110 A 
ATOM     18  C   UNL A   1      31.663  24.939  25.474  1.00  0.00     0.098 A 
ATOM     19  C   UNL A   1      31.868  25.429  24.105  1.00  0.00    -0.017 A 
ATOM     20  S   UNL A   1      33.396  23.395  24.328  1.00  0.00    -0.122 S 
ATOM     21  C   UNL A   1      32.777  24.662  23.401  1.00  0.00     0.011 A 
ATOM     22  C   UNL A   1      31.305  26.686  23.497  1.00  0.00     0.038 C 
ATOM     23  C   UNL A   1      33.202  24.869  21.982  1.00  0.00     0.047 C 
ATOM     24  C   UNL A   1      31.416  26.681  21.964  1.00  0.00     0.005 C 
ATOM     25  C   UNL A   1      32.818  26.268  21.490  1.00  0.00     0.006 C 
BRANCH  18  26
ATOM     26  C   UNL A   1      30.667  25.534  26.409  1.00  0.00     0.341 C 
ATOM     27  O   UNL A   1      29.538  25.052  26.425  1.00  0.00    -0.246 OA
BRANCH  26  28
ATOM     28  O   UNL A   1      31.078  26.753  27.092  1.00  0.00    -0.462 OA
BRANCH  28  29
ATOM     29  C   UNL A   1      31.796  28.502  27.579  1.00  0.00     0.233 C 
BRANCH  29  30
ATOM     30  C   UNL A   1      31.810  29.890  26.799  1.00  0.00     0.038 C 
ATOM     31  C   UNL A   1      33.236  30.469  26.743  1.00  0.00     0.007 C 
ENDBRANCH  29  30
ENDBRANCH  28  29
ENDBRANCH  26  28
ENDBRANCH  18  26
ENDBRANCH  14  17
ENDBRANCH   8  13
ENDBRANCH   4   7
ENDBRANCH   2   3
ENDBRANCH   1   2
BRANCH   1  32
ATOM     32  C   UNL A   1      40.834  22.012  28.135  1.00  0.00     0.002 C 
BRANCH  32  33
ATOM     33  C   UNL A   1      42.137  22.624  28.660  1.00  0.00     0.002 C 
BRANCH  33  34
ATOM     34  C   UNL A   1      43.203  22.810  27.579  1.00  0.00     0.021 C 
BRANCH  34  35
ATOM     35  C   UNL A   1      43.628  24.256  27.412  1.00  0.00     0.116 C 
BRANCH  35  36
ATOM     36  N   UNL A   1      43.106  24.793  26.172  1.00  0.00    -0.352 N 
ATOM     37  C   UNL A   1      42.112  25.718  26.029  1.00  0.00     0.251 C 
ATOM     38  H   UNL A   1      43.511  24.453  25.342  1.00  0.00     0.163 HD
ATOM     39  O   UNL A   1      41.505  25.823  24.965  1.00  0.00    -0.269 OA
BRANCH  37  40
ATOM     40  C   UNL A   1      41.787  26.578  27.180  1.00  0.00     0.039 A 
ATOM     41  C   UNL A   1      40.813  26.159  28.082  1.00  0.00     0.014 A 
ATOM     42  C   UNL A   1      42.474  27.784  27.373  1.00  0.00     0.014 A 
ATOM     43  C   UNL A   1      40.532  26.954  29.188  1.00  0.00     0.010 A 
ATOM     44  C   UNL A   1      42.266  28.519  28.531  1.00  0.00     0.010 A 
ATOM     45  C   UNL A   1      41.269  28.128  29.431  1.00  0.00    -0.014 A 
BRANCH  45  46
ATOM     46  C   UNL A   1      40.978  28.949  30.627  1.00  0.00     0.031 A 
ATOM     47  C   UNL A   1      41.796  28.795  31.877  1.00  0.00     0.074 A 
ATOM     48  C   UNL A   1      39.964  29.832  30.575  1.00  0.00     0.049 A 
ATOM     49  N   UNL A   1      41.752  29.497  32.980  1.00  0.00    -0.248 NA
ATOM     50  C   UNL A   1      42.769  27.691  31.909  1.00  0.00     0.031 C 
ATOM     51  C   UNL A   1      39.048  29.996  29.444  1.00  0.00     0.029 A 
ATOM     52  N   UNL A   1      39.541  30.762  31.486  1.00  0.00    -0.354 N 
ATOM     53  C   UNL A   1      42.687  28.921  33.832  1.00  0.00     0.074 A 
ATOM     54  C   UNL A   1      43.227  27.768  33.148  1.00  0.00     0.031 C 
ATOM     55  C   UNL A   1      38.200  31.001  29.710  1.00  0.00     0.029 A 
ATOM     56  C   UNL A   1      38.493  31.529  31.039  1.00  0.00     0.049 A 
ATOM     57  H   UNL A   1      39.949  30.872  32.375  1.00  0.00     0.167 HD
ATOM     58  C   UNL A   1      43.078  29.335  35.062  1.00  0.00     0.037 A 
ATOM     59  C   UNL A   1      37.845  32.549  31.631  1.00  0.00     0.037 A 
ATOM     60  C   UNL A   1      42.524  30.486  35.727  1.00  0.00     0.049 A 
ATOM     61  C   UNL A   1      38.318  33.021  32.975  1.00  0.00     0.074 A 
ATOM     62  C   UNL A   1      42.887  31.039  36.940  1.00  0.00     0.029 A 
ATOM     63  N   UNL A   1      41.473  31.253  35.238  1.00  0.00    -0.354 N 
ATOM     64  N   UNL A   1      39.275  32.533  33.730  1.00  0.00    -0.248 NA
ATOM     65  C   UNL A   1      37.641  34.193  33.538  1.00  0.00     0.031 C 
ATOM     66  C   UNL A   1      42.015  32.099  37.216  1.00  0.00     0.029 A 
ATOM     67  C   UNL A   1      41.152  32.254  36.143  1.00  0.00     0.049 A 
ATOM     68  H   UNL A   1      41.022  31.107  34.375  1.00  0.00     0.167 HD
ATOM     69  C   UNL A   1      39.321  33.344  34.858  1.00  0.00     0.074 A 
ATOM     70  C   UNL A   1      38.316  34.371  34.666  1.00  0.00     0.031 C 
ATOM     71  C   UNL A   1      40.122  33.248  35.951  1.00  0.00     0.037 A 
BRANCH  58  72
ATOM     72  C   UNL A   1      44.136  28.520  35.760  1.00  0.00     0.058 A 
ATOM     73  C   UNL A   1      43.811  27.480  36.649  1.00  0.00     0.135 A 
ATOM     74  C   UNL A   1      45.498  28.794  35.553  1.00  0.00     0.135 A 
ATOM     75  F   UNL A   1      42.527  27.179  36.898  1.00  0.00    -0.206 F 
ATOM     76  C   UNL A   1      44.793  26.785  37.351  1.00  0.00     0.059 A 
ATOM     77  C   UNL A   1      46.498  28.087  36.215  1.00  0.00     0.059 A 
ATOM     78  F   UNL A   1      45.871  29.772  34.713  1.00  0.00    -0.206 F 
ATOM     79  C   UNL A   1      46.134  27.102  37.133  1.00  0.00     0.060 A 
BRANCH  79  80
ATOM     80  S   UNL A   1      47.394  26.221  38.078  1.00  0.00     0.124 S 
ATOM     81  O   UNL A   1      48.239  27.322  38.530  1.00  0.00    -0.237 OA
ATOM     82  O   UNL A   1      46.605  25.563  39.114  1.00  0.00    -0.237 OA
ATOM     83  O   UNL A   1      47.998  25.330  37.093  1.00  0.00    -0.744 OA
ENDBRANCH  79  80
ENDBRANCH  58  72
BRANCH  59  84
ATOM     84  C   UNL A   1      36.711  33.193  30.921  1.00  0.00     0.058 A 
ATOM     85  C   UNL A   1      35.381  32.922  31.269  1.00  0.00     0.135 A 
ATOM     86  C   UNL A   1      36.946  34.166  29.934  1.00  0.00     0.135 A 
ATOM     87  F   UNL A   1      35.105  32.000  32.204  1.00  0.00    -0.206 F 
ATOM     88  C   UNL A   1      34.321  33.597  30.671  1.00  0.00     0.059 A 
ATOM     89  C   UNL A   1      35.905  34.872  29.342  1.00  0.00     0.059 A 
ATOM     90  F   UNL A   1      38.203  34.475  29.582  1.00  0.00    -0.206 F 
ATOM     91  C   UNL A   1      34.595  34.582  29.718  1.00  0.00     0.060 A 
BRANCH  91  92
ATOM     92  S   UNL A   1      33.220  35.528  29.029  1.00  0.00     0.124 S 
ATOM     93  O   UNL A   1      33.918  36.499  28.195  1.00  0.00    -0.237 OA
ATOM     94  O   UNL A   1      32.467  34.499  28.321  1.00  0.00    -0.237 OA
ATOM     95  O   UNL A   1      32.560  36.072  30.214  1.00  0.00    -0.744 OA
ENDBRANCH  91  92
ENDBRANCH  59  84
BRANCH  71  96
ATOM     96  C   UNL A   1      39.934  34.291  37.021  1.00  0.00     0.058 A 
ATOM     97  C   UNL A   1      39.077  34.084  38.114  1.00  0.00     0.135 A 
ATOM     98  C   UNL A   1      40.615  35.517  36.947  1.00  0.00     0.135 A 
ATOM     99  F   UNL A   1      38.399  32.932  38.234  1.00  0.00    -0.206 F 
ATOM    100  C   UNL A   1      38.856  35.078  39.063  1.00  0.00     0.059 A 
ATOM    101  C   UNL A   1      40.439  36.510  37.905  1.00  0.00     0.059 A 
ATOM    102  F   UNL A   1      41.461  35.762  35.935  1.00  0.00    -0.206 F 
ATOM    103  C   UNL A   1      39.536  36.291  38.944  1.00  0.00     0.060 A 
BRANCH 103 104
ATOM    104  S   UNL A   1      39.218  37.584  40.162  1.00  0.00     0.124 S 
ATOM    105  O   UNL A   1      38.167  38.354  39.503  1.00  0.00    -0.237 OA
ATOM    106  O   UNL A   1      38.803  36.816  41.332  1.00  0.00    -0.237 OA
ATOM    107  O   UNL A   1      40.507  38.258  40.286  1.00  0.00    -0.744 OA
ENDBRANCH 103 104
ENDBRANCH  71  96
ENDBRANCH  45  46
ENDBRANCH  37  40
ENDBRANCH  35  36
ENDBRANCH  34  35
ENDBRANCH  33  34
ENDBRANCH  32  33
ENDBRANCH   1  32
TORSDOF 22
ENDMDL
MODEL 3
REMARK VINA RESULT:     -12.5      1.624      3.058
REMARK SMILES CCCOC(=O)c1c(NC(=O)[C@@H]2CC=CC[C@H]2C(=O)NCCCCCCNC(=O)c2ccc(-c3c4nc(c(-c5c(F)cc(S(=O)(=O)[O-])cc5F)c5ccc([nH]5)c(-c5c(F)cc(S(=O)(=O)[O-])cc5F)c5nc(c(-c6c(F)cc(S(=O)(=O)[O-])cc6F)c6ccc3[nH]6)C=C5)C=C4)cc2)sc2c1CCCC2
REMARK SMILES IDX 22 1 21 2 20 3 18 4 19 5 17 7 12 8 13 9 14 10 16 11 15 12
REMARK SMILES IDX 10 13 9 14 11 16 8 17 7 18 98 19 96 20 97 21 99 22 102 23
REMARK SMILES IDX 100 24 101 25 5 26 6 27 4 28 3 29 2 30 1 31 23 32 24 33
REMARK SMILES IDX 25 34 26 35 27 36 28 37 29 39 30 40 31 41 95 42 32 43 94 44
REMARK SMILES IDX 33 45 34 46 35 47 88 48 36 49 93 50 87 51 89 52 37 53 92 54
REMARK SMILES IDX 86 55 85 56 38 58 72 59 51 60 71 61 52 62 55 63 70 64 90 65
REMARK SMILES IDX 53 66 54 67 69 69 91 70 56 71 39 72 40 73 49 74 41 75 42 76
REMARK SMILES IDX 48 77 50 78 43 79 44 80 45 81 46 82 47 83 73 84 74 85 83 86
REMARK SMILES IDX 75 87 76 88 82 89 84 90 77 91 78 92 79 93 80 94 81 95 57 96
REMARK SMILES IDX 58 97 67 98 59 99 60 100 66 101 68 102 61 103 62 104 63 105
REMARK SMILES IDX 64 106 65 107
REMARK H PARENT 20 6 9 15 27 38 89 57 55 68
REMARK Flexibility Score: inf
ROOT
ATOM      1  C   UNL A   1      36.639  22.552  23.808  1.00  0.00     0.021 C 
ENDROOT
BRANCH   1   2
ATOM      2  C   UNL A   1      35.144  22.266  23.968  1.00  0.00     0.116 C 
BRANCH   2   3
ATOM      3  N   UNL A   1      34.409  23.102  23.058  1.00  0.00    -0.356 N 
ATOM      4  C   UNL A   1      33.054  23.045  23.091  1.00  0.00     0.224 C 
ATOM      5  O   UNL A   1      32.419  22.627  22.126  1.00  0.00    -0.275 OA
ATOM      6  H   UNL A   1      34.875  23.699  22.430  1.00  0.00     0.163 HD
BRANCH   4   7
ATOM      7  C   UNL A   1      32.391  23.710  24.250  1.00  0.00     0.095 C 
ATOM      8  C   UNL A   1      31.820  25.580  23.999  1.00  0.00     0.095 C 
ATOM      9  C   UNL A   1      30.689  26.339  25.419  1.00  0.00     0.041 C 
ATOM     10  C   UNL A   1      29.836  25.130  26.634  1.00  0.00    -0.030 C 
ATOM     11  C   UNL A   1      31.397  22.702  25.621  1.00  0.00     0.041 C 
ATOM     12  C   UNL A   1      30.149  23.656  26.749  1.00  0.00    -0.030 C 
BRANCH   8  13
ATOM     13  C   UNL A   1      32.881  26.582  23.683  1.00  0.00     0.229 C 
ATOM     14  N   UNL A   1      32.617  27.882  23.483  1.00  0.00    -0.317 N 
ATOM     15  H   UNL A   1      33.384  28.429  23.195  1.00  0.00     0.170 HD
ATOM     16  O   UNL A   1      34.051  26.201  23.553  1.00  0.00    -0.274 OA
BRANCH  14  17
ATOM     17  C   UNL A   1      31.440  28.553  23.621  1.00  0.00     0.110 A 
ATOM     18  C   UNL A   1      30.925  29.572  24.400  1.00  0.00     0.098 A 
ATOM     19  C   UNL A   1      29.759  30.124  23.700  1.00  0.00    -0.017 A 
ATOM     20  S   UNL A   1      30.348  27.982  22.440  1.00  0.00    -0.122 S 
ATOM     21  C   UNL A   1      29.364  29.339  22.633  1.00  0.00     0.011 A 
ATOM     22  C   UNL A   1      29.091  31.449  23.955  1.00  0.00     0.038 C 
ATOM     23  C   UNL A   1      28.207  29.598  21.721  1.00  0.00     0.047 C 
ATOM     24  C   UNL A   1      27.700  31.524  23.304  1.00  0.00     0.005 C 
ATOM     25  C   UNL A   1      27.721  31.046  21.844  1.00  0.00     0.006 C 
BRANCH  18  26
ATOM     26  C   UNL A   1      31.491  30.178  25.638  1.00  0.00     0.341 C 
ATOM     27  O   UNL A   1      31.053  31.269  25.992  1.00  0.00    -0.246 OA
BRANCH  26  28
ATOM     28  O   UNL A   1      32.641  29.498  26.217  1.00  0.00    -0.462 OA
BRANCH  28  29
ATOM     29  C   UNL A   1      34.281  29.020  27.163  1.00  0.00     0.233 C 
BRANCH  29  30
ATOM     30  C   UNL A   1      35.548  29.889  27.582  1.00  0.00     0.038 C 
ATOM     31  C   UNL A   1      35.125  31.319  27.964  1.00  0.00     0.007 C 
ENDBRANCH  29  30
ENDBRANCH  28  29
ENDBRANCH  26  28
ENDBRANCH  18  26
ENDBRANCH  14  17
ENDBRANCH   8  13
ENDBRANCH   4   7
ENDBRANCH   2   3
ENDBRANCH   1   2
BRANCH   1  32
ATOM     32  C   UNL A   1      37.513  21.599  24.638  1.00  0.00     0.002 C 
BRANCH  32  33
ATOM     33  C   UNL A   1      38.434  22.319  25.629  1.00  0.00     0.002 C 
BRANCH  33  34
ATOM     34  C   UNL A   1      37.763  23.496  26.340  1.00  0.00     0.021 C 
BRANCH  34  35
ATOM     35  C   UNL A   1      38.618  24.748  26.343  1.00  0.00     0.116 C 
BRANCH  35  36
ATOM     36  N   UNL A   1      40.009  24.408  26.117  1.00  0.00    -0.352 N 
ATOM     37  C   UNL A   1      41.105  25.059  26.604  1.00  0.00     0.251 C 
ATOM     38  H   UNL A   1      40.180  23.623  25.549  1.00  0.00     0.163 HD
ATOM     39  O   UNL A   1      42.202  24.924  26.065  1.00  0.00    -0.269 OA
BRANCH  37  40
ATOM     40  C   UNL A   1      40.936  25.927  27.782  1.00  0.00     0.039 A 
ATOM     41  C   UNL A   1      41.819  26.985  27.974  1.00  0.00     0.014 A 
ATOM     42  C   UNL A   1      39.881  25.700  28.677  1.00  0.00     0.014 A 
ATOM     43  C   UNL A   1      41.637  27.825  29.067  1.00  0.00     0.010 A 
ATOM     44  C   UNL A   1      39.641  26.602  29.703  1.00  0.00     0.010 A 
ATOM     45  C   UNL A   1      40.537  27.652  29.927  1.00  0.00    -0.014 A 
BRANCH  45  46
ATOM     46  C   UNL A   1      40.341  28.571  31.070  1.00  0.00     0.031 A 
ATOM     47  C   UNL A   1      41.169  28.430  32.315  1.00  0.00     0.074 A 
ATOM     48  C   UNL A   1      39.403  29.532  30.976  1.00  0.00     0.049 A 
ATOM     49  N   UNL A   1      41.208  29.203  33.369  1.00  0.00    -0.248 NA
ATOM     50  C   UNL A   1      42.048  27.253  32.405  1.00  0.00     0.031 C 
ATOM     51  C   UNL A   1      38.480  29.699  29.851  1.00  0.00     0.029 A 
ATOM     52  N   UNL A   1      39.079  30.551  31.829  1.00  0.00    -0.354 N 
ATOM     53  C   UNL A   1      42.109  28.607  34.243  1.00  0.00     0.074 A 
ATOM     54  C   UNL A   1      42.537  27.370  33.629  1.00  0.00     0.031 C 
ATOM     55  C   UNL A   1      37.725  30.787  30.062  1.00  0.00     0.029 A 
ATOM     56  C   UNL A   1      38.089  31.373  31.349  1.00  0.00     0.049 A 
ATOM     57  H   UNL A   1      39.513  30.683  32.703  1.00  0.00     0.167 HD
ATOM     58  C   UNL A   1      42.560  29.065  35.436  1.00  0.00     0.037 A 
ATOM     59  C   UNL A   1      37.541  32.481  31.881  1.00  0.00     0.037 A 
ATOM     60  C   UNL A   1      42.118  30.300  36.032  1.00  0.00     0.049 A 
ATOM     61  C   UNL A   1      38.080  32.997  33.184  1.00  0.00     0.074 A 
ATOM     62  C   UNL A   1      42.551  30.898  37.200  1.00  0.00     0.029 A 
ATOM     63  N   UNL A   1      41.124  31.120  35.510  1.00  0.00    -0.354 N 
ATOM     64  N   UNL A   1      39.009  32.480  33.954  1.00  0.00    -0.248 NA
ATOM     65  C   UNL A   1      37.515  34.256  33.678  1.00  0.00     0.031 C 
ATOM     66  C   UNL A   1      41.777  32.044  37.418  1.00  0.00     0.029 A 
ATOM     67  C   UNL A   1      40.907  32.201  36.350  1.00  0.00     0.049 A 
ATOM     68  H   UNL A   1      40.644  30.957  34.665  1.00  0.00     0.167 HD
ATOM     69  C   UNL A   1      39.146  33.356  35.025  1.00  0.00     0.074 A 
ATOM     70  C   UNL A   1      38.226  34.450  34.781  1.00  0.00     0.031 C 
ATOM     71  C   UNL A   1      39.959  33.264  36.109  1.00  0.00     0.037 A 
BRANCH  58  72
ATOM     72  C   UNL A   1      43.561  28.211  36.170  1.00  0.00     0.058 A 
ATOM     73  C   UNL A   1      43.168  27.128  36.977  1.00  0.00     0.135 A 
ATOM     74  C   UNL A   1      44.935  28.490  36.083  1.00  0.00     0.135 A 
ATOM     75  F   UNL A   1      41.868  26.820  37.111  1.00  0.00    -0.206 F 
ATOM     76  C   UNL A   1      44.093  26.394  37.715  1.00  0.00     0.059 A 
ATOM     77  C   UNL A   1      45.880  27.745  36.782  1.00  0.00     0.059 A 
ATOM     78  F   UNL A   1      45.371  29.508  35.326  1.00  0.00    -0.206 F 
ATOM     79  C   UNL A   1      45.447  26.715  37.617  1.00  0.00     0.060 A 
BRANCH  79  80
ATOM     80  S   UNL A   1      46.630  25.782  38.609  1.00  0.00     0.124 S 
ATOM     81  O   UNL A   1      45.792  24.697  39.114  1.00  0.00    -0.237 OA
ATOM     82  O   UNL A   1      47.633  25.398  37.622  1.00  0.00    -0.237 OA
ATOM     83  O   UNL A   1      47.074  26.748  39.608  1.00  0.00    -0.744 OA
ENDBRANCH  79  80
ENDBRANCH  58  72
BRANCH  59  84
ATOM     84  C   UNL A   1      36.450  33.171  31.148  1.00  0.00     0.058 A 
ATOM     85  C   UNL A   1      35.127  33.144  31.609  1.00  0.00     0.135 A 
ATOM     86  C   UNL A   1      36.733  33.949  30.013  1.00  0.00     0.135 A 
ATOM     87  F   UNL A   1      34.806  32.414  32.688  1.00  0.00    -0.206 F 
ATOM     88  C   UNL A   1      34.122  33.870  30.977  1.00  0.00     0.059 A 
ATOM     89  C   UNL A   1      35.751  34.704  29.381  1.00  0.00     0.059 A 
ATOM     90  F   UNL A   1      37.989  34.024  29.546  1.00  0.00    -0.206 F 
ATOM     91  C   UNL A   1      34.448  34.659  29.872  1.00  0.00     0.060 A 
BRANCH  91  92
ATOM     92  S   UNL A   1      33.160  35.683  29.127  1.00  0.00     0.124 S 
ATOM     93  O   UNL A   1      32.463  36.186  30.305  1.00  0.00    -0.237 OA
ATOM     94  O   UNL A   1      33.943  36.661  28.379  1.00  0.00    -0.237 OA
ATOM     95  O   UNL A   1      32.411  34.734  28.306  1.00  0.00    -0.744 OA
ENDBRANCH  91  92
ENDBRANCH  59  84
BRANCH  71  96
ATOM     96  C   UNL A   1      39.882  34.387  37.110  1.00  0.00     0.058 A 
ATOM     97  C   UNL A   1      38.977  34.359  38.184  1.00  0.00     0.135 A 
ATOM     98  C   UNL A   1      40.718  35.508  36.988  1.00  0.00     0.135 A 
ATOM     99  F   UNL A   1      38.153  33.313  38.348  1.00  0.00    -0.206 F 
ATOM    100  C   UNL A   1      38.864  35.430  39.066  1.00  0.00     0.059 A 
ATOM    101  C   UNL A   1      40.648  36.572  37.881  1.00  0.00     0.059 A 
ATOM    102  F   UNL A   1      41.615  35.579  35.992  1.00  0.00    -0.206 F 
ATOM    103  C   UNL A   1      39.699  36.535  38.900  1.00  0.00     0.060 A 
BRANCH 103 104
ATOM    104  S   UNL A   1      39.520  37.931  40.030  1.00  0.00     0.124 S 
ATOM    105  O   UNL A   1      40.712  38.714  39.717  1.00  0.00    -0.237 OA
ATOM    106  O   UNL A   1      38.249  38.513  39.610  1.00  0.00    -0.237 OA
ATOM    107  O   UNL A   1      39.511  37.302  41.348  1.00  0.00    -0.744 OA
ENDBRANCH 103 104
ENDBRANCH  71  96
ENDBRANCH  45  46
ENDBRANCH  37  40
ENDBRANCH  35  36
ENDBRANCH  34  35
ENDBRANCH  33  34
ENDBRANCH  32  33
ENDBRANCH   1  32
TORSDOF 22
ENDMDL
