MODEL 1
REMARK VINA RESULT:     -12.6      0.000      0.000
REMARK SMILES COc1ccc(F)cc1-c1ccc(C[C@]2(C(=O)NCCCCCCNC(=O)c3ccc(-c4c5nc(c(-c6c(F)cc(S(=O)(=O)[O-])cc6F)c6ccc([nH]6)c(-c6c(F)cc(S(=O)(=O)[O-])cc6F)c6nc(c(-c7c(F)cc(S(=O)(=O)[O-])cc7F)c7ccc4[nH]7)C=C6)C=C5)cc3)CCCO2)cc1
REMARK SMILES IDX 21 1 20 2 19 3 18 4 16 5 17 6 15 8 94 9 97 10 95 11 96 12
REMARK SMILES IDX 14 13 13 14 10 15 11 16 99 17 12 18 98 19 9 20 3 21 4 22
REMARK SMILES IDX 5 23 8 24 6 25 7 26 2 27 1 28 22 29 23 30 24 31 25 32 26 33
REMARK SMILES IDX 27 35 28 36 29 37 93 38 30 39 92 40 31 41 32 42 33 43 86 44
REMARK SMILES IDX 34 45 91 46 85 47 87 48 35 49 90 50 84 51 83 52 36 54 70 55
REMARK SMILES IDX 49 56 69 57 50 58 53 59 68 60 88 61 51 62 52 63 67 65 89 66
REMARK SMILES IDX 54 67 37 68 38 69 47 70 39 71 40 72 46 73 48 74 41 75 42 76
REMARK SMILES IDX 43 77 44 78 45 79 71 80 72 81 81 82 73 83 74 84 80 85 82 86
REMARK SMILES IDX 75 87 76 88 77 89 78 90 79 91 55 92 56 93 65 94 57 95 58 96
REMARK SMILES IDX 64 97 66 98 59 99 60 100 61 101 62 102 63 103
REMARK H PARENT 18 7 25 34 87 53 53 64
REMARK Flexibility Score: inf
ROOT
ATOM      1  C   UNL A   1      38.912  21.500  25.854  1.00  0.00     0.002 C 
ENDROOT
BRANCH   1   2
ATOM      2  C   UNL A   1      37.885  20.608  25.150  1.00  0.00     0.021 C 
BRANCH   2   3
ATOM      3  C   UNL A   1      36.500  21.240  25.016  1.00  0.00     0.116 C 
BRANCH   3   4
ATOM      4  N   UNL A   1      35.464  20.229  24.959  1.00  0.00    -0.354 N 
ATOM      5  C   UNL A   1      34.110  20.347  24.820  1.00  0.00     0.252 C 
ATOM      6  O   UNL A   1      33.468  19.291  24.872  1.00  0.00    -0.272 OA
ATOM      7  H   UNL A   1      35.790  19.303  25.035  1.00  0.00     0.163 HD
BRANCH   5   8
ATOM      8  C   UNL A   1      33.408  21.733  24.646  1.00  0.00     0.150 C 
ATOM      9  C   UNL A   1      34.039  22.530  23.499  1.00  0.00     0.048 C 
ATOM     10  O   UNL A   1      32.020  21.540  24.314  1.00  0.00    -0.365 OA
ATOM     11  C   UNL A   1      32.897  22.905  22.583  1.00  0.00     0.032 C 
ATOM     12  C   UNL A   1      31.643  22.502  23.324  1.00  0.00     0.162 C 
BRANCH   8  13
ATOM     13  C   UNL A   1      33.513  22.473  26.015  1.00  0.00     0.081 C 
BRANCH  13  14
ATOM     14  C   UNL A   1      33.221  23.960  26.028  1.00  0.00    -0.045 A 
ATOM     15  C   UNL A   1      32.732  26.744  26.102  1.00  0.00    -0.015 A 
ATOM     16  C   UNL A   1      31.732  25.831  26.461  1.00  0.00     0.009 A 
ATOM     17  C   UNL A   1      33.975  26.247  25.688  1.00  0.00     0.009 A 
ATOM     18  C   UNL A   1      31.968  24.456  26.407  1.00  0.00     0.004 A 
ATOM     19  C   UNL A   1      34.218  24.872  25.658  1.00  0.00     0.004 A 
BRANCH  15  20
ATOM     20  C   UNL A   1      32.482  28.188  26.173  1.00  0.00     0.027 A 
ATOM     21  C   UNL A   1      31.597  28.840  25.289  1.00  0.00     0.126 A 
ATOM     22  C   UNL A   1      31.364  30.216  25.401  1.00  0.00     0.050 A 
ATOM     23  C   UNL A   1      32.030  30.959  26.374  1.00  0.00     0.043 A 
ATOM     24  C   UNL A   1      33.144  28.955  27.146  1.00  0.00     0.051 A 
ATOM     25  C   UNL A   1      32.914  30.323  27.235  1.00  0.00     0.124 A 
ATOM     26  F   UNL A   1      33.546  31.038  28.175  1.00  0.00    -0.207 F 
BRANCH  21  27
ATOM     27  O   UNL A   1      30.907  28.070  24.386  1.00  0.00    -0.496 OA
ATOM     28  C   UNL A   1      31.329  28.260  23.039  1.00  0.00     0.278 C 
ENDBRANCH  21  27
ENDBRANCH  15  20
ENDBRANCH  13  14
ENDBRANCH   8  13
ENDBRANCH   5   8
ENDBRANCH   3   4
ENDBRANCH   2   3
ENDBRANCH   1   2
BRANCH   1  29
ATOM     29  C   UNL A   1      40.229  20.806  26.220  1.00  0.00     0.002 C 
BRANCH  29  30
ATOM     30  C   UNL A   1      41.136  21.584  27.180  1.00  0.00     0.021 C 
BRANCH  30  31
ATOM     31  C   UNL A   1      40.794  23.065  27.340  1.00  0.00     0.116 C 
BRANCH  31  32
ATOM     32  N   UNL A   1      41.362  23.870  26.274  1.00  0.00    -0.352 N 
ATOM     33  C   UNL A   1      41.472  25.231  26.161  1.00  0.00     0.251 C 
ATOM     34  H   UNL A   1      41.724  23.358  25.514  1.00  0.00     0.163 HD
ATOM     35  O   UNL A   1      41.791  25.720  25.082  1.00  0.00    -0.269 OA
BRANCH  33  36
ATOM     36  C   UNL A   1      41.206  26.112  27.321  1.00  0.00     0.039 A 
ATOM     37  C   UNL A   1      42.104  27.151  27.585  1.00  0.00     0.014 A 
ATOM     38  C   UNL A   1      40.129  25.884  28.183  1.00  0.00     0.014 A 
ATOM     39  C   UNL A   1      41.904  27.977  28.692  1.00  0.00     0.010 A 
ATOM     40  C   UNL A   1      39.897  26.746  29.256  1.00  0.00     0.010 A 
ATOM     41  C   UNL A   1      40.790  27.791  29.529  1.00  0.00    -0.014 A 
BRANCH  41  42
ATOM     42  C   UNL A   1      40.571  28.688  30.693  1.00  0.00     0.031 A 
ATOM     43  C   UNL A   1      41.440  28.584  31.916  1.00  0.00     0.074 A 
ATOM     44  C   UNL A   1      39.578  29.595  30.646  1.00  0.00     0.049 A 
ATOM     45  N   UNL A   1      41.428  29.321  32.997  1.00  0.00    -0.248 NA
ATOM     46  C   UNL A   1      42.434  27.502  31.938  1.00  0.00     0.031 C 
ATOM     47  C   UNL A   1      38.633  29.753  29.538  1.00  0.00     0.029 A 
ATOM     48  N   UNL A   1      39.203  30.562  31.543  1.00  0.00    -0.354 N 
ATOM     49  C   UNL A   1      42.408  28.790  33.828  1.00  0.00     0.074 A 
ATOM     50  C   UNL A   1      42.957  27.637  33.149  1.00  0.00     0.031 C 
ATOM     51  C   UNL A   1      37.817  30.786  29.801  1.00  0.00     0.029 A 
ATOM     52  C   UNL A   1      38.166  31.349  31.103  1.00  0.00     0.049 A 
ATOM     53  H   UNL A   1      39.636  30.681  32.419  1.00  0.00     0.167 HD
ATOM     54  C   UNL A   1      42.827  29.237  35.037  1.00  0.00     0.037 A 
ATOM     55  C   UNL A   1      37.576  32.418  31.671  1.00  0.00     0.037 A 
ATOM     56  C   UNL A   1      42.294  30.400  35.698  1.00  0.00     0.049 A 
ATOM     57  C   UNL A   1      38.079  32.920  32.993  1.00  0.00     0.074 A 
ATOM     58  C   UNL A   1      42.693  30.970  36.895  1.00  0.00     0.029 A 
ATOM     59  N   UNL A   1      41.244  31.172  35.220  1.00  0.00    -0.354 N 
ATOM     60  N   UNL A   1      39.047  32.443  33.738  1.00  0.00    -0.248 NA
ATOM     61  C   UNL A   1      37.418  34.109  33.548  1.00  0.00     0.031 C 
ATOM     62  C   UNL A   1      41.863  32.067  37.156  1.00  0.00     0.029 A 
ATOM     63  C   UNL A   1      40.972  32.203  36.105  1.00  0.00     0.049 A 
ATOM     64  H   UNL A   1      40.765  31.011  34.375  1.00  0.00     0.167 HD
ATOM     65  C   UNL A   1      39.120  33.278  34.848  1.00  0.00     0.074 A 
ATOM     66  C   UNL A   1      38.109  34.301  34.665  1.00  0.00     0.031 C 
ATOM     67  C   UNL A   1      39.948  33.203  35.919  1.00  0.00     0.037 A 
BRANCH  54  68
ATOM     68  C   UNL A   1      43.925  28.467  35.717  1.00  0.00     0.058 A 
ATOM     69  C   UNL A   1      43.624  27.446  36.631  1.00  0.00     0.135 A 
ATOM     70  C   UNL A   1      45.280  28.753  35.480  1.00  0.00     0.135 A 
ATOM     71  F   UNL A   1      42.346  27.126  36.893  1.00  0.00    -0.206 F 
ATOM     72  C   UNL A   1      44.625  26.733  37.284  1.00  0.00     0.059 A 
ATOM     73  C   UNL A   1      46.298  28.039  36.103  1.00  0.00     0.059 A 
ATOM     74  F   UNL A   1      45.623  29.706  34.598  1.00  0.00    -0.206 F 
ATOM     75  C   UNL A   1      45.961  27.035  37.011  1.00  0.00     0.060 A 
BRANCH  75  76
ATOM     76  S   UNL A   1      47.251  26.057  37.810  1.00  0.00     0.124 S 
ATOM     77  O   UNL A   1      46.713  25.891  39.155  1.00  0.00    -0.237 OA
ATOM     78  O   UNL A   1      47.284  24.854  36.983  1.00  0.00    -0.237 OA
ATOM     79  O   UNL A   1      48.432  26.909  37.703  1.00  0.00    -0.744 OA
ENDBRANCH  75  76
ENDBRANCH  54  68
BRANCH  55  80
ATOM     80  C   UNL A   1      36.488  33.115  30.940  1.00  0.00     0.058 A 
ATOM     81  C   UNL A   1      36.764  33.943  29.840  1.00  0.00     0.135 A 
ATOM     82  C   UNL A   1      35.161  33.037  31.387  1.00  0.00     0.135 A 
ATOM     83  F   UNL A   1      38.020  34.058  29.384  1.00  0.00    -0.206 F 
ATOM     84  C   UNL A   1      35.767  34.697  29.233  1.00  0.00     0.059 A 
ATOM     85  C   UNL A   1      34.142  33.768  30.783  1.00  0.00     0.059 A 
ATOM     86  F   UNL A   1      34.850  32.250  32.429  1.00  0.00    -0.206 F 
ATOM     87  C   UNL A   1      34.462  34.614  29.721  1.00  0.00     0.060 A 
BRANCH  87  88
ATOM     88  S   UNL A   1      33.195  35.653  28.963  1.00  0.00     0.124 S 
ATOM     89  O   UNL A   1      32.545  36.223  30.139  1.00  0.00    -0.237 OA
ATOM     90  O   UNL A   1      33.993  36.579  28.166  1.00  0.00    -0.237 OA
ATOM     91  O   UNL A   1      32.391  34.703  28.199  1.00  0.00    -0.744 OA
ENDBRANCH  87  88
ENDBRANCH  55  80
BRANCH  67  92
ATOM     92  C   UNL A   1      39.793  34.252  36.983  1.00  0.00     0.058 A 
ATOM     93  C   UNL A   1      39.011  34.006  38.121  1.00  0.00     0.135 A 
ATOM     94  C   UNL A   1      40.387  35.517  36.852  1.00  0.00     0.135 A 
ATOM     95  F   UNL A   1      38.417  32.814  38.292  1.00  0.00    -0.206 F 
ATOM     96  C   UNL A   1      38.819  34.981  39.094  1.00  0.00     0.059 A 
ATOM     97  C   UNL A   1      40.226  36.500  37.824  1.00  0.00     0.059 A 
ATOM     98  F   UNL A   1      41.153  35.796  35.787  1.00  0.00    -0.206 F 
ATOM     99  C   UNL A   1      39.430  36.227  38.937  1.00  0.00     0.060 A 
BRANCH  99 100
ATOM    100  S   UNL A   1      39.209  37.469  40.228  1.00  0.00     0.124 S 
ATOM    101  O   UNL A   1      38.262  38.385  39.601  1.00  0.00    -0.237 OA
ATOM    102  O   UNL A   1      38.686  36.677  41.338  1.00  0.00    -0.237 OA
ATOM    103  O   UNL A   1      40.558  37.993  40.425  1.00  0.00    -0.744 OA
ENDBRANCH  99 100
ENDBRANCH  67  92
ENDBRANCH  41  42
ENDBRANCH  33  36
ENDBRANCH  31  32
ENDBRANCH  30  31
ENDBRANCH  29  30
ENDBRANCH   1  29
TORSDOF 20
ENDMDL
MODEL 2
REMARK VINA RESULT:     -12.4      6.407     12.240
REMARK SMILES COc1ccc(F)cc1-c1ccc(C[C@]2(C(=O)NCCCCCCNC(=O)c3ccc(-c4c5nc(c(-c6c(F)cc(S(=O)(=O)[O-])cc6F)c6ccc([nH]6)c(-c6c(F)cc(S(=O)(=O)[O-])cc6F)c6nc(c(-c7c(F)cc(S(=O)(=O)[O-])cc7F)c7ccc4[nH]7)C=C6)C=C5)cc3)CCCO2)cc1
REMARK SMILES IDX 21 1 20 2 19 3 18 4 16 5 17 6 15 8 94 9 97 10 95 11 96 12
REMARK SMILES IDX 14 13 13 14 10 15 11 16 99 17 12 18 98 19 9 20 3 21 4 22
REMARK SMILES IDX 5 23 8 24 6 25 7 26 2 27 1 28 22 29 23 30 24 31 25 32 26 33
REMARK SMILES IDX 27 35 28 36 29 37 93 38 30 39 92 40 31 41 32 42 33 43 86 44
REMARK SMILES IDX 34 45 91 46 85 47 87 48 35 49 90 50 84 51 83 52 36 54 70 55
REMARK SMILES IDX 49 56 69 57 50 58 53 59 68 60 88 61 51 62 52 63 67 65 89 66
REMARK SMILES IDX 54 67 37 68 38 69 47 70 39 71 40 72 46 73 48 74 41 75 42 76
REMARK SMILES IDX 43 77 44 78 45 79 71 80 72 81 81 82 73 83 74 84 80 85 82 86
REMARK SMILES IDX 75 87 76 88 77 89 78 90 79 91 55 92 56 93 65 94 57 95 58 96
REMARK SMILES IDX 64 97 66 98 59 99 60 100 61 101 62 102 63 103
REMARK H PARENT 18 7 25 34 87 53 53 64
REMARK Flexibility Score: inf
ROOT
ATOM      1  C   UNL A   1      34.662  31.837  27.914  1.00  0.00     0.002 C 
ENDROOT
BRANCH   1   2
ATOM      2  C   UNL A   1      34.939  30.351  27.664  1.00  0.00     0.021 C 
BRANCH   2   3
ATOM      3  C   UNL A   1      33.721  29.565  27.175  1.00  0.00     0.116 C 
BRANCH   3   4
ATOM      4  N   UNL A   1      33.498  29.771  25.759  1.00  0.00    -0.354 N 
ATOM      5  C   UNL A   1      33.070  28.908  24.790  1.00  0.00     0.252 C 
ATOM      6  O   UNL A   1      33.038  29.361  23.639  1.00  0.00    -0.272 OA
ATOM      7  H   UNL A   1      33.686  30.683  25.442  1.00  0.00     0.163 HD
BRANCH   5   8
ATOM      8  C   UNL A   1      32.683  27.426  25.105  1.00  0.00     0.150 C 
ATOM      9  C   UNL A   1      31.786  27.343  26.344  1.00  0.00     0.048 C 
ATOM     10  O   UNL A   1      31.938  26.871  24.005  1.00  0.00    -0.365 OA
ATOM     11  C   UNL A   1      30.560  26.572  25.913  1.00  0.00     0.032 C 
ATOM     12  C   UNL A   1      30.877  26.064  24.525  1.00  0.00     0.162 C 
BRANCH   8  13
ATOM     13  C   UNL A   1      34.016  26.634  25.278  1.00  0.00     0.081 C 
BRANCH  13  14
ATOM     14  C   UNL A   1      33.969  25.135  25.058  1.00  0.00    -0.045 A 
ATOM     15  C   UNL A   1      33.936  22.331  24.699  1.00  0.00    -0.015 A 
ATOM     16  C   UNL A   1      34.211  23.187  23.626  1.00  0.00     0.009 A 
ATOM     17  C   UNL A   1      33.659  22.894  25.952  1.00  0.00     0.009 A 
ATOM     18  C   UNL A   1      34.210  24.573  23.799  1.00  0.00     0.004 A 
ATOM     19  C   UNL A   1      33.681  24.280  26.130  1.00  0.00     0.004 A 
BRANCH  15  20
ATOM     20  C   UNL A   1      33.952  20.875  24.513  1.00  0.00     0.027 A 
ATOM     21  C   UNL A   1      35.053  20.082  24.898  1.00  0.00     0.126 A 
ATOM     22  C   UNL A   1      35.023  18.692  24.728  1.00  0.00     0.050 A 
ATOM     23  C   UNL A   1      33.911  18.084  24.147  1.00  0.00     0.043 A 
ATOM     24  C   UNL A   1      32.841  20.243  23.929  1.00  0.00     0.051 A 
ATOM     25  C   UNL A   1      32.833  18.864  23.752  1.00  0.00     0.124 A 
ATOM     26  F   UNL A   1      31.762  18.277  23.203  1.00  0.00    -0.207 F 
BRANCH  21  27
ATOM     27  O   UNL A   1      36.104  20.703  25.527  1.00  0.00    -0.496 OA
ATOM     28  C   UNL A   1      37.338  20.576  24.828  1.00  0.00     0.278 C 
ENDBRANCH  21  27
ENDBRANCH  15  20
ENDBRANCH  13  14
ENDBRANCH   8  13
ENDBRANCH   5   8
ENDBRANCH   3   4
ENDBRANCH   2   3
ENDBRANCH   1   2
BRANCH   1  29
ATOM     29  C   UNL A   1      35.909  32.725  27.976  1.00  0.00     0.002 C 
BRANCH  29  30
ATOM     30  C   UNL A   1      36.020  33.615  29.220  1.00  0.00     0.021 C 
BRANCH  30  31
ATOM     31  C   UNL A   1      36.912  33.067  30.333  1.00  0.00     0.116 C 
BRANCH  31  32
ATOM     32  N   UNL A   1      36.315  31.919  30.990  1.00  0.00    -0.352 N 
ATOM     33  C   UNL A   1      36.716  30.609  31.010  1.00  0.00     0.251 C 
ATOM     34  H   UNL A   1      35.495  32.111  31.500  1.00  0.00     0.163 HD
ATOM     35  O   UNL A   1      35.953  29.754  31.448  1.00  0.00    -0.269 OA
BRANCH  33  36
ATOM     36  C   UNL A   1      38.052  30.217  30.505  1.00  0.00     0.039 A 
ATOM     37  C   UNL A   1      38.238  30.123  29.122  1.00  0.00     0.014 A 
ATOM     38  C   UNL A   1      39.094  29.879  31.374  1.00  0.00     0.014 A 
ATOM     39  C   UNL A   1      39.474  29.719  28.614  1.00  0.00     0.010 A 
ATOM     40  C   UNL A   1      40.346  29.534  30.865  1.00  0.00     0.010 A 
ATOM     41  C   UNL A   1      40.544  29.436  29.480  1.00  0.00    -0.014 A 
BRANCH  41  42
ATOM     42  C   UNL A   1      41.863  29.029  28.931  1.00  0.00     0.031 A 
ATOM     43  C   UNL A   1      43.010  30.000  28.892  1.00  0.00     0.074 A 
ATOM     44  C   UNL A   1      42.021  27.779  28.459  1.00  0.00     0.049 A 
ATOM     45  N   UNL A   1      44.243  29.801  28.502  1.00  0.00    -0.248 NA
ATOM     46  C   UNL A   1      42.733  31.378  29.326  1.00  0.00     0.031 C 
ATOM     47  C   UNL A   1      40.968  26.764  28.392  1.00  0.00     0.029 A 
ATOM     48  N   UNL A   1      43.129  27.142  27.959  1.00  0.00    -0.354 N 
ATOM     49  C   UNL A   1      44.887  31.026  28.639  1.00  0.00     0.074 A 
ATOM     50  C   UNL A   1      43.895  31.973  29.097  1.00  0.00     0.031 C 
ATOM     51  C   UNL A   1      41.490  25.620  27.922  1.00  0.00     0.029 A 
ATOM     52  C   UNL A   1      42.908  25.825  27.637  1.00  0.00     0.049 A 
ATOM     53  H   UNL A   1      43.999  27.588  27.842  1.00  0.00     0.167 HD
ATOM     54  C   UNL A   1      46.190  31.326  28.425  1.00  0.00     0.037 A 
ATOM     55  C   UNL A   1      43.754  24.881  27.183  1.00  0.00     0.037 A 
ATOM     56  C   UNL A   1      47.179  30.373  27.993  1.00  0.00     0.049 A 
ATOM     57  C   UNL A   1      45.202  25.224  26.987  1.00  0.00     0.074 A 
ATOM     58  C   UNL A   1      48.538  30.564  27.806  1.00  0.00     0.029 A 
ATOM     59  N   UNL A   1      46.916  29.047  27.677  1.00  0.00    -0.354 N 
ATOM     60  N   UNL A   1      45.808  26.371  27.180  1.00  0.00    -0.248 NA
ATOM     61  C   UNL A   1      46.084  24.145  26.523  1.00  0.00     0.031 C 
ATOM     62  C   UNL A   1      49.090  29.363  27.346  1.00  0.00     0.029 A 
ATOM     63  C   UNL A   1      48.084  28.413  27.282  1.00  0.00     0.049 A 
ATOM     64  H   UNL A   1      46.031  28.620  27.727  1.00  0.00     0.167 HD
ATOM     65  C   UNL A   1      47.145  26.152  26.869  1.00  0.00     0.074 A 
ATOM     66  C   UNL A   1      47.262  24.756  26.494  1.00  0.00     0.031 C 
ATOM     67  C   UNL A   1      48.180  27.027  26.892  1.00  0.00     0.037 A 
BRANCH  54  68
ATOM     68  C   UNL A   1      46.622  32.747  28.666  1.00  0.00     0.058 A 
ATOM     69  C   UNL A   1      46.504  33.713  27.656  1.00  0.00     0.135 A 
ATOM     70  C   UNL A   1      47.174  33.148  29.894  1.00  0.00     0.135 A 
ATOM     71  F   UNL A   1      45.980  33.386  26.464  1.00  0.00    -0.206 F 
ATOM     72  C   UNL A   1      46.915  35.028  27.854  1.00  0.00     0.059 A 
ATOM     73  C   UNL A   1      47.569  34.463  30.123  1.00  0.00     0.059 A 
ATOM     74  F   UNL A   1      47.288  32.268  30.902  1.00  0.00    -0.206 F 
ATOM     75  C   UNL A   1      47.443  35.395  29.092  1.00  0.00     0.060 A 
BRANCH  75  76
ATOM     76  S   UNL A   1      47.906  37.119  29.362  1.00  0.00     0.124 S 
ATOM     77  O   UNL A   1      49.001  37.288  28.414  1.00  0.00    -0.237 OA
ATOM     78  O   UNL A   1      46.669  37.825  29.040  1.00  0.00    -0.237 OA
ATOM     79  O   UNL A   1      48.281  37.149  30.773  1.00  0.00    -0.744 OA
ENDBRANCH  75  76
ENDBRANCH  54  68
BRANCH  55  80
ATOM     80  C   UNL A   1      43.245  23.504  26.956  1.00  0.00     0.058 A 
ATOM     81  C   UNL A   1      43.034  22.621  28.026  1.00  0.00     0.135 A 
ATOM     82  C   UNL A   1      43.048  23.020  25.655  1.00  0.00     0.135 A 
ATOM     83  F   UNL A   1      43.222  23.035  29.288  1.00  0.00    -0.206 F 
ATOM     84  C   UNL A   1      42.682  21.293  27.810  1.00  0.00     0.059 A 
ATOM     85  C   UNL A   1      42.676  21.701  25.415  1.00  0.00     0.059 A 
ATOM     86  F   UNL A   1      43.228  23.834  24.603  1.00  0.00    -0.206 F 
ATOM     87  C   UNL A   1      42.520  20.839  26.501  1.00  0.00     0.060 A 
BRANCH  87  88
ATOM     88  S   UNL A   1      42.128  19.096  26.240  1.00  0.00     0.124 S 
ATOM     89  O   UNL A   1      42.398  18.538  27.561  1.00  0.00    -0.237 OA
ATOM     90  O   UNL A   1      40.724  19.152  25.847  1.00  0.00    -0.237 OA
ATOM     91  O   UNL A   1      43.057  18.696  25.187  1.00  0.00    -0.744 OA
ENDBRANCH  87  88
ENDBRANCH  55  80
BRANCH  67  92
ATOM     92  C   UNL A   1      49.531  26.505  26.493  1.00  0.00     0.058 A 
ATOM     93  C   UNL A   1      50.411  25.987  27.455  1.00  0.00     0.135 A 
ATOM     94  C   UNL A   1      49.969  26.556  25.160  1.00  0.00     0.135 A 
ATOM     95  F   UNL A   1      50.043  25.920  28.745  1.00  0.00    -0.206 F 
ATOM     96  C   UNL A   1      51.683  25.541  27.111  1.00  0.00     0.059 A 
ATOM     97  C   UNL A   1      51.229  26.095  24.790  1.00  0.00     0.059 A 
ATOM     98  F   UNL A   1      49.160  27.032  24.202  1.00  0.00    -0.206 F 
ATOM     99  C   UNL A   1      52.084  25.600  25.775  1.00  0.00     0.060 A 
BRANCH  99 100
ATOM    100  S   UNL A   1      53.721  24.977  25.334  1.00  0.00     0.124 S 
ATOM    101  O   UNL A   1      53.982  25.685  24.086  1.00  0.00    -0.237 OA
ATOM    102  O   UNL A   1      54.529  25.388  26.478  1.00  0.00    -0.237 OA
ATOM    103  O   UNL A   1      53.510  23.537  25.210  1.00  0.00    -0.744 OA
ENDBRANCH  99 100
ENDBRANCH  67  92
ENDBRANCH  41  42
ENDBRANCH  33  36
ENDBRANCH  31  32
ENDBRANCH  30  31
ENDBRANCH  29  30
ENDBRANCH   1  29
TORSDOF 20
ENDMDL
MODEL 3
REMARK VINA RESULT:     -12.4      6.455     12.285
REMARK SMILES COc1ccc(F)cc1-c1ccc(C[C@]2(C(=O)NCCCCCCNC(=O)c3ccc(-c4c5nc(c(-c6c(F)cc(S(=O)(=O)[O-])cc6F)c6ccc([nH]6)c(-c6c(F)cc(S(=O)(=O)[O-])cc6F)c6nc(c(-c7c(F)cc(S(=O)(=O)[O-])cc7F)c7ccc4[nH]7)C=C6)C=C5)cc3)CCCO2)cc1
REMARK SMILES IDX 21 1 20 2 19 3 18 4 16 5 17 6 15 8 94 9 97 10 95 11 96 12
REMARK SMILES IDX 14 13 13 14 10 15 11 16 99 17 12 18 98 19 9 20 3 21 4 22
REMARK SMILES IDX 5 23 8 24 6 25 7 26 2 27 1 28 22 29 23 30 24 31 25 32 26 33
REMARK SMILES IDX 27 35 28 36 29 37 93 38 30 39 92 40 31 41 32 42 33 43 86 44
REMARK SMILES IDX 34 45 91 46 85 47 87 48 35 49 90 50 84 51 83 52 36 54 70 55
REMARK SMILES IDX 49 56 69 57 50 58 53 59 68 60 88 61 51 62 52 63 67 65 89 66
REMARK SMILES IDX 54 67 37 68 38 69 47 70 39 71 40 72 46 73 48 74 41 75 42 76
REMARK SMILES IDX 43 77 44 78 45 79 71 80 72 81 81 82 73 83 74 84 80 85 82 86
REMARK SMILES IDX 75 87 76 88 77 89 78 90 79 91 55 92 56 93 65 94 57 95 58 96
REMARK SMILES IDX 64 97 66 98 59 99 60 100 61 101 62 102 63 103
REMARK H PARENT 18 7 25 34 87 53 53 64
REMARK Flexibility Score: inf
ROOT
ATOM      1  C   UNL A   1      32.830  29.031  27.324  1.00  0.00     0.002 C 
ENDROOT
BRANCH   1   2
ATOM      2  C   UNL A   1      31.614  29.732  26.709  1.00  0.00     0.021 C 
BRANCH   2   3
ATOM      3  C   UNL A   1      31.809  30.151  25.252  1.00  0.00     0.116 C 
BRANCH   3   4
ATOM      4  N   UNL A   1      30.717  29.687  24.421  1.00  0.00    -0.354 N 
ATOM      5  C   UNL A   1      30.677  28.713  23.464  1.00  0.00     0.252 C 
ATOM      6  O   UNL A   1      29.600  28.586  22.868  1.00  0.00    -0.272 OA
ATOM      7  H   UNL A   1      29.862  30.152  24.570  1.00  0.00     0.163 HD
BRANCH   5   8
ATOM      8  C   UNL A   1      31.924  27.838  23.112  1.00  0.00     0.150 C 
ATOM      9  C   UNL A   1      33.041  28.691  22.502  1.00  0.00     0.048 C 
ATOM     10  O   UNL A   1      32.455  27.239  24.309  1.00  0.00    -0.365 OA
ATOM     11  C   UNL A   1      34.270  28.415  23.335  1.00  0.00     0.032 C 
ATOM     12  C   UNL A   1      33.883  27.276  24.250  1.00  0.00     0.162 C 
BRANCH   8  13
ATOM     13  C   UNL A   1      31.434  26.715  22.145  1.00  0.00     0.081 C 
BRANCH  13  14
ATOM     14  C   UNL A   1      31.754  25.283  22.522  1.00  0.00    -0.045 A 
ATOM     15  C   UNL A   1      32.350  22.592  23.153  1.00  0.00    -0.015 A 
ATOM     16  C   UNL A   1      31.204  23.211  23.666  1.00  0.00     0.009 A 
ATOM     17  C   UNL A   1      33.206  23.340  22.334  1.00  0.00     0.009 A 
ATOM     18  C   UNL A   1      30.919  24.546  23.369  1.00  0.00     0.004 A 
ATOM     19  C   UNL A   1      32.908  24.668  22.018  1.00  0.00     0.004 A 
BRANCH  15  20
ATOM     20  C   UNL A   1      32.637  21.185  23.459  1.00  0.00     0.027 A 
ATOM     21  C   UNL A   1      33.399  20.803  24.582  1.00  0.00     0.126 A 
ATOM     22  C   UNL A   1      33.632  19.449  24.856  1.00  0.00     0.050 A 
ATOM     23  C   UNL A   1      33.134  18.468  24.000  1.00  0.00     0.043 A 
ATOM     24  C   UNL A   1      32.145  20.182  22.608  1.00  0.00     0.051 A 
ATOM     25  C   UNL A   1      32.398  18.843  22.885  1.00  0.00     0.124 A 
ATOM     26  F   UNL A   1      31.913  17.898  22.069  1.00  0.00    -0.207 F 
BRANCH  21  27
ATOM     27  O   UNL A   1      33.818  21.788  25.440  1.00  0.00    -0.496 OA
ATOM     28  C   UNL A   1      33.561  21.496  26.810  1.00  0.00     0.278 C 
ENDBRANCH  21  27
ENDBRANCH  15  20
ENDBRANCH  13  14
ENDBRANCH   8  13
ENDBRANCH   5   8
ENDBRANCH   3   4
ENDBRANCH   2   3
ENDBRANCH   1   2
BRANCH   1  29
ATOM     29  C   UNL A   1      34.164  29.757  27.125  1.00  0.00     0.002 C 
BRANCH  29  30
ATOM     30  C   UNL A   1      34.315  31.075  27.895  1.00  0.00     0.021 C 
BRANCH  30  31
ATOM     31  C   UNL A   1      35.670  31.278  28.573  1.00  0.00     0.116 C 
BRANCH  31  32
ATOM     32  N   UNL A   1      35.614  30.987  29.994  1.00  0.00    -0.352 N 
ATOM     33  C   UNL A   1      36.498  30.306  30.789  1.00  0.00     0.251 C 
ATOM     34  H   UNL A   1      34.817  31.331  30.458  1.00  0.00     0.163 HD
ATOM     35  O   UNL A   1      36.161  29.984  31.924  1.00  0.00    -0.269 OA
BRANCH  33  36
ATOM     36  C   UNL A   1      37.847  29.952  30.292  1.00  0.00     0.039 A 
ATOM     37  C   UNL A   1      38.062  29.931  28.910  1.00  0.00     0.014 A 
ATOM     38  C   UNL A   1      38.876  29.579  31.163  1.00  0.00     0.014 A 
ATOM     39  C   UNL A   1      39.311  29.566  28.406  1.00  0.00     0.010 A 
ATOM     40  C   UNL A   1      40.141  29.271  30.662  1.00  0.00     0.010 A 
ATOM     41  C   UNL A   1      40.367  29.247  29.278  1.00  0.00    -0.014 A 
BRANCH  41  42
ATOM     42  C   UNL A   1      41.700  28.881  28.736  1.00  0.00     0.031 A 
ATOM     43  C   UNL A   1      42.806  29.897  28.669  1.00  0.00     0.074 A 
ATOM     44  C   UNL A   1      41.909  27.626  28.296  1.00  0.00     0.049 A 
ATOM     45  N   UNL A   1      44.046  29.738  28.280  1.00  0.00    -0.248 NA
ATOM     46  C   UNL A   1      42.474  31.272  29.068  1.00  0.00     0.031 C 
ATOM     47  C   UNL A   1      40.898  26.567  28.258  1.00  0.00     0.029 A 
ATOM     48  N   UNL A   1      43.040  27.023  27.809  1.00  0.00    -0.354 N 
ATOM     49  C   UNL A   1      44.639  30.991  28.384  1.00  0.00     0.074 A 
ATOM     50  C   UNL A   1      43.610  31.909  28.820  1.00  0.00     0.031 C 
ATOM     51  C   UNL A   1      41.465  25.434  27.816  1.00  0.00     0.029 A 
ATOM     52  C   UNL A   1      42.873  25.690  27.521  1.00  0.00     0.049 A 
ATOM     53  H   UNL A   1      43.891  27.500  27.678  1.00  0.00     0.167 HD
ATOM     54  C   UNL A   1      45.928  31.339  28.158  1.00  0.00     0.037 A 
ATOM     55  C   UNL A   1      43.756  24.769  27.089  1.00  0.00     0.037 A 
ATOM     56  C   UNL A   1      46.955  30.416  27.747  1.00  0.00     0.049 A 
ATOM     57  C   UNL A   1      45.189  25.166  26.880  1.00  0.00     0.074 A 
ATOM     58  C   UNL A   1      48.304  30.658  27.551  1.00  0.00     0.029 A 
ATOM     59  N   UNL A   1      46.746  29.073  27.466  1.00  0.00    -0.354 N 
ATOM     60  N   UNL A   1      45.747  26.342  27.042  1.00  0.00    -0.248 NA
ATOM     61  C   UNL A   1      46.113  24.112  26.441  1.00  0.00     0.031 C 
ATOM     62  C   UNL A   1      48.905  29.469  27.121  1.00  0.00     0.029 A 
ATOM     63  C   UNL A   1      47.938  28.478  27.084  1.00  0.00     0.049 A 
ATOM     64  H   UNL A   1      45.879  28.612  27.530  1.00  0.00     0.167 HD
ATOM     65  C   UNL A   1      47.092  26.170  26.732  1.00  0.00     0.074 A 
ATOM     66  C   UNL A   1      47.265  24.771  26.393  1.00  0.00     0.031 C 
ATOM     67  C   UNL A   1      48.090  27.087  26.730  1.00  0.00     0.037 A 
BRANCH  54  68
ATOM     68  C   UNL A   1      46.302  32.782  28.361  1.00  0.00     0.058 A 
ATOM     69  C   UNL A   1      46.860  33.213  29.575  1.00  0.00     0.135 A 
ATOM     70  C   UNL A   1      46.090  33.744  27.361  1.00  0.00     0.135 A 
ATOM     71  F   UNL A   1      47.089  32.335  30.564  1.00  0.00    -0.206 F 
ATOM     72  C   UNL A   1      47.197  34.546  29.789  1.00  0.00     0.059 A 
ATOM     73  C   UNL A   1      46.440  35.079  27.544  1.00  0.00     0.059 A 
ATOM     74  F   UNL A   1      45.579  33.381  26.173  1.00  0.00    -0.206 F 
ATOM     75  C   UNL A   1      46.986  35.472  28.766  1.00  0.00     0.060 A 
BRANCH  75  76
ATOM     76  S   UNL A   1      47.493  37.185  29.029  1.00  0.00     0.124 S 
ATOM     77  O   UNL A   1      48.858  37.023  29.516  1.00  0.00    -0.237 OA
ATOM     78  O   UNL A   1      47.355  37.757  27.693  1.00  0.00    -0.237 OA
ATOM     79  O   UNL A   1      46.527  37.674  30.009  1.00  0.00    -0.744 OA
ENDBRANCH  75  76
ENDBRANCH  54  68
BRANCH  55  80
ATOM     80  C   UNL A   1      43.304  23.368  26.899  1.00  0.00     0.058 A 
ATOM     81  C   UNL A   1      43.176  22.491  27.987  1.00  0.00     0.135 A 
ATOM     82  C   UNL A   1      43.079  22.857  25.613  1.00  0.00     0.135 A 
ATOM     83  F   UNL A   1      43.393  22.931  29.236  1.00  0.00    -0.206 F 
ATOM     84  C   UNL A   1      42.878  21.145  27.802  1.00  0.00     0.059 A 
ATOM     85  C   UNL A   1      42.760  21.519  25.404  1.00  0.00     0.059 A 
ATOM     86  F   UNL A   1      43.180  23.663  24.545  1.00  0.00    -0.206 F 
ATOM     87  C   UNL A   1      42.686  20.666  26.506  1.00  0.00     0.060 A 
BRANCH  87  88
ATOM     88  S   UNL A   1      42.367  18.903  26.281  1.00  0.00     0.124 S 
ATOM     89  O   UNL A   1      43.472  18.517  25.409  1.00  0.00    -0.237 OA
ATOM     90  O   UNL A   1      42.433  18.403  27.650  1.00  0.00    -0.237 OA
ATOM     91  O   UNL A   1      41.043  18.875  25.668  1.00  0.00    -0.744 OA
ENDBRANCH  87  88
ENDBRANCH  55  80
BRANCH  67  92
ATOM     92  C   UNL A   1      49.461  26.610  26.340  1.00  0.00     0.058 A 
ATOM     93  C   UNL A   1      49.949  26.817  25.042  1.00  0.00     0.135 A 
ATOM     94  C   UNL A   1      50.274  25.910  27.246  1.00  0.00     0.135 A 
ATOM     95  F   UNL A   1      49.209  27.477  24.136  1.00  0.00    -0.206 F 
ATOM     96  C   UNL A   1      51.197  26.343  24.651  1.00  0.00     0.059 A 
ATOM     97  C   UNL A   1      51.535  25.446  26.883  1.00  0.00     0.059 A 
ATOM     98  F   UNL A   1      49.857  25.697  28.503  1.00  0.00    -0.206 F 
ATOM     99  C   UNL A   1      51.983  25.657  25.578  1.00  0.00     0.060 A 
BRANCH  99 100
ATOM    100  S   UNL A   1      53.619  25.084  25.071  1.00  0.00     0.124 S 
ATOM    101  O   UNL A   1      53.526  23.652  25.330  1.00  0.00    -0.237 OA
ATOM    102  O   UNL A   1      53.664  25.474  23.665  1.00  0.00    -0.237 OA
ATOM    103  O   UNL A   1      54.521  25.826  25.948  1.00  0.00    -0.744 OA
ENDBRANCH  99 100
ENDBRANCH  67  92
ENDBRANCH  41  42
ENDBRANCH  33  36
ENDBRANCH  31  32
ENDBRANCH  30  31
ENDBRANCH  29  30
ENDBRANCH   1  29
TORSDOF 20
ENDMDL
