MODEL 1
REMARK VINA RESULT:      -9.7      0.000      0.000
REMARK SMILES CS(=O)(=O)c1ccc(C2=NN(c3ccc(C(=O)NCCCCCCNC(=O)c4ccc(-c5c6nc(c(-c7c(F)cc(S(=O)(=O)[O-])cc7F)c7ccc([nH]7)c(-c7c(F)cc(S(=O)(=O)[O-])cc7F)c7nc(c(-c8c(F)cc(S(=O)(=O)[O-])cc8F)c8ccc5[nH]8)C=C7)C=C6)cc4)cc3)[C@H](c3ccc(Cl)cc3)C2)cc1
REMARK SMILES IDX 21 1 20 2 19 3 18 4 16 5 17 6 15 8 12 9 13 10 95 11 14 12
REMARK SMILES IDX 94 13 11 14 9 15 10 16 104 17 96 18 8 19 5 20 6 21 106 22
REMARK SMILES IDX 7 23 105 24 2 25 1 26 3 27 4 28 97 29 98 30 103 31 99 32
REMARK SMILES IDX 102 33 100 34 101 35 22 36 23 37 24 38 25 39 26 40 27 42
REMARK SMILES IDX 28 43 29 44 93 45 30 46 92 47 31 48 32 49 33 50 86 51 34 52
REMARK SMILES IDX 91 53 85 54 87 55 35 56 90 57 84 58 83 59 36 61 70 62 49 63
REMARK SMILES IDX 69 64 50 65 53 66 68 67 88 68 51 69 52 70 67 72 89 73 54 74
REMARK SMILES IDX 37 75 38 76 47 77 39 78 40 79 46 80 48 81 41 82 42 83 43 84
REMARK SMILES IDX 44 85 45 86 71 87 72 88 81 89 73 90 74 91 80 92 82 93 75 94
REMARK SMILES IDX 76 95 77 96 78 97 79 98 55 99 56 100 65 101 57 102 58 103
REMARK SMILES IDX 64 104 66 105 59 106 60 107 61 108 62 109 63 110
REMARK H PARENT 18 7 25 41 87 60 53 71
REMARK Flexibility Score: inf
ROOT
ATOM      1  C   UNL A   1      48.514  25.734  28.021  1.00  0.00     0.002 C 
ENDROOT
BRANCH   1   2
ATOM      2  C   UNL A   1      47.139  25.055  28.085  1.00  0.00     0.021 C 
BRANCH   2   3
ATOM      3  C   UNL A   1      46.691  24.451  26.753  1.00  0.00     0.116 C 
BRANCH   3   4
ATOM      4  N   UNL A   1      46.820  25.424  25.682  1.00  0.00    -0.352 N 
ATOM      5  C   UNL A   1      45.931  26.335  25.173  1.00  0.00     0.251 C 
ATOM      6  O   UNL A   1      46.317  27.107  24.295  1.00  0.00    -0.269 OA
ATOM      7  H   UNL A   1      47.702  25.430  25.244  1.00  0.00     0.163 HD
BRANCH   5   8
ATOM      8  C   UNL A   1      44.545  26.464  25.693  1.00  0.00     0.039 A 
ATOM      9  C   UNL A   1      41.990  26.710  26.854  1.00  0.00     0.060 A 
ATOM     10  C   UNL A   1      43.087  27.375  27.409  1.00  0.00     0.029 A 
ATOM     11  C   UNL A   1      42.174  25.982  25.674  1.00  0.00     0.029 A 
ATOM     12  C   UNL A   1      44.356  27.253  26.835  1.00  0.00     0.016 A 
ATOM     13  C   UNL A   1      43.436  25.874  25.086  1.00  0.00     0.016 A 
BRANCH   9  14
ATOM     14  N   UNL A   1      40.737  26.740  27.451  1.00  0.00    -0.257 N 
ATOM     15  C   UNL A   1      39.290  27.799  28.592  1.00  0.00     0.071 C 
ATOM     16  N   UNL A   1      40.113  27.934  27.600  1.00  0.00    -0.176 NA
ATOM     17  C   UNL A   1      39.335  26.478  29.309  1.00  0.00     0.091 C 
ATOM     18  C   UNL A   1      40.315  25.712  28.407  1.00  0.00     0.144 C 
BRANCH  15  19
ATOM     19  C   UNL A   1      38.374  28.879  28.993  1.00  0.00    -0.002 A 
ATOM     20  C   UNL A   1      36.665  30.969  29.652  1.00  0.00     0.067 A 
ATOM     21  C   UNL A   1      36.964  30.724  28.309  1.00  0.00     0.021 A 
ATOM     22  C   UNL A   1      37.208  30.170  30.667  1.00  0.00     0.021 A 
ATOM     23  C   UNL A   1      37.835  29.686  27.983  1.00  0.00     0.011 A 
ATOM     24  C   UNL A   1      38.060  29.114  30.334  1.00  0.00     0.011 A 
BRANCH  20  25
ATOM     25  S   UNL A   1      35.559  32.299  30.059  1.00  0.00     0.175 S 
ATOM     26  C   UNL A   1      36.628  33.691  30.310  1.00  0.00     0.163 C 
ATOM     27  O   UNL A   1      34.940  31.987  31.330  1.00  0.00    -0.224 OA
ATOM     28  O   UNL A   1      34.752  32.551  28.876  1.00  0.00    -0.224 OA
ENDBRANCH  20  25
ENDBRANCH  15  19
BRANCH  18  29
ATOM     29  C   UNL A   1      39.792  24.494  27.652  1.00  0.00    -0.023 A 
ATOM     30  C   UNL A   1      38.629  24.504  26.867  1.00  0.00     0.007 A 
ATOM     31  C   UNL A   1      40.560  23.311  27.678  1.00  0.00     0.007 A 
ATOM     32  C   UNL A   1      38.238  23.364  26.151  1.00  0.00     0.021 A 
ATOM     33  C   UNL A   1      40.183  22.183  26.947  1.00  0.00     0.021 A 
ATOM     34  C   UNL A   1      39.018  22.212  26.189  1.00  0.00     0.041 A 
ATOM     35  Cl  UNL A   1      38.554  20.829  25.281  1.00  0.00    -0.084 Cl
ENDBRANCH  18  29
ENDBRANCH   9  14
ENDBRANCH   5   8
ENDBRANCH   3   4
ENDBRANCH   2   3
ENDBRANCH   1   2
BRANCH   1  36
ATOM     36  C   UNL A   1      49.643  24.858  27.465  1.00  0.00     0.002 C 
BRANCH  36  37
ATOM     37  C   UNL A   1      50.542  25.535  26.425  1.00  0.00     0.021 C 
BRANCH  37  38
ATOM     38  C   UNL A   1      51.462  26.616  26.986  1.00  0.00     0.116 C 
BRANCH  38  39
ATOM     39  N   UNL A   1      51.668  27.698  26.035  1.00  0.00    -0.352 N 
ATOM     40  C   UNL A   1      50.911  28.823  25.820  1.00  0.00     0.251 C 
ATOM     41  H   UNL A   1      52.466  27.612  25.464  1.00  0.00     0.163 HD
ATOM     42  O   UNL A   1      51.117  29.519  24.831  1.00  0.00    -0.269 OA
BRANCH  40  43
ATOM     43  C   UNL A   1      49.839  29.185  26.774  1.00  0.00     0.039 A 
ATOM     44  C   UNL A   1      48.516  28.860  26.462  1.00  0.00     0.014 A 
ATOM     45  C   UNL A   1      50.135  29.861  27.961  1.00  0.00     0.014 A 
ATOM     46  C   UNL A   1      47.496  29.166  27.365  1.00  0.00     0.010 A 
ATOM     47  C   UNL A   1      49.125  30.111  28.888  1.00  0.00     0.010 A 
ATOM     48  C   UNL A   1      47.795  29.770  28.598  1.00  0.00    -0.014 A 
BRANCH  48  49
ATOM     49  C   UNL A   1      46.731  30.054  29.595  1.00  0.00     0.031 A 
ATOM     50  C   UNL A   1      46.362  29.016  30.620  1.00  0.00     0.074 A 
ATOM     51  C   UNL A   1      46.055  31.217  29.535  1.00  0.00     0.049 A 
ATOM     52  N   UNL A   1      45.414  29.046  31.521  1.00  0.00    -0.248 NA
ATOM     53  C   UNL A   1      47.145  27.770  30.615  1.00  0.00     0.031 C 
ATOM     54  C   UNL A   1      46.290  32.283  28.558  1.00  0.00     0.029 A 
ATOM     55  N   UNL A   1      45.024  31.695  30.305  1.00  0.00    -0.354 N 
ATOM     56  C   UNL A   1      45.474  27.822  32.176  1.00  0.00     0.074 A 
ATOM     57  C   UNL A   1      46.523  27.054  31.541  1.00  0.00     0.031 C 
ATOM     58  C   UNL A   1      45.438  33.293  28.796  1.00  0.00     0.029 A 
ATOM     59  C   UNL A   1      44.576  32.936  29.920  1.00  0.00     0.049 A 
ATOM     60  H   UNL A   1      44.641  31.195  31.062  1.00  0.00     0.167 HD
ATOM     61  C   UNL A   1      44.737  27.385  33.226  1.00  0.00     0.037 A 
ATOM     62  C   UNL A   1      43.579  33.698  30.410  1.00  0.00     0.037 A 
ATOM     63  C   UNL A   1      43.715  28.165  33.874  1.00  0.00     0.049 A 
ATOM     64  C   UNL A   1      42.783  33.197  31.584  1.00  0.00     0.074 A 
ATOM     65  C   UNL A   1      42.953  27.837  34.981  1.00  0.00     0.029 A 
ATOM     66  N   UNL A   1      43.311  29.431  33.473  1.00  0.00    -0.354 N 
ATOM     67  N   UNL A   1      42.893  32.061  32.230  1.00  0.00    -0.248 NA
ATOM     68  C   UNL A   1      41.732  34.085  32.102  1.00  0.00     0.031 C 
ATOM     69  C   UNL A   1      42.065  28.889  35.230  1.00  0.00     0.029 A 
ATOM     70  C   UNL A   1      42.303  29.891  34.303  1.00  0.00     0.049 A 
ATOM     71  H   UNL A   1      43.688  29.929  32.712  1.00  0.00     0.167 HD
ATOM     72  C   UNL A   1      41.944  32.107  33.244  1.00  0.00     0.074 A 
ATOM     73  C   UNL A   1      41.276  33.387  33.134  1.00  0.00     0.031 C 
ATOM     74  C   UNL A   1      41.653  31.172  34.183  1.00  0.00     0.037 A 
BRANCH  61  75
ATOM     75  C   UNL A   1      45.015  26.001  33.744  1.00  0.00     0.058 A 
ATOM     76  C   UNL A   1      45.792  25.789  34.895  1.00  0.00     0.135 A 
ATOM     77  C   UNL A   1      44.475  24.875  33.102  1.00  0.00     0.135 A 
ATOM     78  F   UNL A   1      46.343  26.829  35.539  1.00  0.00    -0.206 F 
ATOM     79  C   UNL A   1      46.048  24.508  35.373  1.00  0.00     0.059 A 
ATOM     80  C   UNL A   1      44.697  23.585  33.579  1.00  0.00     0.059 A 
ATOM     81  F   UNL A   1      43.725  25.020  31.999  1.00  0.00    -0.206 F 
ATOM     82  C   UNL A   1      45.499  23.412  34.706  1.00  0.00     0.060 A 
BRANCH  82  83
ATOM     83  S   UNL A   1      45.840  21.756  35.340  1.00  0.00     0.124 S 
ATOM     84  O   UNL A   1      45.728  21.968  36.779  1.00  0.00    -0.237 OA
ATOM     85  O   UNL A   1      44.778  20.961  34.731  1.00  0.00    -0.237 OA
ATOM     86  O   UNL A   1      47.186  21.476  34.850  1.00  0.00    -0.744 OA
ENDBRANCH  82  83
ENDBRANCH  61  75
BRANCH  62  87
ATOM     87  C   UNL A   1      43.296  35.027  29.806  1.00  0.00     0.058 A 
ATOM     88  C   UNL A   1      44.147  36.118  30.037  1.00  0.00     0.135 A 
ATOM     89  C   UNL A   1      42.184  35.229  28.976  1.00  0.00     0.135 A 
ATOM     90  F   UNL A   1      45.221  35.975  30.829  1.00  0.00    -0.206 F 
ATOM     91  C   UNL A   1      43.899  37.366  29.477  1.00  0.00     0.059 A 
ATOM     92  C   UNL A   1      41.927  36.463  28.385  1.00  0.00     0.059 A 
ATOM     93  F   UNL A   1      41.349  34.211  28.710  1.00  0.00    -0.206 F 
ATOM     94  C   UNL A   1      42.786  37.528  28.650  1.00  0.00     0.060 A 
BRANCH  94  95
ATOM     95  S   UNL A   1      42.501  39.139  27.884  1.00  0.00     0.124 S 
ATOM     96  O   UNL A   1      43.827  39.741  27.964  1.00  0.00    -0.237 OA
ATOM     97  O   UNL A   1      42.049  38.768  26.546  1.00  0.00    -0.237 OA
ATOM     98  O   UNL A   1      41.481  39.740  28.737  1.00  0.00    -0.744 OA
ENDBRANCH  94  95
ENDBRANCH  62  87
BRANCH  74  99
ATOM     99  C   UNL A   1      40.587  31.511  35.186  1.00  0.00     0.058 A 
ATOM    100  C   UNL A   1      40.853  32.328  36.295  1.00  0.00     0.135 A 
ATOM    101  C   UNL A   1      39.271  31.055  35.006  1.00  0.00     0.135 A 
ATOM    102  F   UNL A   1      42.095  32.784  36.516  1.00  0.00    -0.206 F 
ATOM    103  C   UNL A   1      39.855  32.665  37.205  1.00  0.00     0.059 A 
ATOM    104  C   UNL A   1      38.252  31.399  35.888  1.00  0.00     0.059 A 
ATOM    105  F   UNL A   1      38.963  30.278  33.956  1.00  0.00    -0.206 F 
ATOM    106  C   UNL A   1      38.556  32.196  36.991  1.00  0.00     0.060 A 
BRANCH 106 107
ATOM    107  S   UNL A   1      37.261  32.670  38.157  1.00  0.00     0.124 S 
ATOM    108  O   UNL A   1      36.793  31.368  38.620  1.00  0.00    -0.237 OA
ATOM    109  O   UNL A   1      37.995  33.465  39.136  1.00  0.00    -0.237 OA
ATOM    110  O   UNL A   1      36.319  33.418  37.331  1.00  0.00    -0.744 OA
ENDBRANCH 106 107
ENDBRANCH  74  99
ENDBRANCH  48  49
ENDBRANCH  40  43
ENDBRANCH  38  39
ENDBRANCH  37  38
ENDBRANCH  36  37
ENDBRANCH   1  36
TORSDOF 20
ENDMDL
MODEL 2
REMARK VINA RESULT:      -9.7      5.961     11.255
REMARK SMILES CS(=O)(=O)c1ccc(C2=NN(c3ccc(C(=O)NCCCCCCNC(=O)c4ccc(-c5c6nc(c(-c7c(F)cc(S(=O)(=O)[O-])cc7F)c7ccc([nH]7)c(-c7c(F)cc(S(=O)(=O)[O-])cc7F)c7nc(c(-c8c(F)cc(S(=O)(=O)[O-])cc8F)c8ccc5[nH]8)C=C7)C=C6)cc4)cc3)[C@H](c3ccc(Cl)cc3)C2)cc1
REMARK SMILES IDX 21 1 20 2 19 3 18 4 16 5 17 6 15 8 12 9 13 10 95 11 14 12
REMARK SMILES IDX 94 13 11 14 9 15 10 16 104 17 96 18 8 19 5 20 6 21 106 22
REMARK SMILES IDX 7 23 105 24 2 25 1 26 3 27 4 28 97 29 98 30 103 31 99 32
REMARK SMILES IDX 102 33 100 34 101 35 22 36 23 37 24 38 25 39 26 40 27 42
REMARK SMILES IDX 28 43 29 44 93 45 30 46 92 47 31 48 32 49 33 50 86 51 34 52
REMARK SMILES IDX 91 53 85 54 87 55 35 56 90 57 84 58 83 59 36 61 70 62 49 63
REMARK SMILES IDX 69 64 50 65 53 66 68 67 88 68 51 69 52 70 67 72 89 73 54 74
REMARK SMILES IDX 37 75 38 76 47 77 39 78 40 79 46 80 48 81 41 82 42 83 43 84
REMARK SMILES IDX 44 85 45 86 71 87 72 88 81 89 73 90 74 91 80 92 82 93 75 94
REMARK SMILES IDX 76 95 77 96 78 97 79 98 55 99 56 100 65 101 57 102 58 103
REMARK SMILES IDX 64 104 66 105 59 106 60 107 61 108 62 109 63 110
REMARK H PARENT 18 7 25 41 87 60 53 71
REMARK Flexibility Score: inf
ROOT
ATOM      1  C   UNL A   1      37.973  28.235  30.265  1.00  0.00     0.002 C 
ENDROOT
BRANCH   1   2
ATOM      2  C   UNL A   1      38.314  29.149  29.080  1.00  0.00     0.021 C 
BRANCH   2   3
ATOM      3  C   UNL A   1      37.244  29.161  27.987  1.00  0.00     0.116 C 
BRANCH   3   4
ATOM      4  N   UNL A   1      36.277  30.217  28.232  1.00  0.00    -0.352 N 
ATOM      5  C   UNL A   1      34.977  30.369  27.823  1.00  0.00     0.251 C 
ATOM      6  O   UNL A   1      34.341  31.339  28.232  1.00  0.00    -0.269 OA
ATOM      7  H   UNL A   1      36.615  30.955  28.789  1.00  0.00     0.163 HD
BRANCH   5   8
ATOM      8  C   UNL A   1      34.296  29.367  26.962  1.00  0.00     0.039 A 
ATOM      9  C   UNL A   1      33.003  27.351  25.479  1.00  0.00     0.060 A 
ATOM     10  C   UNL A   1      32.690  27.550  26.827  1.00  0.00     0.029 A 
ATOM     11  C   UNL A   1      33.916  28.216  24.868  1.00  0.00     0.029 A 
ATOM     12  C   UNL A   1      33.331  28.549  27.565  1.00  0.00     0.016 A 
ATOM     13  C   UNL A   1      34.544  29.229  25.596  1.00  0.00     0.016 A 
BRANCH   9  14
ATOM     14  N   UNL A   1      32.449  26.311  24.744  1.00  0.00    -0.257 N 
ATOM     15  C   UNL A   1      32.560  24.298  24.073  1.00  0.00     0.071 C 
ATOM     16  N   UNL A   1      32.696  25.035  25.129  1.00  0.00    -0.176 NA
ATOM     17  C   UNL A   1      32.287  25.031  22.789  1.00  0.00     0.091 C 
ATOM     18  C   UNL A   1      32.122  26.462  23.323  1.00  0.00     0.144 C 
BRANCH  15  19
ATOM     19  C   UNL A   1      32.673  22.831  24.130  1.00  0.00    -0.002 A 
ATOM     20  C   UNL A   1      32.803  20.055  24.161  1.00  0.00     0.067 A 
ATOM     21  C   UNL A   1      32.264  20.705  23.047  1.00  0.00     0.021 A 
ATOM     22  C   UNL A   1      33.286  20.785  25.255  1.00  0.00     0.021 A 
ATOM     23  C   UNL A   1      32.183  22.097  23.043  1.00  0.00     0.011 A 
ATOM     24  C   UNL A   1      33.228  22.182  25.235  1.00  0.00     0.011 A 
BRANCH  20  25
ATOM     25  S   UNL A   1      32.895  18.280  24.161  1.00  0.00     0.175 S 
ATOM     26  C   UNL A   1      34.618  17.935  24.399  1.00  0.00     0.163 C 
ATOM     27  O   UNL A   1      32.534  17.819  22.838  1.00  0.00    -0.224 OA
ATOM     28  O   UNL A   1      32.171  17.823  25.336  1.00  0.00    -0.224 OA
ENDBRANCH  20  25
ENDBRANCH  15  19
BRANCH  18  29
ATOM     29  C   UNL A   1      30.757  27.128  23.180  1.00  0.00    -0.023 A 
ATOM     30  C   UNL A   1      29.569  26.591  23.700  1.00  0.00     0.007 A 
ATOM     31  C   UNL A   1      30.692  28.393  22.560  1.00  0.00     0.007 A 
ATOM     32  C   UNL A   1      28.357  27.285  23.584  1.00  0.00     0.021 A 
ATOM     33  C   UNL A   1      29.490  29.096  22.465  1.00  0.00     0.021 A 
ATOM     34  C   UNL A   1      28.324  28.535  22.974  1.00  0.00     0.041 A 
ATOM     35  Cl  UNL A   1      26.842  29.400  22.867  1.00  0.00    -0.084 Cl
ENDBRANCH  18  29
ENDBRANCH   9  14
ENDBRANCH   5   8
ENDBRANCH   3   4
ENDBRANCH   2   3
ENDBRANCH   1   2
BRANCH   1  36
ATOM     36  C   UNL A   1      38.247  28.838  31.648  1.00  0.00     0.002 C 
BRANCH  36  37
ATOM     37  C   UNL A   1      37.097  29.655  32.244  1.00  0.00     0.021 C 
BRANCH  37  38
ATOM     38  C   UNL A   1      36.841  30.992  31.554  1.00  0.00     0.116 C 
BRANCH  38  39
ATOM     39  N   UNL A   1      37.257  32.116  32.381  1.00  0.00    -0.352 N 
ATOM     40  C   UNL A   1      38.520  32.492  32.764  1.00  0.00     0.251 C 
ATOM     41  H   UNL A   1      36.527  32.689  32.711  1.00  0.00     0.163 HD
ATOM     42  O   UNL A   1      38.667  33.340  33.638  1.00  0.00    -0.269 OA
BRANCH  40  43
ATOM     43  C   UNL A   1      39.702  31.863  32.133  1.00  0.00     0.039 A 
ATOM     44  C   UNL A   1      39.954  32.103  30.778  1.00  0.00     0.014 A 
ATOM     45  C   UNL A   1      40.545  31.024  32.867  1.00  0.00     0.014 A 
ATOM     46  C   UNL A   1      41.083  31.543  30.175  1.00  0.00     0.010 A 
ATOM     47  C   UNL A   1      41.703  30.517  32.280  1.00  0.00     0.010 A 
ATOM     48  C   UNL A   1      41.981  30.767  30.927  1.00  0.00    -0.014 A 
BRANCH  48  49
ATOM     49  C   UNL A   1      43.215  30.209  30.317  1.00  0.00     0.031 A 
ATOM     50  C   UNL A   1      43.193  28.844  29.684  1.00  0.00     0.074 A 
ATOM     51  C   UNL A   1      44.367  30.902  30.392  1.00  0.00     0.049 A 
ATOM     52  N   UNL A   1      44.179  28.156  29.169  1.00  0.00    -0.248 NA
ATOM     53  C   UNL A   1      41.895  28.151  29.647  1.00  0.00     0.031 C 
ATOM     54  C   UNL A   1      44.526  32.215  31.022  1.00  0.00     0.029 A 
ATOM     55  N   UNL A   1      45.628  30.595  29.946  1.00  0.00    -0.354 N 
ATOM     56  C   UNL A   1      43.628  26.946  28.765  1.00  0.00     0.074 A 
ATOM     57  C   UNL A   1      42.229  26.976  29.133  1.00  0.00     0.031 C 
ATOM     58  C   UNL A   1      45.806  32.605  30.910  1.00  0.00     0.029 A 
ATOM     59  C   UNL A   1      46.565  31.560  30.230  1.00  0.00     0.049 A 
ATOM     60  H   UNL A   1      45.842  29.761  29.468  1.00  0.00     0.167 HD
ATOM     61  C   UNL A   1      44.228  25.913  28.125  1.00  0.00     0.037 A 
ATOM     62  C   UNL A   1      47.889  31.595  29.979  1.00  0.00     0.037 A 
ATOM     63  C   UNL A   1      45.613  25.902  27.734  1.00  0.00     0.049 A 
ATOM     64  C   UNL A   1      48.529  30.443  29.256  1.00  0.00     0.074 A 
ATOM     65  C   UNL A   1      46.302  24.930  27.031  1.00  0.00     0.029 A 
ATOM     66  N   UNL A   1      46.523  26.912  28.013  1.00  0.00    -0.354 N 
ATOM     67  N   UNL A   1      47.981  29.331  28.828  1.00  0.00    -0.248 NA
ATOM     68  C   UNL A   1      49.969  30.550  28.976  1.00  0.00     0.031 C 
ATOM     69  C   UNL A   1      47.635  25.335  26.913  1.00  0.00     0.029 A 
ATOM     70  C   UNL A   1      47.769  26.580  27.507  1.00  0.00     0.049 A 
ATOM     71  H   UNL A   1      46.313  27.743  28.497  1.00  0.00     0.167 HD
ATOM     72  C   UNL A   1      48.999  28.619  28.206  1.00  0.00     0.074 A 
ATOM     73  C   UNL A   1      50.196  29.430  28.304  1.00  0.00     0.031 C 
ATOM     74  C   UNL A   1      48.948  27.403  27.608  1.00  0.00     0.037 A 
BRANCH  61  75
ATOM     75  C   UNL A   1      43.385  24.711  27.802  1.00  0.00     0.058 A 
ATOM     76  C   UNL A   1      42.709  24.594  26.576  1.00  0.00     0.135 A 
ATOM     77  C   UNL A   1      43.275  23.648  28.714  1.00  0.00     0.135 A 
ATOM     78  F   UNL A   1      42.769  25.586  25.675  1.00  0.00    -0.206 F 
ATOM     79  C   UNL A   1      41.930  23.481  26.279  1.00  0.00     0.059 A 
ATOM     80  C   UNL A   1      42.521  22.513  28.426  1.00  0.00     0.059 A 
ATOM     81  F   UNL A   1      43.900  23.707  29.900  1.00  0.00    -0.206 F 
ATOM     82  C   UNL A   1      41.839  22.447  27.212  1.00  0.00     0.060 A 
BRANCH  82  83
ATOM     83  S   UNL A   1      40.824  21.009  26.810  1.00  0.00     0.124 S 
ATOM     84  O   UNL A   1      41.600  20.398  25.735  1.00  0.00    -0.237 OA
ATOM     85  O   UNL A   1      40.803  20.276  28.072  1.00  0.00    -0.237 OA
ATOM     86  O   UNL A   1      39.549  21.595  26.409  1.00  0.00    -0.744 OA
ENDBRANCH  82  83
ENDBRANCH  61  75
BRANCH  62  87
ATOM     87  C   UNL A   1      48.689  32.778  30.393  1.00  0.00     0.058 A 
ATOM     88  C   UNL A   1      49.265  32.846  31.671  1.00  0.00     0.135 A 
ATOM     89  C   UNL A   1      48.909  33.853  29.518  1.00  0.00     0.135 A 
ATOM     90  F   UNL A   1      49.077  31.845  32.544  1.00  0.00    -0.206 F 
ATOM     91  C   UNL A   1      50.019  33.943  32.072  1.00  0.00     0.059 A 
ATOM     92  C   UNL A   1      49.680  34.951  29.889  1.00  0.00     0.059 A 
ATOM     93  F   UNL A   1      48.394  33.827  28.278  1.00  0.00    -0.206 F 
ATOM     94  C   UNL A   1      50.222  34.991  31.172  1.00  0.00     0.060 A 
BRANCH  94  95
ATOM     95  S   UNL A   1      51.248  36.387  31.684  1.00  0.00     0.124 S 
ATOM     96  O   UNL A   1      51.515  37.038  30.407  1.00  0.00    -0.237 OA
ATOM     97  O   UNL A   1      50.359  37.105  32.593  1.00  0.00    -0.237 OA
ATOM     98  O   UNL A   1      52.395  35.745  32.319  1.00  0.00    -0.744 OA
ENDBRANCH  94  95
ENDBRANCH  62  87
BRANCH  74  99
ATOM     99  C   UNL A   1      50.214  26.888  26.983  1.00  0.00     0.058 A 
ATOM    100  C   UNL A   1      51.145  26.138  27.717  1.00  0.00     0.135 A 
ATOM    101  C   UNL A   1      50.472  27.104  25.619  1.00  0.00     0.135 A 
ATOM    102  F   UNL A   1      50.948  25.910  29.025  1.00  0.00    -0.206 F 
ATOM    103  C   UNL A   1      52.301  25.636  27.127  1.00  0.00     0.059 A 
ATOM    104  C   UNL A   1      51.609  26.590  25.002  1.00  0.00     0.059 A 
ATOM    105  F   UNL A   1      49.608  27.807  24.871  1.00  0.00    -0.206 F 
ATOM    106  C   UNL A   1      52.523  25.867  25.767  1.00  0.00     0.060 A 
BRANCH 106 107
ATOM    107  S   UNL A   1      54.007  25.180  25.002  1.00  0.00     0.124 S 
ATOM    108  O   UNL A   1      53.592  23.806  24.738  1.00  0.00    -0.237 OA
ATOM    109  O   UNL A   1      54.176  26.028  23.826  1.00  0.00    -0.237 OA
ATOM    110  O   UNL A   1      55.026  25.341  26.034  1.00  0.00    -0.744 OA
ENDBRANCH 106 107
ENDBRANCH  74  99
ENDBRANCH  48  49
ENDBRANCH  40  43
ENDBRANCH  38  39
ENDBRANCH  37  38
ENDBRANCH  36  37
ENDBRANCH   1  36
TORSDOF 20
ENDMDL
MODEL 3
REMARK VINA RESULT:      -9.6      5.884     12.591
REMARK SMILES CS(=O)(=O)c1ccc(C2=NN(c3ccc(C(=O)NCCCCCCNC(=O)c4ccc(-c5c6nc(c(-c7c(F)cc(S(=O)(=O)[O-])cc7F)c7ccc([nH]7)c(-c7c(F)cc(S(=O)(=O)[O-])cc7F)c7nc(c(-c8c(F)cc(S(=O)(=O)[O-])cc8F)c8ccc5[nH]8)C=C7)C=C6)cc4)cc3)[C@H](c3ccc(Cl)cc3)C2)cc1
REMARK SMILES IDX 21 1 20 2 19 3 18 4 16 5 17 6 15 8 12 9 13 10 95 11 14 12
REMARK SMILES IDX 94 13 11 14 9 15 10 16 104 17 96 18 8 19 5 20 6 21 106 22
REMARK SMILES IDX 7 23 105 24 2 25 1 26 3 27 4 28 97 29 98 30 103 31 99 32
REMARK SMILES IDX 102 33 100 34 101 35 22 36 23 37 24 38 25 39 26 40 27 42
REMARK SMILES IDX 28 43 29 44 93 45 30 46 92 47 31 48 32 49 33 50 86 51 34 52
REMARK SMILES IDX 91 53 85 54 87 55 35 56 90 57 84 58 83 59 36 61 70 62 49 63
REMARK SMILES IDX 69 64 50 65 53 66 68 67 88 68 51 69 52 70 67 72 89 73 54 74
REMARK SMILES IDX 37 75 38 76 47 77 39 78 40 79 46 80 48 81 41 82 42 83 43 84
REMARK SMILES IDX 44 85 45 86 71 87 72 88 81 89 73 90 74 91 80 92 82 93 75 94
REMARK SMILES IDX 76 95 77 96 78 97 79 98 55 99 56 100 65 101 57 102 58 103
REMARK SMILES IDX 64 104 66 105 59 106 60 107 61 108 62 109 63 110
REMARK H PARENT 18 7 25 41 87 60 53 71
REMARK Flexibility Score: inf
ROOT
ATOM      1  C   UNL A   1      38.004  28.300  30.430  1.00  0.00     0.002 C 
ENDROOT
BRANCH   1   2
ATOM      2  C   UNL A   1      38.314  29.036  29.121  1.00  0.00     0.021 C 
BRANCH   2   3
ATOM      3  C   UNL A   1      37.174  28.986  28.102  1.00  0.00     0.116 C 
BRANCH   3   4
ATOM      4  N   UNL A   1      36.253  30.090  28.313  1.00  0.00    -0.352 N 
ATOM      5  C   UNL A   1      34.969  30.294  27.880  1.00  0.00     0.251 C 
ATOM      6  O   UNL A   1      34.371  31.300  28.262  1.00  0.00    -0.269 OA
ATOM      7  H   UNL A   1      36.616  30.821  28.864  1.00  0.00     0.163 HD
BRANCH   5   8
ATOM      8  C   UNL A   1      34.256  29.311  27.024  1.00  0.00     0.039 A 
ATOM      9  C   UNL A   1      32.885  27.336  25.555  1.00  0.00     0.060 A 
ATOM     10  C   UNL A   1      32.513  27.626  26.871  1.00  0.00     0.029 A 
ATOM     11  C   UNL A   1      33.901  28.093  24.963  1.00  0.00     0.029 A 
ATOM     12  C   UNL A   1      33.192  28.605  27.602  1.00  0.00     0.016 A 
ATOM     13  C   UNL A   1      34.569  29.086  25.683  1.00  0.00     0.016 A 
BRANCH   9  14
ATOM     14  N   UNL A   1      32.288  26.310  24.834  1.00  0.00    -0.257 N 
ATOM     15  C   UNL A   1      32.352  24.306  24.131  1.00  0.00     0.071 C 
ATOM     16  N   UNL A   1      32.545  25.028  25.189  1.00  0.00    -0.176 NA
ATOM     17  C   UNL A   1      32.022  25.059  22.872  1.00  0.00     0.091 C 
ATOM     18  C   UNL A   1      31.892  26.484  23.433  1.00  0.00     0.144 C 
BRANCH  15  19
ATOM     19  C   UNL A   1      32.457  22.838  24.162  1.00  0.00    -0.002 A 
ATOM     20  C   UNL A   1      32.709  20.075  24.320  1.00  0.00     0.067 A 
ATOM     21  C   UNL A   1      32.768  20.838  25.490  1.00  0.00     0.021 A 
ATOM     22  C   UNL A   1      32.516  20.683  23.073  1.00  0.00     0.021 A 
ATOM     23  C   UNL A   1      32.659  22.225  25.404  1.00  0.00     0.011 A 
ATOM     24  C   UNL A   1      32.381  22.073  22.996  1.00  0.00     0.011 A 
BRANCH  20  25
ATOM     25  S   UNL A   1      32.857  18.307  24.437  1.00  0.00     0.175 S 
ATOM     26  C   UNL A   1      34.605  18.022  24.503  1.00  0.00     0.163 C 
ATOM     27  O   UNL A   1      32.366  17.740  23.199  1.00  0.00    -0.224 OA
ATOM     28  O   UNL A   1      32.283  17.923  25.716  1.00  0.00    -0.224 OA
ENDBRANCH  20  25
ENDBRANCH  15  19
BRANCH  18  29
ATOM     29  C   UNL A   1      30.527  27.159  23.366  1.00  0.00    -0.023 A 
ATOM     30  C   UNL A   1      30.301  28.404  22.758  1.00  0.00     0.007 A 
ATOM     31  C   UNL A   1      29.411  26.461  23.873  1.00  0.00     0.007 A 
ATOM     32  C   UNL A   1      29.008  28.940  22.680  1.00  0.00     0.021 A 
ATOM     33  C   UNL A   1      28.120  26.984  23.775  1.00  0.00     0.021 A 
ATOM     34  C   UNL A   1      27.924  28.226  23.183  1.00  0.00     0.041 A 
ATOM     35  Cl  UNL A   1      26.337  28.871  23.052  1.00  0.00    -0.084 Cl
ENDBRANCH  18  29
ENDBRANCH   9  14
ENDBRANCH   5   8
ENDBRANCH   3   4
ENDBRANCH   2   3
ENDBRANCH   1   2
BRANCH   1  36
ATOM     36  C   UNL A   1      38.253  29.113  31.706  1.00  0.00     0.002 C 
BRANCH  36  37
ATOM     37  C   UNL A   1      37.036  29.872  32.244  1.00  0.00     0.021 C 
BRANCH  37  38
ATOM     38  C   UNL A   1      36.761  31.206  31.555  1.00  0.00     0.116 C 
BRANCH  38  39
ATOM     39  N   UNL A   1      37.086  32.335  32.414  1.00  0.00    -0.352 N 
ATOM     40  C   UNL A   1      38.313  32.773  32.846  1.00  0.00     0.251 C 
ATOM     41  H   UNL A   1      36.315  32.861  32.728  1.00  0.00     0.163 HD
ATOM     42  O   UNL A   1      38.383  33.612  33.739  1.00  0.00    -0.269 OA
BRANCH  40  43
ATOM     43  C   UNL A   1      39.548  32.221  32.246  1.00  0.00     0.039 A 
ATOM     44  C   UNL A   1      40.441  31.516  33.060  1.00  0.00     0.014 A 
ATOM     45  C   UNL A   1      39.836  32.417  30.893  1.00  0.00     0.014 A 
ATOM     46  C   UNL A   1      41.595  30.962  32.503  1.00  0.00     0.010 A 
ATOM     47  C   UNL A   1      40.956  31.812  30.327  1.00  0.00     0.010 A 
ATOM     48  C   UNL A   1      41.850  31.082  31.127  1.00  0.00    -0.014 A 
BRANCH  48  49
ATOM     49  C   UNL A   1      43.044  30.453  30.506  1.00  0.00     0.031 A 
ATOM     50  C   UNL A   1      44.336  31.219  30.411  1.00  0.00     0.074 A 
ATOM     51  C   UNL A   1      42.945  29.222  29.971  1.00  0.00     0.049 A 
ATOM     52  N   UNL A   1      45.461  30.873  29.840  1.00  0.00    -0.248 NA
ATOM     53  C   UNL A   1      44.358  32.560  31.016  1.00  0.00     0.031 C 
ATOM     54  C   UNL A   1      41.734  28.398  29.959  1.00  0.00     0.029 A 
ATOM     55  N   UNL A   1      43.876  28.450  29.322  1.00  0.00    -0.354 N 
ATOM     56  C   UNL A   1      46.317  31.955  30.000  1.00  0.00     0.074 A 
ATOM     57  C   UNL A   1      45.568  32.988  30.683  1.00  0.00     0.031 C 
ATOM     58  C   UNL A   1      42.000  27.233  29.347  1.00  0.00     0.029 A 
ATOM     59  C   UNL A   1      43.388  27.238  28.895  1.00  0.00     0.049 A 
ATOM     60  H   UNL A   1      44.806  28.737  29.175  1.00  0.00     0.167 HD
ATOM     61  C   UNL A   1      47.615  32.071  29.630  1.00  0.00     0.037 A 
ATOM     62  C   UNL A   1      43.988  26.245  28.209  1.00  0.00     0.037 A 
ATOM     63  C   UNL A   1      48.364  31.029  28.977  1.00  0.00     0.049 A 
ATOM     64  C   UNL A   1      45.433  26.391  27.821  1.00  0.00     0.074 A 
ATOM     65  C   UNL A   1      49.699  31.026  28.615  1.00  0.00     0.029 A 
ATOM     66  N   UNL A   1      47.842  29.803  28.589  1.00  0.00    -0.354 N 
ATOM     67  N   UNL A   1      46.246  27.399  28.033  1.00  0.00    -0.248 NA
ATOM     68  C   UNL A   1      46.048  25.262  27.107  1.00  0.00     0.031 C 
ATOM     69  C   UNL A   1      49.977  29.812  27.978  1.00  0.00     0.029 A 
ATOM     70  C   UNL A   1      48.825  29.042  27.980  1.00  0.00     0.049 A 
ATOM     71  H   UNL A   1      46.911  29.517  28.728  1.00  0.00     0.167 HD
ATOM     72  C   UNL A   1      47.472  27.017  27.502  1.00  0.00     0.074 A 
ATOM     73  C   UNL A   1      47.298  25.682  26.967  1.00  0.00     0.031 C 
ATOM     74  C   UNL A   1      48.637  27.710  27.460  1.00  0.00     0.037 A 
BRANCH  61  75
ATOM     75  C   UNL A   1      48.311  33.370  29.930  1.00  0.00     0.058 A 
ATOM     76  C   UNL A   1      48.929  33.604  31.170  1.00  0.00     0.135 A 
ATOM     77  C   UNL A   1      48.390  34.381  28.958  1.00  0.00     0.135 A 
ATOM     78  F   UNL A   1      48.872  32.677  32.139  1.00  0.00    -0.206 F 
ATOM     79  C   UNL A   1      49.573  34.806  31.446  1.00  0.00     0.059 A 
ATOM     80  C   UNL A   1      49.051  35.581  29.205  1.00  0.00     0.059 A 
ATOM     81  F   UNL A   1      47.817  34.210  27.756  1.00  0.00    -0.206 F 
ATOM     82  C   UNL A   1      49.626  35.790  30.457  1.00  0.00     0.060 A 
BRANCH  82  83
ATOM     83  S   UNL A   1      50.465  37.344  30.831  1.00  0.00     0.124 S 
ATOM     84  O   UNL A   1      49.353  38.287  30.808  1.00  0.00    -0.237 OA
ATOM     85  O   UNL A   1      51.046  37.080  32.144  1.00  0.00    -0.237 OA
ATOM     86  O   UNL A   1      51.428  37.480  29.742  1.00  0.00    -0.744 OA
ENDBRANCH  82  83
ENDBRANCH  61  75
BRANCH  62  87
ATOM     87  C   UNL A   1      43.226  25.014  27.870  1.00  0.00     0.058 A 
ATOM     88  C   UNL A   1      42.598  24.877  26.623  1.00  0.00     0.135 A 
ATOM     89  C   UNL A   1      43.125  23.946  28.774  1.00  0.00     0.135 A 
ATOM     90  F   UNL A   1      42.661  25.875  25.728  1.00  0.00    -0.206 F 
ATOM     91  C   UNL A   1      41.884  23.732  26.289  1.00  0.00     0.059 A 
ATOM     92  C   UNL A   1      42.437  22.780  28.453  1.00  0.00     0.059 A 
ATOM     93  F   UNL A   1      43.724  24.021  29.974  1.00  0.00    -0.206 F 
ATOM     94  C   UNL A   1      41.811  22.686  27.211  1.00  0.00     0.060 A 
BRANCH  94  95
ATOM     95  S   UNL A   1      40.928  21.180  26.748  1.00  0.00     0.124 S 
ATOM     96  O   UNL A   1      39.688  21.723  26.204  1.00  0.00    -0.237 OA
ATOM     97  O   UNL A   1      41.838  20.574  25.780  1.00  0.00    -0.237 OA
ATOM     98  O   UNL A   1      40.803  20.463  28.013  1.00  0.00    -0.744 OA
ENDBRANCH  94  95
ENDBRANCH  62  87
BRANCH  74  99
ATOM     99  C   UNL A   1      49.825  27.026  26.844  1.00  0.00     0.058 A 
ATOM    100  C   UNL A   1      50.132  27.168  25.483  1.00  0.00     0.135 A 
ATOM    101  C   UNL A   1      50.695  26.263  27.639  1.00  0.00     0.135 A 
ATOM    102  F   UNL A   1      49.328  27.881  24.679  1.00  0.00    -0.206 F 
ATOM    103  C   UNL A   1      51.251  26.558  24.924  1.00  0.00     0.059 A 
ATOM    104  C   UNL A   1      51.834  25.665  27.107  1.00  0.00     0.059 A 
ATOM    105  F   UNL A   1      50.451  26.105  28.950  1.00  0.00    -0.206 F 
ATOM    106  C   UNL A   1      52.097  25.810  25.746  1.00  0.00     0.060 A 
BRANCH 106 107
ATOM    107  S   UNL A   1      53.566  25.054  25.018  1.00  0.00     0.124 S 
ATOM    108  O   UNL A   1      54.628  25.626  25.839  1.00  0.00    -0.237 OA
ATOM    109  O   UNL A   1      53.314  23.629  25.210  1.00  0.00    -0.237 OA
ATOM    110  O   UNL A   1      53.530  25.508  23.632  1.00  0.00    -0.744 OA
ENDBRANCH 106 107
ENDBRANCH  74  99
ENDBRANCH  48  49
ENDBRANCH  40  43
ENDBRANCH  38  39
ENDBRANCH  37  38
ENDBRANCH  36  37
ENDBRANCH   1  36
TORSDOF 20
ENDMDL
