MODEL 1
REMARK VINA RESULT:     -11.9      0.000      0.000
REMARK SMILES CC(C)Oc1ccc(-c2ccc(/C(=C\c3ccc(S(C)(=O)=O)cc3)C(=O)NCCCCCCNC(=O)c3ccc(-c4c5nc(c(-c6c(F)cc(S(=O)(=O)[O-])cc6F)c6ccc([nH]6)c(-c6c(F)cc(S(=O)(=O)[O-])cc6F)c6nc(c(-c7c(F)cc(S(=O)(=O)[O-])cc7F)c7ccc4[nH]7)C=C6)C=C5)cc3)cc2)cc1
REMARK SMILES IDX 30 1 29 2 28 3 27 4 25 5 26 6 13 8 14 9 12 10 9 11 10 12
REMARK SMILES IDX 104 13 11 14 103 15 8 16 5 17 6 18 106 19 7 20 105 21 4 22
REMARK SMILES IDX 2 23 1 24 3 25 15 26 16 27 24 28 17 29 23 30 18 31 19 32
REMARK SMILES IDX 20 33 21 34 22 35 31 36 32 37 33 38 34 39 35 40 36 42 37 43
REMARK SMILES IDX 38 44 102 45 39 46 101 47 40 48 41 49 42 50 95 51 43 52
REMARK SMILES IDX 100 53 94 54 96 55 44 56 99 57 93 58 92 59 45 61 79 62 58 63
REMARK SMILES IDX 78 64 59 65 62 66 77 67 97 68 60 69 61 70 76 72 98 73 63 74
REMARK SMILES IDX 46 75 47 76 56 77 48 78 49 79 55 80 57 81 50 82 51 83 52 84
REMARK SMILES IDX 53 85 54 86 80 87 81 88 90 89 82 90 83 91 89 92 91 93 84 94
REMARK SMILES IDX 85 95 86 96 87 97 88 98 64 99 65 100 74 101 66 102 67 103
REMARK SMILES IDX 73 104 75 105 68 106 69 107 70 108 71 109 72 110
REMARK H PARENT 27 7 34 41 96 60 62 71
REMARK Flexibility Score: inf
ROOT
ATOM      1  C   UNL A   1      31.553  28.060  26.840  1.00  0.00     0.002 C 
ENDROOT
BRANCH   1   2
ATOM      2  C   UNL A   1      31.824  26.757  26.073  1.00  0.00     0.021 C 
BRANCH   2   3
ATOM      3  C   UNL A   1      30.658  26.326  25.176  1.00  0.00     0.116 C 
BRANCH   3   4
ATOM      4  N   UNL A   1      31.085  26.327  23.791  1.00  0.00    -0.352 N 
ATOM      5  C   UNL A   1      31.872  25.528  23.025  1.00  0.00     0.251 C 
ATOM      6  O   UNL A   1      32.037  25.942  21.874  1.00  0.00    -0.269 OA
ATOM      7  H   UNL A   1      30.716  27.087  23.286  1.00  0.00     0.163 HD
BRANCH   5   8
ATOM      8  C   UNL A   1      32.439  24.188  23.480  1.00  0.00     0.047 C 
ATOM      9  C   UNL A   1      31.597  23.139  23.655  1.00  0.00     0.022 C 
BRANCH   8  10
ATOM     10  C   UNL A   1      33.883  24.112  23.912  1.00  0.00    -0.013 A 
ATOM     11  C   UNL A   1      36.469  23.516  25.030  1.00  0.00    -0.018 A 
ATOM     12  C   UNL A   1      36.130  23.157  23.718  1.00  0.00     0.009 A 
ATOM     13  C   UNL A   1      35.537  24.304  25.715  1.00  0.00     0.009 A 
ATOM     14  C   UNL A   1      34.888  23.496  23.155  1.00  0.00     0.009 A 
ATOM     15  C   UNL A   1      34.264  24.560  25.185  1.00  0.00     0.009 A 
BRANCH  11  16
ATOM     16  C   UNL A   1      37.702  23.029  25.693  1.00  0.00    -0.018 A 
ATOM     17  C   UNL A   1      40.142  22.105  26.800  1.00  0.00     0.119 A 
ATOM     18  C   UNL A   1      39.690  23.393  27.070  1.00  0.00     0.047 A 
ATOM     19  C   UNL A   1      39.362  21.252  26.036  1.00  0.00     0.047 A 
ATOM     20  C   UNL A   1      38.485  23.849  26.522  1.00  0.00     0.012 A 
ATOM     21  C   UNL A   1      38.170  21.717  25.470  1.00  0.00     0.012 A 
BRANCH  17  22
ATOM     22  O   UNL A   1      41.303  21.704  27.393  1.00  0.00    -0.491 OA
BRANCH  22  23
ATOM     23  C   UNL A   1      42.407  21.379  26.527  1.00  0.00     0.167 C 
ATOM     24  C   UNL A   1      42.357  19.940  26.021  1.00  0.00     0.052 C 
ATOM     25  C   UNL A   1      42.657  22.385  25.403  1.00  0.00     0.052 C 
ENDBRANCH  22  23
ENDBRANCH  17  22
ENDBRANCH  11  16
ENDBRANCH   8  10
BRANCH   9  26
ATOM     26  C   UNL A   1      31.938  21.721  23.850  1.00  0.00    -0.025 A 
ATOM     27  C   UNL A   1      31.964  20.896  22.709  1.00  0.00     0.009 A 
ATOM     28  C   UNL A   1      32.337  21.203  25.085  1.00  0.00     0.009 A 
ATOM     29  C   UNL A   1      32.461  19.595  22.785  1.00  0.00     0.021 A 
ATOM     30  C   UNL A   1      32.832  19.897  25.167  1.00  0.00     0.021 A 
ATOM     31  C   UNL A   1      32.910  19.107  24.013  1.00  0.00     0.067 A 
BRANCH  31  32
ATOM     32  S   UNL A   1      33.719  17.523  24.065  1.00  0.00     0.175 S 
ATOM     33  C   UNL A   1      32.931  16.672  25.402  1.00  0.00     0.163 C 
ATOM     34  O   UNL A   1      33.388  16.840  22.828  1.00  0.00    -0.224 OA
ATOM     35  O   UNL A   1      35.105  17.750  24.434  1.00  0.00    -0.224 OA
ENDBRANCH  31  32
ENDBRANCH   9  26
ENDBRANCH   5   8
ENDBRANCH   3   4
ENDBRANCH   2   3
ENDBRANCH   1   2
BRANCH   1  36
ATOM     36  C   UNL A   1      32.783  28.951  27.047  1.00  0.00     0.002 C 
BRANCH  36  37
ATOM     37  C   UNL A   1      32.509  30.454  26.951  1.00  0.00     0.021 C 
BRANCH  37  38
ATOM     38  C   UNL A   1      33.642  31.329  27.476  1.00  0.00     0.116 C 
BRANCH  38  39
ATOM     39  N   UNL A   1      33.180  32.677  27.762  1.00  0.00    -0.352 N 
ATOM     40  C   UNL A   1      33.595  33.546  28.737  1.00  0.00     0.251 C 
ATOM     41  H   UNL A   1      32.469  33.014  27.171  1.00  0.00     0.163 HD
ATOM     42  O   UNL A   1      32.917  34.537  28.996  1.00  0.00    -0.269 OA
BRANCH  40  43
ATOM     43  C   UNL A   1      34.852  33.292  29.473  1.00  0.00     0.039 A 
ATOM     44  C   UNL A   1      36.006  33.982  29.095  1.00  0.00     0.014 A 
ATOM     45  C   UNL A   1      34.908  32.344  30.500  1.00  0.00     0.014 A 
ATOM     46  C   UNL A   1      37.209  33.735  29.760  1.00  0.00     0.010 A 
ATOM     47  C   UNL A   1      36.089  32.155  31.212  1.00  0.00     0.010 A 
ATOM     48  C   UNL A   1      37.257  32.830  30.833  1.00  0.00    -0.014 A 
BRANCH  48  49
ATOM     49  C   UNL A   1      38.537  32.549  31.533  1.00  0.00     0.031 A 
ATOM     50  C   UNL A   1      39.570  31.663  30.887  1.00  0.00     0.074 A 
ATOM     51  C   UNL A   1      38.756  33.066  32.758  1.00  0.00     0.049 A 
ATOM     52  N   UNL A   1      40.738  31.287  31.343  1.00  0.00    -0.248 NA
ATOM     53  C   UNL A   1      39.236  31.102  29.567  1.00  0.00     0.031 C 
ATOM     54  C   UNL A   1      37.810  33.896  33.506  1.00  0.00     0.029 A 
ATOM     55  N   UNL A   1      39.842  32.968  33.589  1.00  0.00    -0.354 N 
ATOM     56  C   UNL A   1      41.270  30.444  30.375  1.00  0.00     0.074 A 
ATOM     57  C   UNL A   1      40.273  30.312  29.335  1.00  0.00     0.031 C 
ATOM     58  C   UNL A   1      38.369  34.256  34.673  1.00  0.00     0.029 A 
ATOM     59  C   UNL A   1      39.697  33.658  34.769  1.00  0.00     0.049 A 
ATOM     60  H   UNL A   1      40.649  32.453  33.363  1.00  0.00     0.167 HD
ATOM     61  C   UNL A   1      42.489  29.855  30.340  1.00  0.00     0.037 A 
ATOM     62  C   UNL A   1      40.541  33.795  35.810  1.00  0.00     0.037 A 
ATOM     63  C   UNL A   1      43.488  30.014  31.365  1.00  0.00     0.049 A 
ATOM     64  C   UNL A   1      41.896  33.145  35.744  1.00  0.00     0.074 A 
ATOM     65  C   UNL A   1      44.775  29.507  31.401  1.00  0.00     0.029 A 
ATOM     66  N   UNL A   1      43.311  30.739  32.535  1.00  0.00    -0.354 N 
ATOM     67  N   UNL A   1      42.408  32.401  34.790  1.00  0.00    -0.248 NA
ATOM     68  C   UNL A   1      42.794  33.359  36.886  1.00  0.00     0.031 C 
ATOM     69  C   UNL A   1      45.362  29.889  32.611  1.00  0.00     0.029 A 
ATOM     70  C   UNL A   1      44.459  30.677  33.308  1.00  0.00     0.049 A 
ATOM     71  H   UNL A   1      42.491  31.225  32.781  1.00  0.00     0.167 HD
ATOM     72  C   UNL A   1      43.696  32.084  35.206  1.00  0.00     0.074 A 
ATOM     73  C   UNL A   1      43.889  32.727  36.489  1.00  0.00     0.031 C 
ATOM     74  C   UNL A   1      44.635  31.328  34.583  1.00  0.00     0.037 A 
BRANCH  61  75
ATOM     75  C   UNL A   1      42.812  28.989  29.152  1.00  0.00     0.058 A 
ATOM     76  C   UNL A   1      42.552  27.608  29.153  1.00  0.00     0.135 A 
ATOM     77  C   UNL A   1      43.363  29.549  27.988  1.00  0.00     0.135 A 
ATOM     78  F   UNL A   1      42.042  27.017  30.244  1.00  0.00    -0.206 F 
ATOM     79  C   UNL A   1      42.856  26.809  28.055  1.00  0.00     0.059 A 
ATOM     80  C   UNL A   1      43.647  28.773  26.867  1.00  0.00     0.059 A 
ATOM     81  F   UNL A   1      43.632  30.863  27.931  1.00  0.00    -0.206 F 
ATOM     82  C   UNL A   1      43.405  27.401  26.916  1.00  0.00     0.060 A 
BRANCH  82  83
ATOM     83  S   UNL A   1      43.793  26.351  25.501  1.00  0.00     0.124 S 
ATOM     84  O   UNL A   1      44.792  27.157  24.806  1.00  0.00    -0.237 OA
ATOM     85  O   UNL A   1      44.292  25.138  26.141  1.00  0.00    -0.237 OA
ATOM     86  O   UNL A   1      42.511  26.213  24.817  1.00  0.00    -0.744 OA
ENDBRANCH  82  83
ENDBRANCH  61  75
BRANCH  62  87
ATOM     87  C   UNL A   1      40.141  34.610  36.989  1.00  0.00     0.058 A 
ATOM     88  C   UNL A   1      39.413  34.045  38.045  1.00  0.00     0.135 A 
ATOM     89  C   UNL A   1      40.488  35.966  37.086  1.00  0.00     0.135 A 
ATOM     90  F   UNL A   1      39.054  32.753  37.996  1.00  0.00    -0.206 F 
ATOM     91  C   UNL A   1      39.025  34.797  39.149  1.00  0.00     0.059 A 
ATOM     92  C   UNL A   1      40.135  36.734  38.193  1.00  0.00     0.059 A 
ATOM     93  F   UNL A   1      41.201  36.551  36.112  1.00  0.00    -0.206 F 
ATOM     94  C   UNL A   1      39.393  36.142  39.214  1.00  0.00     0.060 A 
BRANCH  94  95
ATOM     95  S   UNL A   1      38.925  37.099  40.672  1.00  0.00     0.124 S 
ATOM     96  O   UNL A   1      38.114  36.135  41.407  1.00  0.00    -0.237 OA
ATOM     97  O   UNL A   1      40.223  37.423  41.257  1.00  0.00    -0.237 OA
ATOM     98  O   UNL A   1      38.201  38.235  40.107  1.00  0.00    -0.744 OA
ENDBRANCH  94  95
ENDBRANCH  62  87
BRANCH  74  99
ATOM     99  C   UNL A   1      45.968  31.184  35.265  1.00  0.00     0.058 A 
ATOM    100  C   UNL A   1      47.011  32.098  35.049  1.00  0.00     0.135 A 
ATOM    101  C   UNL A   1      46.190  30.136  36.173  1.00  0.00     0.135 A 
ATOM    102  F   UNL A   1      46.851  33.114  34.187  1.00  0.00    -0.206 F 
ATOM    103  C   UNL A   1      48.240  31.959  35.685  1.00  0.00     0.059 A 
ATOM    104  C   UNL A   1      47.402  29.995  36.842  1.00  0.00     0.059 A 
ATOM    105  F   UNL A   1      45.221  29.242  36.426  1.00  0.00    -0.206 F 
ATOM    106  C   UNL A   1      48.426  30.903  36.578  1.00  0.00     0.060 A 
BRANCH 106 107
ATOM    107  S   UNL A   1      50.021  30.742  37.409  1.00  0.00     0.124 S 
ATOM    108  O   UNL A   1      49.616  30.660  38.808  1.00  0.00    -0.237 OA
ATOM    109  O   UNL A   1      50.553  29.512  36.829  1.00  0.00    -0.237 OA
ATOM    110  O   UNL A   1      50.727  31.963  37.028  1.00  0.00    -0.744 OA
ENDBRANCH 106 107
ENDBRANCH  74  99
ENDBRANCH  48  49
ENDBRANCH  40  43
ENDBRANCH  38  39
ENDBRANCH  37  38
ENDBRANCH  36  37
ENDBRANCH   1  36
TORSDOF 22
ENDMDL
MODEL 2
REMARK VINA RESULT:     -10.9      0.861      7.789
REMARK SMILES CC(C)Oc1ccc(-c2ccc(/C(=C\c3ccc(S(C)(=O)=O)cc3)C(=O)NCCCCCCNC(=O)c3ccc(-c4c5nc(c(-c6c(F)cc(S(=O)(=O)[O-])cc6F)c6ccc([nH]6)c(-c6c(F)cc(S(=O)(=O)[O-])cc6F)c6nc(c(-c7c(F)cc(S(=O)(=O)[O-])cc7F)c7ccc4[nH]7)C=C6)C=C5)cc3)cc2)cc1
REMARK SMILES IDX 30 1 29 2 28 3 27 4 25 5 26 6 13 8 14 9 12 10 9 11 10 12
REMARK SMILES IDX 104 13 11 14 103 15 8 16 5 17 6 18 106 19 7 20 105 21 4 22
REMARK SMILES IDX 2 23 1 24 3 25 15 26 16 27 24 28 17 29 23 30 18 31 19 32
REMARK SMILES IDX 20 33 21 34 22 35 31 36 32 37 33 38 34 39 35 40 36 42 37 43
REMARK SMILES IDX 38 44 102 45 39 46 101 47 40 48 41 49 42 50 95 51 43 52
REMARK SMILES IDX 100 53 94 54 96 55 44 56 99 57 93 58 92 59 45 61 79 62 58 63
REMARK SMILES IDX 78 64 59 65 62 66 77 67 97 68 60 69 61 70 76 72 98 73 63 74
REMARK SMILES IDX 46 75 47 76 56 77 48 78 49 79 55 80 57 81 50 82 51 83 52 84
REMARK SMILES IDX 53 85 54 86 80 87 81 88 90 89 82 90 83 91 89 92 91 93 84 94
REMARK SMILES IDX 85 95 86 96 87 97 88 98 64 99 65 100 74 101 66 102 67 103
REMARK SMILES IDX 73 104 75 105 68 106 69 107 70 108 71 109 72 110
REMARK H PARENT 27 7 34 41 96 60 62 71
REMARK Flexibility Score: inf
ROOT
ATOM      1  C   UNL A   1      33.201  28.148  26.953  1.00  0.00     0.002 C 
ENDROOT
BRANCH   1   2
ATOM      2  C   UNL A   1      33.243  27.103  25.828  1.00  0.00     0.021 C 
BRANCH   2   3
ATOM      3  C   UNL A   1      32.131  26.053  25.931  1.00  0.00     0.116 C 
BRANCH   3   4
ATOM      4  N   UNL A   1      31.573  25.806  24.617  1.00  0.00    -0.352 N 
ATOM      5  C   UNL A   1      31.729  24.847  23.668  1.00  0.00     0.251 C 
ATOM      6  O   UNL A   1      31.098  25.061  22.630  1.00  0.00    -0.269 OA
ATOM      7  H   UNL A   1      30.927  26.498  24.348  1.00  0.00     0.163 HD
BRANCH   5   8
ATOM      8  C   UNL A   1      32.526  23.562  23.868  1.00  0.00     0.047 C 
ATOM      9  C   UNL A   1      31.883  22.369  23.814  1.00  0.00     0.022 C 
BRANCH   8  10
ATOM     10  C   UNL A   1      33.966  23.655  24.312  1.00  0.00    -0.013 A 
ATOM     11  C   UNL A   1      36.647  23.288  25.296  1.00  0.00    -0.018 A 
ATOM     12  C   UNL A   1      36.356  23.286  23.925  1.00  0.00     0.009 A 
ATOM     13  C   UNL A   1      35.590  23.620  26.152  1.00  0.00     0.009 A 
ATOM     14  C   UNL A   1      35.056  23.519  23.444  1.00  0.00     0.009 A 
ATOM     15  C   UNL A   1      34.279  23.760  25.675  1.00  0.00     0.009 A 
BRANCH  11  16
ATOM     16  C   UNL A   1      37.971  22.884  25.827  1.00  0.00    -0.018 A 
ATOM     17  C   UNL A   1      40.565  22.117  26.673  1.00  0.00     0.119 A 
ATOM     18  C   UNL A   1      40.085  23.395  26.946  1.00  0.00     0.047 A 
ATOM     19  C   UNL A   1      39.744  21.199  26.038  1.00  0.00     0.047 A 
ATOM     20  C   UNL A   1      38.803  23.773  26.527  1.00  0.00     0.012 A 
ATOM     21  C   UNL A   1      38.473  21.586  25.600  1.00  0.00     0.012 A 
BRANCH  17  22
ATOM     22  O   UNL A   1      41.805  21.794  27.139  1.00  0.00    -0.491 OA
BRANCH  22  23
ATOM     23  C   UNL A   1      42.878  21.749  26.180  1.00  0.00     0.167 C 
ATOM     24  C   UNL A   1      44.070  22.611  26.586  1.00  0.00     0.052 C 
ATOM     25  C   UNL A   1      43.295  20.342  25.750  1.00  0.00     0.052 C 
ENDBRANCH  22  23
ENDBRANCH  17  22
ENDBRANCH  11  16
ENDBRANCH   8  10
BRANCH   9  26
ATOM     26  C   UNL A   1      32.469  21.022  23.737  1.00  0.00    -0.025 A 
ATOM     27  C   UNL A   1      33.229  20.581  24.838  1.00  0.00     0.009 A 
ATOM     28  C   UNL A   1      32.210  20.144  22.682  1.00  0.00     0.009 A 
ATOM     29  C   UNL A   1      33.653  19.255  24.922  1.00  0.00     0.021 A 
ATOM     30  C   UNL A   1      32.638  18.814  22.759  1.00  0.00     0.021 A 
ATOM     31  C   UNL A   1      33.341  18.372  23.887  1.00  0.00     0.067 A 
BRANCH  31  32
ATOM     32  S   UNL A   1      33.714  16.644  24.089  1.00  0.00     0.175 S 
ATOM     33  C   UNL A   1      35.115  16.623  25.171  1.00  0.00     0.163 C 
ATOM     34  O   UNL A   1      32.589  16.048  24.784  1.00  0.00    -0.224 OA
ATOM     35  O   UNL A   1      34.138  16.133  22.798  1.00  0.00    -0.224 OA
ENDBRANCH  31  32
ENDBRANCH   9  26
ENDBRANCH   5   8
ENDBRANCH   3   4
ENDBRANCH   2   3
ENDBRANCH   1   2
BRANCH   1  36
ATOM     36  C   UNL A   1      33.827  29.502  26.597  1.00  0.00     0.002 C 
BRANCH  36  37
ATOM     37  C   UNL A   1      33.291  30.687  27.402  1.00  0.00     0.021 C 
BRANCH  37  38
ATOM     38  C   UNL A   1      34.172  31.930  27.343  1.00  0.00     0.116 C 
BRANCH  38  39
ATOM     39  N   UNL A   1      33.573  33.038  28.067  1.00  0.00    -0.352 N 
ATOM     40  C   UNL A   1      33.941  33.589  29.267  1.00  0.00     0.251 C 
ATOM     41  H   UNL A   1      32.793  33.453  27.634  1.00  0.00     0.163 HD
ATOM     42  O   UNL A   1      33.168  34.343  29.852  1.00  0.00    -0.269 OA
BRANCH  40  43
ATOM     43  C   UNL A   1      35.262  33.276  29.855  1.00  0.00     0.039 A 
ATOM     44  C   UNL A   1      35.362  32.219  30.762  1.00  0.00     0.014 A 
ATOM     45  C   UNL A   1      36.387  34.049  29.552  1.00  0.00     0.014 A 
ATOM     46  C   UNL A   1      36.595  31.925  31.348  1.00  0.00     0.010 A 
ATOM     47  C   UNL A   1      37.630  33.707  30.078  1.00  0.00     0.010 A 
ATOM     48  C   UNL A   1      37.742  32.658  31.001  1.00  0.00    -0.014 A 
BRANCH  48  49
ATOM     49  C   UNL A   1      39.052  32.364  31.634  1.00  0.00     0.031 A 
ATOM     50  C   UNL A   1      39.376  32.926  32.993  1.00  0.00     0.074 A 
ATOM     51  C   UNL A   1      39.960  31.616  30.975  1.00  0.00     0.049 A 
ATOM     52  N   UNL A   1      40.468  32.796  33.703  1.00  0.00    -0.248 NA
ATOM     53  C   UNL A   1      38.349  33.769  33.628  1.00  0.00     0.031 C 
ATOM     54  C   UNL A   1      39.782  31.059  29.633  1.00  0.00     0.029 A 
ATOM     55  N   UNL A   1      41.214  31.199  31.344  1.00  0.00    -0.354 N 
ATOM     56  C   UNL A   1      40.263  33.544  34.856  1.00  0.00     0.074 A 
ATOM     57  C   UNL A   1      38.968  34.176  34.725  1.00  0.00     0.031 C 
ATOM     58  C   UNL A   1      40.872  30.348  29.303  1.00  0.00     0.029 A 
ATOM     59  C   UNL A   1      41.838  30.424  30.395  1.00  0.00     0.049 A 
ATOM     60  H   UNL A   1      41.627  31.431  32.206  1.00  0.00     0.167 HD
ATOM     61  C   UNL A   1      41.066  33.672  35.939  1.00  0.00     0.037 A 
ATOM     62  C   UNL A   1      43.052  29.840  30.406  1.00  0.00     0.037 A 
ATOM     63  C   UNL A   1      42.340  33.016  36.076  1.00  0.00     0.049 A 
ATOM     64  C   UNL A   1      43.921  29.983  31.626  1.00  0.00     0.074 A 
ATOM     65  C   UNL A   1      43.208  33.032  37.154  1.00  0.00     0.029 A 
ATOM     66  N   UNL A   1      42.930  32.222  35.102  1.00  0.00    -0.354 N 
ATOM     67  N   UNL A   1      43.683  30.643  32.735  1.00  0.00    -0.248 NA
ATOM     68  C   UNL A   1      45.217  29.292  31.602  1.00  0.00     0.031 C 
ATOM     69  C   UNL A   1      44.340  32.285  36.816  1.00  0.00     0.029 A 
ATOM     70  C   UNL A   1      44.157  31.760  35.547  1.00  0.00     0.049 A 
ATOM     71  H   UNL A   1      42.535  32.018  34.223  1.00  0.00     0.167 HD
ATOM     72  C   UNL A   1      44.787  30.424  33.551  1.00  0.00     0.074 A 
ATOM     73  C   UNL A   1      45.685  29.559  32.813  1.00  0.00     0.031 C 
ATOM     74  C   UNL A   1      45.037  30.895  34.799  1.00  0.00     0.037 A 
BRANCH  61  75
ATOM     75  C   UNL A   1      40.585  34.548  37.065  1.00  0.00     0.058 A 
ATOM     76  C   UNL A   1      40.907  35.914  37.126  1.00  0.00     0.135 A 
ATOM     77  C   UNL A   1      39.771  34.022  38.082  1.00  0.00     0.135 A 
ATOM     78  F   UNL A   1      41.694  36.466  36.189  1.00  0.00    -0.206 F 
ATOM     79  C   UNL A   1      40.465  36.721  38.170  1.00  0.00     0.059 A 
ATOM     80  C   UNL A   1      39.294  34.818  39.121  1.00  0.00     0.059 A 
ATOM     81  F   UNL A   1      39.433  32.724  38.075  1.00  0.00    -0.206 F 
ATOM     82  C   UNL A   1      39.660  36.163  39.164  1.00  0.00     0.060 A 
BRANCH  82  83
ATOM     83  S   UNL A   1      39.096  37.223  40.512  1.00  0.00     0.124 S 
ATOM     84  O   UNL A   1      38.270  38.189  39.795  1.00  0.00    -0.237 OA
ATOM     85  O   UNL A   1      38.376  36.284  41.366  1.00  0.00    -0.237 OA
ATOM     86  O   UNL A   1      40.337  37.750  41.072  1.00  0.00    -0.744 OA
ENDBRANCH  82  83
ENDBRANCH  61  75
BRANCH  62  87
ATOM     87  C   UNL A   1      43.501  29.040  29.235  1.00  0.00     0.058 A 
ATOM     88  C   UNL A   1      44.210  29.635  28.181  1.00  0.00     0.135 A 
ATOM     89  C   UNL A   1      43.240  27.664  29.153  1.00  0.00     0.135 A 
ATOM     90  F   UNL A   1      44.481  30.949  28.213  1.00  0.00    -0.206 F 
ATOM     91  C   UNL A   1      44.629  28.899  27.078  1.00  0.00     0.059 A 
ATOM     92  C   UNL A   1      43.672  26.901  28.071  1.00  0.00     0.059 A 
ATOM     93  F   UNL A   1      42.582  27.042  30.143  1.00  0.00    -0.206 F 
ATOM     94  C   UNL A   1      44.356  27.531  27.033  1.00  0.00     0.060 A 
BRANCH  94  95
ATOM     95  S   UNL A   1      44.944  26.576  25.617  1.00  0.00     0.124 S 
ATOM     96  O   UNL A   1      45.439  27.630  24.739  1.00  0.00    -0.237 OA
ATOM     97  O   UNL A   1      45.958  25.719  26.224  1.00  0.00    -0.237 OA
ATOM     98  O   UNL A   1      43.742  25.884  25.160  1.00  0.00    -0.744 OA
ENDBRANCH  94  95
ENDBRANCH  62  87
BRANCH  74  99
ATOM     99  C   UNL A   1      46.316  30.458  35.458  1.00  0.00     0.058 A 
ATOM    100  C   UNL A   1      47.499  31.205  35.341  1.00  0.00     0.135 A 
ATOM    101  C   UNL A   1      46.348  29.295  36.244  1.00  0.00     0.135 A 
ATOM    102  F   UNL A   1      47.523  32.321  34.597  1.00  0.00    -0.206 F 
ATOM    103  C   UNL A   1      48.678  30.795  35.955  1.00  0.00     0.059 A 
ATOM    104  C   UNL A   1      47.509  28.883  36.890  1.00  0.00     0.059 A 
ATOM    105  F   UNL A   1      45.241  28.552  36.399  1.00  0.00    -0.206 F 
ATOM    106  C   UNL A   1      48.673  29.632  36.727  1.00  0.00     0.060 A 
BRANCH 106 107
ATOM    107  S   UNL A   1      50.206  29.120  37.531  1.00  0.00     0.124 S 
ATOM    108  O   UNL A   1      50.023  27.675  37.618  1.00  0.00    -0.237 OA
ATOM    109  O   UNL A   1      51.222  29.575  36.586  1.00  0.00    -0.237 OA
ATOM    110  O   UNL A   1      50.178  29.835  38.803  1.00  0.00    -0.744 OA
ENDBRANCH 106 107
ENDBRANCH  74  99
ENDBRANCH  48  49
ENDBRANCH  40  43
ENDBRANCH  38  39
ENDBRANCH  37  38
ENDBRANCH  36  37
ENDBRANCH   1  36
TORSDOF 22
ENDMDL
MODEL 3
REMARK VINA RESULT:     -10.4      4.582      5.956
REMARK SMILES CC(C)Oc1ccc(-c2ccc(/C(=C\c3ccc(S(C)(=O)=O)cc3)C(=O)NCCCCCCNC(=O)c3ccc(-c4c5nc(c(-c6c(F)cc(S(=O)(=O)[O-])cc6F)c6ccc([nH]6)c(-c6c(F)cc(S(=O)(=O)[O-])cc6F)c6nc(c(-c7c(F)cc(S(=O)(=O)[O-])cc7F)c7ccc4[nH]7)C=C6)C=C5)cc3)cc2)cc1
REMARK SMILES IDX 30 1 29 2 28 3 27 4 25 5 26 6 13 8 14 9 12 10 9 11 10 12
REMARK SMILES IDX 104 13 11 14 103 15 8 16 5 17 6 18 106 19 7 20 105 21 4 22
REMARK SMILES IDX 2 23 1 24 3 25 15 26 16 27 24 28 17 29 23 30 18 31 19 32
REMARK SMILES IDX 20 33 21 34 22 35 31 36 32 37 33 38 34 39 35 40 36 42 37 43
REMARK SMILES IDX 38 44 102 45 39 46 101 47 40 48 41 49 42 50 95 51 43 52
REMARK SMILES IDX 100 53 94 54 96 55 44 56 99 57 93 58 92 59 45 61 79 62 58 63
REMARK SMILES IDX 78 64 59 65 62 66 77 67 97 68 60 69 61 70 76 72 98 73 63 74
REMARK SMILES IDX 46 75 47 76 56 77 48 78 49 79 55 80 57 81 50 82 51 83 52 84
REMARK SMILES IDX 53 85 54 86 80 87 81 88 90 89 82 90 83 91 89 92 91 93 84 94
REMARK SMILES IDX 85 95 86 96 87 97 88 98 64 99 65 100 74 101 66 102 67 103
REMARK SMILES IDX 73 104 75 105 68 106 69 107 70 108 71 109 72 110
REMARK H PARENT 27 7 34 41 96 60 62 71
REMARK Flexibility Score: inf
ROOT
ATOM      1  C   UNL A   1      33.078  28.211  26.827  1.00  0.00     0.002 C 
ENDROOT
BRANCH   1   2
ATOM      2  C   UNL A   1      32.538  27.457  25.603  1.00  0.00     0.021 C 
BRANCH   2   3
ATOM      3  C   UNL A   1      32.100  26.022  25.917  1.00  0.00     0.116 C 
BRANCH   3   4
ATOM      4  N   UNL A   1      31.217  25.544  24.871  1.00  0.00    -0.352 N 
ATOM      5  C   UNL A   1      31.168  24.440  24.082  1.00  0.00     0.251 C 
ATOM      6  O   UNL A   1      30.262  24.462  23.244  1.00  0.00    -0.269 OA
ATOM      7  H   UNL A   1      30.478  26.168  24.691  1.00  0.00     0.163 HD
BRANCH   5   8
ATOM      8  C   UNL A   1      32.073  23.224  24.247  1.00  0.00     0.047 C 
ATOM      9  C   UNL A   1      31.524  21.984  24.226  1.00  0.00     0.022 C 
BRANCH   8  10
ATOM     10  C   UNL A   1      33.519  23.433  24.624  1.00  0.00    -0.013 A 
ATOM     11  C   UNL A   1      36.286  23.270  25.406  1.00  0.00    -0.018 A 
ATOM     12  C   UNL A   1      35.904  23.414  24.065  1.00  0.00     0.009 A 
ATOM     13  C   UNL A   1      35.259  23.354  26.354  1.00  0.00     0.009 A 
ATOM     14  C   UNL A   1      34.556  23.548  23.690  1.00  0.00     0.009 A 
ATOM     15  C   UNL A   1      33.911  23.394  25.970  1.00  0.00     0.009 A 
BRANCH  11  16
ATOM     16  C   UNL A   1      37.681  22.965  25.805  1.00  0.00    -0.018 A 
ATOM     17  C   UNL A   1      40.292  22.375  26.738  1.00  0.00     0.119 A 
ATOM     18  C   UNL A   1      39.554  21.412  26.056  1.00  0.00     0.047 A 
ATOM     19  C   UNL A   1      39.767  23.647  26.906  1.00  0.00     0.047 A 
ATOM     20  C   UNL A   1      38.263  21.704  25.596  1.00  0.00     0.012 A 
ATOM     21  C   UNL A   1      38.469  23.929  26.466  1.00  0.00     0.012 A 
BRANCH  17  22
ATOM     22  O   UNL A   1      41.556  22.045  27.128  1.00  0.00    -0.491 OA
BRANCH  22  23
ATOM     23  C   UNL A   1      42.195  20.956  26.436  1.00  0.00     0.167 C 
ATOM     24  C   UNL A   1      43.496  21.371  25.755  1.00  0.00     0.052 C 
ATOM     25  C   UNL A   1      42.349  19.676  27.258  1.00  0.00     0.052 C 
ENDBRANCH  22  23
ENDBRANCH  17  22
ENDBRANCH  11  16
ENDBRANCH   8  10
BRANCH   9  26
ATOM     26  C   UNL A   1      32.211  20.687  24.126  1.00  0.00    -0.025 A 
ATOM     27  C   UNL A   1      32.773  20.157  25.304  1.00  0.00     0.009 A 
ATOM     28  C   UNL A   1      32.228  19.928  22.952  1.00  0.00     0.009 A 
ATOM     29  C   UNL A   1      33.269  18.853  25.329  1.00  0.00     0.021 A 
ATOM     30  C   UNL A   1      32.728  18.622  22.972  1.00  0.00     0.021 A 
ATOM     31  C   UNL A   1      33.229  18.085  24.164  1.00  0.00     0.067 A 
BRANCH  31  32
ATOM     32  S   UNL A   1      33.681  16.367  24.252  1.00  0.00     0.175 S 
ATOM     33  C   UNL A   1      35.076  16.336  25.343  1.00  0.00     0.163 C 
ATOM     34  O   UNL A   1      32.581  15.673  24.895  1.00  0.00    -0.224 OA
ATOM     35  O   UNL A   1      34.136  15.964  22.934  1.00  0.00    -0.224 OA
ENDBRANCH  31  32
ENDBRANCH   9  26
ENDBRANCH   5   8
ENDBRANCH   3   4
ENDBRANCH   2   3
ENDBRANCH   1   2
BRANCH   1  36
ATOM     36  C   UNL A   1      33.598  29.623  26.534  1.00  0.00     0.002 C 
BRANCH  36  37
ATOM     37  C   UNL A   1      33.816  30.495  27.773  1.00  0.00     0.021 C 
BRANCH  37  38
ATOM     38  C   UNL A   1      34.538  31.808  27.492  1.00  0.00     0.116 C 
BRANCH  38  39
ATOM     39  N   UNL A   1      33.905  32.919  28.181  1.00  0.00    -0.352 N 
ATOM     40  C   UNL A   1      34.372  33.668  29.230  1.00  0.00     0.251 C 
ATOM     41  H   UNL A   1      33.014  33.170  27.847  1.00  0.00     0.163 HD
ATOM     42  O   UNL A   1      33.598  34.391  29.853  1.00  0.00    -0.269 OA
BRANCH  40  43
ATOM     43  C   UNL A   1      35.800  33.606  29.609  1.00  0.00     0.039 A 
ATOM     44  C   UNL A   1      36.718  33.084  28.695  1.00  0.00     0.014 A 
ATOM     45  C   UNL A   1      36.228  34.013  30.877  1.00  0.00     0.014 A 
ATOM     46  C   UNL A   1      38.067  32.992  29.045  1.00  0.00     0.010 A 
ATOM     47  C   UNL A   1      37.583  33.992  31.196  1.00  0.00     0.010 A 
ATOM     48  C   UNL A   1      38.513  33.458  30.293  1.00  0.00    -0.014 A 
BRANCH  48  49
ATOM     49  C   UNL A   1      39.942  33.345  30.680  1.00  0.00     0.031 A 
ATOM     50  C   UNL A   1      40.946  34.337  30.152  1.00  0.00     0.074 A 
ATOM     51  C   UNL A   1      40.341  32.337  31.480  1.00  0.00     0.049 A 
ATOM     52  N   UNL A   1      42.236  34.397  30.360  1.00  0.00    -0.248 NA
ATOM     53  C   UNL A   1      40.438  35.383  29.248  1.00  0.00     0.031 C 
ATOM     54  C   UNL A   1      39.471  31.287  32.013  1.00  0.00     0.029 A 
ATOM     55  N   UNL A   1      41.579  32.030  31.983  1.00  0.00    -0.354 N 
ATOM     56  C   UNL A   1      42.692  35.475  29.610  1.00  0.00     0.074 A 
ATOM     57  C   UNL A   1      41.552  36.002  28.892  1.00  0.00     0.031 C 
ATOM     58  C   UNL A   1      40.196  30.468  32.792  1.00  0.00     0.029 A 
ATOM     59  C   UNL A   1      41.585  30.916  32.789  1.00  0.00     0.049 A 
ATOM     60  H   UNL A   1      42.387  32.556  31.787  1.00  0.00     0.167 HD
ATOM     61  C   UNL A   1      43.940  35.997  29.546  1.00  0.00     0.037 A 
ATOM     62  C   UNL A   1      42.597  30.325  33.453  1.00  0.00     0.037 A 
ATOM     63  C   UNL A   1      45.064  35.484  30.286  1.00  0.00     0.049 A 
ATOM     64  C   UNL A   1      43.973  30.930  33.380  1.00  0.00     0.074 A 
ATOM     65  C   UNL A   1      46.358  35.972  30.337  1.00  0.00     0.029 A 
ATOM     66  N   UNL A   1      45.026  34.368  31.109  1.00  0.00    -0.354 N 
ATOM     67  N   UNL A   1      44.373  31.989  32.714  1.00  0.00    -0.248 NA
ATOM     68  C   UNL A   1      45.032  30.270  34.154  1.00  0.00     0.031 C 
ATOM     69  C   UNL A   1      47.113  35.127  31.155  1.00  0.00     0.029 A 
ATOM     70  C   UNL A   1      46.278  34.140  31.656  1.00  0.00     0.049 A 
ATOM     71  H   UNL A   1      44.228  33.817  31.278  1.00  0.00     0.167 HD
ATOM     72  C   UNL A   1      45.723  32.137  33.013  1.00  0.00     0.074 A 
ATOM     73  C   UNL A   1      46.066  31.069  33.930  1.00  0.00     0.031 C 
ATOM     74  C   UNL A   1      46.601  33.072  32.571  1.00  0.00     0.037 A 
BRANCH  61  75
ATOM     75  C   UNL A   1      44.154  37.187  28.649  1.00  0.00     0.058 A 
ATOM     76  C   UNL A   1      44.550  37.040  27.309  1.00  0.00     0.135 A 
ATOM     77  C   UNL A   1      43.935  38.490  29.127  1.00  0.00     0.135 A 
ATOM     78  F   UNL A   1      44.788  35.819  26.805  1.00  0.00    -0.206 F 
ATOM     79  C   UNL A   1      44.751  38.142  26.484  1.00  0.00     0.059 A 
ATOM     80  C   UNL A   1      44.101  39.605  28.310  1.00  0.00     0.059 A 
ATOM     81  F   UNL A   1      43.556  38.690  30.398  1.00  0.00    -0.206 F 
ATOM     82  C   UNL A   1      44.525  39.421  26.994  1.00  0.00     0.060 A 
BRANCH  82  83
ATOM     83  S   UNL A   1      44.791  40.840  25.911  1.00  0.00     0.124 S 
ATOM     84  O   UNL A   1      43.490  40.957  25.261  1.00  0.00    -0.237 OA
ATOM     85  O   UNL A   1      45.124  41.898  26.859  1.00  0.00    -0.237 OA
ATOM     86  O   UNL A   1      45.887  40.409  25.048  1.00  0.00    -0.744 OA
ENDBRANCH  82  83
ENDBRANCH  61  75
BRANCH  62  87
ATOM     87  C   UNL A   1      42.339  29.110  34.272  1.00  0.00     0.058 A 
ATOM     88  C   UNL A   1      42.511  27.825  33.734  1.00  0.00     0.135 A 
ATOM     89  C   UNL A   1      41.927  29.209  35.609  1.00  0.00     0.135 A 
ATOM     90  F   UNL A   1      42.900  27.680  32.459  1.00  0.00    -0.206 F 
ATOM     91  C   UNL A   1      42.265  26.681  34.486  1.00  0.00     0.059 A 
ATOM     92  C   UNL A   1      41.700  28.079  36.390  1.00  0.00     0.059 A 
ATOM     93  F   UNL A   1      41.766  30.413  36.177  1.00  0.00    -0.206 F 
ATOM     94  C   UNL A   1      41.861  26.819  35.815  1.00  0.00     0.060 A 
BRANCH  94  95
ATOM     95  S   UNL A   1      41.588  25.328  36.797  1.00  0.00     0.124 S 
ATOM     96  O   UNL A   1      42.873  25.182  37.470  1.00  0.00    -0.237 OA
ATOM     97  O   UNL A   1      40.463  25.717  37.641  1.00  0.00    -0.237 OA
ATOM     98  O   UNL A   1      41.284  24.316  35.788  1.00  0.00    -0.744 OA
ENDBRANCH  94  95
ENDBRANCH  62  87
BRANCH  74  99
ATOM     99  C   UNL A   1      48.008  33.002  33.098  1.00  0.00     0.058 A 
ATOM    100  C   UNL A   1      49.009  32.278  32.433  1.00  0.00     0.135 A 
ATOM    101  C   UNL A   1      48.364  33.698  34.264  1.00  0.00     0.135 A 
ATOM    102  F   UNL A   1      48.720  31.592  31.317  1.00  0.00    -0.206 F 
ATOM    103  C   UNL A   1      50.309  32.219  32.925  1.00  0.00     0.059 A 
ATOM    104  C   UNL A   1      49.664  33.676  34.758  1.00  0.00     0.059 A 
ATOM    105  F   UNL A   1      47.447  34.416  34.931  1.00  0.00    -0.206 F 
ATOM    106  C   UNL A   1      50.626  32.920  34.090  1.00  0.00     0.060 A 
BRANCH 106 107
ATOM    107  S   UNL A   1      52.320  32.848  34.710  1.00  0.00     0.124 S 
ATOM    108  O   UNL A   1      52.178  31.947  35.848  1.00  0.00    -0.237 OA
ATOM    109  O   UNL A   1      53.050  32.313  33.564  1.00  0.00    -0.237 OA
ATOM    110  O   UNL A   1      52.619  34.238  35.042  1.00  0.00    -0.744 OA
ENDBRANCH 106 107
ENDBRANCH  74  99
ENDBRANCH  48  49
ENDBRANCH  40  43
ENDBRANCH  38  39
ENDBRANCH  37  38
ENDBRANCH  36  37
ENDBRANCH   1  36
TORSDOF 22
ENDMDL
