MODEL 1
REMARK VINA RESULT:     -11.9      0.000      0.000
REMARK SMILES CC(=O)Oc1ccc2oc(N)c([C@@H]3[NH2+][C@@H](C(=O)NCCCCCCNC(=O)c4ccc(-c5c6nc(c(-c7c(F)cc(S(=O)(=O)[O-])cc7F)c7ccc([nH]7)c(-c7c(F)cc(S(=O)(=O)[O-])cc7F)c7nc(c(-c8c(F)cc(S(=O)(=O)[O-])cc8F)c8ccc5[nH]8)C=C7)C=C6)cc4)C(C)(C)S3)c(=O)c2c1
REMARK SMILES IDX 21 1 20 2 19 3 18 4 16 5 17 6 15 8 13 9 14 10 97 11 94 14
REMARK SMILES IDX 95 15 96 16 12 17 5 18 6 19 101 20 7 21 100 22 8 23 98 24
REMARK SMILES IDX 9 25 99 26 10 27 4 28 2 29 1 30 3 31 11 32 22 35 23 36 24 37
REMARK SMILES IDX 25 38 26 39 27 41 28 42 29 43 93 44 30 45 92 46 31 47 32 48
REMARK SMILES IDX 33 49 86 50 34 51 91 52 85 53 87 54 35 55 90 56 84 57 83 58
REMARK SMILES IDX 36 60 70 61 49 62 69 63 50 64 53 65 68 66 88 67 51 68 52 69
REMARK SMILES IDX 67 71 89 72 54 73 37 74 38 75 47 76 39 77 40 78 46 79 48 80
REMARK SMILES IDX 41 81 42 82 43 83 44 84 45 85 71 86 72 87 81 88 73 89 74 90
REMARK SMILES IDX 80 91 82 92 75 93 76 94 77 95 78 96 79 97 55 98 56 99 65 100
REMARK SMILES IDX 57 101 58 102 64 103 66 104 59 105 60 106 61 107 62 108
REMARK SMILES IDX 63 109
REMARK H PARENT 18 7 14 12 14 13 11 33 11 34 25 40 87 59 53 70
REMARK Flexibility Score: inf
ROOT
ATOM      1  C   UNL A   1      33.903  28.613  26.207  1.00  0.00     0.002 C 
ENDROOT
BRANCH   1   2
ATOM      2  C   UNL A   1      33.454  29.247  24.888  1.00  0.00     0.021 C 
BRANCH   2   3
ATOM      3  C   UNL A   1      33.667  28.371  23.652  1.00  0.00     0.116 C 
BRANCH   3   4
ATOM      4  N   UNL A   1      32.437  28.260  22.900  1.00  0.00    -0.351 N 
ATOM      5  C   UNL A   1      31.541  27.256  22.731  1.00  0.00     0.279 C 
ATOM      6  O   UNL A   1      30.724  27.422  21.812  1.00  0.00    -0.268 OA
ATOM      7  H   UNL A   1      32.203  29.080  22.408  1.00  0.00     0.163 HD
BRANCH   5   8
ATOM      8  C   UNL A   1      31.490  25.957  23.558  1.00  0.00     0.289 C 
ATOM      9  C   UNL A   1      31.370  23.577  23.668  1.00  0.00     0.284 C 
ATOM     10  N   UNL A   1      31.431  24.722  22.738  1.00  0.00    -0.320 N 
ATOM     11  S   UNL A   1      30.555  24.138  25.211  1.00  0.00    -0.081 SA
ATOM     12  H   UNL A   1      30.601  24.735  22.147  1.00  0.00     0.348 HD
ATOM     13  H   UNL A   1      32.251  24.651  22.134  1.00  0.00     0.348 HD
ATOM     14  C   UNL A   1      30.482  25.905  24.722  1.00  0.00     0.077 C 
ATOM     15  C   UNL A   1      29.018  26.200  24.413  1.00  0.00     0.030 C 
ATOM     16  C   UNL A   1      30.924  26.789  25.894  1.00  0.00     0.030 C 
BRANCH   9  17
ATOM     17  C   UNL A   1      32.708  22.908  23.917  1.00  0.00     0.128 A 
ATOM     18  C   UNL A   1      35.031  18.631  24.657  1.00  0.00     0.131 A 
ATOM     19  C   UNL A   1      36.167  19.348  25.042  1.00  0.00     0.051 A 
ATOM     20  C   UNL A   1      33.903  19.281  24.154  1.00  0.00     0.063 A 
ATOM     21  C   UNL A   1      36.148  20.737  24.987  1.00  0.00     0.052 A 
ATOM     22  C   UNL A   1      33.896  20.678  24.108  1.00  0.00     0.069 A 
ATOM     23  C   UNL A   1      35.003  21.394  24.537  1.00  0.00     0.140 A 
ATOM     24  C   UNL A   1      32.727  21.438  23.638  1.00  0.00     0.205 A 
ATOM     25  O   UNL A   1      35.032  22.755  24.550  1.00  0.00    -0.440 OA
ATOM     26  O   UNL A   1      31.794  20.854  23.097  1.00  0.00    -0.288 OA
ATOM     27  C   UNL A   1      33.847  23.450  24.409  1.00  0.00     0.205 A 
BRANCH  18  28
ATOM     28  O   UNL A   1      35.019  17.229  24.692  1.00  0.00    -0.427 OA
BRANCH  28  29
ATOM     29  C   UNL A   1      34.117  16.597  23.838  1.00  0.00     0.308 C 
ATOM     30  C   UNL A   1      33.147  15.800  24.656  1.00  0.00     0.139 C 
ATOM     31  O   UNL A   1      34.081  16.674  22.616  1.00  0.00    -0.252 OA
ENDBRANCH  28  29
ENDBRANCH  18  28
BRANCH  27  32
ATOM     32  N   UNL A   1      33.984  24.733  24.848  1.00  0.00    -0.369 N 
ATOM     33  H   UNL A   1      33.899  25.482  24.215  1.00  0.00     0.159 HD
ATOM     34  H   UNL A   1      34.171  24.911  25.799  1.00  0.00     0.159 HD
ENDBRANCH  27  32
ENDBRANCH   9  17
ENDBRANCH   5   8
ENDBRANCH   3   4
ENDBRANCH   2   3
ENDBRANCH   1   2
BRANCH   1  35
ATOM     35  C   UNL A   1      35.068  29.315  26.906  1.00  0.00     0.002 C 
BRANCH  35  36
ATOM     36  C   UNL A   1      34.773  29.817  28.319  1.00  0.00     0.021 C 
BRANCH  36  37
ATOM     37  C   UNL A   1      35.434  31.140  28.689  1.00  0.00     0.116 C 
BRANCH  37  38
ATOM     38  N   UNL A   1      35.524  31.350  30.125  1.00  0.00    -0.352 N 
ATOM     39  C   UNL A   1      36.519  30.951  30.989  1.00  0.00     0.251 C 
ATOM     40  H   UNL A   1      34.774  31.842  30.532  1.00  0.00     0.163 HD
ATOM     41  O   UNL A   1      36.394  31.094  32.196  1.00  0.00    -0.269 OA
BRANCH  39  42
ATOM     42  C   UNL A   1      37.725  30.307  30.426  1.00  0.00     0.039 A 
ATOM     43  C   UNL A   1      38.538  29.512  31.237  1.00  0.00     0.014 A 
ATOM     44  C   UNL A   1      38.083  30.571  29.103  1.00  0.00     0.014 A 
ATOM     45  C   UNL A   1      39.790  29.123  30.776  1.00  0.00     0.010 A 
ATOM     46  C   UNL A   1      39.308  30.107  28.617  1.00  0.00     0.010 A 
ATOM     47  C   UNL A   1      40.196  29.428  29.465  1.00  0.00    -0.014 A 
BRANCH  47  48
ATOM     48  C   UNL A   1      41.560  29.045  29.017  1.00  0.00     0.031 A 
ATOM     49  C   UNL A   1      42.707  30.015  29.125  1.00  0.00     0.074 A 
ATOM     50  C   UNL A   1      41.775  27.797  28.562  1.00  0.00     0.049 A 
ATOM     51  N   UNL A   1      43.965  29.840  28.810  1.00  0.00    -0.248 NA
ATOM     52  C   UNL A   1      42.403  31.356  29.649  1.00  0.00     0.031 C 
ATOM     53  C   UNL A   1      40.744  26.767  28.419  1.00  0.00     0.029 A 
ATOM     54  N   UNL A   1      42.929  27.172  28.163  1.00  0.00    -0.354 N 
ATOM     55  C   UNL A   1      44.598  31.050  29.074  1.00  0.00     0.074 A 
ATOM     56  C   UNL A   1      43.578  31.961  29.547  1.00  0.00     0.031 C 
ATOM     57  C   UNL A   1      41.320  25.623  28.020  1.00  0.00     0.029 A 
ATOM     58  C   UNL A   1      42.746  25.855  27.817  1.00  0.00     0.049 A 
ATOM     59  H   UNL A   1      43.802  27.624  28.127  1.00  0.00     0.167 HD
ATOM     60  C   UNL A   1      45.908  31.369  28.946  1.00  0.00     0.037 A 
ATOM     61  C   UNL A   1      43.624  24.934  27.376  1.00  0.00     0.037 A 
ATOM     62  C   UNL A   1      46.923  30.449  28.497  1.00  0.00     0.049 A 
ATOM     63  C   UNL A   1      45.065  25.317  27.205  1.00  0.00     0.074 A 
ATOM     64  C   UNL A   1      48.285  30.662  28.375  1.00  0.00     0.029 A 
ATOM     65  N   UNL A   1      46.686  29.144  28.091  1.00  0.00    -0.354 N 
ATOM     66  N   UNL A   1      45.647  26.461  27.476  1.00  0.00    -0.248 NA
ATOM     67  C   UNL A   1      45.964  24.296  26.655  1.00  0.00     0.031 C 
ATOM     68  C   UNL A   1      48.864  29.501  27.853  1.00  0.00     0.029 A 
ATOM     69  C   UNL A   1      47.871  28.549  27.687  1.00  0.00     0.049 A 
ATOM     70  H   UNL A   1      45.805  28.705  28.088  1.00  0.00     0.167 HD
ATOM     71  C   UNL A   1      46.981  26.301  27.124  1.00  0.00     0.074 A 
ATOM     72  C   UNL A   1      47.124  24.939  26.645  1.00  0.00     0.031 C 
ATOM     73  C   UNL A   1      47.993  27.201  27.187  1.00  0.00     0.037 A 
BRANCH  60  74
ATOM     74  C   UNL A   1      46.316  32.779  29.277  1.00  0.00     0.058 A 
ATOM     75  C   UNL A   1      46.716  33.150  30.570  1.00  0.00     0.135 A 
ATOM     76  C   UNL A   1      46.316  33.771  28.284  1.00  0.00     0.135 A 
ATOM     77  F   UNL A   1      46.723  32.245  31.562  1.00  0.00    -0.206 F 
ATOM     78  C   UNL A   1      47.062  34.463  30.877  1.00  0.00     0.059 A 
ATOM     79  C   UNL A   1      46.681  35.086  28.562  1.00  0.00     0.059 A 
ATOM     80  F   UNL A   1      45.946  33.472  27.028  1.00  0.00    -0.206 F 
ATOM     81  C   UNL A   1      47.033  35.426  29.866  1.00  0.00     0.060 A 
BRANCH  81  82
ATOM     82  S   UNL A   1      47.451  37.131  30.289  1.00  0.00     0.124 S 
ATOM     83  O   UNL A   1      48.439  37.450  29.263  1.00  0.00    -0.237 OA
ATOM     84  O   UNL A   1      46.166  37.809  30.163  1.00  0.00    -0.237 OA
ATOM     85  O   UNL A   1      47.972  37.027  31.649  1.00  0.00    -0.744 OA
ENDBRANCH  81  82
ENDBRANCH  60  74
BRANCH  61  86
ATOM     86  C   UNL A   1      43.140  23.562  27.076  1.00  0.00     0.058 A 
ATOM     87  C   UNL A   1      42.895  23.160  25.757  1.00  0.00     0.135 A 
ATOM     88  C   UNL A   1      43.009  22.603  28.093  1.00  0.00     0.135 A 
ATOM     89  F   UNL A   1      43.000  24.045  24.754  1.00  0.00    -0.206 F 
ATOM     90  C   UNL A   1      42.559  21.845  25.451  1.00  0.00     0.059 A 
ATOM     91  C   UNL A   1      42.696  21.278  27.809  1.00  0.00     0.059 A 
ATOM     92  F   UNL A   1      43.248  22.940  29.370  1.00  0.00    -0.206 F 
ATOM     93  C   UNL A   1      42.478  20.908  26.483  1.00  0.00     0.060 A 
BRANCH  93  94
ATOM     94  S   UNL A   1      42.160  19.182  26.058  1.00  0.00     0.124 S 
ATOM     95  O   UNL A   1      42.604  18.493  27.263  1.00  0.00    -0.237 OA
ATOM     96  O   UNL A   1      40.718  19.188  25.820  1.00  0.00    -0.237 OA
ATOM     97  O   UNL A   1      42.982  18.971  24.869  1.00  0.00    -0.744 OA
ENDBRANCH  93  94
ENDBRANCH  61  86
BRANCH  73  98
ATOM     98  C   UNL A   1      49.344  26.757  26.703  1.00  0.00     0.058 A 
ATOM     99  C   UNL A   1      50.229  26.072  27.550  1.00  0.00     0.135 A 
ATOM    100  C   UNL A   1      49.730  26.953  25.368  1.00  0.00     0.135 A 
ATOM    101  F   UNL A   1      49.911  25.869  28.839  1.00  0.00    -0.206 F 
ATOM    102  C   UNL A   1      51.456  25.604  27.092  1.00  0.00     0.059 A 
ATOM    103  C   UNL A   1      50.943  26.472  24.882  1.00  0.00     0.059 A 
ATOM    104  F   UNL A   1      48.916  27.594  24.516  1.00  0.00    -0.206 F 
ATOM    105  C   UNL A   1      51.802  25.803  25.754  1.00  0.00     0.060 A 
BRANCH 105 106
ATOM    106  S   UNL A   1      53.375  25.144  25.162  1.00  0.00     0.124 S 
ATOM    107  O   UNL A   1      53.169  23.708  25.315  1.00  0.00    -0.237 OA
ATOM    108  O   UNL A   1      53.420  25.635  23.788  1.00  0.00    -0.237 OA
ATOM    109  O   UNL A   1      54.355  25.738  26.066  1.00  0.00    -0.744 OA
ENDBRANCH 105 106
ENDBRANCH  73  98
ENDBRANCH  47  48
ENDBRANCH  39  42
ENDBRANCH  37  38
ENDBRANCH  36  37
ENDBRANCH  35  36
ENDBRANCH   1  35
TORSDOF 20
ENDMDL
MODEL 2
REMARK VINA RESULT:     -11.9      5.981     11.775
REMARK SMILES CC(=O)Oc1ccc2oc(N)c([C@@H]3[NH2+][C@@H](C(=O)NCCCCCCNC(=O)c4ccc(-c5c6nc(c(-c7c(F)cc(S(=O)(=O)[O-])cc7F)c7ccc([nH]7)c(-c7c(F)cc(S(=O)(=O)[O-])cc7F)c7nc(c(-c8c(F)cc(S(=O)(=O)[O-])cc8F)c8ccc5[nH]8)C=C7)C=C6)cc4)C(C)(C)S3)c(=O)c2c1
REMARK SMILES IDX 21 1 20 2 19 3 18 4 16 5 17 6 15 8 13 9 14 10 97 11 94 14
REMARK SMILES IDX 95 15 96 16 12 17 5 18 6 19 101 20 7 21 100 22 8 23 98 24
REMARK SMILES IDX 9 25 99 26 10 27 4 28 2 29 1 30 3 31 11 32 22 35 23 36 24 37
REMARK SMILES IDX 25 38 26 39 27 41 28 42 29 43 93 44 30 45 92 46 31 47 32 48
REMARK SMILES IDX 33 49 86 50 34 51 91 52 85 53 87 54 35 55 90 56 84 57 83 58
REMARK SMILES IDX 36 60 70 61 49 62 69 63 50 64 53 65 68 66 88 67 51 68 52 69
REMARK SMILES IDX 67 71 89 72 54 73 37 74 38 75 47 76 39 77 40 78 46 79 48 80
REMARK SMILES IDX 41 81 42 82 43 83 44 84 45 85 71 86 72 87 81 88 73 89 74 90
REMARK SMILES IDX 80 91 82 92 75 93 76 94 77 95 78 96 79 97 55 98 56 99 65 100
REMARK SMILES IDX 57 101 58 102 64 103 66 104 59 105 60 106 61 107 62 108
REMARK SMILES IDX 63 109
REMARK H PARENT 18 7 14 12 14 13 11 33 11 34 25 40 87 59 53 70
REMARK Flexibility Score: inf
ROOT
ATOM      1  C   UNL A   1      39.890  22.550  26.763  1.00  0.00     0.002 C 
ENDROOT
BRANCH   1   2
ATOM      2  C   UNL A   1      39.232  23.930  26.844  1.00  0.00     0.021 C 
BRANCH   2   3
ATOM      3  C   UNL A   1      37.753  23.957  26.457  1.00  0.00     0.116 C 
BRANCH   3   4
ATOM      4  N   UNL A   1      37.577  23.444  25.117  1.00  0.00    -0.351 N 
ATOM      5  C   UNL A   1      36.482  23.137  24.378  1.00  0.00     0.279 C 
ATOM      6  O   UNL A   1      36.702  22.480  23.349  1.00  0.00    -0.268 OA
ATOM      7  H   UNL A   1      38.425  23.283  24.644  1.00  0.00     0.163 HD
BRANCH   5   8
ATOM      8  C   UNL A   1      35.031  23.513  24.734  1.00  0.00     0.289 C 
ATOM      9  C   UNL A   1      33.460  25.047  25.668  1.00  0.00     0.284 C 
ATOM     10  N   UNL A   1      34.892  24.844  25.376  1.00  0.00    -0.320 N 
ATOM     11  S   UNL A   1      32.693  23.403  25.936  1.00  0.00    -0.081 SA
ATOM     12  H   UNL A   1      35.433  24.871  26.241  1.00  0.00     0.348 HD
ATOM     13  H   UNL A   1      35.242  25.579  24.760  1.00  0.00     0.348 HD
ATOM     14  C   UNL A   1      34.189  22.449  25.465  1.00  0.00     0.077 C 
ATOM     15  C   UNL A   1      34.743  21.864  26.759  1.00  0.00     0.030 C 
ATOM     16  C   UNL A   1      33.799  21.296  24.532  1.00  0.00     0.030 C 
BRANCH   9  17
ATOM     17  C   UNL A   1      32.728  25.879  24.634  1.00  0.00     0.128 A 
ATOM     18  C   UNL A   1      30.170  30.005  23.814  1.00  0.00     0.131 A 
ATOM     19  C   UNL A   1      29.802  29.494  22.567  1.00  0.00     0.051 A 
ATOM     20  C   UNL A   1      31.086  29.335  24.627  1.00  0.00     0.063 A 
ATOM     21  C   UNL A   1      30.303  28.263  22.159  1.00  0.00     0.052 A 
ATOM     22  C   UNL A   1      31.579  28.096  24.206  1.00  0.00     0.069 A 
ATOM     23  C   UNL A   1      31.176  27.564  22.991  1.00  0.00     0.140 A 
ATOM     24  C   UNL A   1      32.508  27.306  25.029  1.00  0.00     0.205 A 
ATOM     25  O   UNL A   1      31.595  26.344  22.554  1.00  0.00    -0.440 OA
ATOM     26  O   UNL A   1      33.019  27.803  26.025  1.00  0.00    -0.288 OA
ATOM     27  C   UNL A   1      32.203  25.486  23.449  1.00  0.00     0.205 A 
BRANCH  18  28
ATOM     28  O   UNL A   1      29.689  31.247  24.254  1.00  0.00    -0.427 OA
BRANCH  28  29
ATOM     29  C   UNL A   1      28.727  31.856  23.451  1.00  0.00     0.308 C 
ATOM     30  C   UNL A   1      27.399  31.211  23.706  1.00  0.00     0.139 C 
ATOM     31  O   UNL A   1      28.899  32.784  22.670  1.00  0.00    -0.252 OA
ENDBRANCH  28  29
ENDBRANCH  18  28
BRANCH  27  32
ATOM     32  N   UNL A   1      32.182  24.206  22.981  1.00  0.00    -0.369 N 
ATOM     33  H   UNL A   1      32.093  24.036  22.016  1.00  0.00     0.159 HD
ATOM     34  H   UNL A   1      32.255  23.451  23.610  1.00  0.00     0.159 HD
ENDBRANCH  27  32
ENDBRANCH   9  17
ENDBRANCH   5   8
ENDBRANCH   3   4
ENDBRANCH   2   3
ENDBRANCH   1   2
BRANCH   1  35
ATOM     35  C   UNL A   1      41.002  22.296  27.782  1.00  0.00     0.002 C 
BRANCH  35  36
ATOM     36  C   UNL A   1      42.396  22.091  27.187  1.00  0.00     0.021 C 
BRANCH  36  37
ATOM     37  C   UNL A   1      43.272  23.337  27.143  1.00  0.00     0.116 C 
BRANCH  37  38
ATOM     38  N   UNL A   1      42.968  24.208  26.020  1.00  0.00    -0.352 N 
ATOM     39  C   UNL A   1      42.516  25.508  26.041  1.00  0.00     0.251 C 
ATOM     40  H   UNL A   1      43.105  23.816  25.127  1.00  0.00     0.163 HD
ATOM     41  O   UNL A   1      42.186  26.073  25.008  1.00  0.00    -0.269 OA
BRANCH  39  42
ATOM     42  C   UNL A   1      42.397  26.193  27.346  1.00  0.00     0.039 A 
ATOM     43  C   UNL A   1      41.305  25.935  28.177  1.00  0.00     0.014 A 
ATOM     44  C   UNL A   1      43.344  27.158  27.695  1.00  0.00     0.014 A 
ATOM     45  C   UNL A   1      41.070  26.760  29.271  1.00  0.00     0.010 A 
ATOM     46  C   UNL A   1      43.146  27.930  28.843  1.00  0.00     0.010 A 
ATOM     47  C   UNL A   1      41.980  27.776  29.608  1.00  0.00    -0.014 A 
BRANCH  47  48
ATOM     48  C   UNL A   1      41.677  28.675  30.753  1.00  0.00     0.031 A 
ATOM     49  C   UNL A   1      40.496  29.608  30.706  1.00  0.00     0.074 A 
ATOM     50  C   UNL A   1      42.438  28.607  31.861  1.00  0.00     0.049 A 
ATOM     51  N   UNL A   1      40.067  30.439  31.622  1.00  0.00    -0.248 NA
ATOM     52  C   UNL A   1      39.696  29.616  29.471  1.00  0.00     0.031 C 
ATOM     53  C   UNL A   1      43.603  27.736  32.026  1.00  0.00     0.029 A 
ATOM     54  N   UNL A   1      42.334  29.257  33.064  1.00  0.00    -0.354 N 
ATOM     55  C   UNL A   1      38.965  31.083  31.069  1.00  0.00     0.074 A 
ATOM     56  C   UNL A   1      38.810  30.568  29.726  1.00  0.00     0.031 C 
ATOM     57  C   UNL A   1      44.071  27.863  33.276  1.00  0.00     0.029 A 
ATOM     58  C   UNL A   1      43.282  28.869  33.979  1.00  0.00     0.049 A 
ATOM     59  H   UNL A   1      41.648  29.937  33.252  1.00  0.00     0.167 HD
ATOM     60  C   UNL A   1      38.151  32.008  31.633  1.00  0.00     0.037 A 
ATOM     61  C   UNL A   1      43.502  29.281  35.243  1.00  0.00     0.037 A 
ATOM     62  C   UNL A   1      38.297  32.499  32.980  1.00  0.00     0.049 A 
ATOM     63  C   UNL A   1      42.612  30.333  35.836  1.00  0.00     0.074 A 
ATOM     64  C   UNL A   1      37.498  33.402  33.659  1.00  0.00     0.029 A 
ATOM     65  N   UNL A   1      39.312  32.130  33.853  1.00  0.00    -0.354 N 
ATOM     66  N   UNL A   1      41.565  30.918  35.304  1.00  0.00    -0.248 NA
ATOM     67  C   UNL A   1      42.940  30.794  37.190  1.00  0.00     0.031 C 
ATOM     68  C   UNL A   1      38.056  33.615  34.924  1.00  0.00     0.029 A 
ATOM     69  C   UNL A   1      39.179  32.813  35.051  1.00  0.00     0.049 A 
ATOM     70  H   UNL A   1      40.023  31.481  33.649  1.00  0.00     0.167 HD
ATOM     71  C   UNL A   1      41.111  31.822  36.255  1.00  0.00     0.074 A 
ATOM     72  C   UNL A   1      41.982  31.687  37.407  1.00  0.00     0.031 C 
ATOM     73  C   UNL A   1      40.071  32.688  36.179  1.00  0.00     0.037 A 
BRANCH  60  74
ATOM     74  C   UNL A   1      37.041  32.566  30.784  1.00  0.00     0.058 A 
ATOM     75  C   UNL A   1      37.159  33.803  30.131  1.00  0.00     0.135 A 
ATOM     76  C   UNL A   1      35.847  31.848  30.613  1.00  0.00     0.135 A 
ATOM     77  F   UNL A   1      38.273  34.539  30.270  1.00  0.00    -0.206 F 
ATOM     78  C   UNL A   1      36.116  34.328  29.372  1.00  0.00     0.059 A 
ATOM     79  C   UNL A   1      34.800  32.341  29.839  1.00  0.00     0.059 A 
ATOM     80  F   UNL A   1      35.682  30.657  31.212  1.00  0.00    -0.206 F 
ATOM     81  C   UNL A   1      34.937  33.591  29.239  1.00  0.00     0.060 A 
BRANCH  81  82
ATOM     82  S   UNL A   1      33.582  34.302  28.280  1.00  0.00     0.124 S 
ATOM     83  O   UNL A   1      34.310  35.035  27.249  1.00  0.00    -0.237 OA
ATOM     84  O   UNL A   1      32.864  33.116  27.826  1.00  0.00    -0.237 OA
ATOM     85  O   UNL A   1      32.872  35.127  29.252  1.00  0.00    -0.744 OA
ENDBRANCH  81  82
ENDBRANCH  60  74
BRANCH  61  86
ATOM     86  C   UNL A   1      44.617  28.675  36.014  1.00  0.00     0.058 A 
ATOM     87  C   UNL A   1      44.408  27.541  36.808  1.00  0.00     0.135 A 
ATOM     88  C   UNL A   1      45.929  29.162  35.892  1.00  0.00     0.135 A 
ATOM     89  F   UNL A   1      43.170  27.046  36.960  1.00  0.00    -0.206 F 
ATOM     90  C   UNL A   1      45.465  26.892  37.438  1.00  0.00     0.059 A 
ATOM     91  C   UNL A   1      47.004  28.517  36.493  1.00  0.00     0.059 A 
ATOM     92  F   UNL A   1      46.179  30.238  35.130  1.00  0.00    -0.206 F 
ATOM     93  C   UNL A   1      46.762  27.379  37.260  1.00  0.00     0.060 A 
BRANCH  93  94
ATOM     94  S   UNL A   1      48.136  26.457  37.985  1.00  0.00     0.124 S 
ATOM     95  O   UNL A   1      49.079  27.525  38.292  1.00  0.00    -0.237 OA
ATOM     96  O   UNL A   1      47.500  25.816  39.133  1.00  0.00    -0.237 OA
ATOM     97  O   UNL A   1      48.535  25.550  36.912  1.00  0.00    -0.744 OA
ENDBRANCH  93  94
ENDBRANCH  61  86
BRANCH  73  98
ATOM     98  C   UNL A   1      39.827  33.581  37.363  1.00  0.00     0.058 A 
ATOM     99  C   UNL A   1      40.544  34.774  37.532  1.00  0.00     0.135 A 
ATOM    100  C   UNL A   1      38.823  33.279  38.296  1.00  0.00     0.135 A 
ATOM    101  F   UNL A   1      41.523  35.103  36.672  1.00  0.00    -0.206 F 
ATOM    102  C   UNL A   1      40.281  35.636  38.591  1.00  0.00     0.059 A 
ATOM    103  C   UNL A   1      38.526  34.137  39.351  1.00  0.00     0.059 A 
ATOM    104  F   UNL A   1      38.103  32.153  38.175  1.00  0.00    -0.206 F 
ATOM    105  C   UNL A   1      39.265  35.312  39.493  1.00  0.00     0.060 A 
BRANCH 105 106
ATOM    106  S   UNL A   1      38.901  36.465  40.833  1.00  0.00     0.124 S 
ATOM    107  O   UNL A   1      40.221  36.657  41.424  1.00  0.00    -0.237 OA
ATOM    108  O   UNL A   1      38.356  37.614  40.116  1.00  0.00    -0.237 OA
ATOM    109  O   UNL A   1      37.943  35.737  41.659  1.00  0.00    -0.744 OA
ENDBRANCH 105 106
ENDBRANCH  73  98
ENDBRANCH  47  48
ENDBRANCH  39  42
ENDBRANCH  37  38
ENDBRANCH  36  37
ENDBRANCH  35  36
ENDBRANCH   1  35
TORSDOF 20
ENDMDL
MODEL 3
REMARK VINA RESULT:     -11.6      5.816     11.538
REMARK SMILES CC(=O)Oc1ccc2oc(N)c([C@@H]3[NH2+][C@@H](C(=O)NCCCCCCNC(=O)c4ccc(-c5c6nc(c(-c7c(F)cc(S(=O)(=O)[O-])cc7F)c7ccc([nH]7)c(-c7c(F)cc(S(=O)(=O)[O-])cc7F)c7nc(c(-c8c(F)cc(S(=O)(=O)[O-])cc8F)c8ccc5[nH]8)C=C7)C=C6)cc4)C(C)(C)S3)c(=O)c2c1
REMARK SMILES IDX 21 1 20 2 19 3 18 4 16 5 17 6 15 8 13 9 14 10 97 11 94 14
REMARK SMILES IDX 95 15 96 16 12 17 5 18 6 19 101 20 7 21 100 22 8 23 98 24
REMARK SMILES IDX 9 25 99 26 10 27 4 28 2 29 1 30 3 31 11 32 22 35 23 36 24 37
REMARK SMILES IDX 25 38 26 39 27 41 28 42 29 43 93 44 30 45 92 46 31 47 32 48
REMARK SMILES IDX 33 49 86 50 34 51 91 52 85 53 87 54 35 55 90 56 84 57 83 58
REMARK SMILES IDX 36 60 70 61 49 62 69 63 50 64 53 65 68 66 88 67 51 68 52 69
REMARK SMILES IDX 67 71 89 72 54 73 37 74 38 75 47 76 39 77 40 78 46 79 48 80
REMARK SMILES IDX 41 81 42 82 43 83 44 84 45 85 71 86 72 87 81 88 73 89 74 90
REMARK SMILES IDX 80 91 82 92 75 93 76 94 77 95 78 96 79 97 55 98 56 99 65 100
REMARK SMILES IDX 57 101 58 102 64 103 66 104 59 105 60 106 61 107 62 108
REMARK SMILES IDX 63 109
REMARK H PARENT 18 7 14 12 14 13 11 33 11 34 25 40 87 59 53 70
REMARK Flexibility Score: inf
ROOT
ATOM      1  C   UNL A   1      38.979  22.989  26.355  1.00  0.00     0.002 C 
ENDROOT
BRANCH   1   2
ATOM      2  C   UNL A   1      37.794  23.838  25.886  1.00  0.00     0.021 C 
BRANCH   2   3
ATOM      3  C   UNL A   1      36.581  23.036  25.412  1.00  0.00     0.116 C 
BRANCH   3   4
ATOM      4  N   UNL A   1      35.741  22.688  26.536  1.00  0.00    -0.351 N 
ATOM      5  C   UNL A   1      34.411  22.809  26.772  1.00  0.00     0.279 C 
ATOM      6  O   UNL A   1      34.062  22.635  27.949  1.00  0.00    -0.268 OA
ATOM      7  H   UNL A   1      36.235  22.280  27.283  1.00  0.00     0.163 HD
BRANCH   5   8
ATOM      8  C   UNL A   1      33.346  23.164  25.716  1.00  0.00     0.289 C 
ATOM      9  C   UNL A   1      31.267  24.180  25.133  1.00  0.00     0.284 C 
ATOM     10  N   UNL A   1      32.197  23.935  26.253  1.00  0.00    -0.320 N 
ATOM     11  S   UNL A   1      31.446  22.806  23.932  1.00  0.00    -0.081 SA
ATOM     12  H   UNL A   1      31.730  23.400  26.985  1.00  0.00     0.348 HD
ATOM     13  H   UNL A   1      32.514  24.818  26.657  1.00  0.00     0.348 HD
ATOM     14  C   UNL A   1      32.873  22.029  24.787  1.00  0.00     0.077 C 
ATOM     15  C   UNL A   1      32.339  20.754  25.431  1.00  0.00     0.030 C 
ATOM     16  C   UNL A   1      33.950  21.649  23.764  1.00  0.00     0.030 C 
BRANCH   9  17
ATOM     17  C   UNL A   1      31.412  25.546  24.493  1.00  0.00     0.128 A 
ATOM     18  C   UNL A   1      29.047  29.300  22.359  1.00  0.00     0.131 A 
ATOM     19  C   UNL A   1      30.282  29.807  21.950  1.00  0.00     0.051 A 
ATOM     20  C   UNL A   1      28.966  28.188  23.199  1.00  0.00     0.063 A 
ATOM     21  C   UNL A   1      31.449  29.153  22.330  1.00  0.00     0.052 A 
ATOM     22  C   UNL A   1      30.146  27.537  23.571  1.00  0.00     0.069 A 
ATOM     23  C   UNL A   1      31.371  28.010  23.124  1.00  0.00     0.140 A 
ATOM     24  C   UNL A   1      30.140  26.331  24.413  1.00  0.00     0.205 A 
ATOM     25  O   UNL A   1      32.546  27.390  23.424  1.00  0.00    -0.440 OA
ATOM     26  O   UNL A   1      29.106  25.974  24.964  1.00  0.00    -0.288 OA
ATOM     27  C   UNL A   1      32.512  26.109  23.939  1.00  0.00     0.205 A 
BRANCH  18  28
ATOM     28  O   UNL A   1      27.851  29.940  22.000  1.00  0.00    -0.427 OA
BRANCH  28  29
ATOM     29  C   UNL A   1      27.784  31.309  22.250  1.00  0.00     0.308 C 
ATOM     30  C   UNL A   1      27.606  31.529  23.721  1.00  0.00     0.139 C 
ATOM     31  O   UNL A   1      27.873  32.213  21.429  1.00  0.00    -0.252 OA
ENDBRANCH  28  29
ENDBRANCH  18  28
BRANCH  27  32
ATOM     32  N   UNL A   1      33.723  25.499  23.795  1.00  0.00    -0.369 N 
ATOM     33  H   UNL A   1      33.944  25.037  22.955  1.00  0.00     0.159 HD
ATOM     34  H   UNL A   1      34.376  25.521  24.532  1.00  0.00     0.159 HD
ENDBRANCH  27  32
ENDBRANCH   9  17
ENDBRANCH   5   8
ENDBRANCH   3   4
ENDBRANCH   2   3
ENDBRANCH   1   2
BRANCH   1  35
ATOM     35  C   UNL A   1      40.117  23.767  27.017  1.00  0.00     0.002 C 
BRANCH  35  36
ATOM     36  C   UNL A   1      39.953  25.287  27.019  1.00  0.00     0.021 C 
BRANCH  36  37
ATOM     37  C   UNL A   1      40.836  26.036  26.028  1.00  0.00     0.116 C 
BRANCH  37  38
ATOM     38  N   UNL A   1      42.141  25.421  25.850  1.00  0.00    -0.352 N 
ATOM     39  C   UNL A   1      43.295  25.636  26.569  1.00  0.00     0.251 C 
ATOM     40  H   UNL A   1      42.208  24.765  25.118  1.00  0.00     0.163 HD
ATOM     41  O   UNL A   1      44.352  25.132  26.221  1.00  0.00    -0.269 OA
BRANCH  39  42
ATOM     42  C   UNL A   1      43.235  26.522  27.751  1.00  0.00     0.039 A 
ATOM     43  C   UNL A   1      42.819  26.019  28.985  1.00  0.00     0.014 A 
ATOM     44  C   UNL A   1      43.518  27.881  27.596  1.00  0.00     0.014 A 
ATOM     45  C   UNL A   1      42.524  26.901  30.018  1.00  0.00     0.010 A 
ATOM     46  C   UNL A   1      43.298  28.754  28.664  1.00  0.00     0.010 A 
ATOM     47  C   UNL A   1      42.747  28.280  29.865  1.00  0.00    -0.014 A 
BRANCH  47  48
ATOM     48  C   UNL A   1      42.374  29.205  30.968  1.00  0.00     0.031 A 
ATOM     49  C   UNL A   1      43.280  29.393  32.155  1.00  0.00     0.074 A 
ATOM     50  C   UNL A   1      41.238  29.921  30.868  1.00  0.00     0.049 A 
ATOM     51  N   UNL A   1      43.128  30.178  33.191  1.00  0.00    -0.248 NA
ATOM     52  C   UNL A   1      44.514  28.592  32.189  1.00  0.00     0.031 C 
ATOM     53  C   UNL A   1      40.284  29.830  29.761  1.00  0.00     0.029 A 
ATOM     54  N   UNL A   1      40.706  30.881  31.690  1.00  0.00    -0.354 N 
ATOM     55  C   UNL A   1      44.230  29.952  34.009  1.00  0.00     0.074 A 
ATOM     56  C   UNL A   1      45.028  28.932  33.362  1.00  0.00     0.031 C 
ATOM     57  C   UNL A   1      39.315  30.739  29.943  1.00  0.00     0.029 A 
ATOM     58  C   UNL A   1      39.542  31.430  31.208  1.00  0.00     0.049 A 
ATOM     59  H   UNL A   1      41.118  31.150  32.542  1.00  0.00     0.167 HD
ATOM     60  C   UNL A   1      44.552  30.546  35.183  1.00  0.00     0.037 A 
ATOM     61  C   UNL A   1      38.738  32.377  31.728  1.00  0.00     0.037 A 
ATOM     62  C   UNL A   1      43.765  31.578  35.809  1.00  0.00     0.049 A 
ATOM     63  C   UNL A   1      39.094  32.997  33.047  1.00  0.00     0.074 A 
ATOM     64  C   UNL A   1      44.029  32.275  36.975  1.00  0.00     0.029 A 
ATOM     65  N   UNL A   1      42.557  32.058  35.323  1.00  0.00    -0.354 N 
ATOM     66  N   UNL A   1      40.149  32.783  33.797  1.00  0.00    -0.248 NA
ATOM     67  C   UNL A   1      38.147  33.973  33.600  1.00  0.00     0.031 C 
ATOM     68  C   UNL A   1      42.959  33.142  37.219  1.00  0.00     0.029 A 
ATOM     69  C   UNL A   1      42.046  33.017  36.183  1.00  0.00     0.049 A 
ATOM     70  H   UNL A   1      42.124  31.759  34.491  1.00  0.00     0.167 HD
ATOM     71  C   UNL A   1      39.991  33.592  34.915  1.00  0.00     0.074 A 
ATOM     72  C   UNL A   1      38.750  34.320  34.730  1.00  0.00     0.031 C 
ATOM     73  C   UNL A   1      40.796  33.715  35.998  1.00  0.00     0.037 A 
BRANCH  60  74
ATOM     74  C   UNL A   1      45.803  30.079  35.877  1.00  0.00     0.058 A 
ATOM     75  C   UNL A   1      45.782  29.035  36.816  1.00  0.00     0.135 A 
ATOM     76  C   UNL A   1      47.041  30.677  35.592  1.00  0.00     0.135 A 
ATOM     77  F   UNL A   1      44.624  28.436  37.136  1.00  0.00    -0.206 F 
ATOM     78  C   UNL A   1      46.937  28.628  37.477  1.00  0.00     0.059 A 
ATOM     79  C   UNL A   1      48.213  30.270  36.224  1.00  0.00     0.059 A 
ATOM     80  F   UNL A   1      47.119  31.677  34.700  1.00  0.00    -0.206 F 
ATOM     81  C   UNL A   1      48.147  29.258  37.180  1.00  0.00     0.060 A 
BRANCH  81  82
ATOM     82  S   UNL A   1      49.630  28.742  38.072  1.00  0.00     0.124 S 
ATOM     83  O   UNL A   1      49.812  29.854  39.000  1.00  0.00    -0.237 OA
ATOM     84  O   UNL A   1      49.211  27.480  38.672  1.00  0.00    -0.237 OA
ATOM     85  O   UNL A   1      50.638  28.630  37.023  1.00  0.00    -0.744 OA
ENDBRANCH  81  82
ENDBRANCH  60  74
BRANCH  61  86
ATOM     86  C   UNL A   1      37.525  32.784  30.975  1.00  0.00     0.058 A 
ATOM     87  C   UNL A   1      37.611  33.689  29.909  1.00  0.00     0.135 A 
ATOM     88  C   UNL A   1      36.276  32.202  31.246  1.00  0.00     0.135 A 
ATOM     89  F   UNL A   1      38.782  34.276  29.620  1.00  0.00    -0.206 F 
ATOM     90  C   UNL A   1      36.505  33.985  29.119  1.00  0.00     0.059 A 
ATOM     91  C   UNL A   1      35.162  32.465  30.456  1.00  0.00     0.059 A 
ATOM     92  F   UNL A   1      36.149  31.319  32.249  1.00  0.00    -0.206 F 
ATOM     93  C   UNL A   1      35.288  33.355  29.391  1.00  0.00     0.060 A 
BRANCH  93  94
ATOM     94  S   UNL A   1      33.894  33.658  28.284  1.00  0.00     0.124 S 
ATOM     95  O   UNL A   1      32.914  34.238  29.195  1.00  0.00    -0.237 OA
ATOM     96  O   UNL A   1      34.476  34.573  27.305  1.00  0.00    -0.237 OA
ATOM     97  O   UNL A   1      33.574  32.328  27.774  1.00  0.00    -0.744 OA
ENDBRANCH  93  94
ENDBRANCH  61  86
BRANCH  73  98
ATOM     98  C   UNL A   1      40.355  34.654  37.084  1.00  0.00     0.058 A 
ATOM     99  C   UNL A   1      39.511  34.222  38.119  1.00  0.00     0.135 A 
ATOM    100  C   UNL A   1      40.832  35.973  37.133  1.00  0.00     0.135 A 
ATOM    101  F   UNL A   1      39.019  32.972  38.113  1.00  0.00    -0.206 F 
ATOM    102  C   UNL A   1      39.149  35.067  39.161  1.00  0.00     0.059 A 
ATOM    103  C   UNL A   1      40.501  36.830  38.178  1.00  0.00     0.059 A 
ATOM    104  F   UNL A   1      41.648  36.433  36.172  1.00  0.00    -0.206 F 
ATOM    105  C   UNL A   1      39.653  36.369  39.186  1.00  0.00     0.060 A 
BRANCH 105 106
ATOM    106  S   UNL A   1      39.214  37.439  40.572  1.00  0.00     0.124 S 
ATOM    107  O   UNL A   1      38.195  38.293  39.973  1.00  0.00    -0.237 OA
ATOM    108  O   UNL A   1      38.735  36.482  41.564  1.00  0.00    -0.237 OA
ATOM    109  O   UNL A   1      40.473  38.101  40.904  1.00  0.00    -0.744 OA
ENDBRANCH 105 106
ENDBRANCH  73  98
ENDBRANCH  47  48
ENDBRANCH  39  42
ENDBRANCH  37  38
ENDBRANCH  36  37
ENDBRANCH  35  36
ENDBRANCH   1  35
TORSDOF 20
ENDMDL
