MODEL 1
REMARK VINA RESULT:     -12.5      0.000      0.000
REMARK SMILES CS(=O)(=O)c1ccc(/C=C(/C(=O)NCCCCCCNC(=O)c2ccc(-c3c4nc(c(-c5c(F)cc(S(=O)(=O)[O-])cc5F)c5ccc([nH]5)c(-c5c(F)cc(S(=O)(=O)[O-])cc5F)c5nc(c(-c6c(F)cc(S(=O)(=O)[O-])cc6F)c6ccc3[nH]6)C=C5)C=C4)cc2)c2ccc(-c3ccc(F)cc3F)cc2)cc1
REMARK SMILES IDX 17 1 16 2 15 3 14 4 13 5 11 6 12 7 10 9 9 10 8 11 5 12 6 13
REMARK SMILES IDX 104 14 7 15 103 16 2 17 1 18 3 19 4 20 89 21 90 22 102 23
REMARK SMILES IDX 91 24 101 25 92 26 93 27 94 28 99 29 95 30 98 31 100 32
REMARK SMILES IDX 96 33 97 34 18 35 19 36 20 37 21 38 22 40 23 41 24 42 88 43
REMARK SMILES IDX 25 44 87 45 26 46 27 47 28 48 81 49 29 50 86 51 80 52 82 53
REMARK SMILES IDX 30 54 85 55 79 56 78 57 31 59 65 60 44 61 64 62 45 63 48 64
REMARK SMILES IDX 63 65 83 66 46 67 47 68 62 70 84 71 49 72 32 73 33 74 42 75
REMARK SMILES IDX 34 76 35 77 41 78 43 79 36 80 37 81 38 82 39 83 40 84 66 85
REMARK SMILES IDX 67 86 76 87 68 88 69 89 75 90 77 91 70 92 71 93 72 94 73 95
REMARK SMILES IDX 74 96 50 97 51 98 60 99 52 100 53 101 59 102 61 103 54 104
REMARK SMILES IDX 55 105 56 106 57 107 58 108
REMARK H PARENT 13 8 20 39 82 58 48 69
REMARK Flexibility Score: inf
ROOT
ATOM      1  C   UNL A   1      35.667  22.266  24.319  1.00  0.00     0.002 C 
ENDROOT
BRANCH   1   2
ATOM      2  C   UNL A   1      34.313  21.548  24.381  1.00  0.00     0.002 C 
BRANCH   2   3
ATOM      3  C   UNL A   1      33.190  22.229  23.583  1.00  0.00     0.021 C 
BRANCH   3   4
ATOM      4  C   UNL A   1      31.795  21.946  24.148  1.00  0.00     0.116 C 
BRANCH   4   5
ATOM      5  N   UNL A   1      31.778  22.297  25.552  1.00  0.00    -0.352 N 
ATOM      6  C   UNL A   1      31.696  23.469  26.227  1.00  0.00     0.251 C 
ATOM      7  O   UNL A   1      31.873  23.394  27.447  1.00  0.00    -0.269 OA
ATOM      8  H   UNL A   1      31.840  21.514  26.145  1.00  0.00     0.163 HD
BRANCH   6   9
ATOM      9  C   UNL A   1      31.301  24.781  25.587  1.00  0.00     0.047 C 
ATOM     10  C   UNL A   1      30.562  24.867  24.455  1.00  0.00     0.022 C 
BRANCH  10  11
ATOM     11  C   UNL A   1      29.967  26.067  23.815  1.00  0.00    -0.025 A 
ATOM     12  C   UNL A   1      28.762  28.450  22.922  1.00  0.00     0.067 A 
ATOM     13  C   UNL A   1      30.096  28.176  22.611  1.00  0.00     0.021 A 
ATOM     14  C   UNL A   1      27.998  27.509  23.610  1.00  0.00     0.021 A 
ATOM     15  C   UNL A   1      30.682  26.978  23.031  1.00  0.00     0.009 A 
ATOM     16  C   UNL A   1      28.605  26.326  24.055  1.00  0.00     0.009 A 
BRANCH  12  17
ATOM     17  S   UNL A   1      28.109  30.026  22.426  1.00  0.00     0.175 S 
ATOM     18  C   UNL A   1      29.307  31.257  22.847  1.00  0.00     0.163 C 
ATOM     19  O   UNL A   1      26.940  30.267  23.250  1.00  0.00    -0.224 OA
ATOM     20  O   UNL A   1      28.003  29.983  20.978  1.00  0.00    -0.224 OA
ENDBRANCH  12  17
ENDBRANCH  10  11
BRANCH   9  21
ATOM     21  C   UNL A   1      31.938  25.992  26.163  1.00  0.00    -0.013 A 
ATOM     22  C   UNL A   1      33.215  26.335  25.699  1.00  0.00     0.009 A 
ATOM     23  C   UNL A   1      31.295  26.849  27.060  1.00  0.00     0.009 A 
ATOM     24  C   UNL A   1      33.815  27.532  26.077  1.00  0.00     0.009 A 
ATOM     25  C   UNL A   1      31.889  28.070  27.410  1.00  0.00     0.009 A 
ATOM     26  C   UNL A   1      33.149  28.446  26.906  1.00  0.00    -0.015 A 
BRANCH  26  27
ATOM     27  C   UNL A   1      33.758  29.759  27.193  1.00  0.00     0.018 A 
ATOM     28  C   UNL A   1      35.135  29.854  27.494  1.00  0.00     0.015 A 
ATOM     29  C   UNL A   1      33.016  30.952  27.199  1.00  0.00     0.133 A 
ATOM     30  C   UNL A   1      35.726  31.077  27.812  1.00  0.00     0.040 A 
ATOM     31  C   UNL A   1      33.599  32.178  27.508  1.00  0.00     0.079 A 
ATOM     32  F   UNL A   1      31.703  30.936  26.923  1.00  0.00    -0.206 F 
ATOM     33  C   UNL A   1      34.949  32.228  27.819  1.00  0.00     0.126 A 
ATOM     34  F   UNL A   1      35.514  33.400  28.135  1.00  0.00    -0.207 F 
ENDBRANCH  26  27
ENDBRANCH   9  21
ENDBRANCH   6   9
ENDBRANCH   4   5
ENDBRANCH   3   4
ENDBRANCH   2   3
ENDBRANCH   1   2
BRANCH   1  35
ATOM     35  C   UNL A   1      35.628  23.728  24.769  1.00  0.00     0.021 C 
BRANCH  35  36
ATOM     36  C   UNL A   1      36.606  24.052  25.892  1.00  0.00     0.116 C 
BRANCH  36  37
ATOM     37  N   UNL A   1      37.536  22.957  26.121  1.00  0.00    -0.352 N 
ATOM     38  C   UNL A   1      38.862  23.013  26.466  1.00  0.00     0.251 C 
ATOM     39  H   UNL A   1      37.161  22.053  26.013  1.00  0.00     0.163 HD
ATOM     40  O   UNL A   1      39.564  22.011  26.371  1.00  0.00    -0.269 OA
BRANCH  38  41
ATOM     41  C   UNL A   1      39.436  24.288  26.940  1.00  0.00     0.039 A 
ATOM     42  C   UNL A   1      39.344  24.615  28.294  1.00  0.00     0.014 A 
ATOM     43  C   UNL A   1      40.058  25.163  26.044  1.00  0.00     0.014 A 
ATOM     44  C   UNL A   1      39.912  25.803  28.757  1.00  0.00     0.010 A 
ATOM     45  C   UNL A   1      40.694  26.305  26.520  1.00  0.00     0.010 A 
ATOM     46  C   UNL A   1      40.613  26.646  27.878  1.00  0.00    -0.014 A 
BRANCH  46  47
ATOM     47  C   UNL A   1      41.244  27.902  28.355  1.00  0.00     0.031 A 
ATOM     48  C   UNL A   1      42.734  28.082  28.245  1.00  0.00     0.074 A 
ATOM     49  C   UNL A   1      40.485  28.854  28.933  1.00  0.00     0.049 A 
ATOM     50  N   UNL A   1      43.479  29.076  28.656  1.00  0.00    -0.248 NA
ATOM     51  C   UNL A   1      43.491  26.988  27.613  1.00  0.00     0.031 C 
ATOM     52  C   UNL A   1      39.037  28.775  29.137  1.00  0.00     0.029 A 
ATOM     53  N   UNL A   1      40.827  30.073  29.463  1.00  0.00    -0.354 N 
ATOM     54  C   UNL A   1      44.787  28.722  28.346  1.00  0.00     0.074 A 
ATOM     55  C   UNL A   1      44.741  27.397  27.769  1.00  0.00     0.031 C 
ATOM     56  C   UNL A   1      38.612  29.905  29.723  1.00  0.00     0.029 A 
ATOM     57  C   UNL A   1      39.759  30.772  29.975  1.00  0.00     0.049 A 
ATOM     58  H   UNL A   1      41.750  30.414  29.477  1.00  0.00     0.167 HD
ATOM     59  C   UNL A   1      45.920  29.447  28.501  1.00  0.00     0.037 A 
ATOM     60  C   UNL A   1      39.711  31.973  30.583  1.00  0.00     0.037 A 
ATOM     61  C   UNL A   1      45.952  30.776  29.055  1.00  0.00     0.049 A 
ATOM     62  C   UNL A   1      40.985  32.757  30.754  1.00  0.00     0.074 A 
ATOM     63  C   UNL A   1      47.040  31.617  29.208  1.00  0.00     0.029 A 
ATOM     64  N   UNL A   1      44.848  31.457  29.547  1.00  0.00    -0.354 N 
ATOM     65  N   UNL A   1      42.206  32.433  30.400  1.00  0.00    -0.248 NA
ATOM     66  C   UNL A   1      40.875  34.072  31.400  1.00  0.00     0.031 C 
ATOM     67  C   UNL A   1      46.603  32.785  29.841  1.00  0.00     0.029 A 
ATOM     68  C   UNL A   1      45.232  32.698  30.027  1.00  0.00     0.049 A 
ATOM     69  H   UNL A   1      43.928  31.108  29.555  1.00  0.00     0.167 HD
ATOM     70  C   UNL A   1      43.003  33.517  30.750  1.00  0.00     0.074 A 
ATOM     71  C   UNL A   1      42.124  34.509  31.334  1.00  0.00     0.031 C 
ATOM     72  C   UNL A   1      44.342  33.677  30.599  1.00  0.00     0.037 A 
BRANCH  59  73
ATOM     73  C   UNL A   1      47.217  28.820  28.065  1.00  0.00     0.058 A 
ATOM     74  C   UNL A   1      47.673  28.909  26.739  1.00  0.00     0.135 A 
ATOM     75  C   UNL A   1      48.031  28.146  28.990  1.00  0.00     0.135 A 
ATOM     76  F   UNL A   1      46.928  29.527  25.808  1.00  0.00    -0.206 F 
ATOM     77  C   UNL A   1      48.870  28.324  26.339  1.00  0.00     0.059 A 
ATOM     78  C   UNL A   1      49.249  27.582  28.619  1.00  0.00     0.059 A 
ATOM     79  F   UNL A   1      47.646  28.028  30.271  1.00  0.00    -0.206 F 
ATOM     80  C   UNL A   1      49.652  27.663  27.287  1.00  0.00     0.060 A 
BRANCH  80  81
ATOM     81  S   UNL A   1      51.203  26.913  26.751  1.00  0.00     0.124 S 
ATOM     82  O   UNL A   1      52.181  27.724  27.470  1.00  0.00    -0.237 OA
ATOM     83  O   UNL A   1      51.059  25.536  27.211  1.00  0.00    -0.237 OA
ATOM     84  O   UNL A   1      51.184  27.093  25.301  1.00  0.00    -0.744 OA
ENDBRANCH  80  81
ENDBRANCH  59  73
BRANCH  60  85
ATOM     85  C   UNL A   1      38.408  32.517  31.054  1.00  0.00     0.058 A 
ATOM     86  C   UNL A   1      37.699  33.457  30.292  1.00  0.00     0.135 A 
ATOM     87  C   UNL A   1      37.842  32.100  32.269  1.00  0.00     0.135 A 
ATOM     88  F   UNL A   1      38.202  33.891  29.126  1.00  0.00    -0.206 F 
ATOM     89  C   UNL A   1      36.485  33.980  30.724  1.00  0.00     0.059 A 
ATOM     90  C   UNL A   1      36.615  32.586  32.709  1.00  0.00     0.059 A 
ATOM     91  F   UNL A   1      38.470  31.189  33.028  1.00  0.00    -0.206 F 
ATOM     92  C   UNL A   1      35.949  33.536  31.934  1.00  0.00     0.060 A 
BRANCH  92  93
ATOM     93  S   UNL A   1      34.351  34.187  32.464  1.00  0.00     0.124 S 
ATOM     94  O   UNL A   1      34.755  35.295  33.322  1.00  0.00    -0.237 OA
ATOM     95  O   UNL A   1      33.733  34.552  31.193  1.00  0.00    -0.237 OA
ATOM     96  O   UNL A   1      33.737  33.051  33.147  1.00  0.00    -0.744 OA
ENDBRANCH  92  93
ENDBRANCH  60  85
BRANCH  72  97
ATOM     97  C   UNL A   1      44.937  34.989  31.035  1.00  0.00     0.058 A 
ATOM     98  C   UNL A   1      44.995  36.099  30.179  1.00  0.00     0.135 A 
ATOM     99  C   UNL A   1      45.406  35.152  32.350  1.00  0.00     0.135 A 
ATOM    100  F   UNL A   1      44.567  35.996  28.910  1.00  0.00    -0.206 F 
ATOM    101  C   UNL A   1      45.519  37.316  30.601  1.00  0.00     0.059 A 
ATOM    102  C   UNL A   1      45.904  36.368  32.803  1.00  0.00     0.059 A 
ATOM    103  F   UNL A   1      45.363  34.125  33.216  1.00  0.00    -0.206 F 
ATOM    104  C   UNL A   1      45.968  37.442  31.917  1.00  0.00     0.060 A 
BRANCH 104 105
ATOM    105  S   UNL A   1      46.614  39.038  32.460  1.00  0.00     0.124 S 
ATOM    106  O   UNL A   1      45.483  39.919  32.191  1.00  0.00    -0.237 OA
ATOM    107  O   UNL A   1      46.906  38.791  33.869  1.00  0.00    -0.237 OA
ATOM    108  O   UNL A   1      47.784  39.239  31.611  1.00  0.00    -0.744 OA
ENDBRANCH 104 105
ENDBRANCH  72  97
ENDBRANCH  46  47
ENDBRANCH  38  41
ENDBRANCH  36  37
ENDBRANCH  35  36
ENDBRANCH   1  35
TORSDOF 20
ENDMDL
MODEL 2
REMARK VINA RESULT:     -11.5      5.746     12.297
REMARK SMILES CS(=O)(=O)c1ccc(/C=C(/C(=O)NCCCCCCNC(=O)c2ccc(-c3c4nc(c(-c5c(F)cc(S(=O)(=O)[O-])cc5F)c5ccc([nH]5)c(-c5c(F)cc(S(=O)(=O)[O-])cc5F)c5nc(c(-c6c(F)cc(S(=O)(=O)[O-])cc6F)c6ccc3[nH]6)C=C5)C=C4)cc2)c2ccc(-c3ccc(F)cc3F)cc2)cc1
REMARK SMILES IDX 17 1 16 2 15 3 14 4 13 5 11 6 12 7 10 9 9 10 8 11 5 12 6 13
REMARK SMILES IDX 104 14 7 15 103 16 2 17 1 18 3 19 4 20 89 21 90 22 102 23
REMARK SMILES IDX 91 24 101 25 92 26 93 27 94 28 99 29 95 30 98 31 100 32
REMARK SMILES IDX 96 33 97 34 18 35 19 36 20 37 21 38 22 40 23 41 24 42 88 43
REMARK SMILES IDX 25 44 87 45 26 46 27 47 28 48 81 49 29 50 86 51 80 52 82 53
REMARK SMILES IDX 30 54 85 55 79 56 78 57 31 59 65 60 44 61 64 62 45 63 48 64
REMARK SMILES IDX 63 65 83 66 46 67 47 68 62 70 84 71 49 72 32 73 33 74 42 75
REMARK SMILES IDX 34 76 35 77 41 78 43 79 36 80 37 81 38 82 39 83 40 84 66 85
REMARK SMILES IDX 67 86 76 87 68 88 69 89 75 90 77 91 70 92 71 93 72 94 73 95
REMARK SMILES IDX 74 96 50 97 51 98 60 99 52 100 53 101 59 102 61 103 54 104
REMARK SMILES IDX 55 105 56 106 57 107 58 108
REMARK H PARENT 13 8 20 39 82 58 48 69
REMARK Flexibility Score: inf
ROOT
ATOM      1  C   UNL A   1      44.822  25.247  27.058  1.00  0.00     0.002 C 
ENDROOT
BRANCH   1   2
ATOM      2  C   UNL A   1      46.249  24.700  26.933  1.00  0.00     0.002 C 
BRANCH   2   3
ATOM      3  C   UNL A   1      47.281  25.714  26.413  1.00  0.00     0.021 C 
BRANCH   3   4
ATOM      4  C   UNL A   1      46.852  27.168  26.624  1.00  0.00     0.116 C 
BRANCH   4   5
ATOM      5  N   UNL A   1      47.835  27.833  27.452  1.00  0.00    -0.352 N 
ATOM      6  C   UNL A   1      47.880  28.187  28.758  1.00  0.00     0.251 C 
ATOM      7  O   UNL A   1      48.836  28.897  29.085  1.00  0.00    -0.269 OA
ATOM      8  H   UNL A   1      48.648  28.082  26.956  1.00  0.00     0.163 HD
BRANCH   6   9
ATOM      9  C   UNL A   1      46.911  27.675  29.801  1.00  0.00     0.047 C 
ATOM     10  C   UNL A   1      46.944  26.413  30.294  1.00  0.00     0.022 C 
BRANCH  10  11
ATOM     11  C   UNL A   1      46.176  25.831  31.423  1.00  0.00    -0.025 A 
ATOM     12  C   UNL A   1      44.796  24.418  33.430  1.00  0.00     0.067 A 
ATOM     13  C   UNL A   1      45.841  25.282  33.769  1.00  0.00     0.021 A 
ATOM     14  C   UNL A   1      44.380  24.310  32.105  1.00  0.00     0.021 A 
ATOM     15  C   UNL A   1      46.503  26.005  32.771  1.00  0.00     0.009 A 
ATOM     16  C   UNL A   1      45.074  25.014  31.109  1.00  0.00     0.009 A 
BRANCH  12  17
ATOM     17  S   UNL A   1      44.056  23.472  34.739  1.00  0.00     0.175 S 
ATOM     18  C   UNL A   1      45.236  23.361  36.052  1.00  0.00     0.163 C 
ATOM     19  O   UNL A   1      43.863  22.131  34.222  1.00  0.00    -0.224 OA
ATOM     20  O   UNL A   1      42.929  24.254  35.217  1.00  0.00    -0.224 OA
ENDBRANCH  12  17
ENDBRANCH  10  11
BRANCH   9  21
ATOM     21  C   UNL A   1      45.779  28.579  30.124  1.00  0.00    -0.013 A 
ATOM     22  C   UNL A   1      45.859  29.318  31.312  1.00  0.00     0.009 A 
ATOM     23  C   UNL A   1      44.699  28.799  29.265  1.00  0.00     0.009 A 
ATOM     24  C   UNL A   1      44.912  30.294  31.611  1.00  0.00     0.009 A 
ATOM     25  C   UNL A   1      43.768  29.807  29.554  1.00  0.00     0.009 A 
ATOM     26  C   UNL A   1      43.871  30.590  30.720  1.00  0.00    -0.015 A 
BRANCH  26  27
ATOM     27  C   UNL A   1      42.954  31.710  31.006  1.00  0.00     0.018 A 
ATOM     28  C   UNL A   1      42.082  32.190  30.004  1.00  0.00     0.015 A 
ATOM     29  C   UNL A   1      42.913  32.353  32.255  1.00  0.00     0.133 A 
ATOM     30  C   UNL A   1      41.237  33.276  30.236  1.00  0.00     0.040 A 
ATOM     31  C   UNL A   1      42.067  33.432  32.498  1.00  0.00     0.079 A 
ATOM     32  F   UNL A   1      43.714  31.949  33.254  1.00  0.00    -0.206 F 
ATOM     33  C   UNL A   1      41.242  33.889  31.482  1.00  0.00     0.126 A 
ATOM     34  F   UNL A   1      40.438  34.937  31.702  1.00  0.00    -0.207 F 
ENDBRANCH  26  27
ENDBRANCH   9  21
ENDBRANCH   6   9
ENDBRANCH   4   5
ENDBRANCH   3   4
ENDBRANCH   2   3
ENDBRANCH   1   2
BRANCH   1  35
ATOM     35  C   UNL A   1      43.878  24.813  25.935  1.00  0.00     0.021 C 
BRANCH  35  36
ATOM     36  C   UNL A   1      42.804  25.841  25.602  1.00  0.00     0.116 C 
BRANCH  36  37
ATOM     37  N   UNL A   1      41.501  25.215  25.438  1.00  0.00    -0.352 N 
ATOM     38  C   UNL A   1      40.455  25.163  26.323  1.00  0.00     0.251 C 
ATOM     39  H   UNL A   1      41.351  24.768  24.574  1.00  0.00     0.163 HD
ATOM     40  O   UNL A   1      39.526  24.384  26.132  1.00  0.00    -0.269 OA
BRANCH  38  41
ATOM     41  C   UNL A   1      40.460  26.045  27.508  1.00  0.00     0.039 A 
ATOM     42  C   UNL A   1      41.234  27.206  27.490  1.00  0.00     0.014 A 
ATOM     43  C   UNL A   1      39.706  25.716  28.640  1.00  0.00     0.014 A 
ATOM     44  C   UNL A   1      41.220  28.061  28.594  1.00  0.00     0.010 A 
ATOM     45  C   UNL A   1      39.630  26.608  29.704  1.00  0.00     0.010 A 
ATOM     46  C   UNL A   1      40.400  27.781  29.700  1.00  0.00    -0.014 A 
BRANCH  46  47
ATOM     47  C   UNL A   1      40.354  28.689  30.874  1.00  0.00     0.031 A 
ATOM     48  C   UNL A   1      39.367  29.826  30.905  1.00  0.00     0.074 A 
ATOM     49  C   UNL A   1      41.233  28.524  31.882  1.00  0.00     0.049 A 
ATOM     50  N   UNL A   1      39.211  30.759  31.807  1.00  0.00    -0.248 NA
ATOM     51  C   UNL A   1      38.453  29.944  29.757  1.00  0.00     0.031 C 
ATOM     52  C   UNL A   1      42.265  27.487  31.944  1.00  0.00     0.029 A 
ATOM     53  N   UNL A   1      41.404  29.230  33.046  1.00  0.00    -0.354 N 
ATOM     54  C   UNL A   1      38.195  31.579  31.332  1.00  0.00     0.074 A 
ATOM     55  C   UNL A   1      37.813  31.070  30.033  1.00  0.00     0.031 C 
ATOM     56  C   UNL A   1      42.943  27.609  33.096  1.00  0.00     0.029 A 
ATOM     57  C   UNL A   1      42.424  28.755  33.836  1.00  0.00     0.049 A 
ATOM     58  H   UNL A   1      40.848  30.005  33.292  1.00  0.00     0.167 HD
ATOM     59  C   UNL A   1      37.612  32.643  31.934  1.00  0.00     0.037 A 
ATOM     60  C   UNL A   1      42.892  29.197  35.020  1.00  0.00     0.037 A 
ATOM     61  C   UNL A   1      37.983  33.128  33.238  1.00  0.00     0.049 A 
ATOM     62  C   UNL A   1      42.235  30.387  35.666  1.00  0.00     0.074 A 
ATOM     63  C   UNL A   1      37.421  34.166  33.961  1.00  0.00     0.029 A 
ATOM     64  N   UNL A   1      39.010  32.611  34.014  1.00  0.00    -0.354 N 
ATOM     65  N   UNL A   1      41.234  31.115  35.230  1.00  0.00    -0.248 NA
ATOM     66  C   UNL A   1      42.765  30.813  36.969  1.00  0.00     0.031 C 
ATOM     67  C   UNL A   1      38.142  34.309  35.151  1.00  0.00     0.029 A 
ATOM     68  C   UNL A   1      39.115  33.323  35.197  1.00  0.00     0.049 A 
ATOM     69  H   UNL A   1      39.581  31.850  33.760  1.00  0.00     0.167 HD
ATOM     70  C   UNL A   1      40.994  32.063  36.219  1.00  0.00     0.074 A 
ATOM     71  C   UNL A   1      41.947  31.809  37.279  1.00  0.00     0.031 C 
ATOM     72  C   UNL A   1      40.066  33.052  36.247  1.00  0.00     0.037 A 
BRANCH  59  73
ATOM     73  C   UNL A   1      36.512  33.352  31.191  1.00  0.00     0.058 A 
ATOM     74  C   UNL A   1      36.778  34.181  30.088  1.00  0.00     0.135 A 
ATOM     75  C   UNL A   1      35.169  33.179  31.566  1.00  0.00     0.135 A 
ATOM     76  F   UNL A   1      38.044  34.396  29.694  1.00  0.00    -0.206 F 
ATOM     77  C   UNL A   1      35.759  34.838  29.407  1.00  0.00     0.059 A 
ATOM     78  C   UNL A   1      34.131  33.800  30.878  1.00  0.00     0.059 A 
ATOM     79  F   UNL A   1      34.855  32.400  32.613  1.00  0.00    -0.206 F 
ATOM     80  C   UNL A   1      34.437  34.641  29.809  1.00  0.00     0.060 A 
BRANCH  80  81
ATOM     81  S   UNL A   1      33.128  35.498  28.911  1.00  0.00     0.124 S 
ATOM     82  O   UNL A   1      33.896  36.457  28.124  1.00  0.00    -0.237 OA
ATOM     83  O   UNL A   1      32.505  34.415  28.158  1.00  0.00    -0.237 OA
ATOM     84  O   UNL A   1      32.308  36.073  29.974  1.00  0.00    -0.744 OA
ENDBRANCH  80  81
ENDBRANCH  59  73
BRANCH  60  85
ATOM     85  C   UNL A   1      44.026  28.496  35.680  1.00  0.00     0.058 A 
ATOM     86  C   UNL A   1      45.352  28.888  35.446  1.00  0.00     0.135 A 
ATOM     87  C   UNL A   1      43.807  27.429  36.565  1.00  0.00     0.135 A 
ATOM     88  F   UNL A   1      45.614  29.899  34.603  1.00  0.00    -0.206 F 
ATOM     89  C   UNL A   1      46.423  28.237  36.049  1.00  0.00     0.059 A 
ATOM     90  C   UNL A   1      44.859  26.780  37.203  1.00  0.00     0.059 A 
ATOM     91  F   UNL A   1      42.557  27.026  36.838  1.00  0.00    -0.206 F 
ATOM     92  C   UNL A   1      46.166  27.185  36.930  1.00  0.00     0.060 A 
BRANCH  92  93
ATOM     93  S   UNL A   1      47.560  26.375  37.743  1.00  0.00     0.124 S 
ATOM     94  O   UNL A   1      46.932  25.851  38.950  1.00  0.00    -0.237 OA
ATOM     95  O   UNL A   1      47.959  25.385  36.747  1.00  0.00    -0.237 OA
ATOM     96  O   UNL A   1      48.508  27.466  37.946  1.00  0.00    -0.744 OA
ENDBRANCH  92  93
ENDBRANCH  60  85
BRANCH  72  97
ATOM     97  C   UNL A   1      40.006  33.912  37.480  1.00  0.00     0.058 A 
ATOM     98  C   UNL A   1      40.693  35.132  37.569  1.00  0.00     0.135 A 
ATOM     99  C   UNL A   1      39.203  33.533  38.569  1.00  0.00     0.135 A 
ATOM    100  F   UNL A   1      41.480  35.539  36.559  1.00  0.00    -0.206 F 
ATOM    101  C   UNL A   1      40.606  35.935  38.701  1.00  0.00     0.059 A 
ATOM    102  C   UNL A   1      39.076  34.335  39.698  1.00  0.00     0.059 A 
ATOM    103  F   UNL A   1      38.514  32.380  38.533  1.00  0.00    -0.206 F 
ATOM    104  C   UNL A   1      39.792  35.529  39.760  1.00  0.00     0.060 A 
BRANCH 104 105
ATOM    105  S   UNL A   1      39.663  36.597  41.209  1.00  0.00     0.124 S 
ATOM    106  O   UNL A   1      39.487  37.908  40.593  1.00  0.00    -0.237 OA
ATOM    107  O   UNL A   1      38.492  36.055  41.892  1.00  0.00    -0.237 OA
ATOM    108  O   UNL A   1      40.933  36.392  41.898  1.00  0.00    -0.744 OA
ENDBRANCH 104 105
ENDBRANCH  72  97
ENDBRANCH  46  47
ENDBRANCH  38  41
ENDBRANCH  36  37
ENDBRANCH  35  36
ENDBRANCH   1  35
TORSDOF 20
ENDMDL
MODEL 3
REMARK VINA RESULT:     -11.2      4.649      9.353
REMARK SMILES CS(=O)(=O)c1ccc(/C=C(/C(=O)NCCCCCCNC(=O)c2ccc(-c3c4nc(c(-c5c(F)cc(S(=O)(=O)[O-])cc5F)c5ccc([nH]5)c(-c5c(F)cc(S(=O)(=O)[O-])cc5F)c5nc(c(-c6c(F)cc(S(=O)(=O)[O-])cc6F)c6ccc3[nH]6)C=C5)C=C4)cc2)c2ccc(-c3ccc(F)cc3F)cc2)cc1
REMARK SMILES IDX 17 1 16 2 15 3 14 4 13 5 11 6 12 7 10 9 9 10 8 11 5 12 6 13
REMARK SMILES IDX 104 14 7 15 103 16 2 17 1 18 3 19 4 20 89 21 90 22 102 23
REMARK SMILES IDX 91 24 101 25 92 26 93 27 94 28 99 29 95 30 98 31 100 32
REMARK SMILES IDX 96 33 97 34 18 35 19 36 20 37 21 38 22 40 23 41 24 42 88 43
REMARK SMILES IDX 25 44 87 45 26 46 27 47 28 48 81 49 29 50 86 51 80 52 82 53
REMARK SMILES IDX 30 54 85 55 79 56 78 57 31 59 65 60 44 61 64 62 45 63 48 64
REMARK SMILES IDX 63 65 83 66 46 67 47 68 62 70 84 71 49 72 32 73 33 74 42 75
REMARK SMILES IDX 34 76 35 77 41 78 43 79 36 80 37 81 38 82 39 83 40 84 66 85
REMARK SMILES IDX 67 86 76 87 68 88 69 89 75 90 77 91 70 92 71 93 72 94 73 95
REMARK SMILES IDX 74 96 50 97 51 98 60 99 52 100 53 101 59 102 61 103 54 104
REMARK SMILES IDX 55 105 56 106 57 107 58 108
REMARK H PARENT 13 8 20 39 82 58 48 69
REMARK Flexibility Score: inf
ROOT
ATOM      1  C   UNL A   1      43.283  21.996  25.637  1.00  0.00     0.002 C 
ENDROOT
BRANCH   1   2
ATOM      2  C   UNL A   1      43.072  23.511  25.527  1.00  0.00     0.002 C 
BRANCH   2   3
ATOM      3  C   UNL A   1      43.851  24.343  26.558  1.00  0.00     0.021 C 
BRANCH   3   4
ATOM      4  C   UNL A   1      45.049  23.595  27.150  1.00  0.00     0.116 C 
BRANCH   4   5
ATOM      5  N   UNL A   1      45.505  24.298  28.330  1.00  0.00    -0.352 N 
ATOM      6  C   UNL A   1      46.396  25.296  28.545  1.00  0.00     0.251 C 
ATOM      7  O   UNL A   1      46.649  25.538  29.729  1.00  0.00    -0.269 OA
ATOM      8  H   UNL A   1      45.074  23.982  29.156  1.00  0.00     0.163 HD
BRANCH   6   9
ATOM      9  C   UNL A   1      46.976  26.156  27.444  1.00  0.00     0.047 C 
ATOM     10  C   UNL A   1      47.981  25.750  26.631  1.00  0.00     0.022 C 
BRANCH  10  11
ATOM     11  C   UNL A   1      48.529  26.412  25.420  1.00  0.00    -0.025 A 
ATOM     12  C   UNL A   1      49.728  27.367  23.059  1.00  0.00     0.067 A 
ATOM     13  C   UNL A   1      48.337  27.365  23.191  1.00  0.00     0.021 A 
ATOM     14  C   UNL A   1      50.532  26.970  24.126  1.00  0.00     0.021 A 
ATOM     15  C   UNL A   1      47.746  26.918  24.377  1.00  0.00     0.009 A 
ATOM     16  C   UNL A   1      49.928  26.491  25.297  1.00  0.00     0.009 A 
BRANCH  12  17
ATOM     17  S   UNL A   1      50.404  27.873  21.495  1.00  0.00     0.175 S 
ATOM     18  C   UNL A   1      49.982  26.634  20.305  1.00  0.00     0.163 C 
ATOM     19  O   UNL A   1      51.847  27.851  21.643  1.00  0.00    -0.224 OA
ATOM     20  O   UNL A   1      49.712  29.097  21.131  1.00  0.00    -0.224 OA
ENDBRANCH  12  17
ENDBRANCH  10  11
BRANCH   9  21
ATOM     21  C   UNL A   1      46.515  27.567  27.422  1.00  0.00    -0.013 A 
ATOM     22  C   UNL A   1      45.140  27.797  27.281  1.00  0.00     0.009 A 
ATOM     23  C   UNL A   1      47.362  28.659  27.630  1.00  0.00     0.009 A 
ATOM     24  C   UNL A   1      44.614  29.080  27.400  1.00  0.00     0.009 A 
ATOM     25  C   UNL A   1      46.824  29.944  27.783  1.00  0.00     0.009 A 
ATOM     26  C   UNL A   1      45.438  30.175  27.696  1.00  0.00    -0.015 A 
BRANCH  26  27
ATOM     27  C   UNL A   1      44.839  31.503  27.935  1.00  0.00     0.018 A 
ATOM     28  C   UNL A   1      44.418  31.871  29.232  1.00  0.00     0.015 A 
ATOM     29  C   UNL A   1      44.645  32.441  26.907  1.00  0.00     0.133 A 
ATOM     30  C   UNL A   1      43.808  33.102  29.475  1.00  0.00     0.040 A 
ATOM     31  C   UNL A   1      44.044  33.675  27.142  1.00  0.00     0.079 A 
ATOM     32  F   UNL A   1      45.020  32.158  25.649  1.00  0.00    -0.206 F 
ATOM     33  C   UNL A   1      43.625  33.991  28.425  1.00  0.00     0.126 A 
ATOM     34  F   UNL A   1      43.030  35.168  28.657  1.00  0.00    -0.207 F 
ENDBRANCH  26  27
ENDBRANCH   9  21
ENDBRANCH   6   9
ENDBRANCH   4   5
ENDBRANCH   3   4
ENDBRANCH   2   3
ENDBRANCH   1   2
BRANCH   1  35
ATOM     35  C   UNL A   1      42.067  21.224  26.152  1.00  0.00     0.021 C 
BRANCH  35  36
ATOM     36  C   UNL A   1      41.060  22.090  26.900  1.00  0.00     0.116 C 
BRANCH  36  37
ATOM     37  N   UNL A   1      39.877  22.346  26.094  1.00  0.00    -0.352 N 
ATOM     38  C   UNL A   1      38.998  23.396  26.167  1.00  0.00     0.251 C 
ATOM     39  H   UNL A   1      39.681  21.674  25.402  1.00  0.00     0.163 HD
ATOM     40  O   UNL A   1      37.916  23.333  25.591  1.00  0.00    -0.269 OA
BRANCH  38  41
ATOM     41  C   UNL A   1      39.359  24.594  26.952  1.00  0.00     0.039 A 
ATOM     42  C   UNL A   1      38.908  24.707  28.268  1.00  0.00     0.014 A 
ATOM     43  C   UNL A   1      40.137  25.607  26.382  1.00  0.00     0.014 A 
ATOM     44  C   UNL A   1      39.271  25.821  29.028  1.00  0.00     0.010 A 
ATOM     45  C   UNL A   1      40.565  26.675  27.165  1.00  0.00     0.010 A 
ATOM     46  C   UNL A   1      40.122  26.801  28.490  1.00  0.00    -0.014 A 
BRANCH  46  47
ATOM     47  C   UNL A   1      40.538  27.982  29.289  1.00  0.00     0.031 A 
ATOM     48  C   UNL A   1      41.868  27.979  29.995  1.00  0.00     0.074 A 
ATOM     49  C   UNL A   1      39.700  29.028  29.423  1.00  0.00     0.049 A 
ATOM     50  N   UNL A   1      42.386  28.883  30.785  1.00  0.00    -0.248 NA
ATOM     51  C   UNL A   1      42.717  26.790  29.807  1.00  0.00     0.031 C 
ATOM     52  C   UNL A   1      38.367  29.127  28.824  1.00  0.00     0.029 A 
ATOM     53  N   UNL A   1      39.841  30.207  30.112  1.00  0.00    -0.354 N 
ATOM     54  C   UNL A   1      43.609  28.369  31.198  1.00  0.00     0.074 A 
ATOM     55  C   UNL A   1      43.730  27.048  30.622  1.00  0.00     0.031 C 
ATOM     56  C   UNL A   1      37.825  30.311  29.150  1.00  0.00     0.029 A 
ATOM     57  C   UNL A   1      38.751  31.039  30.013  1.00  0.00     0.049 A 
ATOM     58  H   UNL A   1      40.647  30.435  30.629  1.00  0.00     0.167 HD
ATOM     59  C   UNL A   1      44.559  28.955  31.966  1.00  0.00     0.037 A 
ATOM     60  C   UNL A   1      38.521  32.248  30.561  1.00  0.00     0.037 A 
ATOM     61  C   UNL A   1      44.440  30.280  32.516  1.00  0.00     0.049 A 
ATOM     62  C   UNL A   1      39.587  32.875  31.418  1.00  0.00     0.074 A 
ATOM     63  C   UNL A   1      45.366  30.987  33.263  1.00  0.00     0.029 A 
ATOM     64  N   UNL A   1      43.327  31.098  32.381  1.00  0.00    -0.354 N 
ATOM     65  N   UNL A   1      40.764  32.400  31.750  1.00  0.00    -0.248 NA
ATOM     66  C   UNL A   1      39.298  34.206  31.971  1.00  0.00     0.031 C 
ATOM     67  C   UNL A   1      44.792  32.211  33.623  1.00  0.00     0.029 A 
ATOM     68  C   UNL A   1      43.533  32.293  33.050  1.00  0.00     0.049 A 
ATOM     69  H   UNL A   1      42.511  30.863  31.883  1.00  0.00     0.167 HD
ATOM     70  C   UNL A   1      41.369  33.387  32.522  1.00  0.00     0.074 A 
ATOM     71  C   UNL A   1      40.431  34.488  32.599  1.00  0.00     0.031 C 
ATOM     72  C   UNL A   1      42.590  33.383  33.111  1.00  0.00     0.037 A 
BRANCH  59  73
ATOM     73  C   UNL A   1      45.810  28.169  32.253  1.00  0.00     0.058 A 
ATOM     74  C   UNL A   1      47.025  28.448  31.606  1.00  0.00     0.135 A 
ATOM     75  C   UNL A   1      45.803  27.140  33.210  1.00  0.00     0.135 A 
ATOM     76  F   UNL A   1      47.087  29.410  30.670  1.00  0.00    -0.206 F 
ATOM     77  C   UNL A   1      48.177  27.717  31.871  1.00  0.00     0.059 A 
ATOM     78  C   UNL A   1      46.952  26.417  33.515  1.00  0.00     0.059 A 
ATOM     79  F   UNL A   1      44.670  26.827  33.858  1.00  0.00    -0.206 F 
ATOM     80  C   UNL A   1      48.132  26.702  32.828  1.00  0.00     0.060 A 
BRANCH  80  81
ATOM     81  S   UNL A   1      49.637  25.765  33.162  1.00  0.00     0.124 S 
ATOM     82  O   UNL A   1      50.427  26.052  31.969  1.00  0.00    -0.237 OA
ATOM     83  O   UNL A   1      50.114  26.372  34.400  1.00  0.00    -0.237 OA
ATOM     84  O   UNL A   1      49.162  24.389  33.283  1.00  0.00    -0.744 OA
ENDBRANCH  80  81
ENDBRANCH  59  73
BRANCH  60  85
ATOM     85  C   UNL A   1      37.238  32.953  30.296  1.00  0.00     0.058 A 
ATOM     86  C   UNL A   1      37.075  33.755  29.157  1.00  0.00     0.135 A 
ATOM     87  C   UNL A   1      36.146  32.830  31.169  1.00  0.00     0.135 A 
ATOM     88  F   UNL A   1      38.091  33.908  28.294  1.00  0.00    -0.206 F 
ATOM     89  C   UNL A   1      35.884  34.426  28.900  1.00  0.00     0.059 A 
ATOM     90  C   UNL A   1      34.935  33.469  30.921  1.00  0.00     0.059 A 
ATOM     91  F   UNL A   1      36.242  32.061  32.265  1.00  0.00    -0.206 F 
ATOM     92  C   UNL A   1      34.818  34.274  29.788  1.00  0.00     0.060 A 
BRANCH  92  93
ATOM     93  S   UNL A   1      33.261  35.114  29.424  1.00  0.00     0.124 S 
ATOM     94  O   UNL A   1      32.595  35.073  30.720  1.00  0.00    -0.237 OA
ATOM     95  O   UNL A   1      33.720  36.427  28.980  1.00  0.00    -0.237 OA
ATOM     96  O   UNL A   1      32.667  34.281  28.382  1.00  0.00    -0.744 OA
ENDBRANCH  92  93
ENDBRANCH  60  85
BRANCH  72  97
ATOM     97  C   UNL A   1      43.005  34.621  33.859  1.00  0.00     0.058 A 
ATOM     98  C   UNL A   1      42.759  34.777  35.231  1.00  0.00     0.135 A 
ATOM     99  C   UNL A   1      43.709  35.644  33.200  1.00  0.00     0.135 A 
ATOM    100  F   UNL A   1      42.085  33.833  35.908  1.00  0.00    -0.206 F 
ATOM    101  C   UNL A   1      43.174  35.912  35.920  1.00  0.00     0.059 A 
ATOM    102  C   UNL A   1      44.160  36.772  33.874  1.00  0.00     0.059 A 
ATOM    103  F   UNL A   1      43.981  35.541  31.888  1.00  0.00    -0.206 F 
ATOM    104  C   UNL A   1      43.877  36.903  35.233  1.00  0.00     0.060 A 
BRANCH 104 105
ATOM    105  S   UNL A   1      44.439  38.355  36.147  1.00  0.00     0.124 S 
ATOM    106  O   UNL A   1      43.784  38.162  37.436  1.00  0.00    -0.237 OA
ATOM    107  O   UNL A   1      45.889  38.186  36.138  1.00  0.00    -0.237 OA
ATOM    108  O   UNL A   1      43.940  39.472  35.351  1.00  0.00    -0.744 OA
ENDBRANCH 104 105
ENDBRANCH  72  97
ENDBRANCH  46  47
ENDBRANCH  38  41
ENDBRANCH  36  37
ENDBRANCH  35  36
ENDBRANCH   1  35
TORSDOF 20
ENDMDL
