MODEL 1
REMARK VINA RESULT:     -11.1      0.000      0.000
REMARK SMILES C[C@H](NC(=O)c1cc(S(=O)(=O)N(C)C)cs1)C(=O)NCCCCCCNC(=O)c1ccc(-c2c3nc(c(-c4c(F)cc(S(=O)(=O)[O-])cc4F)c4ccc([nH]4)c(-c4c(F)cc(S(=O)(=O)[O-])cc4F)c4nc(c(-c5c(F)cc(S(=O)(=O)[O-])cc5F)c5ccc2[nH]5)C=C4)C=C3)cc1
REMARK SMILES IDX 22 1 21 2 20 3 19 4 17 5 18 6 2 8 1 9 3 10 4 11 5 13 6 14
REMARK SMILES IDX 7 15 16 16 8 17 15 18 9 19 10 20 11 21 12 22 13 23 14 24
REMARK SMILES IDX 23 25 24 26 25 27 26 28 27 29 28 31 29 32 30 33 94 34 31 35
REMARK SMILES IDX 93 36 32 37 33 38 34 39 87 40 35 41 92 42 86 43 88 44 36 45
REMARK SMILES IDX 91 46 85 47 84 48 37 50 71 51 50 52 70 53 51 54 54 55 69 56
REMARK SMILES IDX 89 57 52 58 53 59 68 61 90 62 55 63 38 64 39 65 48 66 40 67
REMARK SMILES IDX 41 68 47 69 49 70 42 71 43 72 44 73 45 74 46 75 72 76 73 77
REMARK SMILES IDX 82 78 74 79 75 80 81 81 83 82 76 83 77 84 78 85 79 86 80 87
REMARK SMILES IDX 56 88 57 89 66 90 58 91 59 92 65 93 67 94 60 95 61 96 62 97
REMARK SMILES IDX 63 98 64 99
REMARK H PARENT 19 7 3 12 26 30 88 49 54 60
REMARK Flexibility Score: inf
ROOT
ATOM      1  C   UNL A   1      37.449  21.752  24.769  1.00  0.00     0.002 C 
ENDROOT
BRANCH   1   2
ATOM      2  C   UNL A   1      36.219  20.972  25.248  1.00  0.00     0.021 C 
BRANCH   2   3
ATOM      3  C   UNL A   1      35.358  21.755  26.237  1.00  0.00     0.116 C 
BRANCH   3   4
ATOM      4  N   UNL A   1      35.316  23.156  25.889  1.00  0.00    -0.354 N 
ATOM      5  C   UNL A   1      34.377  23.853  25.195  1.00  0.00     0.242 C 
ATOM      6  O   UNL A   1      34.587  25.057  25.007  1.00  0.00    -0.273 OA
ATOM      7  H   UNL A   1      36.083  23.687  26.201  1.00  0.00     0.163 HD
BRANCH   5   8
ATOM      8  C   UNL A   1      33.034  23.224  24.755  1.00  0.00     0.168 C 
ATOM      9  C   UNL A   1      32.820  23.464  23.271  1.00  0.00     0.041 C 
BRANCH   8  10
ATOM     10  N   UNL A   1      31.920  23.395  25.706  1.00  0.00    -0.340 N 
ATOM     11  C   UNL A   1      31.141  24.393  26.233  1.00  0.00     0.262 C 
ATOM     12  H   UNL A   1      31.655  22.524  26.080  1.00  0.00     0.164 HD
ATOM     13  O   UNL A   1      30.485  24.071  27.227  1.00  0.00    -0.268 OA
BRANCH  11  14
ATOM     14  C   UNL A   1      31.098  25.727  25.670  1.00  0.00     0.093 A 
ATOM     15  C   UNL A   1      30.613  26.180  24.462  1.00  0.00     0.047 A 
ATOM     16  S   UNL A   1      31.642  27.049  26.632  1.00  0.00    -0.137 S 
ATOM     17  C   UNL A   1      30.961  27.540  24.217  1.00  0.00     0.094 A 
ATOM     18  C   UNL A   1      31.509  28.144  25.326  1.00  0.00     0.087 A 
BRANCH  17  19
ATOM     19  S   UNL A   1      30.819  28.329  22.682  1.00  0.00     0.243 S 
ATOM     20  O   UNL A   1      31.956  29.218  22.616  1.00  0.00    -0.207 OA
ATOM     21  O   UNL A   1      30.642  27.217  21.774  1.00  0.00    -0.207 OA
BRANCH  19  22
ATOM     22  N   UNL A   1      29.386  29.270  22.653  1.00  0.00    -0.204 NA
ATOM     23  C   UNL A   1      28.148  28.509  22.940  1.00  0.00     0.124 C 
ATOM     24  C   UNL A   1      29.481  30.479  23.505  1.00  0.00     0.124 C 
ENDBRANCH  19  22
ENDBRANCH  17  19
ENDBRANCH  11  14
ENDBRANCH   8  10
ENDBRANCH   5   8
ENDBRANCH   3   4
ENDBRANCH   2   3
ENDBRANCH   1   2
BRANCH   1  25
ATOM     25  C   UNL A   1      38.643  21.728  25.732  1.00  0.00     0.002 C 
BRANCH  25  26
ATOM     26  C   UNL A   1      38.926  23.041  26.471  1.00  0.00     0.021 C 
BRANCH  26  27
ATOM     27  C   UNL A   1      40.353  23.196  26.997  1.00  0.00     0.116 C 
BRANCH  27  28
ATOM     28  N   UNL A   1      41.209  23.891  26.051  1.00  0.00    -0.352 N 
ATOM     29  C   UNL A   1      41.649  25.190  26.049  1.00  0.00     0.251 C 
ATOM     30  H   UNL A   1      41.521  23.345  25.294  1.00  0.00     0.163 HD
ATOM     31  O   UNL A   1      42.208  25.637  25.050  1.00  0.00    -0.269 OA
BRANCH  29  32
ATOM     32  C   UNL A   1      41.448  26.057  27.231  1.00  0.00     0.039 A 
ATOM     33  C   UNL A   1      42.377  27.072  27.482  1.00  0.00     0.014 A 
ATOM     34  C   UNL A   1      40.385  25.850  28.116  1.00  0.00     0.014 A 
ATOM     35  C   UNL A   1      42.213  27.908  28.589  1.00  0.00     0.010 A 
ATOM     36  C   UNL A   1      40.192  26.717  29.191  1.00  0.00     0.010 A 
ATOM     37  C   UNL A   1      41.107  27.752  29.439  1.00  0.00    -0.014 A 
BRANCH  37  38
ATOM     38  C   UNL A   1      40.892  28.678  30.579  1.00  0.00     0.031 A 
ATOM     39  C   UNL A   1      41.730  28.571  31.823  1.00  0.00     0.074 A 
ATOM     40  C   UNL A   1      39.904  29.591  30.509  1.00  0.00     0.049 A 
ATOM     41  N   UNL A   1      41.681  29.291  32.914  1.00  0.00    -0.248 NA
ATOM     42  C   UNL A   1      42.739  27.501  31.852  1.00  0.00     0.031 C 
ATOM     43  C   UNL A   1      38.988  29.758  29.378  1.00  0.00     0.029 A 
ATOM     44  N   UNL A   1      39.503  30.549  31.404  1.00  0.00    -0.354 N 
ATOM     45  C   UNL A   1      42.639  28.755  33.767  1.00  0.00     0.074 A 
ATOM     46  C   UNL A   1      43.227  27.625  33.079  1.00  0.00     0.031 C 
ATOM     47  C   UNL A   1      38.151  30.775  29.637  1.00  0.00     0.029 A 
ATOM     48  C   UNL A   1      38.454  31.317  30.958  1.00  0.00     0.049 A 
ATOM     49  H   UNL A   1      39.926  30.675  32.284  1.00  0.00     0.167 HD
ATOM     50  C   UNL A   1      43.007  29.177  35.001  1.00  0.00     0.037 A 
ATOM     51  C   UNL A   1      37.815  32.347  31.544  1.00  0.00     0.037 A 
ATOM     52  C   UNL A   1      42.440  30.318  35.669  1.00  0.00     0.049 A 
ATOM     53  C   UNL A   1      38.256  32.812  32.901  1.00  0.00     0.074 A 
ATOM     54  C   UNL A   1      42.801  30.875  36.884  1.00  0.00     0.029 A 
ATOM     55  N   UNL A   1      41.386  31.077  35.182  1.00  0.00    -0.354 N 
ATOM     56  N   UNL A   1      39.217  32.342  33.661  1.00  0.00    -0.248 NA
ATOM     57  C   UNL A   1      37.534  33.953  33.478  1.00  0.00     0.031 C 
ATOM     58  C   UNL A   1      41.945  31.951  37.146  1.00  0.00     0.029 A 
ATOM     59  C   UNL A   1      41.070  32.085  36.080  1.00  0.00     0.049 A 
ATOM     60  H   UNL A   1      40.930  30.923  34.324  1.00  0.00     0.167 HD
ATOM     61  C   UNL A   1      39.223  33.138  34.800  1.00  0.00     0.074 A 
ATOM     62  C   UNL A   1      38.181  34.129  34.623  1.00  0.00     0.031 C 
ATOM     63  C   UNL A   1      40.021  33.056  35.893  1.00  0.00     0.037 A 
BRANCH  50  64
ATOM     64  C   UNL A   1      44.078  28.391  35.705  1.00  0.00     0.058 A 
ATOM     65  C   UNL A   1      45.440  28.693  35.541  1.00  0.00     0.135 A 
ATOM     66  C   UNL A   1      43.740  27.328  36.558  1.00  0.00     0.135 A 
ATOM     67  F   UNL A   1      45.818  29.690  34.727  1.00  0.00    -0.206 F 
ATOM     68  C   UNL A   1      46.431  27.943  36.167  1.00  0.00     0.059 A 
ATOM     69  C   UNL A   1      44.715  26.580  37.212  1.00  0.00     0.059 A 
ATOM     70  F   UNL A   1      42.454  26.999  36.752  1.00  0.00    -0.206 F 
ATOM     71  C   UNL A   1      46.058  26.883  36.995  1.00  0.00     0.060 A 
BRANCH  71  72
ATOM     72  S   UNL A   1      47.352  25.903  37.785  1.00  0.00     0.124 S 
ATOM     73  O   UNL A   1      47.689  24.957  36.725  1.00  0.00    -0.237 OA
ATOM     74  O   UNL A   1      48.370  26.904  38.086  1.00  0.00    -0.237 OA
ATOM     75  O   UNL A   1      46.681  25.331  38.948  1.00  0.00    -0.744 OA
ENDBRANCH  71  72
ENDBRANCH  50  64
BRANCH  51  76
ATOM     76  C   UNL A   1      36.716  33.035  30.819  1.00  0.00     0.058 A 
ATOM     77  C   UNL A   1      35.377  32.768  31.133  1.00  0.00     0.135 A 
ATOM     78  C   UNL A   1      36.982  33.998  29.834  1.00  0.00     0.135 A 
ATOM     79  F   UNL A   1      35.077  31.850  32.064  1.00  0.00    -0.206 F 
ATOM     80  C   UNL A   1      34.335  33.428  30.493  1.00  0.00     0.059 A 
ATOM     81  C   UNL A   1      35.956  34.685  29.193  1.00  0.00     0.059 A 
ATOM     82  F   UNL A   1      38.250  34.299  29.512  1.00  0.00    -0.206 F 
ATOM     83  C   UNL A   1      34.635  34.390  29.527  1.00  0.00     0.060 A 
BRANCH  83  84
ATOM     84  S   UNL A   1      33.276  35.297  28.754  1.00  0.00     0.124 S 
ATOM     85  O   UNL A   1      32.588  35.842  29.918  1.00  0.00    -0.237 OA
ATOM     86  O   UNL A   1      33.985  36.262  27.919  1.00  0.00    -0.237 OA
ATOM     87  O   UNL A   1      32.557  34.258  28.022  1.00  0.00    -0.744 OA
ENDBRANCH  83  84
ENDBRANCH  51  76
BRANCH  63  88
ATOM     88  C   UNL A   1      39.798  34.073  36.976  1.00  0.00     0.058 A 
ATOM     89  C   UNL A   1      40.366  35.355  36.902  1.00  0.00     0.135 A 
ATOM     90  C   UNL A   1      38.998  33.770  38.089  1.00  0.00     0.135 A 
ATOM     91  F   UNL A   1      41.145  35.690  35.863  1.00  0.00    -0.206 F 
ATOM     92  C   UNL A   1      40.169  36.294  37.910  1.00  0.00     0.059 A 
ATOM     93  C   UNL A   1      38.771  34.701  39.097  1.00  0.00     0.059 A 
ATOM     94  F   UNL A   1      38.427  32.560  38.200  1.00  0.00    -0.206 F 
ATOM     95  C   UNL A   1      39.374  35.956  39.007  1.00  0.00     0.060 A 
BRANCH  95  96
ATOM     96  S   UNL A   1      39.115  37.182  40.306  1.00  0.00     0.124 S 
ATOM     97  O   UNL A   1      38.284  38.165  39.619  1.00  0.00    -0.237 OA
ATOM     98  O   UNL A   1      38.449  36.405  41.347  1.00  0.00    -0.237 OA
ATOM     99  O   UNL A   1      40.469  37.620  40.631  1.00  0.00    -0.744 OA
ENDBRANCH  95  96
ENDBRANCH  63  88
ENDBRANCH  37  38
ENDBRANCH  29  32
ENDBRANCH  27  28
ENDBRANCH  26  27
ENDBRANCH  25  26
ENDBRANCH   1  25
TORSDOF 20
ENDMDL
MODEL 2
REMARK VINA RESULT:     -10.9      6.080      8.432
REMARK SMILES C[C@H](NC(=O)c1cc(S(=O)(=O)N(C)C)cs1)C(=O)NCCCCCCNC(=O)c1ccc(-c2c3nc(c(-c4c(F)cc(S(=O)(=O)[O-])cc4F)c4ccc([nH]4)c(-c4c(F)cc(S(=O)(=O)[O-])cc4F)c4nc(c(-c5c(F)cc(S(=O)(=O)[O-])cc5F)c5ccc2[nH]5)C=C4)C=C3)cc1
REMARK SMILES IDX 22 1 21 2 20 3 19 4 17 5 18 6 2 8 1 9 3 10 4 11 5 13 6 14
REMARK SMILES IDX 7 15 16 16 8 17 15 18 9 19 10 20 11 21 12 22 13 23 14 24
REMARK SMILES IDX 23 25 24 26 25 27 26 28 27 29 28 31 29 32 30 33 94 34 31 35
REMARK SMILES IDX 93 36 32 37 33 38 34 39 87 40 35 41 92 42 86 43 88 44 36 45
REMARK SMILES IDX 91 46 85 47 84 48 37 50 71 51 50 52 70 53 51 54 54 55 69 56
REMARK SMILES IDX 89 57 52 58 53 59 68 61 90 62 55 63 38 64 39 65 48 66 40 67
REMARK SMILES IDX 41 68 47 69 49 70 42 71 43 72 44 73 45 74 46 75 72 76 73 77
REMARK SMILES IDX 82 78 74 79 75 80 81 81 83 82 76 83 77 84 78 85 79 86 80 87
REMARK SMILES IDX 56 88 57 89 66 90 58 91 59 92 65 93 67 94 60 95 61 96 62 97
REMARK SMILES IDX 63 98 64 99
REMARK H PARENT 19 7 3 12 26 30 88 49 54 60
REMARK Flexibility Score: inf
ROOT
ATOM      1  C   UNL A   1      37.246  22.142  25.381  1.00  0.00     0.002 C 
ENDROOT
BRANCH   1   2
ATOM      2  C   UNL A   1      36.669  23.354  24.640  1.00  0.00     0.021 C 
BRANCH   2   3
ATOM      3  C   UNL A   1      35.242  23.697  25.065  1.00  0.00     0.116 C 
BRANCH   3   4
ATOM      4  N   UNL A   1      34.282  23.165  24.127  1.00  0.00    -0.354 N 
ATOM      5  C   UNL A   1      33.302  22.241  24.313  1.00  0.00     0.242 C 
ATOM      6  O   UNL A   1      32.617  21.932  23.332  1.00  0.00    -0.273 OA
ATOM      7  H   UNL A   1      34.345  23.526  23.214  1.00  0.00     0.163 HD
BRANCH   5   8
ATOM      8  C   UNL A   1      32.952  21.673  25.710  1.00  0.00     0.168 C 
ATOM      9  C   UNL A   1      33.244  20.183  25.743  1.00  0.00     0.041 C 
BRANCH   8  10
ATOM     10  N   UNL A   1      31.714  22.204  26.309  1.00  0.00    -0.340 N 
ATOM     11  C   UNL A   1      31.081  23.404  26.507  1.00  0.00     0.262 C 
ATOM     12  H   UNL A   1      31.176  21.470  26.685  1.00  0.00     0.164 HD
ATOM     13  O   UNL A   1      30.152  23.374  27.320  1.00  0.00    -0.268 OA
BRANCH  11  14
ATOM     14  C   UNL A   1      31.477  24.616  25.822  1.00  0.00     0.093 A 
ATOM     15  C   UNL A   1      32.419  25.569  26.148  1.00  0.00     0.047 A 
ATOM     16  S   UNL A   1      30.773  24.969  24.290  1.00  0.00    -0.137 S 
ATOM     17  C   UNL A   1      32.341  26.715  25.304  1.00  0.00     0.094 A 
ATOM     18  C   UNL A   1      31.497  26.516  24.234  1.00  0.00     0.087 A 
BRANCH  17  19
ATOM     19  S   UNL A   1      33.123  28.226  25.625  1.00  0.00     0.243 S 
ATOM     20  O   UNL A   1      33.972  27.969  26.765  1.00  0.00    -0.207 OA
ATOM     21  O   UNL A   1      33.647  28.589  24.327  1.00  0.00    -0.207 OA
BRANCH  19  22
ATOM     22  N   UNL A   1      31.950  29.394  26.069  1.00  0.00    -0.204 NA
ATOM     23  C   UNL A   1      32.459  30.466  26.955  1.00  0.00     0.124 C 
ATOM     24  C   UNL A   1      31.237  29.958  24.899  1.00  0.00     0.124 C 
ENDBRANCH  19  22
ENDBRANCH  17  19
ENDBRANCH  11  14
ENDBRANCH   8  10
ENDBRANCH   5   8
ENDBRANCH   3   4
ENDBRANCH   2   3
ENDBRANCH   1   2
BRANCH   1  25
ATOM     25  C   UNL A   1      37.239  20.834  24.579  1.00  0.00     0.002 C 
BRANCH  25  26
ATOM     26  C   UNL A   1      38.199  19.747  25.077  1.00  0.00     0.021 C 
BRANCH  26  27
ATOM     27  C   UNL A   1      39.359  20.248  25.936  1.00  0.00     0.116 C 
BRANCH  27  28
ATOM     28  N   UNL A   1      40.435  19.275  26.020  1.00  0.00    -0.352 N 
ATOM     29  C   UNL A   1      41.789  19.465  26.128  1.00  0.00     0.251 C 
ATOM     30  H   UNL A   1      40.148  18.334  25.995  1.00  0.00     0.163 HD
ATOM     31  O   UNL A   1      42.546  18.508  25.986  1.00  0.00    -0.269 OA
BRANCH  29  32
ATOM     32  C   UNL A   1      42.344  20.810  26.401  1.00  0.00     0.039 A 
ATOM     33  C   UNL A   1      42.697  21.620  25.318  1.00  0.00     0.014 A 
ATOM     34  C   UNL A   1      42.563  21.256  27.708  1.00  0.00     0.014 A 
ATOM     35  C   UNL A   1      43.222  22.895  25.544  1.00  0.00     0.010 A 
ATOM     36  C   UNL A   1      43.037  22.548  27.933  1.00  0.00     0.010 A 
ATOM     37  C   UNL A   1      43.374  23.378  26.853  1.00  0.00    -0.014 A 
BRANCH  37  38
ATOM     38  C   UNL A   1      43.870  24.756  27.098  1.00  0.00     0.031 A 
ATOM     39  C   UNL A   1      45.319  25.098  26.891  1.00  0.00     0.074 A 
ATOM     40  C   UNL A   1      43.015  25.692  27.555  1.00  0.00     0.049 A 
ATOM     41  N   UNL A   1      45.928  26.244  27.057  1.00  0.00    -0.248 NA
ATOM     42  C   UNL A   1      46.204  24.004  26.461  1.00  0.00     0.031 C 
ATOM     43  C   UNL A   1      41.597  25.469  27.847  1.00  0.00     0.029 A 
ATOM     44  N   UNL A   1      43.212  27.015  27.855  1.00  0.00    -0.354 N 
ATOM     45  C   UNL A   1      47.267  26.009  26.770  1.00  0.00     0.074 A 
ATOM     46  C   UNL A   1      47.388  24.601  26.455  1.00  0.00     0.031 C 
ATOM     47  C   UNL A   1      41.047  26.623  28.257  1.00  0.00     0.029 A 
ATOM     48  C   UNL A   1      42.074  27.659  28.280  1.00  0.00     0.049 A 
ATOM     49  H   UNL A   1      44.085  27.462  27.773  1.00  0.00     0.167 HD
ATOM     50  C   UNL A   1      48.297  26.889  26.752  1.00  0.00     0.037 A 
ATOM     51  C   UNL A   1      41.880  28.942  28.639  1.00  0.00     0.037 A 
ATOM     52  C   UNL A   1      48.168  28.294  27.037  1.00  0.00     0.049 A 
ATOM     53  C   UNL A   1      43.031  29.904  28.588  1.00  0.00     0.074 A 
ATOM     54  C   UNL A   1      49.135  29.282  26.966  1.00  0.00     0.029 A 
ATOM     55  N   UNL A   1      46.999  28.911  27.456  1.00  0.00    -0.354 N 
ATOM     56  N   UNL A   1      44.276  29.682  28.238  1.00  0.00    -0.248 NA
ATOM     57  C   UNL A   1      42.751  31.294  28.971  1.00  0.00     0.031 C 
ATOM     58  C   UNL A   1      48.558  30.491  27.371  1.00  0.00     0.029 A 
ATOM     59  C   UNL A   1      47.223  30.263  27.665  1.00  0.00     0.049 A 
ATOM     60  H   UNL A   1      46.136  28.457  27.583  1.00  0.00     0.167 HD
ATOM     61  C   UNL A   1      44.925  30.905  28.347  1.00  0.00     0.074 A 
ATOM     62  C   UNL A   1      43.932  31.868  28.779  1.00  0.00     0.031 C 
ATOM     63  C   UNL A   1      46.226  31.205  28.108  1.00  0.00     0.037 A 
BRANCH  50  64
ATOM     64  C   UNL A   1      49.658  26.348  26.410  1.00  0.00     0.058 A 
ATOM     65  C   UNL A   1      50.470  25.733  27.378  1.00  0.00     0.135 A 
ATOM     66  C   UNL A   1      50.155  26.439  25.100  1.00  0.00     0.135 A 
ATOM     67  F   UNL A   1      50.048  25.632  28.649  1.00  0.00    -0.206 F 
ATOM     68  C   UNL A   1      51.742  25.263  27.068  1.00  0.00     0.059 A 
ATOM     69  C   UNL A   1      51.415  25.954  24.763  1.00  0.00     0.059 A 
ATOM     70  F   UNL A   1      49.420  27.014  24.137  1.00  0.00    -0.206 F 
ATOM     71  C   UNL A   1      52.210  25.386  25.759  1.00  0.00     0.060 A 
BRANCH  71  72
ATOM     72  S   UNL A   1      53.870  24.792  25.371  1.00  0.00     0.124 S 
ATOM     73  O   UNL A   1      54.571  25.053  26.625  1.00  0.00    -0.237 OA
ATOM     74  O   UNL A   1      53.639  23.386  25.056  1.00  0.00    -0.237 OA
ATOM     75  O   UNL A   1      54.272  25.624  24.242  1.00  0.00    -0.744 OA
ENDBRANCH  71  72
ENDBRANCH  50  64
BRANCH  51  76
ATOM     76  C   UNL A   1      40.522  29.394  29.034  1.00  0.00     0.058 A 
ATOM     77  C   UNL A   1      39.523  29.580  28.069  1.00  0.00     0.135 A 
ATOM     78  C   UNL A   1      40.186  29.609  30.379  1.00  0.00     0.135 A 
ATOM     79  F   UNL A   1      39.802  29.392  26.771  1.00  0.00    -0.206 F 
ATOM     80  C   UNL A   1      38.235  29.967  28.422  1.00  0.00     0.059 A 
ATOM     81  C   UNL A   1      38.900  29.979  30.758  1.00  0.00     0.059 A 
ATOM     82  F   UNL A   1      41.106  29.428  31.339  1.00  0.00    -0.206 F 
ATOM     83  C   UNL A   1      37.932  30.160  29.770  1.00  0.00     0.060 A 
BRANCH  83  84
ATOM     84  S   UNL A   1      36.236  30.590  30.225  1.00  0.00     0.124 S 
ATOM     85  O   UNL A   1      35.574  30.583  28.927  1.00  0.00    -0.237 OA
ATOM     86  O   UNL A   1      35.876  29.505  31.133  1.00  0.00    -0.237 OA
ATOM     87  O   UNL A   1      36.383  31.899  30.855  1.00  0.00    -0.744 OA
ENDBRANCH  83  84
ENDBRANCH  51  76
BRANCH  63  88
ATOM     88  C   UNL A   1      46.641  32.635  28.303  1.00  0.00     0.058 A 
ATOM     89  C   UNL A   1      47.194  33.076  29.516  1.00  0.00     0.135 A 
ATOM     90  C   UNL A   1      46.502  33.569  27.265  1.00  0.00     0.135 A 
ATOM     91  F   UNL A   1      47.341  32.224  30.541  1.00  0.00    -0.206 F 
ATOM     92  C   UNL A   1      47.569  34.404  29.701  1.00  0.00     0.059 A 
ATOM     93  C   UNL A   1      46.890  34.896  27.422  1.00  0.00     0.059 A 
ATOM     94  F   UNL A   1      45.986  33.194  26.084  1.00  0.00    -0.206 F 
ATOM     95  C   UNL A   1      47.408  35.307  28.650  1.00  0.00     0.060 A 
BRANCH  95  96
ATOM     96  S   UNL A   1      47.907  37.026  28.893  1.00  0.00     0.124 S 
ATOM     97  O   UNL A   1      48.802  36.911  30.040  1.00  0.00    -0.237 OA
ATOM     98  O   UNL A   1      48.543  37.354  27.621  1.00  0.00    -0.237 OA
ATOM     99  O   UNL A   1      46.642  37.710  29.147  1.00  0.00    -0.744 OA
ENDBRANCH  95  96
ENDBRANCH  63  88
ENDBRANCH  37  38
ENDBRANCH  29  32
ENDBRANCH  27  28
ENDBRANCH  26  27
ENDBRANCH  25  26
ENDBRANCH   1  25
TORSDOF 20
ENDMDL
MODEL 3
REMARK VINA RESULT:     -10.8      1.468      2.471
REMARK SMILES C[C@H](NC(=O)c1cc(S(=O)(=O)N(C)C)cs1)C(=O)NCCCCCCNC(=O)c1ccc(-c2c3nc(c(-c4c(F)cc(S(=O)(=O)[O-])cc4F)c4ccc([nH]4)c(-c4c(F)cc(S(=O)(=O)[O-])cc4F)c4nc(c(-c5c(F)cc(S(=O)(=O)[O-])cc5F)c5ccc2[nH]5)C=C4)C=C3)cc1
REMARK SMILES IDX 22 1 21 2 20 3 19 4 17 5 18 6 2 8 1 9 3 10 4 11 5 13 6 14
REMARK SMILES IDX 7 15 16 16 8 17 15 18 9 19 10 20 11 21 12 22 13 23 14 24
REMARK SMILES IDX 23 25 24 26 25 27 26 28 27 29 28 31 29 32 30 33 94 34 31 35
REMARK SMILES IDX 93 36 32 37 33 38 34 39 87 40 35 41 92 42 86 43 88 44 36 45
REMARK SMILES IDX 91 46 85 47 84 48 37 50 71 51 50 52 70 53 51 54 54 55 69 56
REMARK SMILES IDX 89 57 52 58 53 59 68 61 90 62 55 63 38 64 39 65 48 66 40 67
REMARK SMILES IDX 41 68 47 69 49 70 42 71 43 72 44 73 45 74 46 75 72 76 73 77
REMARK SMILES IDX 82 78 74 79 75 80 81 81 83 82 76 83 77 84 78 85 79 86 80 87
REMARK SMILES IDX 56 88 57 89 66 90 58 91 59 92 65 93 67 94 60 95 61 96 62 97
REMARK SMILES IDX 63 98 64 99
REMARK H PARENT 19 7 3 12 26 30 88 49 54 60
REMARK Flexibility Score: inf
ROOT
ATOM      1  C   UNL A   1      40.824  20.944  26.441  1.00  0.00     0.002 C 
ENDROOT
BRANCH   1   2
ATOM      2  C   UNL A   1      39.779  22.043  26.667  1.00  0.00     0.021 C 
BRANCH   2   3
ATOM      3  C   UNL A   1      38.542  21.888  25.784  1.00  0.00     0.116 C 
BRANCH   3   4
ATOM      4  N   UNL A   1      37.423  22.620  26.330  1.00  0.00    -0.354 N 
ATOM      5  C   UNL A   1      36.168  22.789  25.836  1.00  0.00     0.242 C 
ATOM      6  O   UNL A   1      35.388  23.490  26.491  1.00  0.00    -0.273 OA
ATOM      7  H   UNL A   1      37.595  23.064  27.191  1.00  0.00     0.163 HD
BRANCH   5   8
ATOM      8  C   UNL A   1      35.667  22.046  24.574  1.00  0.00     0.168 C 
ATOM      9  C   UNL A   1      35.688  22.990  23.385  1.00  0.00     0.041 C 
BRANCH   8  10
ATOM     10  N   UNL A   1      34.519  21.146  24.791  1.00  0.00    -0.340 N 
ATOM     11  C   UNL A   1      33.205  21.204  25.179  1.00  0.00     0.262 C 
ATOM     12  H   UNL A   1      34.776  20.215  24.600  1.00  0.00     0.164 HD
ATOM     13  O   UNL A   1      32.701  20.117  25.474  1.00  0.00    -0.268 OA
BRANCH  11  14
ATOM     14  C   UNL A   1      32.467  22.448  25.247  1.00  0.00     0.093 A 
ATOM     15  C   UNL A   1      32.168  23.373  24.269  1.00  0.00     0.047 A 
ATOM     16  S   UNL A   1      31.725  22.890  26.738  1.00  0.00    -0.137 S 
ATOM     17  C   UNL A   1      31.600  24.564  24.809  1.00  0.00     0.094 A 
ATOM     18  C   UNL A   1      31.286  24.431  26.143  1.00  0.00     0.087 A 
BRANCH  17  19
ATOM     19  S   UNL A   1      31.418  26.048  23.936  1.00  0.00     0.243 S 
ATOM     20  O   UNL A   1      30.782  25.671  22.695  1.00  0.00    -0.207 OA
ATOM     21  O   UNL A   1      30.782  26.907  24.910  1.00  0.00    -0.207 OA
BRANCH  19  22
ATOM     22  N   UNL A   1      32.964  26.698  23.584  1.00  0.00    -0.204 NA
ATOM     23  C   UNL A   1      34.002  26.388  24.595  1.00  0.00     0.124 C 
ATOM     24  C   UNL A   1      33.428  26.359  22.219  1.00  0.00     0.124 C 
ENDBRANCH  19  22
ENDBRANCH  17  19
ENDBRANCH  11  14
ENDBRANCH   8  10
ENDBRANCH   5   8
ENDBRANCH   3   4
ENDBRANCH   2   3
ENDBRANCH   1   2
BRANCH   1  25
ATOM     25  C   UNL A   1      42.260  21.335  26.812  1.00  0.00     0.002 C 
BRANCH  25  26
ATOM     26  C   UNL A   1      42.396  22.373  27.932  1.00  0.00     0.021 C 
BRANCH  26  27
ATOM     27  C   UNL A   1      43.128  23.657  27.541  1.00  0.00     0.116 C 
BRANCH  27  28
ATOM     28  N   UNL A   1      42.581  24.249  26.332  1.00  0.00    -0.352 N 
ATOM     29  C   UNL A   1      41.801  25.366  26.172  1.00  0.00     0.251 C 
ATOM     30  H   UNL A   1      42.806  23.776  25.499  1.00  0.00     0.163 HD
ATOM     31  O   UNL A   1      41.279  25.587  25.082  1.00  0.00    -0.269 OA
BRANCH  29  32
ATOM     32  C   UNL A   1      41.574  26.297  27.300  1.00  0.00     0.039 A 
ATOM     33  C   UNL A   1      40.549  26.011  28.208  1.00  0.00     0.014 A 
ATOM     34  C   UNL A   1      42.326  27.467  27.442  1.00  0.00     0.014 A 
ATOM     35  C   UNL A   1      40.312  26.870  29.283  1.00  0.00     0.010 A 
ATOM     36  C   UNL A   1      42.124  28.297  28.545  1.00  0.00     0.010 A 
ATOM     37  C   UNL A   1      41.113  28.007  29.473  1.00  0.00    -0.014 A 
BRANCH  37  38
ATOM     38  C   UNL A   1      40.908  28.889  30.651  1.00  0.00     0.031 A 
ATOM     39  C   UNL A   1      41.763  28.740  31.878  1.00  0.00     0.074 A 
ATOM     40  C   UNL A   1      39.915  29.799  30.627  1.00  0.00     0.049 A 
ATOM     41  N   UNL A   1      41.725  29.419  32.996  1.00  0.00    -0.248 NA
ATOM     42  C   UNL A   1      42.778  27.676  31.854  1.00  0.00     0.031 C 
ATOM     43  C   UNL A   1      38.983  30.002  29.515  1.00  0.00     0.029 A 
ATOM     44  N   UNL A   1      39.520  30.719  31.563  1.00  0.00    -0.354 N 
ATOM     45  C   UNL A   1      42.696  28.857  33.816  1.00  0.00     0.074 A 
ATOM     46  C   UNL A   1      43.282  27.756  33.079  1.00  0.00     0.031 C 
ATOM     47  C   UNL A   1      38.144  31.004  29.823  1.00  0.00     0.029 A 
ATOM     48  C   UNL A   1      38.462  31.498  31.159  1.00  0.00     0.049 A 
ATOM     49  H   UNL A   1      39.955  30.815  32.441  1.00  0.00     0.167 HD
ATOM     50  C   UNL A   1      43.078  29.234  35.060  1.00  0.00     0.037 A 
ATOM     51  C   UNL A   1      37.825  32.501  31.791  1.00  0.00     0.037 A 
ATOM     52  C   UNL A   1      42.514  30.347  35.778  1.00  0.00     0.049 A 
ATOM     53  C   UNL A   1      38.282  32.919  33.159  1.00  0.00     0.074 A 
ATOM     54  C   UNL A   1      42.889  30.860  37.008  1.00  0.00     0.029 A 
ATOM     55  N   UNL A   1      41.450  31.117  35.333  1.00  0.00    -0.354 N 
ATOM     56  N   UNL A   1      39.254  32.426  33.889  1.00  0.00    -0.248 NA
ATOM     57  C   UNL A   1      37.561  34.033  33.787  1.00  0.00     0.031 C 
ATOM     58  C   UNL A   1      42.030  31.921  37.321  1.00  0.00     0.029 A 
ATOM     59  C   UNL A   1      41.140  32.089  36.272  1.00  0.00     0.049 A 
ATOM     60  H   UNL A   1      40.983  30.993  34.476  1.00  0.00     0.167 HD
ATOM     61  C   UNL A   1      39.272  33.178  35.056  1.00  0.00     0.074 A 
ATOM     62  C   UNL A   1      38.222  34.169  34.930  1.00  0.00     0.031 C 
ATOM     63  C   UNL A   1      40.084  33.060  36.135  1.00  0.00     0.037 A 
BRANCH  50  64
ATOM     64  C   UNL A   1      44.162  28.429  35.720  1.00  0.00     0.058 A 
ATOM     65  C   UNL A   1      45.522  28.716  35.514  1.00  0.00     0.135 A 
ATOM     66  C   UNL A   1      43.840  27.361  36.573  1.00  0.00     0.135 A 
ATOM     67  F   UNL A   1      45.885  29.718  34.698  1.00  0.00    -0.206 F 
ATOM     68  C   UNL A   1      46.524  27.949  36.100  1.00  0.00     0.059 A 
ATOM     69  C   UNL A   1      44.827  26.595  37.188  1.00  0.00     0.059 A 
ATOM     70  F   UNL A   1      42.558  27.045  36.807  1.00  0.00    -0.206 F 
ATOM     71  C   UNL A   1      46.167  26.884  36.928  1.00  0.00     0.060 A 
BRANCH  71  72
ATOM     72  S   UNL A   1      47.474  25.881  37.666  1.00  0.00     0.124 S 
ATOM     73  O   UNL A   1      46.778  25.289  38.804  1.00  0.00    -0.237 OA
ATOM     74  O   UNL A   1      47.817  24.962  36.586  1.00  0.00    -0.237 OA
ATOM     75  O   UNL A   1      48.504  26.860  38.000  1.00  0.00    -0.744 OA
ENDBRANCH  71  72
ENDBRANCH  50  64
BRANCH  51  76
ATOM     76  C   UNL A   1      36.714  33.210  31.107  1.00  0.00     0.058 A 
ATOM     77  C   UNL A   1      36.975  34.113  30.067  1.00  0.00     0.135 A 
ATOM     78  C   UNL A   1      35.374  32.969  31.449  1.00  0.00     0.135 A 
ATOM     79  F   UNL A   1      38.241  34.377  29.712  1.00  0.00    -0.206 F 
ATOM     80  C   UNL A   1      35.947  34.758  29.389  1.00  0.00     0.059 A 
ATOM     81  C   UNL A   1      34.328  33.589  30.772  1.00  0.00     0.059 A 
ATOM     82  F   UNL A   1      35.075  32.101  32.427  1.00  0.00    -0.206 F 
ATOM     83  C   UNL A   1      34.626  34.486  29.746  1.00  0.00     0.060 A 
BRANCH  83  84
ATOM     84  S   UNL A   1      33.295  35.272  28.810  1.00  0.00     0.124 S 
ATOM     85  O   UNL A   1      32.693  34.127  28.137  1.00  0.00    -0.237 OA
ATOM     86  O   UNL A   1      32.496  35.886  29.865  1.00  0.00    -0.237 OA
ATOM     87  O   UNL A   1      34.006  36.211  27.947  1.00  0.00    -0.744 OA
ENDBRANCH  83  84
ENDBRANCH  51  76
BRANCH  63  88
ATOM     88  C   UNL A   1      39.871  34.035  37.258  1.00  0.00     0.058 A 
ATOM     89  C   UNL A   1      38.936  33.785  38.275  1.00  0.00     0.135 A 
ATOM     90  C   UNL A   1      40.617  35.221  37.328  1.00  0.00     0.135 A 
ATOM     91  F   UNL A   1      38.192  32.668  38.250  1.00  0.00    -0.206 F 
ATOM     92  C   UNL A   1      38.730  34.692  39.310  1.00  0.00     0.059 A 
ATOM     93  C   UNL A   1      40.442  36.132  38.364  1.00  0.00     0.059 A 
ATOM     94  F   UNL A   1      41.529  35.501  36.383  1.00  0.00    -0.206 F 
ATOM     95  C   UNL A   1      39.484  35.866  39.343  1.00  0.00     0.060 A 
BRANCH  95  96
ATOM     96  S   UNL A   1      39.219  37.035  40.693  1.00  0.00     0.124 S 
ATOM     97  O   UNL A   1      40.563  37.567  40.888  1.00  0.00    -0.237 OA
ATOM     98  O   UNL A   1      38.245  37.961  40.123  1.00  0.00    -0.237 OA
ATOM     99  O   UNL A   1      38.712  36.192  41.773  1.00  0.00    -0.744 OA
ENDBRANCH  95  96
ENDBRANCH  63  88
ENDBRANCH  37  38
ENDBRANCH  29  32
ENDBRANCH  27  28
ENDBRANCH  26  27
ENDBRANCH  25  26
ENDBRANCH   1  25
TORSDOF 20
ENDMDL
