MODEL 1
REMARK VINA RESULT:     -10.4      0.000      0.000
REMARK SMILES O=C(CS(=O)(=O)N1CCC1)NCCCCCCNC(=O)c1ccc(-c2c3nc(c(-c4c(F)cc(S(=O)(=O)[O-])cc4F)c4ccc([nH]4)c(-c4c(F)cc(S(=O)(=O)[O-])cc4F)c4nc(c(-c5c(F)cc(S(=O)(=O)[O-])cc5F)c5ccc2[nH]5)C=C4)C=C3)cc1
REMARK SMILES IDX 15 1 14 2 13 3 12 4 11 5 1 6 2 7 3 9 4 10 5 11 6 12 7 13
REMARK SMILES IDX 8 14 10 15 9 16 16 17 17 18 18 19 19 20 20 22 21 23 22 24
REMARK SMILES IDX 86 25 23 26 85 27 24 28 25 29 26 30 79 31 27 32 84 33 78 34
REMARK SMILES IDX 80 35 28 36 83 37 77 38 76 39 29 41 63 42 42 43 62 44 43 45
REMARK SMILES IDX 46 46 61 47 81 48 44 49 45 50 60 52 82 53 47 54 30 55 31 56
REMARK SMILES IDX 40 57 32 58 33 59 39 60 41 61 34 62 35 63 36 64 37 65 38 66
REMARK SMILES IDX 64 67 65 68 74 69 66 70 67 71 73 72 75 73 68 74 69 75 70 76
REMARK SMILES IDX 71 77 72 78 48 79 49 80 58 81 50 82 51 83 57 84 59 85 52 86
REMARK SMILES IDX 53 87 54 88 55 89 56 90
REMARK H PARENT 11 8 18 21 80 40 46 51
REMARK Flexibility Score: inf
ROOT
ATOM      1  C   UNL A   1      42.216  21.606  27.701  1.00  0.00     0.002 C 
ENDROOT
BRANCH   1   2
ATOM      2  C   UNL A   1      41.479  20.550  26.871  1.00  0.00     0.002 C 
BRANCH   2   3
ATOM      3  C   UNL A   1      42.182  19.190  26.752  1.00  0.00     0.021 C 
BRANCH   3   4
ATOM      4  C   UNL A   1      43.048  19.023  25.507  1.00  0.00     0.116 C 
BRANCH   4   5
ATOM      5  N   UNL A   1      44.063  20.056  25.419  1.00  0.00    -0.355 N 
ATOM      6  O   UNL A   1      45.579  18.825  24.226  1.00  0.00    -0.274 OA
ATOM      7  C   UNL A   1      45.255  19.887  24.754  1.00  0.00     0.236 C 
ATOM      8  H   UNL A   1      43.890  20.920  25.857  1.00  0.00     0.163 HD
BRANCH   7   9
ATOM      9  C   UNL A   1      46.200  21.048  24.788  1.00  0.00     0.253 C 
BRANCH   9  10
ATOM     10  S   UNL A   1      45.421  22.559  24.299  1.00  0.00     0.223 S 
ATOM     11  O   UNL A   1      46.448  23.476  23.844  1.00  0.00    -0.212 OA
ATOM     12  O   UNL A   1      44.309  22.222  23.431  1.00  0.00    -0.212 OA
BRANCH  10  13
ATOM     13  N   UNL A   1      44.772  23.170  25.727  1.00  0.00    -0.201 NA
ATOM     14  C   UNL A   1      45.446  23.185  27.066  1.00  0.00     0.103 C 
ATOM     15  C   UNL A   1      44.445  24.617  25.924  1.00  0.00     0.103 C 
ATOM     16  C   UNL A   1      44.648  24.444  27.438  1.00  0.00     0.033 C 
ENDBRANCH  10  13
ENDBRANCH   9  10
ENDBRANCH   7   9
ENDBRANCH   4   5
ENDBRANCH   3   4
ENDBRANCH   2   3
ENDBRANCH   1   2
BRANCH   1  17
ATOM     17  C   UNL A   1      41.356  22.773  28.193  1.00  0.00     0.021 C 
BRANCH  17  18
ATOM     18  C   UNL A   1      40.224  23.188  27.257  1.00  0.00     0.116 C 
BRANCH  18  19
ATOM     19  N   UNL A   1      40.679  24.038  26.169  1.00  0.00    -0.352 N 
ATOM     20  C   UNL A   1      40.910  25.394  26.157  1.00  0.00     0.251 C 
ATOM     21  H   UNL A   1      40.847  23.577  25.315  1.00  0.00     0.163 HD
ATOM     22  O   UNL A   1      41.150  25.964  25.097  1.00  0.00    -0.269 OA
BRANCH  20  23
ATOM     23  C   UNL A   1      40.839  26.171  27.417  1.00  0.00     0.039 A 
ATOM     24  C   UNL A   1      41.897  27.023  27.742  1.00  0.00     0.014 A 
ATOM     25  C   UNL A   1      39.742  26.057  28.275  1.00  0.00     0.014 A 
ATOM     26  C   UNL A   1      41.824  27.812  28.895  1.00  0.00     0.010 A 
ATOM     27  C   UNL A   1      39.641  26.891  29.386  1.00  0.00     0.010 A 
ATOM     28  C   UNL A   1      40.681  27.779  29.708  1.00  0.00    -0.014 A 
BRANCH  28  29
ATOM     29  C   UNL A   1      40.548  28.668  30.893  1.00  0.00     0.031 A 
ATOM     30  C   UNL A   1      39.520  29.766  30.906  1.00  0.00     0.074 A 
ATOM     31  C   UNL A   1      41.397  28.526  31.930  1.00  0.00     0.049 A 
ATOM     32  N   UNL A   1      39.299  30.680  31.817  1.00  0.00    -0.248 NA
ATOM     33  C   UNL A   1      38.644  29.868  29.729  1.00  0.00     0.031 C 
ATOM     34  C   UNL A   1      42.464  27.526  32.021  1.00  0.00     0.029 A 
ATOM     35  N   UNL A   1      41.504  29.230  33.103  1.00  0.00    -0.354 N 
ATOM     36  C   UNL A   1      38.272  31.473  31.317  1.00  0.00     0.074 A 
ATOM     37  C   UNL A   1      37.948  30.962  30.002  1.00  0.00     0.031 C 
ATOM     38  C   UNL A   1      43.099  27.665  33.195  1.00  0.00     0.029 A 
ATOM     39  C   UNL A   1      42.512  28.784  33.926  1.00  0.00     0.049 A 
ATOM     40  H   UNL A   1      40.914  29.983  33.335  1.00  0.00     0.167 HD
ATOM     41  C   UNL A   1      37.643  32.517  31.908  1.00  0.00     0.037 A 
ATOM     42  C   UNL A   1      42.922  29.229  35.130  1.00  0.00     0.037 A 
ATOM     43  C   UNL A   1      37.952  33.006  33.226  1.00  0.00     0.049 A 
ATOM     44  C   UNL A   1      42.212  30.396  35.763  1.00  0.00     0.074 A 
ATOM     45  C   UNL A   1      37.329  34.017  33.939  1.00  0.00     0.029 A 
ATOM     46  N   UNL A   1      38.973  32.522  34.032  1.00  0.00    -0.354 N 
ATOM     47  N   UNL A   1      41.200  31.093  35.304  1.00  0.00    -0.248 NA
ATOM     48  C   UNL A   1      42.698  30.835  37.078  1.00  0.00     0.031 C 
ATOM     49  C   UNL A   1      38.002  34.172  35.157  1.00  0.00     0.029 A 
ATOM     50  C   UNL A   1      39.013  33.228  35.224  1.00  0.00     0.049 A 
ATOM     51  H   UNL A   1      39.581  31.786  33.791  1.00  0.00     0.167 HD
ATOM     52  C   UNL A   1      40.909  32.033  36.287  1.00  0.00     0.074 A 
ATOM     53  C   UNL A   1      41.847  31.810  37.368  1.00  0.00     0.031 C 
ATOM     54  C   UNL A   1      39.949  32.991  36.295  1.00  0.00     0.037 A 
BRANCH  41  55
ATOM     55  C   UNL A   1      36.555  33.204  31.125  1.00  0.00     0.058 A 
ATOM     56  C   UNL A   1      36.843  34.010  30.013  1.00  0.00     0.135 A 
ATOM     57  C   UNL A   1      35.207  33.040  31.484  1.00  0.00     0.135 A 
ATOM     58  F   UNL A   1      38.114  34.211  29.633  1.00  0.00    -0.206 F 
ATOM     59  C   UNL A   1      35.837  34.664  29.308  1.00  0.00     0.059 A 
ATOM     60  C   UNL A   1      34.182  33.661  30.776  1.00  0.00     0.059 A 
ATOM     61  F   UNL A   1      34.875  32.278  32.537  1.00  0.00    -0.206 F 
ATOM     62  C   UNL A   1      34.509  34.489  29.702  1.00  0.00     0.060 A 
BRANCH  62  63
ATOM     63  S   UNL A   1      33.217  35.359  28.790  1.00  0.00     0.124 S 
ATOM     64  O   UNL A   1      32.603  34.265  28.044  1.00  0.00    -0.237 OA
ATOM     65  O   UNL A   1      32.405  35.928  29.860  1.00  0.00    -0.237 OA
ATOM     66  O   UNL A   1      33.960  36.326  27.989  1.00  0.00    -0.744 OA
ENDBRANCH  62  63
ENDBRANCH  41  55
BRANCH  42  67
ATOM     67  C   UNL A   1      44.040  28.548  35.833  1.00  0.00     0.058 A 
ATOM     68  C   UNL A   1      45.369  28.944  35.620  1.00  0.00     0.135 A 
ATOM     69  C   UNL A   1      43.807  27.500  36.737  1.00  0.00     0.135 A 
ATOM     70  F   UNL A   1      45.641  29.936  34.759  1.00  0.00    -0.206 F 
ATOM     71  C   UNL A   1      46.429  28.320  36.269  1.00  0.00     0.059 A 
ATOM     72  C   UNL A   1      44.849  26.876  37.417  1.00  0.00     0.059 A 
ATOM     73  F   UNL A   1      42.553  27.093  36.988  1.00  0.00    -0.206 F 
ATOM     74  C   UNL A   1      46.158  27.288  37.168  1.00  0.00     0.060 A 
BRANCH  74  75
ATOM     75  S   UNL A   1      47.538  26.520  38.045  1.00  0.00     0.124 S 
ATOM     76  O   UNL A   1      47.350  25.113  37.713  1.00  0.00    -0.237 OA
ATOM     77  O   UNL A   1      48.692  27.173  37.434  1.00  0.00    -0.237 OA
ATOM     78  O   UNL A   1      47.291  26.879  39.439  1.00  0.00    -0.744 OA
ENDBRANCH  74  75
ENDBRANCH  42  67
BRANCH  54  79
ATOM     79  C   UNL A   1      39.840  33.850  37.524  1.00  0.00     0.058 A 
ATOM     80  C   UNL A   1      40.524  35.070  37.636  1.00  0.00     0.135 A 
ATOM     81  C   UNL A   1      39.001  33.467  38.584  1.00  0.00     0.135 A 
ATOM     82  F   UNL A   1      41.344  35.477  36.656  1.00  0.00    -0.206 F 
ATOM     83  C   UNL A   1      40.396  35.871  38.766  1.00  0.00     0.059 A 
ATOM     84  C   UNL A   1      38.838  34.266  39.711  1.00  0.00     0.059 A 
ATOM     85  F   UNL A   1      38.316  32.313  38.522  1.00  0.00    -0.206 F 
ATOM     86  C   UNL A   1      39.550  35.461  39.798  1.00  0.00     0.060 A 
BRANCH  86  87
ATOM     87  S   UNL A   1      39.366  36.527  41.245  1.00  0.00     0.124 S 
ATOM     88  O   UNL A   1      38.885  37.764  40.638  1.00  0.00    -0.237 OA
ATOM     89  O   UNL A   1      38.393  35.796  42.050  1.00  0.00    -0.237 OA
ATOM     90  O   UNL A   1      40.714  36.583  41.800  1.00  0.00    -0.744 OA
ENDBRANCH  86  87
ENDBRANCH  54  79
ENDBRANCH  28  29
ENDBRANCH  20  23
ENDBRANCH  18  19
ENDBRANCH  17  18
ENDBRANCH   1  17
TORSDOF 18
ENDMDL
MODEL 2
REMARK VINA RESULT:     -10.1      7.099     13.078
REMARK SMILES O=C(CS(=O)(=O)N1CCC1)NCCCCCCNC(=O)c1ccc(-c2c3nc(c(-c4c(F)cc(S(=O)(=O)[O-])cc4F)c4ccc([nH]4)c(-c4c(F)cc(S(=O)(=O)[O-])cc4F)c4nc(c(-c5c(F)cc(S(=O)(=O)[O-])cc5F)c5ccc2[nH]5)C=C4)C=C3)cc1
REMARK SMILES IDX 15 1 14 2 13 3 12 4 11 5 1 6 2 7 3 9 4 10 5 11 6 12 7 13
REMARK SMILES IDX 8 14 10 15 9 16 16 17 17 18 18 19 19 20 20 22 21 23 22 24
REMARK SMILES IDX 86 25 23 26 85 27 24 28 25 29 26 30 79 31 27 32 84 33 78 34
REMARK SMILES IDX 80 35 28 36 83 37 77 38 76 39 29 41 63 42 42 43 62 44 43 45
REMARK SMILES IDX 46 46 61 47 81 48 44 49 45 50 60 52 82 53 47 54 30 55 31 56
REMARK SMILES IDX 40 57 32 58 33 59 39 60 41 61 34 62 35 63 36 64 37 65 38 66
REMARK SMILES IDX 64 67 65 68 74 69 66 70 67 71 73 72 75 73 68 74 69 75 70 76
REMARK SMILES IDX 71 77 72 78 48 79 49 80 58 81 50 82 51 83 57 84 59 85 52 86
REMARK SMILES IDX 53 87 54 88 55 89 56 90
REMARK H PARENT 11 8 18 21 80 40 46 51
REMARK Flexibility Score: inf
ROOT
ATOM      1  C   UNL A   1      32.864  28.914  27.622  1.00  0.00     0.002 C 
ENDROOT
BRANCH   1   2
ATOM      2  C   UNL A   1      31.746  29.651  26.876  1.00  0.00     0.002 C 
BRANCH   2   3
ATOM      3  C   UNL A   1      32.032  29.972  25.403  1.00  0.00     0.021 C 
BRANCH   3   4
ATOM      4  C   UNL A   1      31.021  29.399  24.414  1.00  0.00     0.116 C 
BRANCH   4   5
ATOM      5  N   UNL A   1      31.430  28.096  23.925  1.00  0.00    -0.355 N 
ATOM      6  O   UNL A   1      30.156  28.123  22.025  1.00  0.00    -0.274 OA
ATOM      7  C   UNL A   1      30.983  27.560  22.741  1.00  0.00     0.236 C 
ATOM      8  H   UNL A   1      32.059  27.569  24.470  1.00  0.00     0.163 HD
BRANCH   7   9
ATOM      9  C   UNL A   1      31.485  26.191  22.404  1.00  0.00     0.253 C 
BRANCH   9  10
ATOM     10  S   UNL A   1      33.115  26.226  21.718  1.00  0.00     0.223 S 
ATOM     11  O   UNL A   1      33.077  25.589  20.415  1.00  0.00    -0.212 OA
ATOM     12  O   UNL A   1      33.622  27.579  21.852  1.00  0.00    -0.212 OA
BRANCH  10  13
ATOM     13  N   UNL A   1      34.019  25.250  22.749  1.00  0.00    -0.201 NA
ATOM     14  C   UNL A   1      34.116  25.393  24.238  1.00  0.00     0.103 C 
ATOM     15  C   UNL A   1      33.740  23.793  22.951  1.00  0.00     0.103 C 
ATOM     16  C   UNL A   1      34.363  23.881  24.353  1.00  0.00     0.033 C 
ENDBRANCH  10  13
ENDBRANCH   9  10
ENDBRANCH   7   9
ENDBRANCH   4   5
ENDBRANCH   3   4
ENDBRANCH   2   3
ENDBRANCH   1   2
BRANCH   1  17
ATOM     17  C   UNL A   1      34.118  28.616  26.797  1.00  0.00     0.021 C 
BRANCH  17  18
ATOM     18  C   UNL A   1      35.405  29.251  27.316  1.00  0.00     0.116 C 
BRANCH  18  19
ATOM     19  N   UNL A   1      35.263  29.792  28.658  1.00  0.00    -0.352 N 
ATOM     20  C   UNL A   1      36.216  29.967  29.634  1.00  0.00     0.251 C 
ATOM     21  H   UNL A   1      34.353  30.074  28.905  1.00  0.00     0.163 HD
ATOM     22  O   UNL A   1      35.877  30.302  30.766  1.00  0.00    -0.269 OA
BRANCH  20  23
ATOM     23  C   UNL A   1      37.645  29.722  29.331  1.00  0.00     0.039 A 
ATOM     24  C   UNL A   1      38.499  29.343  30.370  1.00  0.00     0.014 A 
ATOM     25  C   UNL A   1      38.144  29.872  28.035  1.00  0.00     0.014 A 
ATOM     26  C   UNL A   1      39.838  29.048  30.096  1.00  0.00     0.010 A 
ATOM     27  C   UNL A   1      39.461  29.514  27.752  1.00  0.00     0.010 A 
ATOM     28  C   UNL A   1      40.322  29.097  28.780  1.00  0.00    -0.014 A 
BRANCH  28  29
ATOM     29  C   UNL A   1      41.720  28.709  28.455  1.00  0.00     0.031 A 
ATOM     30  C   UNL A   1      42.813  29.743  28.447  1.00  0.00     0.074 A 
ATOM     31  C   UNL A   1      41.994  27.436  28.104  1.00  0.00     0.049 A 
ATOM     32  N   UNL A   1      44.075  29.610  28.126  1.00  0.00    -0.248 NA
ATOM     33  C   UNL A   1      42.431  31.113  28.823  1.00  0.00     0.031 C 
ATOM     34  C   UNL A   1      41.015  26.349  28.033  1.00  0.00     0.029 A 
ATOM     35  N   UNL A   1      43.174  26.843  27.731  1.00  0.00    -0.354 N 
ATOM     36  C   UNL A   1      44.633  30.878  28.246  1.00  0.00     0.074 A 
ATOM     37  C   UNL A   1      43.561  31.775  28.620  1.00  0.00     0.031 C 
ATOM     38  C   UNL A   1      41.640  25.218  27.666  1.00  0.00     0.029 A 
ATOM     39  C   UNL A   1      43.053  25.505  27.440  1.00  0.00     0.049 A 
ATOM     40  H   UNL A   1      44.029  27.330  27.678  1.00  0.00     0.167 HD
ATOM     41  C   UNL A   1      45.923  31.255  28.078  1.00  0.00     0.037 A 
ATOM     42  C   UNL A   1      43.973  24.610  27.031  1.00  0.00     0.037 A 
ATOM     43  C   UNL A   1      46.990  30.354  27.730  1.00  0.00     0.049 A 
ATOM     44  C   UNL A   1      45.399  25.055  26.845  1.00  0.00     0.074 A 
ATOM     45  C   UNL A   1      48.341  30.628  27.599  1.00  0.00     0.029 A 
ATOM     46  N   UNL A   1      46.829  29.004  27.452  1.00  0.00    -0.354 N 
ATOM     47  N   UNL A   1      45.922  26.245  27.025  1.00  0.00    -0.248 NA
ATOM     48  C   UNL A   1      46.361  24.036  26.403  1.00  0.00     0.031 C 
ATOM     49  C   UNL A   1      48.990  29.453  27.201  1.00  0.00     0.029 A 
ATOM     50  C   UNL A   1      48.051  28.436  27.129  1.00  0.00     0.049 A 
ATOM     51  H   UNL A   1      45.971  28.521  27.479  1.00  0.00     0.167 HD
ATOM     52  C   UNL A   1      47.278  26.110  26.748  1.00  0.00     0.074 A 
ATOM     53  C   UNL A   1      47.495  24.722  26.395  1.00  0.00     0.031 C 
ATOM     54  C   UNL A   1      48.254  27.051  26.786  1.00  0.00     0.037 A 
BRANCH  41  55
ATOM     55  C   UNL A   1      46.249  32.713  28.270  1.00  0.00     0.058 A 
ATOM     56  C   UNL A   1      46.142  33.638  27.218  1.00  0.00     0.135 A 
ATOM     57  C   UNL A   1      46.659  33.193  29.524  1.00  0.00     0.135 A 
ATOM     58  F   UNL A   1      45.766  33.231  25.995  1.00  0.00    -0.206 F 
ATOM     59  C   UNL A   1      46.469  34.978  27.392  1.00  0.00     0.059 A 
ATOM     60  C   UNL A   1      46.963  34.536  29.728  1.00  0.00     0.059 A 
ATOM     61  F   UNL A   1      46.775  32.354  30.565  1.00  0.00    -0.206 F 
ATOM     62  C   UNL A   1      46.885  35.417  28.650  1.00  0.00     0.060 A 
BRANCH  62  63
ATOM     63  S   UNL A   1      47.326  37.156  28.856  1.00  0.00     0.124 S 
ATOM     64  O   UNL A   1      46.726  37.748  27.664  1.00  0.00    -0.237 OA
ATOM     65  O   UNL A   1      46.685  37.495  30.121  1.00  0.00    -0.237 OA
ATOM     66  O   UNL A   1      48.785  37.136  28.880  1.00  0.00    -0.744 OA
ENDBRANCH  62  63
ENDBRANCH  41  55
BRANCH  42  67
ATOM     67  C   UNL A   1      43.583  23.194  26.802  1.00  0.00     0.058 A 
ATOM     68  C   UNL A   1      43.261  22.356  27.880  1.00  0.00     0.135 A 
ATOM     69  C   UNL A   1      43.510  22.654  25.509  1.00  0.00     0.135 A 
ATOM     70  F   UNL A   1      43.323  22.826  29.135  1.00  0.00    -0.206 F 
ATOM     71  C   UNL A   1      42.891  21.029  27.687  1.00  0.00     0.059 A 
ATOM     72  C   UNL A   1      43.119  21.336  25.289  1.00  0.00     0.059 A 
ATOM     73  F   UNL A   1      43.793  23.418  24.443  1.00  0.00    -0.206 F 
ATOM     74  C   UNL A   1      42.821  20.529  26.386  1.00  0.00     0.060 A 
BRANCH  74  75
ATOM     75  S   UNL A   1      42.290  18.820  26.143  1.00  0.00     0.124 S 
ATOM     76  O   UNL A   1      42.526  18.248  27.463  1.00  0.00    -0.237 OA
ATOM     77  O   UNL A   1      40.891  18.985  25.759  1.00  0.00    -0.237 OA
ATOM     78  O   UNL A   1      43.170  18.343  25.080  1.00  0.00    -0.744 OA
ENDBRANCH  74  75
ENDBRANCH  42  67
BRANCH  54  79
ATOM     79  C   UNL A   1      49.656  26.604  26.472  1.00  0.00     0.058 A 
ATOM     80  C   UNL A   1      50.468  25.987  27.435  1.00  0.00     0.135 A 
ATOM     81  C   UNL A   1      50.173  26.755  25.174  1.00  0.00     0.135 A 
ATOM     82  F   UNL A   1      50.023  25.826  28.691  1.00  0.00    -0.206 F 
ATOM     83  C   UNL A   1      51.753  25.552  27.129  1.00  0.00     0.059 A 
ATOM     84  C   UNL A   1      51.446  26.305  24.840  1.00  0.00     0.059 A 
ATOM     85  F   UNL A   1      49.434  27.331  24.213  1.00  0.00    -0.206 F 
ATOM     86  C   UNL A   1      52.234  25.715  25.828  1.00  0.00     0.060 A 
BRANCH  86  87
ATOM     87  S   UNL A   1      53.892  25.116  25.434  1.00  0.00     0.124 S 
ATOM     88  O   UNL A   1      53.702  23.670  25.492  1.00  0.00    -0.237 OA
ATOM     89  O   UNL A   1      54.118  25.673  24.104  1.00  0.00    -0.237 OA
ATOM     90  O   UNL A   1      54.719  25.684  26.493  1.00  0.00    -0.744 OA
ENDBRANCH  86  87
ENDBRANCH  54  79
ENDBRANCH  28  29
ENDBRANCH  20  23
ENDBRANCH  18  19
ENDBRANCH  17  18
ENDBRANCH   1  17
TORSDOF 18
ENDMDL
MODEL 3
REMARK VINA RESULT:      -9.9      3.395      9.785
REMARK SMILES O=C(CS(=O)(=O)N1CCC1)NCCCCCCNC(=O)c1ccc(-c2c3nc(c(-c4c(F)cc(S(=O)(=O)[O-])cc4F)c4ccc([nH]4)c(-c4c(F)cc(S(=O)(=O)[O-])cc4F)c4nc(c(-c5c(F)cc(S(=O)(=O)[O-])cc5F)c5ccc2[nH]5)C=C4)C=C3)cc1
REMARK SMILES IDX 15 1 14 2 13 3 12 4 11 5 1 6 2 7 3 9 4 10 5 11 6 12 7 13
REMARK SMILES IDX 8 14 10 15 9 16 16 17 17 18 18 19 19 20 20 22 21 23 22 24
REMARK SMILES IDX 86 25 23 26 85 27 24 28 25 29 26 30 79 31 27 32 84 33 78 34
REMARK SMILES IDX 80 35 28 36 83 37 77 38 76 39 29 41 63 42 42 43 62 44 43 45
REMARK SMILES IDX 46 46 61 47 81 48 44 49 45 50 60 52 82 53 47 54 30 55 31 56
REMARK SMILES IDX 40 57 32 58 33 59 39 60 41 61 34 62 35 63 36 64 37 65 38 66
REMARK SMILES IDX 64 67 65 68 74 69 66 70 67 71 73 72 75 73 68 74 69 75 70 76
REMARK SMILES IDX 71 77 72 78 48 79 49 80 58 81 50 82 51 83 57 84 59 85 52 86
REMARK SMILES IDX 53 87 54 88 55 89 56 90
REMARK H PARENT 11 8 18 21 80 40 46 51
REMARK Flexibility Score: inf
ROOT
ATOM      1  C   UNL A   1      37.896  22.200  25.443  1.00  0.00     0.002 C 
ENDROOT
BRANCH   1   2
ATOM      2  C   UNL A   1      36.444  21.888  25.068  1.00  0.00     0.002 C 
BRANCH   2   3
ATOM      3  C   UNL A   1      36.066  20.401  25.059  1.00  0.00     0.021 C 
BRANCH   3   4
ATOM      4  C   UNL A   1      34.596  20.115  24.759  1.00  0.00     0.116 C 
BRANCH   4   5
ATOM      5  N   UNL A   1      33.779  21.305  24.904  1.00  0.00    -0.355 N 
ATOM      6  O   UNL A   1      31.795  20.215  25.236  1.00  0.00    -0.274 OA
ATOM      7  C   UNL A   1      32.429  21.266  25.161  1.00  0.00     0.236 C 
ATOM      8  H   UNL A   1      34.214  22.184  24.813  1.00  0.00     0.163 HD
BRANCH   7   9
ATOM      9  C   UNL A   1      31.736  22.590  25.251  1.00  0.00     0.253 C 
BRANCH   9  10
ATOM     10  S   UNL A   1      32.222  23.503  26.686  1.00  0.00     0.223 S 
ATOM     11  O   UNL A   1      31.053  24.183  27.212  1.00  0.00    -0.212 OA
ATOM     12  O   UNL A   1      32.991  22.615  27.536  1.00  0.00    -0.212 OA
BRANCH  10  13
ATOM     13  N   UNL A   1      33.281  24.669  26.094  1.00  0.00    -0.201 NA
ATOM     14  C   UNL A   1      33.656  24.872  24.657  1.00  0.00     0.103 C 
ATOM     15  C   UNL A   1      33.014  26.140  26.187  1.00  0.00     0.103 C 
ATOM     16  C   UNL A   1      33.889  26.363  24.942  1.00  0.00     0.033 C 
ENDBRANCH  10  13
ENDBRANCH   9  10
ENDBRANCH   7   9
ENDBRANCH   4   5
ENDBRANCH   3   4
ENDBRANCH   2   3
ENDBRANCH   1   2
BRANCH   1  17
ATOM     17  C   UNL A   1      38.119  23.535  26.157  1.00  0.00     0.021 C 
BRANCH  17  18
ATOM     18  C   UNL A   1      39.374  23.612  27.021  1.00  0.00     0.116 C 
BRANCH  18  19
ATOM     19  N   UNL A   1      40.562  23.959  26.257  1.00  0.00    -0.352 N 
ATOM     20  C   UNL A   1      41.340  25.091  26.318  1.00  0.00     0.251 C 
ATOM     21  H   UNL A   1      40.852  23.286  25.599  1.00  0.00     0.163 HD
ATOM     22  O   UNL A   1      42.222  25.272  25.484  1.00  0.00    -0.269 OA
BRANCH  20  23
ATOM     23  C   UNL A   1      41.095  26.106  27.370  1.00  0.00     0.039 A 
ATOM     24  C   UNL A   1      40.113  25.856  28.331  1.00  0.00     0.014 A 
ATOM     25  C   UNL A   1      41.823  27.298  27.406  1.00  0.00     0.014 A 
ATOM     26  C   UNL A   1      39.907  26.772  29.368  1.00  0.00     0.010 A 
ATOM     27  C   UNL A   1      41.664  28.176  28.475  1.00  0.00     0.010 A 
ATOM     28  C   UNL A   1      40.704  27.923  29.469  1.00  0.00    -0.014 A 
BRANCH  28  29
ATOM     29  C   UNL A   1      40.558  28.868  30.608  1.00  0.00     0.031 A 
ATOM     30  C   UNL A   1      41.422  28.723  31.831  1.00  0.00     0.074 A 
ATOM     31  C   UNL A   1      39.601  29.817  30.566  1.00  0.00     0.049 A 
ATOM     32  N   UNL A   1      41.396  29.407  32.946  1.00  0.00    -0.248 NA
ATOM     33  C   UNL A   1      42.429  27.651  31.806  1.00  0.00     0.031 C 
ATOM     34  C   UNL A   1      38.672  30.034  29.455  1.00  0.00     0.029 A 
ATOM     35  N   UNL A   1      39.244  30.771  31.486  1.00  0.00    -0.354 N 
ATOM     36  C   UNL A   1      42.369  28.840  33.762  1.00  0.00     0.074 A 
ATOM     37  C   UNL A   1      42.933  27.725  33.031  1.00  0.00     0.031 C 
ATOM     38  C   UNL A   1      37.870  31.070  29.748  1.00  0.00     0.029 A 
ATOM     39  C   UNL A   1      38.201  31.569  31.079  1.00  0.00     0.049 A 
ATOM     40  H   UNL A   1      39.694  30.875  32.356  1.00  0.00     0.167 HD
ATOM     41  C   UNL A   1      42.770  29.225  34.997  1.00  0.00     0.037 A 
ATOM     42  C   UNL A   1      37.577  32.583  31.709  1.00  0.00     0.037 A 
ATOM     43  C   UNL A   1      42.224  30.350  35.709  1.00  0.00     0.049 A 
ATOM     44  C   UNL A   1      38.035  32.988  33.084  1.00  0.00     0.074 A 
ATOM     45  C   UNL A   1      42.606  30.860  36.939  1.00  0.00     0.029 A 
ATOM     46  N   UNL A   1      41.174  31.139  35.261  1.00  0.00    -0.354 N 
ATOM     47  N   UNL A   1      39.001  32.481  33.814  1.00  0.00    -0.248 NA
ATOM     48  C   UNL A   1      37.322  34.104  33.721  1.00  0.00     0.031 C 
ATOM     49  C   UNL A   1      41.760  31.931  37.251  1.00  0.00     0.029 A 
ATOM     50  C   UNL A   1      40.881  32.118  36.197  1.00  0.00     0.049 A 
ATOM     51  H   UNL A   1      40.706  31.020  34.402  1.00  0.00     0.167 HD
ATOM     52  C   UNL A   1      39.030  33.237  34.981  1.00  0.00     0.074 A 
ATOM     53  C   UNL A   1      37.991  34.237  34.857  1.00  0.00     0.031 C 
ATOM     54  C   UNL A   1      39.847  33.113  36.057  1.00  0.00     0.037 A 
BRANCH  41  55
ATOM     55  C   UNL A   1      43.855  28.416  35.657  1.00  0.00     0.058 A 
ATOM     56  C   UNL A   1      45.215  28.676  35.422  1.00  0.00     0.135 A 
ATOM     57  C   UNL A   1      43.532  27.379  36.545  1.00  0.00     0.135 A 
ATOM     58  F   UNL A   1      45.581  29.649  34.572  1.00  0.00    -0.206 F 
ATOM     59  C   UNL A   1      46.215  27.910  36.013  1.00  0.00     0.059 A 
ATOM     60  C   UNL A   1      44.516  26.618  37.171  1.00  0.00     0.059 A 
ATOM     61  F   UNL A   1      42.248  27.089  36.809  1.00  0.00    -0.206 F 
ATOM     62  C   UNL A   1      45.854  26.878  36.881  1.00  0.00     0.060 A 
BRANCH  62  63
ATOM     63  S   UNL A   1      47.162  25.880  37.624  1.00  0.00     0.124 S 
ATOM     64  O   UNL A   1      47.662  25.148  36.464  1.00  0.00    -0.237 OA
ATOM     65  O   UNL A   1      48.061  26.892  38.168  1.00  0.00    -0.237 OA
ATOM     66  O   UNL A   1      46.454  25.077  38.616  1.00  0.00    -0.744 OA
ENDBRANCH  62  63
ENDBRANCH  41  55
BRANCH  42  67
ATOM     67  C   UNL A   1      36.472  33.310  31.031  1.00  0.00     0.058 A 
ATOM     68  C   UNL A   1      36.730  34.150  29.937  1.00  0.00     0.135 A 
ATOM     69  C   UNL A   1      35.139  33.173  31.449  1.00  0.00     0.135 A 
ATOM     70  F   UNL A   1      37.990  34.319  29.506  1.00  0.00    -0.206 F 
ATOM     71  C   UNL A   1      35.711  34.838  29.288  1.00  0.00     0.059 A 
ATOM     72  C   UNL A   1      34.099  33.832  30.801  1.00  0.00     0.059 A 
ATOM     73  F   UNL A   1      34.836  32.370  32.480  1.00  0.00    -0.206 F 
ATOM     74  C   UNL A   1      34.397  34.670  29.727  1.00  0.00     0.060 A 
BRANCH  74  75
ATOM     75  S   UNL A   1      33.074  35.527  28.844  1.00  0.00     0.124 S 
ATOM     76  O   UNL A   1      33.826  36.494  28.055  1.00  0.00    -0.237 OA
ATOM     77  O   UNL A   1      32.449  34.439  28.096  1.00  0.00    -0.237 OA
ATOM     78  O   UNL A   1      32.259  36.084  29.920  1.00  0.00    -0.744 OA
ENDBRANCH  74  75
ENDBRANCH  42  67
BRANCH  54  79
ATOM     79  C   UNL A   1      39.675  34.106  37.173  1.00  0.00     0.058 A 
ATOM     80  C   UNL A   1      38.916  33.810  38.316  1.00  0.00     0.135 A 
ATOM     81  C   UNL A   1      40.318  35.354  37.117  1.00  0.00     0.135 A 
ATOM     82  F   UNL A   1      38.275  32.636  38.415  1.00  0.00    -0.206 F 
ATOM     83  C   UNL A   1      38.784  34.724  39.356  1.00  0.00     0.059 A 
ATOM     84  C   UNL A   1      40.221  36.272  38.157  1.00  0.00     0.059 A 
ATOM     85  F   UNL A   1      41.064  35.683  36.050  1.00  0.00    -0.206 F 
ATOM     86  C   UNL A   1      39.441  35.953  39.267  1.00  0.00     0.060 A 
BRANCH  86  87
ATOM     87  S   UNL A   1      39.290  37.118  40.640  1.00  0.00     0.124 S 
ATOM     88  O   UNL A   1      38.710  36.274  41.678  1.00  0.00    -0.237 OA
ATOM     89  O   UNL A   1      40.674  37.529  40.855  1.00  0.00    -0.237 OA
ATOM     90  O   UNL A   1      38.411  38.156  40.109  1.00  0.00    -0.744 OA
ENDBRANCH  86  87
ENDBRANCH  54  79
ENDBRANCH  28  29
ENDBRANCH  20  23
ENDBRANCH  18  19
ENDBRANCH  17  18
ENDBRANCH   1  17
TORSDOF 18
ENDMDL
