MODEL 1
REMARK VINA RESULT:     -12.0      0.000      0.000
REMARK SMILES O=C(CC1(C(=O)NCCCCCCNC(=O)c2ccc(-c3c4nc(c(-c5c(F)cc(S(=O)(=O)[O-])cc5F)c5ccc([nH]5)c(-c5c(F)cc(S(=O)(=O)[O-])cc5F)c5nc(c(-c6c(F)cc(S(=O)(=O)[O-])cc6F)c6ccc3[nH]6)C=C5)C=C4)cc2)CCCCC1)Nc1ccc(N2CCOC2=O)cc1
REMARK SMILES IDX 10 1 9 2 8 3 7 4 5 5 6 6 4 8 83 9 87 10 84 11 86 12 85 13
REMARK SMILES IDX 3 14 2 15 1 16 88 17 89 19 90 20 100 21 91 22 99 23 92 24
REMARK SMILES IDX 93 25 94 26 97 27 95 28 96 29 98 30 11 31 12 32 13 33 14 34
REMARK SMILES IDX 15 35 16 37 17 38 18 39 82 40 19 41 81 42 20 43 21 44 22 45
REMARK SMILES IDX 75 46 23 47 80 48 74 49 76 50 24 51 79 52 73 53 72 54 25 56
REMARK SMILES IDX 59 57 38 58 58 59 39 60 42 61 57 62 77 63 40 64 41 65 56 67
REMARK SMILES IDX 78 68 43 69 26 70 27 71 36 72 28 73 29 74 35 75 37 76 30 77
REMARK SMILES IDX 31 78 32 79 33 80 34 81 60 82 61 83 70 84 62 85 63 86 69 87
REMARK SMILES IDX 71 88 64 89 65 90 66 91 67 92 68 93 44 94 45 95 54 96 46 97
REMARK SMILES IDX 47 98 53 99 55 100 48 101 49 102 50 103 51 104 52 105
REMARK H PARENT 7 7 88 18 14 36 76 55 42 66
REMARK Flexibility Score: inf
ROOT
ATOM      1  C   UNL A   1      34.767  30.970  27.250  1.00  0.00     0.002 C 
ENDROOT
BRANCH   1   2
ATOM      2  C   UNL A   1      33.545  30.128  26.890  1.00  0.00     0.021 C 
BRANCH   2   3
ATOM      3  C   UNL A   1      33.906  28.786  26.265  1.00  0.00     0.116 C 
BRANCH   3   4
ATOM      4  N   UNL A   1      33.759  28.790  24.839  1.00  0.00    -0.356 N 
ATOM      5  C   UNL A   1      33.257  27.906  23.955  1.00  0.00     0.226 C 
ATOM      6  O   UNL A   1      33.150  28.384  22.816  1.00  0.00    -0.274 OA
ATOM      7  H   UNL A   1      34.097  29.613  24.417  1.00  0.00     0.163 HD
BRANCH   5   8
ATOM      8  C   UNL A   1      32.828  26.425  24.249  1.00  0.00     0.058 C 
ATOM      9  C   UNL A   1      31.741  25.906  23.281  1.00  0.00     0.017 C 
ATOM     10  C   UNL A   1      32.426  26.164  25.720  1.00  0.00     0.017 C 
ATOM     11  C   UNL A   1      30.280  26.114  23.681  1.00  0.00     0.001 C 
ATOM     12  C   UNL A   1      30.985  26.362  26.160  1.00  0.00     0.001 C 
ATOM     13  C   UNL A   1      29.963  25.848  25.152  1.00  0.00     0.000 C 
BRANCH   8  14
ATOM     14  C   UNL A   1      34.180  25.645  23.921  1.00  0.00     0.117 C 
BRANCH  14  15
ATOM     15  C   UNL A   1      34.128  24.155  23.633  1.00  0.00     0.225 C 
ATOM     16  O   UNL A   1      34.044  23.721  22.488  1.00  0.00    -0.275 OA
ATOM     17  N   UNL A   1      34.150  23.389  24.786  1.00  0.00    -0.326 N 
ATOM     18  H   UNL A   1      34.338  23.841  25.641  1.00  0.00     0.169 HD
BRANCH  17  19
ATOM     19  C   UNL A   1      33.917  22.012  24.805  1.00  0.00     0.041 A 
ATOM     20  C   UNL A   1      35.023  21.158  24.827  1.00  0.00     0.028 A 
ATOM     21  C   UNL A   1      32.628  21.496  24.765  1.00  0.00     0.028 A 
ATOM     22  C   UNL A   1      34.833  19.777  24.873  1.00  0.00     0.028 A 
ATOM     23  C   UNL A   1      32.446  20.117  24.685  1.00  0.00     0.028 A 
ATOM     24  C   UNL A   1      33.543  19.251  24.763  1.00  0.00     0.047 A 
BRANCH  24  25
ATOM     25  N   UNL A   1      33.337  17.866  24.750  1.00  0.00    -0.274 N 
ATOM     26  C   UNL A   1      32.976  17.106  25.901  1.00  0.00     0.171 C 
ATOM     27  C   UNL A   1      33.494  17.043  23.656  1.00  0.00     0.414 C 
ATOM     28  C   UNL A   1      32.502  15.818  25.274  1.00  0.00     0.257 C 
ATOM     29  O   UNL A   1      33.155  15.759  24.002  1.00  0.00    -0.447 OA
ATOM     30  O   UNL A   1      33.909  17.338  22.544  1.00  0.00    -0.224 OA
ENDBRANCH  24  25
ENDBRANCH  17  19
ENDBRANCH  14  15
ENDBRANCH   8  14
ENDBRANCH   5   8
ENDBRANCH   3   4
ENDBRANCH   2   3
ENDBRANCH   1   2
BRANCH   1  31
ATOM     31  C   UNL A   1      34.723  31.582  28.657  1.00  0.00     0.002 C 
BRANCH  31  32
ATOM     32  C   UNL A   1      35.453  32.921  28.809  1.00  0.00     0.021 C 
BRANCH  32  33
ATOM     33  C   UNL A   1      36.517  32.937  29.901  1.00  0.00     0.116 C 
BRANCH  33  34
ATOM     34  N   UNL A   1      36.172  32.040  30.990  1.00  0.00    -0.352 N 
ATOM     35  C   UNL A   1      36.708  30.828  31.331  1.00  0.00     0.251 C 
ATOM     36  H   UNL A   1      35.441  32.351  31.572  1.00  0.00     0.163 HD
ATOM     37  O   UNL A   1      36.102  30.093  32.106  1.00  0.00    -0.269 OA
BRANCH  35  38
ATOM     38  C   UNL A   1      38.012  30.414  30.775  1.00  0.00     0.039 A 
ATOM     39  C   UNL A   1      39.030  30.043  31.654  1.00  0.00     0.014 A 
ATOM     40  C   UNL A   1      38.246  30.439  29.396  1.00  0.00     0.014 A 
ATOM     41  C   UNL A   1      40.277  29.675  31.148  1.00  0.00     0.010 A 
ATOM     42  C   UNL A   1      39.459  29.990  28.890  1.00  0.00     0.010 A 
ATOM     43  C   UNL A   1      40.495  29.627  29.760  1.00  0.00    -0.014 A 
BRANCH  43  44
ATOM     44  C   UNL A   1      41.814  29.223  29.213  1.00  0.00     0.031 A 
ATOM     45  C   UNL A   1      42.944  30.216  29.152  1.00  0.00     0.074 A 
ATOM     46  C   UNL A   1      41.982  27.970  28.751  1.00  0.00     0.049 A 
ATOM     47  N   UNL A   1      44.164  30.050  28.709  1.00  0.00    -0.248 NA
ATOM     48  C   UNL A   1      42.659  31.581  29.622  1.00  0.00     0.031 C 
ATOM     49  C   UNL A   1      40.944  26.935  28.719  1.00  0.00     0.029 A 
ATOM     50  N   UNL A   1      43.085  27.349  28.223  1.00  0.00    -0.354 N 
ATOM     51  C   UNL A   1      44.788  31.285  28.847  1.00  0.00     0.074 A 
ATOM     52  C   UNL A   1      43.792  32.207  29.344  1.00  0.00     0.031 C 
ATOM     53  C   UNL A   1      41.473  25.798  28.241  1.00  0.00     0.029 A 
ATOM     54  C   UNL A   1      42.871  26.031  27.893  1.00  0.00     0.049 A 
ATOM     55  H   UNL A   1      43.948  27.803  28.094  1.00  0.00     0.167 HD
ATOM     56  C   UNL A   1      46.082  31.611  28.613  1.00  0.00     0.037 A 
ATOM     57  C   UNL A   1      43.709  25.114  27.372  1.00  0.00     0.037 A 
ATOM     58  C   UNL A   1      47.066  30.680  28.126  1.00  0.00     0.049 A 
ATOM     59  C   UNL A   1      45.134  25.506  27.094  1.00  0.00     0.074 A 
ATOM     60  C   UNL A   1      48.412  30.895  27.889  1.00  0.00     0.029 A 
ATOM     61  N   UNL A   1      46.809  29.357  27.795  1.00  0.00    -0.354 N 
ATOM     62  N   UNL A   1      45.725  26.662  27.287  1.00  0.00    -0.248 NA
ATOM     63  C   UNL A   1      46.010  24.468  26.535  1.00  0.00     0.031 C 
ATOM     64  C   UNL A   1      48.956  29.719  27.361  1.00  0.00     0.029 A 
ATOM     65  C   UNL A   1      47.965  28.750  27.332  1.00  0.00     0.049 A 
ATOM     66  H   UNL A   1      45.934  28.914  27.877  1.00  0.00     0.167 HD
ATOM     67  C   UNL A   1      47.050  26.480  26.908  1.00  0.00     0.074 A 
ATOM     68  C   UNL A   1      47.173  25.101  26.480  1.00  0.00     0.031 C 
ATOM     69  C   UNL A   1      48.073  27.373  26.916  1.00  0.00     0.037 A 
BRANCH  56  70
ATOM     70  C   UNL A   1      46.499  33.035  28.876  1.00  0.00     0.058 A 
ATOM     71  C   UNL A   1      46.437  34.021  27.877  1.00  0.00     0.135 A 
ATOM     72  C   UNL A   1      46.951  33.426  30.148  1.00  0.00     0.135 A 
ATOM     73  F   UNL A   1      46.025  33.705  26.638  1.00  0.00    -0.206 F 
ATOM     74  C   UNL A   1      46.853  35.328  28.114  1.00  0.00     0.059 A 
ATOM     75  C   UNL A   1      47.338  34.736  30.418  1.00  0.00     0.059 A 
ATOM     76  F   UNL A   1      47.030  32.528  31.143  1.00  0.00    -0.206 F 
ATOM     77  C   UNL A   1      47.305  35.674  29.388  1.00  0.00     0.060 A 
BRANCH  77  78
ATOM     78  S   UNL A   1      47.856  37.369  29.673  1.00  0.00     0.124 S 
ATOM     79  O   UNL A   1      47.958  37.876  28.307  1.00  0.00    -0.237 OA
ATOM     80  O   UNL A   1      46.768  37.920  30.475  1.00  0.00    -0.237 OA
ATOM     81  O   UNL A   1      49.126  37.202  30.374  1.00  0.00    -0.744 OA
ENDBRANCH  77  78
ENDBRANCH  56  70
BRANCH  57  82
ATOM     82  C   UNL A   1      43.227  23.730  27.121  1.00  0.00     0.058 A 
ATOM     83  C   UNL A   1      42.957  23.287  25.817  1.00  0.00     0.135 A 
ATOM     84  C   UNL A   1      43.054  22.814  28.170  1.00  0.00     0.135 A 
ATOM     85  F   UNL A   1      43.103  24.125  24.780  1.00  0.00    -0.206 F 
ATOM     86  C   UNL A   1      42.518  21.991  25.564  1.00  0.00     0.059 A 
ATOM     87  C   UNL A   1      42.644  21.505  27.939  1.00  0.00     0.059 A 
ATOM     88  F   UNL A   1      43.316  23.182  29.434  1.00  0.00    -0.206 F 
ATOM     89  C   UNL A   1      42.371  21.105  26.632  1.00  0.00     0.060 A 
BRANCH  89  90
ATOM     90  S   UNL A   1      41.854  19.411  26.284  1.00  0.00     0.124 S 
ATOM     91  O   UNL A   1      42.258  18.723  27.505  1.00  0.00    -0.237 OA
ATOM     92  O   UNL A   1      40.418  19.566  26.081  1.00  0.00    -0.237 OA
ATOM     93  O   UNL A   1      42.615  19.067  25.086  1.00  0.00    -0.744 OA
ENDBRANCH  89  90
ENDBRANCH  57  82
BRANCH  69  94
ATOM     94  C   UNL A   1      49.429  26.876  26.491  1.00  0.00     0.058 A 
ATOM     95  C   UNL A   1      50.348  26.346  27.409  1.00  0.00     0.135 A 
ATOM     96  C   UNL A   1      49.789  26.883  25.133  1.00  0.00     0.135 A 
ATOM     97  F   UNL A   1      50.058  26.321  28.720  1.00  0.00    -0.206 F 
ATOM     98  C   UNL A   1      51.588  25.865  27.000  1.00  0.00     0.059 A 
ATOM     99  C   UNL A   1      51.008  26.376  24.697  1.00  0.00     0.059 A 
ATOM    100  F   UNL A   1      48.942  27.369  24.211  1.00  0.00    -0.206 F 
ATOM    101  C   UNL A   1      51.907  25.879  25.640  1.00  0.00     0.060 A 
BRANCH 101 102
ATOM    102  S   UNL A   1      53.503  25.218  25.121  1.00  0.00     0.124 S 
ATOM    103  O   UNL A   1      53.623  25.761  23.772  1.00  0.00    -0.237 OA
ATOM    104  O   UNL A   1      54.411  25.781  26.115  1.00  0.00    -0.237 OA
ATOM    105  O   UNL A   1      53.315  23.772  25.201  1.00  0.00    -0.744 OA
ENDBRANCH 101 102
ENDBRANCH  69  94
ENDBRANCH  43  44
ENDBRANCH  35  38
ENDBRANCH  33  34
ENDBRANCH  32  33
ENDBRANCH  31  32
ENDBRANCH   1  31
TORSDOF 20
ENDMDL
MODEL 2
REMARK VINA RESULT:     -12.0      2.856      9.533
REMARK SMILES O=C(CC1(C(=O)NCCCCCCNC(=O)c2ccc(-c3c4nc(c(-c5c(F)cc(S(=O)(=O)[O-])cc5F)c5ccc([nH]5)c(-c5c(F)cc(S(=O)(=O)[O-])cc5F)c5nc(c(-c6c(F)cc(S(=O)(=O)[O-])cc6F)c6ccc3[nH]6)C=C5)C=C4)cc2)CCCCC1)Nc1ccc(N2CCOC2=O)cc1
REMARK SMILES IDX 10 1 9 2 8 3 7 4 5 5 6 6 4 8 83 9 87 10 84 11 86 12 85 13
REMARK SMILES IDX 3 14 2 15 1 16 88 17 89 19 90 20 100 21 91 22 99 23 92 24
REMARK SMILES IDX 93 25 94 26 97 27 95 28 96 29 98 30 11 31 12 32 13 33 14 34
REMARK SMILES IDX 15 35 16 37 17 38 18 39 82 40 19 41 81 42 20 43 21 44 22 45
REMARK SMILES IDX 75 46 23 47 80 48 74 49 76 50 24 51 79 52 73 53 72 54 25 56
REMARK SMILES IDX 59 57 38 58 58 59 39 60 42 61 57 62 77 63 40 64 41 65 56 67
REMARK SMILES IDX 78 68 43 69 26 70 27 71 36 72 28 73 29 74 35 75 37 76 30 77
REMARK SMILES IDX 31 78 32 79 33 80 34 81 60 82 61 83 70 84 62 85 63 86 69 87
REMARK SMILES IDX 71 88 64 89 65 90 66 91 67 92 68 93 44 94 45 95 54 96 46 97
REMARK SMILES IDX 47 98 53 99 55 100 48 101 49 102 50 103 51 104 52 105
REMARK H PARENT 7 7 88 18 14 36 76 55 42 66
REMARK Flexibility Score: inf
ROOT
ATOM      1  C   UNL A   1      40.042  22.492  26.829  1.00  0.00     0.002 C 
ENDROOT
BRANCH   1   2
ATOM      2  C   UNL A   1      38.799  21.948  26.129  1.00  0.00     0.021 C 
BRANCH   2   3
ATOM      3  C   UNL A   1      37.826  23.041  25.703  1.00  0.00     0.116 C 
BRANCH   3   4
ATOM      4  N   UNL A   1      37.382  22.880  24.350  1.00  0.00    -0.356 N 
ATOM      5  C   UNL A   1      36.184  22.995  23.745  1.00  0.00     0.226 C 
ATOM      6  O   UNL A   1      36.271  22.953  22.509  1.00  0.00    -0.274 OA
ATOM      7  H   UNL A   1      38.107  22.632  23.731  1.00  0.00     0.163 HD
BRANCH   5   8
ATOM      8  C   UNL A   1      34.792  23.172  24.449  1.00  0.00     0.058 C 
ATOM      9  C   UNL A   1      34.587  22.207  25.637  1.00  0.00     0.017 C 
ATOM     10  C   UNL A   1      33.585  23.122  23.483  1.00  0.00     0.017 C 
ATOM     11  C   UNL A   1      33.951  20.848  25.342  1.00  0.00     0.001 C 
ATOM     12  C   UNL A   1      32.925  21.791  23.160  1.00  0.00     0.001 C 
ATOM     13  C   UNL A   1      32.772  20.877  24.370  1.00  0.00     0.000 C 
BRANCH   8  14
ATOM     14  C   UNL A   1      34.937  24.646  25.043  1.00  0.00     0.117 C 
BRANCH  14  15
ATOM     15  C   UNL A   1      33.701  25.518  25.179  1.00  0.00     0.225 C 
ATOM     16  O   UNL A   1      32.846  25.298  26.031  1.00  0.00    -0.275 OA
ATOM     17  N   UNL A   1      33.653  26.525  24.229  1.00  0.00    -0.326 N 
ATOM     18  H   UNL A   1      34.452  26.678  23.673  1.00  0.00     0.169 HD
BRANCH  17  19
ATOM     19  C   UNL A   1      32.535  27.335  24.016  1.00  0.00     0.041 A 
ATOM     20  C   UNL A   1      31.759  27.099  22.878  1.00  0.00     0.028 A 
ATOM     21  C   UNL A   1      32.218  28.373  24.884  1.00  0.00     0.028 A 
ATOM     22  C   UNL A   1      30.620  27.868  22.643  1.00  0.00     0.028 A 
ATOM     23  C   UNL A   1      31.153  29.217  24.578  1.00  0.00     0.028 A 
ATOM     24  C   UNL A   1      30.335  28.956  23.473  1.00  0.00     0.047 A 
BRANCH  24  25
ATOM     25  N   UNL A   1      29.227  29.774  23.219  1.00  0.00    -0.274 N 
ATOM     26  C   UNL A   1      29.287  31.197  23.164  1.00  0.00     0.171 C 
ATOM     27  C   UNL A   1      27.934  29.337  23.035  1.00  0.00     0.414 C 
ATOM     28  C   UNL A   1      27.980  31.527  22.486  1.00  0.00     0.257 C 
ATOM     29  O   UNL A   1      27.127  30.410  22.758  1.00  0.00    -0.447 OA
ATOM     30  O   UNL A   1      27.502  28.196  23.135  1.00  0.00    -0.224 OA
ENDBRANCH  24  25
ENDBRANCH  17  19
ENDBRANCH  14  15
ENDBRANCH   8  14
ENDBRANCH   5   8
ENDBRANCH   3   4
ENDBRANCH   2   3
ENDBRANCH   1   2
BRANCH   1  31
ATOM     31  C   UNL A   1      41.037  21.414  27.281  1.00  0.00     0.002 C 
BRANCH  31  32
ATOM     32  C   UNL A   1      41.211  20.239  26.312  1.00  0.00     0.021 C 
BRANCH  32  33
ATOM     33  C   UNL A   1      42.281  19.235  26.726  1.00  0.00     0.116 C 
BRANCH  33  34
ATOM     34  N   UNL A   1      43.165  18.915  25.619  1.00  0.00    -0.352 N 
ATOM     35  C   UNL A   1      43.915  19.742  24.828  1.00  0.00     0.251 C 
ATOM     36  H   UNL A   1      43.235  17.957  25.403  1.00  0.00     0.163 HD
ATOM     37  O   UNL A   1      44.373  19.319  23.771  1.00  0.00    -0.269 OA
BRANCH  35  38
ATOM     38  C   UNL A   1      44.176  21.133  25.252  1.00  0.00     0.039 A 
ATOM     39  C   UNL A   1      43.796  22.176  24.406  1.00  0.00     0.014 A 
ATOM     40  C   UNL A   1      44.837  21.407  26.453  1.00  0.00     0.014 A 
ATOM     41  C   UNL A   1      44.059  23.494  24.776  1.00  0.00     0.010 A 
ATOM     42  C   UNL A   1      45.021  22.722  26.861  1.00  0.00     0.010 A 
ATOM     43  C   UNL A   1      44.657  23.779  26.016  1.00  0.00    -0.014 A 
BRANCH  43  44
ATOM     44  C   UNL A   1      44.927  25.180  26.424  1.00  0.00     0.031 A 
ATOM     45  C   UNL A   1      46.325  25.733  26.351  1.00  0.00     0.074 A 
ATOM     46  C   UNL A   1      43.916  25.941  26.884  1.00  0.00     0.049 A 
ATOM     47  N   UNL A   1      46.756  26.928  26.663  1.00  0.00    -0.248 NA
ATOM     48  C   UNL A   1      47.382  24.816  25.894  1.00  0.00     0.031 C 
ATOM     49  C   UNL A   1      42.528  25.497  27.041  1.00  0.00     0.029 A 
ATOM     50  N   UNL A   1      43.895  27.248  27.299  1.00  0.00    -0.354 N 
ATOM     51  C   UNL A   1      48.129  26.906  26.441  1.00  0.00     0.074 A 
ATOM     52  C   UNL A   1      48.469  25.558  26.041  1.00  0.00     0.031 C 
ATOM     53  C   UNL A   1      41.785  26.526  27.475  1.00  0.00     0.029 A 
ATOM     54  C   UNL A   1      42.646  27.688  27.669  1.00  0.00     0.049 A 
ATOM     55  H   UNL A   1      44.698  27.816  27.329  1.00  0.00     0.167 HD
ATOM     56  C   UNL A   1      49.019  27.923  26.532  1.00  0.00     0.037 A 
ATOM     57  C   UNL A   1      42.241  28.895  28.110  1.00  0.00     0.037 A 
ATOM     58  C   UNL A   1      48.665  29.262  26.923  1.00  0.00     0.049 A 
ATOM     59  C   UNL A   1      43.251  30.003  28.228  1.00  0.00     0.074 A 
ATOM     60  C   UNL A   1      49.480  30.377  27.012  1.00  0.00     0.029 A 
ATOM     61  N   UNL A   1      47.391  29.667  27.298  1.00  0.00    -0.354 N 
ATOM     62  N   UNL A   1      44.535  29.981  27.957  1.00  0.00    -0.248 NA
ATOM     63  C   UNL A   1      42.757  31.301  28.706  1.00  0.00     0.031 C 
ATOM     64  C   UNL A   1      48.711  31.442  27.496  1.00  0.00     0.029 A 
ATOM     65  C   UNL A   1      47.403  31.009  27.644  1.00  0.00     0.049 A 
ATOM     66  H   UNL A   1      46.597  29.087  27.317  1.00  0.00     0.167 HD
ATOM     67  C   UNL A   1      44.995  31.272  28.196  1.00  0.00     0.074 A 
ATOM     68  C   UNL A   1      43.850  32.048  28.627  1.00  0.00     0.031 C 
ATOM     69  C   UNL A   1      46.251  31.769  28.065  1.00  0.00     0.037 A 
BRANCH  56  70
ATOM     70  C   UNL A   1      50.458  27.619  26.205  1.00  0.00     0.058 A 
ATOM     71  C   UNL A   1      51.394  27.304  27.205  1.00  0.00     0.135 A 
ATOM     72  C   UNL A   1      50.908  27.627  24.874  1.00  0.00     0.135 A 
ATOM     73  F   UNL A   1      51.026  27.293  28.497  1.00  0.00    -0.206 F 
ATOM     74  C   UNL A   1      52.729  27.056  26.904  1.00  0.00     0.059 A 
ATOM     75  C   UNL A   1      52.232  27.346  24.546  1.00  0.00     0.059 A 
ATOM     76  F   UNL A   1      50.060  27.918  23.875  1.00  0.00    -0.206 F 
ATOM     77  C   UNL A   1      53.139  27.082  25.571  1.00  0.00     0.060 A 
BRANCH  77  78
ATOM     78  S   UNL A   1      54.878  26.774  25.199  1.00  0.00     0.124 S 
ATOM     79  O   UNL A   1      54.781  25.664  24.254  1.00  0.00    -0.237 OA
ATOM     80  O   UNL A   1      55.307  28.050  24.636  1.00  0.00    -0.237 OA
ATOM     81  O   UNL A   1      55.451  26.439  26.499  1.00  0.00    -0.744 OA
ENDBRANCH  77  78
ENDBRANCH  56  70
BRANCH  57  82
ATOM     82  C   UNL A   1      40.807  29.122  28.431  1.00  0.00     0.058 A 
ATOM     83  C   UNL A   1      40.364  29.163  29.762  1.00  0.00     0.135 A 
ATOM     84  C   UNL A   1      39.855  29.330  27.420  1.00  0.00     0.135 A 
ATOM     85  F   UNL A   1      41.234  28.967  30.764  1.00  0.00    -0.206 F 
ATOM     86  C   UNL A   1      39.028  29.388  30.080  1.00  0.00     0.059 A 
ATOM     87  C   UNL A   1      38.519  29.584  27.714  1.00  0.00     0.059 A 
ATOM     88  F   UNL A   1      40.230  29.318  26.131  1.00  0.00    -0.206 F 
ATOM     89  C   UNL A   1      38.114  29.604  29.048  1.00  0.00     0.060 A 
BRANCH  89  90
ATOM     90  S   UNL A   1      36.394  29.949  29.475  1.00  0.00     0.124 S 
ATOM     91  O   UNL A   1      36.280  29.306  30.779  1.00  0.00    -0.237 OA
ATOM     92  O   UNL A   1      36.368  31.408  29.476  1.00  0.00    -0.237 OA
ATOM     93  O   UNL A   1      35.646  29.317  28.392  1.00  0.00    -0.744 OA
ENDBRANCH  89  90
ENDBRANCH  57  82
BRANCH  69  94
ATOM     94  C   UNL A   1      46.449  33.235  28.350  1.00  0.00     0.058 A 
ATOM     95  C   UNL A   1      46.403  34.202  27.334  1.00  0.00     0.135 A 
ATOM     96  C   UNL A   1      46.633  33.678  29.670  1.00  0.00     0.135 A 
ATOM     97  F   UNL A   1      46.236  33.832  26.054  1.00  0.00    -0.206 F 
ATOM     98  C   UNL A   1      46.559  35.556  27.615  1.00  0.00     0.059 A 
ATOM     99  C   UNL A   1      46.757  35.029  29.977  1.00  0.00     0.059 A 
ATOM    100  F   UNL A   1      46.673  32.796  30.681  1.00  0.00    -0.206 F 
ATOM    101  C   UNL A   1      46.731  35.960  28.940  1.00  0.00     0.060 A 
BRANCH 101 102
ATOM    102  S   UNL A   1      46.895  37.723  29.291  1.00  0.00     0.124 S 
ATOM    103  O   UNL A   1      47.706  38.173  28.165  1.00  0.00    -0.237 OA
ATOM    104  O   UNL A   1      45.506  38.170  29.293  1.00  0.00    -0.237 OA
ATOM    105  O   UNL A   1      47.557  37.750  30.593  1.00  0.00    -0.744 OA
ENDBRANCH 101 102
ENDBRANCH  69  94
ENDBRANCH  43  44
ENDBRANCH  35  38
ENDBRANCH  33  34
ENDBRANCH  32  33
ENDBRANCH  31  32
ENDBRANCH   1  31
TORSDOF 20
ENDMDL
MODEL 3
REMARK VINA RESULT:     -11.9      6.345     12.138
REMARK SMILES O=C(CC1(C(=O)NCCCCCCNC(=O)c2ccc(-c3c4nc(c(-c5c(F)cc(S(=O)(=O)[O-])cc5F)c5ccc([nH]5)c(-c5c(F)cc(S(=O)(=O)[O-])cc5F)c5nc(c(-c6c(F)cc(S(=O)(=O)[O-])cc6F)c6ccc3[nH]6)C=C5)C=C4)cc2)CCCCC1)Nc1ccc(N2CCOC2=O)cc1
REMARK SMILES IDX 10 1 9 2 8 3 7 4 5 5 6 6 4 8 83 9 87 10 84 11 86 12 85 13
REMARK SMILES IDX 3 14 2 15 1 16 88 17 89 19 90 20 100 21 91 22 99 23 92 24
REMARK SMILES IDX 93 25 94 26 97 27 95 28 96 29 98 30 11 31 12 32 13 33 14 34
REMARK SMILES IDX 15 35 16 37 17 38 18 39 82 40 19 41 81 42 20 43 21 44 22 45
REMARK SMILES IDX 75 46 23 47 80 48 74 49 76 50 24 51 79 52 73 53 72 54 25 56
REMARK SMILES IDX 59 57 38 58 58 59 39 60 42 61 57 62 77 63 40 64 41 65 56 67
REMARK SMILES IDX 78 68 43 69 26 70 27 71 36 72 28 73 29 74 35 75 37 76 30 77
REMARK SMILES IDX 31 78 32 79 33 80 34 81 60 82 61 83 70 84 62 85 63 86 69 87
REMARK SMILES IDX 71 88 64 89 65 90 66 91 67 92 68 93 44 94 45 95 54 96 46 97
REMARK SMILES IDX 47 98 53 99 55 100 48 101 49 102 50 103 51 104 52 105
REMARK H PARENT 7 7 88 18 14 36 76 55 42 66
REMARK Flexibility Score: inf
ROOT
ATOM      1  C   UNL A   1      37.345  23.301  24.618  1.00  0.00     0.002 C 
ENDROOT
BRANCH   1   2
ATOM      2  C   UNL A   1      36.580  22.644  23.471  1.00  0.00     0.021 C 
BRANCH   2   3
ATOM      3  C   UNL A   1      35.185  23.224  23.273  1.00  0.00     0.116 C 
BRANCH   3   4
ATOM      4  N   UNL A   1      34.830  24.157  24.302  1.00  0.00    -0.356 N 
ATOM      5  C   UNL A   1      33.787  24.251  25.150  1.00  0.00     0.226 C 
ATOM      6  O   UNL A   1      33.961  25.119  26.018  1.00  0.00    -0.274 OA
ATOM      7  H   UNL A   1      35.486  24.883  24.411  1.00  0.00     0.163 HD
BRANCH   5   8
ATOM      8  C   UNL A   1      32.471  23.397  25.118  1.00  0.00     0.058 C 
ATOM      9  C   UNL A   1      32.700  21.917  25.500  1.00  0.00     0.017 C 
ATOM     10  C   UNL A   1      31.677  23.508  23.795  1.00  0.00     0.017 C 
ATOM     11  C   UNL A   1      33.030  20.939  24.372  1.00  0.00     0.001 C 
ATOM     12  C   UNL A   1      31.976  22.558  22.648  1.00  0.00     0.001 C 
ATOM     13  C   UNL A   1      32.213  21.119  23.093  1.00  0.00     0.000 C 
BRANCH   8  14
ATOM     14  C   UNL A   1      31.639  24.077  26.297  1.00  0.00     0.117 C 
BRANCH  14  15
ATOM     15  C   UNL A   1      30.851  25.345  26.016  1.00  0.00     0.225 C 
ATOM     16  O   UNL A   1      29.758  25.554  26.534  1.00  0.00    -0.275 OA
ATOM     17  N   UNL A   1      31.486  26.176  25.109  1.00  0.00    -0.326 N 
ATOM     18  H   UNL A   1      32.412  25.961  24.851  1.00  0.00     0.169 HD
BRANCH  17  19
ATOM     19  C   UNL A   1      30.886  27.301  24.538  1.00  0.00     0.041 A 
ATOM     20  C   UNL A   1      31.293  28.562  24.984  1.00  0.00     0.028 A 
ATOM     21  C   UNL A   1      29.886  27.180  23.582  1.00  0.00     0.028 A 
ATOM     22  C   UNL A   1      30.738  29.710  24.422  1.00  0.00     0.028 A 
ATOM     23  C   UNL A   1      29.246  28.326  23.114  1.00  0.00     0.028 A 
ATOM     24  C   UNL A   1      29.684  29.595  23.511  1.00  0.00     0.047 A 
BRANCH  24  25
ATOM     25  N   UNL A   1      29.075  30.738  22.977  1.00  0.00    -0.274 N 
ATOM     26  C   UNL A   1      29.011  31.992  23.651  1.00  0.00     0.171 C 
ATOM     27  C   UNL A   1      28.421  30.806  21.766  1.00  0.00     0.414 C 
ATOM     28  C   UNL A   1      28.644  32.922  22.521  1.00  0.00     0.257 C 
ATOM     29  O   UNL A   1      27.999  32.092  21.549  1.00  0.00    -0.447 OA
ATOM     30  O   UNL A   1      28.182  29.893  20.986  1.00  0.00    -0.224 OA
ENDBRANCH  24  25
ENDBRANCH  17  19
ENDBRANCH  14  15
ENDBRANCH   8  14
ENDBRANCH   5   8
ENDBRANCH   3   4
ENDBRANCH   2   3
ENDBRANCH   1   2
BRANCH   1  31
ATOM     31  C   UNL A   1      37.618  22.374  25.811  1.00  0.00     0.002 C 
BRANCH  31  32
ATOM     32  C   UNL A   1      39.082  22.297  26.256  1.00  0.00     0.021 C 
BRANCH  32  33
ATOM     33  C   UNL A   1      39.636  23.598  26.826  1.00  0.00     0.116 C 
BRANCH  33  34
ATOM     34  N   UNL A   1      40.725  24.112  26.013  1.00  0.00    -0.352 N 
ATOM     35  C   UNL A   1      41.326  25.342  26.029  1.00  0.00     0.251 C 
ATOM     36  H   UNL A   1      41.086  23.481  25.350  1.00  0.00     0.163 HD
ATOM     37  O   UNL A   1      42.031  25.684  25.084  1.00  0.00    -0.269 OA
BRANCH  35  38
ATOM     38  C   UNL A   1      41.130  26.245  27.181  1.00  0.00     0.039 A 
ATOM     39  C   UNL A   1      41.858  27.435  27.232  1.00  0.00     0.014 A 
ATOM     40  C   UNL A   1      40.273  25.898  28.229  1.00  0.00     0.014 A 
ATOM     41  C   UNL A   1      41.707  28.288  28.326  1.00  0.00     0.010 A 
ATOM     42  C   UNL A   1      40.059  26.788  29.275  1.00  0.00     0.010 A 
ATOM     43  C   UNL A   1      40.791  27.980  29.347  1.00  0.00    -0.014 A 
BRANCH  43  44
ATOM     44  C   UNL A   1      40.614  28.889  30.506  1.00  0.00     0.031 A 
ATOM     45  C   UNL A   1      41.506  28.760  31.713  1.00  0.00     0.074 A 
ATOM     46  C   UNL A   1      39.634  29.811  30.479  1.00  0.00     0.049 A 
ATOM     47  N   UNL A   1      41.504  29.459  32.818  1.00  0.00    -0.248 NA
ATOM     48  C   UNL A   1      42.513  27.686  31.685  1.00  0.00     0.031 C 
ATOM     49  C   UNL A   1      38.681  29.999  29.382  1.00  0.00     0.029 A 
ATOM     50  N   UNL A   1      39.278  30.768  31.395  1.00  0.00    -0.354 N 
ATOM     51  C   UNL A   1      42.504  28.912  33.614  1.00  0.00     0.074 A 
ATOM     52  C   UNL A   1      43.040  27.776  32.897  1.00  0.00     0.031 C 
ATOM     53  C   UNL A   1      37.879  31.035  29.670  1.00  0.00     0.029 A 
ATOM     54  C   UNL A   1      38.230  31.559  30.987  1.00  0.00     0.049 A 
ATOM     55  H   UNL A   1      39.730  30.878  32.262  1.00  0.00     0.167 HD
ATOM     56  C   UNL A   1      42.956  29.336  34.818  1.00  0.00     0.037 A 
ATOM     57  C   UNL A   1      37.624  32.592  31.603  1.00  0.00     0.037 A 
ATOM     58  C   UNL A   1      42.419  30.474  35.518  1.00  0.00     0.049 A 
ATOM     59  C   UNL A   1      38.124  33.030  32.952  1.00  0.00     0.074 A 
ATOM     60  C   UNL A   1      42.826  31.013  36.725  1.00  0.00     0.029 A 
ATOM     61  N   UNL A   1      41.352  31.244  35.076  1.00  0.00    -0.354 N 
ATOM     62  N   UNL A   1      39.111  32.539  33.665  1.00  0.00    -0.248 NA
ATOM     63  C   UNL A   1      37.435  34.166  33.578  1.00  0.00     0.031 C 
ATOM     64  C   UNL A   1      41.970  32.074  37.041  1.00  0.00     0.029 A 
ATOM     65  C   UNL A   1      41.071  32.239  35.998  1.00  0.00     0.049 A 
ATOM     66  H   UNL A   1      40.866  31.104  34.232  1.00  0.00     0.167 HD
ATOM     67  C   UNL A   1      39.185  33.330  34.806  1.00  0.00     0.074 A 
ATOM     68  C   UNL A   1      38.147  34.333  34.683  1.00  0.00     0.031 C 
ATOM     69  C   UNL A   1      40.037  33.236  35.858  1.00  0.00     0.037 A 
BRANCH  56  70
ATOM     70  C   UNL A   1      44.083  28.561  35.452  1.00  0.00     0.058 A 
ATOM     71  C   UNL A   1      45.429  28.851  35.172  1.00  0.00     0.135 A 
ATOM     72  C   UNL A   1      43.817  27.524  36.361  1.00  0.00     0.135 A 
ATOM     73  F   UNL A   1      45.746  29.824  34.301  1.00  0.00    -0.206 F 
ATOM     74  C   UNL A   1      46.467  28.113  35.733  1.00  0.00     0.059 A 
ATOM     75  C   UNL A   1      44.840  26.795  36.962  1.00  0.00     0.059 A 
ATOM     76  F   UNL A   1      42.550  27.201  36.669  1.00  0.00    -0.206 F 
ATOM     77  C   UNL A   1      46.161  27.085  36.625  1.00  0.00     0.060 A 
BRANCH  77  78
ATOM     78  S   UNL A   1      47.518  26.126  37.331  1.00  0.00     0.124 S 
ATOM     79  O   UNL A   1      46.793  25.098  38.071  1.00  0.00    -0.237 OA
ATOM     80  O   UNL A   1      48.229  25.669  36.140  1.00  0.00    -0.237 OA
ATOM     81  O   UNL A   1      48.234  27.100  38.150  1.00  0.00    -0.744 OA
ENDBRANCH  77  78
ENDBRANCH  56  70
BRANCH  57  82
ATOM     82  C   UNL A   1      36.505  33.303  30.928  1.00  0.00     0.058 A 
ATOM     83  C   UNL A   1      35.185  33.164  31.382  1.00  0.00     0.135 A 
ATOM     84  C   UNL A   1      36.734  34.155  29.836  1.00  0.00     0.135 A 
ATOM     85  F   UNL A   1      34.914  32.358  32.419  1.00  0.00    -0.206 F 
ATOM     86  C   UNL A   1      34.129  33.833  30.770  1.00  0.00     0.059 A 
ATOM     87  C   UNL A   1      35.699  34.857  29.226  1.00  0.00     0.059 A 
ATOM     88  F   UNL A   1      37.981  34.337  29.374  1.00  0.00    -0.206 F 
ATOM     89  C   UNL A   1      34.398  34.682  29.696  1.00  0.00     0.060 A 
BRANCH  89  90
ATOM     90  S   UNL A   1      33.027  35.587  28.946  1.00  0.00     0.124 S 
ATOM     91  O   UNL A   1      32.405  34.553  28.127  1.00  0.00    -0.237 OA
ATOM     92  O   UNL A   1      32.271  36.018  30.117  1.00  0.00    -0.237 OA
ATOM     93  O   UNL A   1      33.693  36.658  28.210  1.00  0.00    -0.744 OA
ENDBRANCH  89  90
ENDBRANCH  57  82
BRANCH  69  94
ATOM     94  C   UNL A   1      39.915  34.272  36.944  1.00  0.00     0.058 A 
ATOM     95  C   UNL A   1      39.101  34.078  38.069  1.00  0.00     0.135 A 
ATOM     96  C   UNL A   1      40.671  35.455  36.877  1.00  0.00     0.135 A 
ATOM     97  F   UNL A   1      38.353  32.968  38.180  1.00  0.00    -0.206 F 
ATOM     98  C   UNL A   1      39.019  35.031  39.079  1.00  0.00     0.059 A 
ATOM     99  C   UNL A   1      40.631  36.406  37.891  1.00  0.00     0.059 A 
ATOM    100  F   UNL A   1      41.476  35.686  35.827  1.00  0.00    -0.206 F 
ATOM    101  C   UNL A   1      39.792  36.191  38.983  1.00  0.00     0.060 A 
BRANCH 101 102
ATOM    102  S   UNL A   1      39.702  37.401  40.319  1.00  0.00     0.124 S 
ATOM    103  O   UNL A   1      38.289  37.763  40.294  1.00  0.00    -0.237 OA
ATOM    104  O   UNL A   1      40.138  36.622  41.474  1.00  0.00    -0.237 OA
ATOM    105  O   UNL A   1      40.626  38.448  39.892  1.00  0.00    -0.744 OA
ENDBRANCH 101 102
ENDBRANCH  69  94
ENDBRANCH  43  44
ENDBRANCH  35  38
ENDBRANCH  33  34
ENDBRANCH  32  33
ENDBRANCH  31  32
ENDBRANCH   1  31
TORSDOF 20
ENDMDL
