MODEL 1
REMARK VINA RESULT:     -11.0      0.000      0.000
REMARK SMILES COc1ccc(-c2cc3c(N4CCC[C@@H](C(=O)NCCCCCCNC(=O)c5ccc(-c6c7nc(c(-c8c(F)cc(S(=O)(=O)[O-])cc8F)c8ccc([nH]8)c(-c8c(F)cc(S(=O)(=O)[O-])cc8F)c8nc(c(-c9c(F)cc(S(=O)(=O)[O-])cc9F)c9ccc6[nH]9)C=C8)C=C7)cc5)C4)nccn3n2)cc1OC
REMARK SMILES IDX 21 1 20 2 19 3 18 4 16 5 17 6 15 8 11 9 12 10 94 11 13 12
REMARK SMILES IDX 14 13 10 14 7 15 8 16 99 17 9 18 98 19 97 20 95 21 96 22
REMARK SMILES IDX 6 23 3 24 4 25 101 26 5 27 100 28 2 29 1 30 102 31 103 32
REMARK SMILES IDX 22 33 23 34 24 35 25 36 26 37 27 39 28 40 29 41 93 42 30 43
REMARK SMILES IDX 92 44 31 45 32 46 33 47 86 48 34 49 91 50 85 51 87 52 35 53
REMARK SMILES IDX 90 54 84 55 83 56 36 58 70 59 49 60 69 61 50 62 53 63 68 64
REMARK SMILES IDX 88 65 51 66 52 67 67 69 89 70 54 71 37 72 38 73 47 74 39 75
REMARK SMILES IDX 40 76 46 77 48 78 41 79 42 80 43 81 44 82 45 83 71 84 72 85
REMARK SMILES IDX 81 86 73 87 74 88 80 89 82 90 75 91 76 92 77 93 78 94 79 95
REMARK SMILES IDX 55 96 56 97 65 98 57 99 58 100 64 101 66 102 59 103 60 104
REMARK SMILES IDX 61 105 62 106 63 107
REMARK H PARENT 18 7 25 38 87 57 53 68
REMARK Flexibility Score: inf
ROOT
ATOM      1  C   UNL A   1      33.001  27.862  25.062  1.00  0.00     0.002 C 
ENDROOT
BRANCH   1   2
ATOM      2  C   UNL A   1      32.022  26.899  25.740  1.00  0.00     0.021 C 
BRANCH   2   3
ATOM      3  C   UNL A   1      32.688  25.701  26.415  1.00  0.00     0.116 C 
BRANCH   3   4
ATOM      4  N   UNL A   1      31.706  24.822  27.027  1.00  0.00    -0.356 N 
ATOM      5  C   UNL A   1      31.295  23.581  26.629  1.00  0.00     0.224 C 
ATOM      6  O   UNL A   1      30.442  22.998  27.296  1.00  0.00    -0.275 OA
ATOM      7  H   UNL A   1      31.276  25.170  27.842  1.00  0.00     0.163 HD
BRANCH   5   8
ATOM      8  C   UNL A   1      31.936  22.970  25.401  1.00  0.00     0.098 C 
ATOM      9  N   UNL A   1      32.190  21.013  24.032  1.00  0.00    -0.354 N 
ATOM     10  C   UNL A   1      32.045  21.722  22.763  1.00  0.00     0.118 C 
ATOM     11  C   UNL A   1      31.419  21.548  25.151  1.00  0.00     0.131 C 
ATOM     12  C   UNL A   1      32.405  23.196  22.935  1.00  0.00     0.022 C 
ATOM     13  C   UNL A   1      31.700  23.817  24.139  1.00  0.00     0.017 C 
BRANCH   9  14
ATOM     14  C   UNL A   1      32.962  19.880  24.167  1.00  0.00     0.154 A 
ATOM     15  C   UNL A   1      36.415  20.401  25.216  1.00  0.00     0.094 A 
ATOM     16  C   UNL A   1      35.135  20.973  25.061  1.00  0.00     0.063 A 
ATOM     17  N   UNL A   1      36.399  19.087  24.944  1.00  0.00    -0.168 NA
ATOM     18  C   UNL A   1      34.345  19.956  24.587  1.00  0.00     0.109 A 
ATOM     19  N   UNL A   1      35.114  18.819  24.603  1.00  0.00    -0.235 N 
ATOM     20  C   UNL A   1      34.530  17.605  24.291  1.00  0.00     0.133 A 
ATOM     21  N   UNL A   1      32.428  18.704  23.923  1.00  0.00    -0.235 NA
ATOM     22  C   UNL A   1      33.226  17.580  23.983  1.00  0.00     0.133 A 
BRANCH  15  23
ATOM     23  C   UNL A   1      37.639  21.119  25.547  1.00  0.00     0.006 A 
ATOM     24  C   UNL A   1      39.932  22.544  26.316  1.00  0.00     0.160 A 
ATOM     25  C   UNL A   1      40.003  21.164  26.074  1.00  0.00     0.051 A 
ATOM     26  C   UNL A   1      38.714  23.219  26.171  1.00  0.00     0.161 A 
ATOM     27  C   UNL A   1      38.858  20.450  25.704  1.00  0.00     0.014 A 
ATOM     28  C   UNL A   1      37.580  22.498  25.776  1.00  0.00     0.060 A 
BRANCH  24  29
ATOM     29  O   UNL A   1      41.099  23.224  26.543  1.00  0.00    -0.493 OA
ATOM     30  C   UNL A   1      42.219  22.624  25.887  1.00  0.00     0.278 C 
ENDBRANCH  24  29
BRANCH  26  31
ATOM     31  O   UNL A   1      38.470  24.558  26.325  1.00  0.00    -0.493 OA
ATOM     32  C   UNL A   1      38.831  25.139  27.570  1.00  0.00     0.278 C 
ENDBRANCH  26  31
ENDBRANCH  15  23
ENDBRANCH   9  14
ENDBRANCH   5   8
ENDBRANCH   3   4
ENDBRANCH   2   3
ENDBRANCH   1   2
BRANCH   1  33
ATOM     33  C   UNL A   1      34.051  28.501  25.982  1.00  0.00     0.002 C 
BRANCH  33  34
ATOM     34  C   UNL A   1      33.897  30.007  26.244  1.00  0.00     0.021 C 
BRANCH  34  35
ATOM     35  C   UNL A   1      32.842  30.338  27.286  1.00  0.00     0.116 C 
BRANCH  35  36
ATOM     36  N   UNL A   1      32.439  31.745  27.242  1.00  0.00    -0.352 N 
ATOM     37  C   UNL A   1      32.974  32.813  27.933  1.00  0.00     0.251 C 
ATOM     38  H   UNL A   1      31.689  31.957  26.641  1.00  0.00     0.163 HD
ATOM     39  O   UNL A   1      32.336  33.854  28.077  1.00  0.00    -0.269 OA
BRANCH  37  40
ATOM     40  C   UNL A   1      34.331  32.684  28.488  1.00  0.00     0.039 A 
ATOM     41  C   UNL A   1      34.584  32.045  29.708  1.00  0.00     0.014 A 
ATOM     42  C   UNL A   1      35.370  33.208  27.731  1.00  0.00     0.014 A 
ATOM     43  C   UNL A   1      35.905  31.881  30.122  1.00  0.00     0.010 A 
ATOM     44  C   UNL A   1      36.657  32.869  28.033  1.00  0.00     0.010 A 
ATOM     45  C   UNL A   1      36.936  32.293  29.270  1.00  0.00    -0.014 A 
BRANCH  45  46
ATOM     46  C   UNL A   1      38.348  32.107  29.592  1.00  0.00     0.031 A 
ATOM     47  C   UNL A   1      38.918  30.784  29.190  1.00  0.00     0.074 A 
ATOM     48  C   UNL A   1      39.103  33.192  29.889  1.00  0.00     0.049 A 
ATOM     49  N   UNL A   1      39.538  29.911  29.915  1.00  0.00    -0.248 NA
ATOM     50  C   UNL A   1      38.657  30.318  27.813  1.00  0.00     0.031 C 
ATOM     51  C   UNL A   1      38.669  34.600  29.938  1.00  0.00     0.029 A 
ATOM     52  N   UNL A   1      40.448  33.304  30.034  1.00  0.00    -0.354 N 
ATOM     53  C   UNL A   1      39.937  28.896  29.042  1.00  0.00     0.074 A 
ATOM     54  C   UNL A   1      39.197  29.099  27.828  1.00  0.00     0.031 C 
ATOM     55  C   UNL A   1      39.741  35.412  29.821  1.00  0.00     0.029 A 
ATOM     56  C   UNL A   1      40.938  34.599  29.880  1.00  0.00     0.049 A 
ATOM     57  H   UNL A   1      41.029  32.534  30.232  1.00  0.00     0.167 HD
ATOM     58  C   UNL A   1      41.026  28.113  29.295  1.00  0.00     0.037 A 
ATOM     59  C   UNL A   1      42.239  34.965  29.752  1.00  0.00     0.037 A 
ATOM     60  C   UNL A   1      41.425  28.219  30.674  1.00  0.00     0.049 A 
ATOM     61  C   UNL A   1      43.054  33.810  30.215  1.00  0.00     0.074 A 
ATOM     62  C   UNL A   1      40.823  27.933  31.883  1.00  0.00     0.029 A 
ATOM     63  N   UNL A   1      42.482  29.047  30.964  1.00  0.00    -0.354 N 
ATOM     64  N   UNL A   1      43.047  33.360  31.442  1.00  0.00    -0.248 NA
ATOM     65  C   UNL A   1      43.500  32.861  29.207  1.00  0.00     0.031 C 
ATOM     66  C   UNL A   1      41.242  28.977  32.756  1.00  0.00     0.029 A 
ATOM     67  C   UNL A   1      42.131  29.797  32.056  1.00  0.00     0.049 A 
ATOM     68  H   UNL A   1      43.336  29.094  30.476  1.00  0.00     0.167 HD
ATOM     69  C   UNL A   1      43.092  31.977  31.320  1.00  0.00     0.074 A 
ATOM     70  C   UNL A   1      43.445  31.734  29.923  1.00  0.00     0.031 C 
ATOM     71  C   UNL A   1      42.562  31.162  32.279  1.00  0.00     0.037 A 
BRANCH  58  72
ATOM     72  C   UNL A   1      41.949  27.538  28.240  1.00  0.00     0.058 A 
ATOM     73  C   UNL A   1      42.342  26.184  28.329  1.00  0.00     0.135 A 
ATOM     74  C   UNL A   1      42.684  28.317  27.319  1.00  0.00     0.135 A 
ATOM     75  F   UNL A   1      41.716  25.343  29.167  1.00  0.00    -0.206 F 
ATOM     76  C   UNL A   1      43.434  25.670  27.625  1.00  0.00     0.059 A 
ATOM     77  C   UNL A   1      43.739  27.811  26.567  1.00  0.00     0.059 A 
ATOM     78  F   UNL A   1      42.489  29.633  27.170  1.00  0.00    -0.206 F 
ATOM     79  C   UNL A   1      44.139  26.500  26.760  1.00  0.00     0.060 A 
BRANCH  79  80
ATOM     80  S   UNL A   1      45.620  25.885  25.942  1.00  0.00     0.124 S 
ATOM     81  O   UNL A   1      45.173  24.576  25.480  1.00  0.00    -0.237 OA
ATOM     82  O   UNL A   1      45.837  26.892  24.909  1.00  0.00    -0.237 OA
ATOM     83  O   UNL A   1      46.613  25.872  27.014  1.00  0.00    -0.744 OA
ENDBRANCH  79  80
ENDBRANCH  58  72
BRANCH  59  84
ATOM     84  C   UNL A   1      42.788  36.073  28.926  1.00  0.00     0.058 A 
ATOM     85  C   UNL A   1      42.407  36.260  27.586  1.00  0.00     0.135 A 
ATOM     86  C   UNL A   1      43.516  37.129  29.515  1.00  0.00     0.135 A 
ATOM     87  F   UNL A   1      41.685  35.320  26.957  1.00  0.00    -0.206 F 
ATOM     88  C   UNL A   1      42.710  37.430  26.878  1.00  0.00     0.059 A 
ATOM     89  C   UNL A   1      43.837  38.302  28.829  1.00  0.00     0.059 A 
ATOM     90  F   UNL A   1      43.865  37.087  30.811  1.00  0.00    -0.206 F 
ATOM     91  C   UNL A   1      43.415  38.454  27.514  1.00  0.00     0.060 A 
BRANCH  91  92
ATOM     92  S   UNL A   1      43.688  40.023  26.655  1.00  0.00     0.124 S 
ATOM     93  O   UNL A   1      43.924  40.938  27.765  1.00  0.00    -0.237 OA
ATOM     94  O   UNL A   1      44.847  39.719  25.821  1.00  0.00    -0.237 OA
ATOM     95  O   UNL A   1      42.439  40.233  25.927  1.00  0.00    -0.744 OA
ENDBRANCH  91  92
ENDBRANCH  59  84
BRANCH  71  96
ATOM     96  C   UNL A   1      42.176  31.761  33.609  1.00  0.00     0.058 A 
ATOM     97  C   UNL A   1      43.084  32.050  34.644  1.00  0.00     0.135 A 
ATOM     98  C   UNL A   1      40.874  32.260  33.745  1.00  0.00     0.135 A 
ATOM     99  F   UNL A   1      44.370  31.688  34.552  1.00  0.00    -0.206 F 
ATOM    100  C   UNL A   1      42.710  32.792  35.766  1.00  0.00     0.059 A 
ATOM    101  C   UNL A   1      40.486  33.028  34.839  1.00  0.00     0.059 A 
ATOM    102  F   UNL A   1      39.976  32.069  32.763  1.00  0.00    -0.206 F 
ATOM    103  C   UNL A   1      41.409  33.289  35.848  1.00  0.00     0.060 A 
BRANCH 103 104
ATOM    104  S   UNL A   1      40.957  34.355  37.236  1.00  0.00     0.124 S 
ATOM    105  O   UNL A   1      41.572  33.665  38.365  1.00  0.00    -0.237 OA
ATOM    106  O   UNL A   1      41.563  35.631  36.866  1.00  0.00    -0.237 OA
ATOM    107  O   UNL A   1      39.497  34.340  37.215  1.00  0.00    -0.744 OA
ENDBRANCH 103 104
ENDBRANCH  71  96
ENDBRANCH  45  46
ENDBRANCH  37  40
ENDBRANCH  35  36
ENDBRANCH  34  35
ENDBRANCH  33  34
ENDBRANCH   1  33
TORSDOF 20
ENDMDL
MODEL 2
REMARK VINA RESULT:     -10.6      1.677      2.500
REMARK SMILES COc1ccc(-c2cc3c(N4CCC[C@@H](C(=O)NCCCCCCNC(=O)c5ccc(-c6c7nc(c(-c8c(F)cc(S(=O)(=O)[O-])cc8F)c8ccc([nH]8)c(-c8c(F)cc(S(=O)(=O)[O-])cc8F)c8nc(c(-c9c(F)cc(S(=O)(=O)[O-])cc9F)c9ccc6[nH]9)C=C8)C=C7)cc5)C4)nccn3n2)cc1OC
REMARK SMILES IDX 21 1 20 2 19 3 18 4 16 5 17 6 15 8 11 9 12 10 94 11 13 12
REMARK SMILES IDX 14 13 10 14 7 15 8 16 99 17 9 18 98 19 97 20 95 21 96 22
REMARK SMILES IDX 6 23 3 24 4 25 101 26 5 27 100 28 2 29 1 30 102 31 103 32
REMARK SMILES IDX 22 33 23 34 24 35 25 36 26 37 27 39 28 40 29 41 93 42 30 43
REMARK SMILES IDX 92 44 31 45 32 46 33 47 86 48 34 49 91 50 85 51 87 52 35 53
REMARK SMILES IDX 90 54 84 55 83 56 36 58 70 59 49 60 69 61 50 62 53 63 68 64
REMARK SMILES IDX 88 65 51 66 52 67 67 69 89 70 54 71 37 72 38 73 47 74 39 75
REMARK SMILES IDX 40 76 46 77 48 78 41 79 42 80 43 81 44 82 45 83 71 84 72 85
REMARK SMILES IDX 81 86 73 87 74 88 80 89 82 90 75 91 76 92 77 93 78 94 79 95
REMARK SMILES IDX 55 96 56 97 65 98 57 99 58 100 64 101 66 102 59 103 60 104
REMARK SMILES IDX 61 105 62 106 63 107
REMARK H PARENT 18 7 25 38 87 57 53 68
REMARK Flexibility Score: inf
ROOT
ATOM      1  C   UNL A   1      32.685  28.536  25.743  1.00  0.00     0.002 C 
ENDROOT
BRANCH   1   2
ATOM      2  C   UNL A   1      31.698  27.401  26.029  1.00  0.00     0.021 C 
BRANCH   2   3
ATOM      3  C   UNL A   1      32.358  26.047  26.286  1.00  0.00     0.116 C 
BRANCH   3   4
ATOM      4  N   UNL A   1      31.443  25.125  26.937  1.00  0.00    -0.356 N 
ATOM      5  C   UNL A   1      31.111  23.847  26.583  1.00  0.00     0.224 C 
ATOM      6  O   UNL A   1      30.305  23.232  27.279  1.00  0.00    -0.275 OA
ATOM      7  H   UNL A   1      30.999  25.469  27.746  1.00  0.00     0.163 HD
BRANCH   5   8
ATOM      8  C   UNL A   1      31.777  23.241  25.366  1.00  0.00     0.098 C 
ATOM      9  N   UNL A   1      32.235  21.244  24.114  1.00  0.00    -0.354 N 
ATOM     10  C   UNL A   1      31.946  21.838  22.811  1.00  0.00     0.118 C 
ATOM     11  C   UNL A   1      31.446  21.750  25.233  1.00  0.00     0.131 C 
ATOM     12  C   UNL A   1      32.112  23.354  22.871  1.00  0.00     0.022 C 
ATOM     13  C   UNL A   1      31.379  23.960  24.066  1.00  0.00     0.017 C 
BRANCH   9  14
ATOM     14  C   UNL A   1      33.156  20.233  24.283  1.00  0.00     0.154 A 
ATOM     15  C   UNL A   1      36.454  21.245  25.468  1.00  0.00     0.094 A 
ATOM     16  C   UNL A   1      35.111  21.626  25.261  1.00  0.00     0.063 A 
ATOM     17  N   UNL A   1      36.638  19.943  25.199  1.00  0.00    -0.168 NA
ATOM     18  C   UNL A   1      34.496  20.507  24.758  1.00  0.00     0.109 A 
ATOM     19  N   UNL A   1      35.420  19.493  24.807  1.00  0.00    -0.235 N 
ATOM     20  C   UNL A   1      35.031  18.209  24.475  1.00  0.00     0.133 A 
ATOM     21  N   UNL A   1      32.809  18.994  24.020  1.00  0.00    -0.235 NA
ATOM     22  C   UNL A   1      33.758  17.996  24.115  1.00  0.00     0.133 A 
BRANCH  15  23
ATOM     23  C   UNL A   1      37.547  22.130  25.847  1.00  0.00     0.006 A 
ATOM     24  C   UNL A   1      39.720  23.805  26.441  1.00  0.00     0.160 A 
ATOM     25  C   UNL A   1      38.418  24.324  26.389  1.00  0.00     0.051 A 
ATOM     26  C   UNL A   1      39.941  22.443  26.199  1.00  0.00     0.161 A 
ATOM     27  C   UNL A   1      37.336  23.493  26.080  1.00  0.00     0.014 A 
ATOM     28  C   UNL A   1      38.847  21.617  25.914  1.00  0.00     0.060 A 
BRANCH  24  29
ATOM     29  O   UNL A   1      40.728  24.622  26.878  1.00  0.00    -0.493 OA
ATOM     30  C   UNL A   1      40.704  25.906  26.248  1.00  0.00     0.278 C 
ENDBRANCH  24  29
BRANCH  26  31
ATOM     31  O   UNL A   1      41.129  21.763  26.246  1.00  0.00    -0.493 OA
ATOM     32  C   UNL A   1      41.628  21.424  27.531  1.00  0.00     0.278 C 
ENDBRANCH  26  31
ENDBRANCH  15  23
ENDBRANCH   9  14
ENDBRANCH   5   8
ENDBRANCH   3   4
ENDBRANCH   2   3
ENDBRANCH   1   2
BRANCH   1  33
ATOM     33  C   UNL A   1      34.036  28.442  26.468  1.00  0.00     0.002 C 
BRANCH  33  34
ATOM     34  C   UNL A   1      34.727  29.775  26.789  1.00  0.00     0.021 C 
BRANCH  34  35
ATOM     35  C   UNL A   1      34.811  30.073  28.277  1.00  0.00     0.116 C 
BRANCH  35  36
ATOM     36  N   UNL A   1      34.305  31.408  28.606  1.00  0.00    -0.352 N 
ATOM     37  C   UNL A   1      34.808  32.316  29.515  1.00  0.00     0.251 C 
ATOM     38  H   UNL A   1      33.501  31.694  28.115  1.00  0.00     0.163 HD
ATOM     39  O   UNL A   1      34.108  33.230  29.946  1.00  0.00    -0.269 OA
BRANCH  37  40
ATOM     40  C   UNL A   1      36.206  32.174  29.952  1.00  0.00     0.039 A 
ATOM     41  C   UNL A   1      36.549  31.707  31.227  1.00  0.00     0.014 A 
ATOM     42  C   UNL A   1      37.188  32.503  29.027  1.00  0.00     0.014 A 
ATOM     43  C   UNL A   1      37.895  31.512  31.533  1.00  0.00     0.010 A 
ATOM     44  C   UNL A   1      38.479  32.121  29.253  1.00  0.00     0.010 A 
ATOM     45  C   UNL A   1      38.853  31.718  30.533  1.00  0.00    -0.014 A 
BRANCH  45  46
ATOM     46  C   UNL A   1      40.278  31.481  30.744  1.00  0.00     0.031 A 
ATOM     47  C   UNL A   1      40.753  30.114  30.367  1.00  0.00     0.074 A 
ATOM     48  C   UNL A   1      41.102  32.542  30.918  1.00  0.00     0.049 A 
ATOM     49  N   UNL A   1      41.395  29.249  31.083  1.00  0.00    -0.248 NA
ATOM     50  C   UNL A   1      40.354  29.593  29.044  1.00  0.00     0.031 C 
ATOM     51  C   UNL A   1      40.736  33.970  30.928  1.00  0.00     0.029 A 
ATOM     52  N   UNL A   1      42.458  32.597  30.943  1.00  0.00    -0.354 N 
ATOM     53  C   UNL A   1      41.673  28.174  30.235  1.00  0.00     0.074 A 
ATOM     54  C   UNL A   1      40.840  28.352  29.078  1.00  0.00     0.031 C 
ATOM     55  C   UNL A   1      41.827  34.723  30.678  1.00  0.00     0.029 A 
ATOM     56  C   UNL A   1      42.989  33.858  30.679  1.00  0.00     0.049 A 
ATOM     57  H   UNL A   1      43.020  31.811  31.132  1.00  0.00     0.167 HD
ATOM     58  C   UNL A   1      42.745  27.354  30.436  1.00  0.00     0.037 A 
ATOM     59  C   UNL A   1      44.288  34.155  30.422  1.00  0.00     0.037 A 
ATOM     60  C   UNL A   1      43.266  27.509  31.769  1.00  0.00     0.049 A 
ATOM     61  C   UNL A   1      45.089  32.987  30.876  1.00  0.00     0.074 A 
ATOM     62  C   UNL A   1      42.760  27.312  33.038  1.00  0.00     0.029 A 
ATOM     63  N   UNL A   1      44.379  28.300  31.924  1.00  0.00    -0.354 N 
ATOM     64  N   UNL A   1      45.170  32.599  32.121  1.00  0.00    -0.248 NA
ATOM     65  C   UNL A   1      45.405  31.969  29.886  1.00  0.00     0.031 C 
ATOM     66  C   UNL A   1      43.298  28.377  33.816  1.00  0.00     0.029 A 
ATOM     67  C   UNL A   1      44.157  29.119  33.000  1.00  0.00     0.049 A 
ATOM     68  H   UNL A   1      45.189  28.281  31.364  1.00  0.00     0.167 HD
ATOM     69  C   UNL A   1      45.145  31.211  32.070  1.00  0.00     0.074 A 
ATOM     70  C   UNL A   1      45.363  30.883  30.663  1.00  0.00     0.031 C 
ATOM     71  C   UNL A   1      44.664  30.471  33.113  1.00  0.00     0.037 A 
BRANCH  58  72
ATOM     72  C   UNL A   1      43.547  26.685  29.339  1.00  0.00     0.058 A 
ATOM     73  C   UNL A   1      44.134  27.480  28.329  1.00  0.00     0.135 A 
ATOM     74  C   UNL A   1      43.528  25.297  29.074  1.00  0.00     0.135 A 
ATOM     75  F   UNL A   1      44.215  28.813  28.467  1.00  0.00    -0.206 F 
ATOM     76  C   UNL A   1      44.585  26.947  27.119  1.00  0.00     0.059 A 
ATOM     77  C   UNL A   1      44.021  24.740  27.899  1.00  0.00     0.059 A 
ATOM     78  F   UNL A   1      42.940  24.416  29.892  1.00  0.00    -0.206 F 
ATOM     79  C   UNL A   1      44.504  25.575  26.907  1.00  0.00     0.060 A 
BRANCH  79  80
ATOM     80  S   UNL A   1      44.966  24.891  25.306  1.00  0.00     0.124 S 
ATOM     81  O   UNL A   1      45.631  26.031  24.686  1.00  0.00    -0.237 OA
ATOM     82  O   UNL A   1      45.824  23.775  25.689  1.00  0.00    -0.237 OA
ATOM     83  O   UNL A   1      43.682  24.513  24.722  1.00  0.00    -0.744 OA
ENDBRANCH  79  80
ENDBRANCH  58  72
BRANCH  59  84
ATOM     84  C   UNL A   1      44.811  35.193  29.495  1.00  0.00     0.058 A 
ATOM     85  C   UNL A   1      44.432  35.239  28.142  1.00  0.00     0.135 A 
ATOM     86  C   UNL A   1      45.507  36.321  29.981  1.00  0.00     0.135 A 
ATOM     87  F   UNL A   1      43.739  34.224  27.605  1.00  0.00    -0.206 F 
ATOM     88  C   UNL A   1      44.707  36.344  27.326  1.00  0.00     0.059 A 
ATOM     89  C   UNL A   1      45.799  37.430  29.187  1.00  0.00     0.059 A 
ATOM     90  F   UNL A   1      45.850  36.413  31.276  1.00  0.00    -0.206 F 
ATOM     91  C   UNL A   1      45.379  37.443  27.862  1.00  0.00     0.060 A 
BRANCH  91  92
ATOM     92  S   UNL A   1      45.615  38.929  26.856  1.00  0.00     0.124 S 
ATOM     93  O   UNL A   1      46.376  39.787  27.757  1.00  0.00    -0.237 OA
ATOM     94  O   UNL A   1      46.342  38.408  25.703  1.00  0.00    -0.237 OA
ATOM     95  O   UNL A   1      44.250  39.371  26.580  1.00  0.00    -0.744 OA
ENDBRANCH  91  92
ENDBRANCH  59  84
BRANCH  71  96
ATOM     96  C   UNL A   1      44.421  31.152  34.436  1.00  0.00     0.058 A 
ATOM     97  C   UNL A   1      43.212  31.773  34.802  1.00  0.00     0.135 A 
ATOM     98  C   UNL A   1      45.376  30.972  35.447  1.00  0.00     0.135 A 
ATOM     99  F   UNL A   1      42.212  31.903  33.921  1.00  0.00    -0.206 F 
ATOM    100  C   UNL A   1      42.970  32.202  36.109  1.00  0.00     0.059 A 
ATOM    101  C   UNL A   1      45.144  31.362  36.761  1.00  0.00     0.059 A 
ATOM    102  F   UNL A   1      46.526  30.332  35.175  1.00  0.00    -0.206 F 
ATOM    103  C   UNL A   1      43.940  31.980  37.086  1.00  0.00     0.060 A 
BRANCH 103 104
ATOM    104  S   UNL A   1      43.579  32.418  38.802  1.00  0.00     0.124 S 
ATOM    105  O   UNL A   1      44.804  32.015  39.485  1.00  0.00    -0.237 OA
ATOM    106  O   UNL A   1      43.343  33.857  38.720  1.00  0.00    -0.237 OA
ATOM    107  O   UNL A   1      42.397  31.619  39.117  1.00  0.00    -0.744 OA
ENDBRANCH 103 104
ENDBRANCH  71  96
ENDBRANCH  45  46
ENDBRANCH  37  40
ENDBRANCH  35  36
ENDBRANCH  34  35
ENDBRANCH  33  34
ENDBRANCH   1  33
TORSDOF 20
ENDMDL
MODEL 3
REMARK VINA RESULT:     -10.6      3.242      8.387
REMARK SMILES COc1ccc(-c2cc3c(N4CCC[C@@H](C(=O)NCCCCCCNC(=O)c5ccc(-c6c7nc(c(-c8c(F)cc(S(=O)(=O)[O-])cc8F)c8ccc([nH]8)c(-c8c(F)cc(S(=O)(=O)[O-])cc8F)c8nc(c(-c9c(F)cc(S(=O)(=O)[O-])cc9F)c9ccc6[nH]9)C=C8)C=C7)cc5)C4)nccn3n2)cc1OC
REMARK SMILES IDX 21 1 20 2 19 3 18 4 16 5 17 6 15 8 11 9 12 10 94 11 13 12
REMARK SMILES IDX 14 13 10 14 7 15 8 16 99 17 9 18 98 19 97 20 95 21 96 22
REMARK SMILES IDX 6 23 3 24 4 25 101 26 5 27 100 28 2 29 1 30 102 31 103 32
REMARK SMILES IDX 22 33 23 34 24 35 25 36 26 37 27 39 28 40 29 41 93 42 30 43
REMARK SMILES IDX 92 44 31 45 32 46 33 47 86 48 34 49 91 50 85 51 87 52 35 53
REMARK SMILES IDX 90 54 84 55 83 56 36 58 70 59 49 60 69 61 50 62 53 63 68 64
REMARK SMILES IDX 88 65 51 66 52 67 67 69 89 70 54 71 37 72 38 73 47 74 39 75
REMARK SMILES IDX 40 76 46 77 48 78 41 79 42 80 43 81 44 82 45 83 71 84 72 85
REMARK SMILES IDX 81 86 73 87 74 88 80 89 82 90 75 91 76 92 77 93 78 94 79 95
REMARK SMILES IDX 55 96 56 97 65 98 57 99 58 100 64 101 66 102 59 103 60 104
REMARK SMILES IDX 61 105 62 106 63 107
REMARK H PARENT 18 7 25 38 87 57 53 68
REMARK Flexibility Score: inf
ROOT
ATOM      1  C   UNL A   1      39.961  25.172  27.847  1.00  0.00     0.002 C 
ENDROOT
BRANCH   1   2
ATOM      2  C   UNL A   1      38.917  24.076  27.616  1.00  0.00     0.021 C 
BRANCH   2   3
ATOM      3  C   UNL A   1      38.336  24.050  26.203  1.00  0.00     0.116 C 
BRANCH   3   4
ATOM      4  N   UNL A   1      38.272  22.697  25.678  1.00  0.00    -0.356 N 
ATOM      5  C   UNL A   1      37.181  21.979  25.277  1.00  0.00     0.224 C 
ATOM      6  O   UNL A   1      37.347  20.835  24.859  1.00  0.00    -0.275 OA
ATOM      7  H   UNL A   1      39.137  22.232  25.602  1.00  0.00     0.163 HD
BRANCH   5   8
ATOM      8  C   UNL A   1      35.821  22.642  25.339  1.00  0.00     0.098 C 
ATOM      9  N   UNL A   1      33.818  23.228  24.151  1.00  0.00    -0.354 N 
ATOM     10  C   UNL A   1      32.909  22.823  25.221  1.00  0.00     0.118 C 
ATOM     11  C   UNL A   1      35.046  22.447  24.030  1.00  0.00     0.131 C 
ATOM     12  C   UNL A   1      33.630  22.848  26.567  1.00  0.00     0.022 C 
ATOM     13  C   UNL A   1      34.970  22.118  26.507  1.00  0.00     0.017 C 
BRANCH   9  14
ATOM     14  C   UNL A   1      33.524  24.248  23.272  1.00  0.00     0.154 A 
ATOM     15  C   UNL A   1      33.585  27.624  24.649  1.00  0.00     0.094 A 
ATOM     16  C   UNL A   1      33.913  26.267  24.850  1.00  0.00     0.063 A 
ATOM     17  N   UNL A   1      33.109  27.833  23.411  1.00  0.00    -0.168 NA
ATOM     18  C   UNL A   1      33.525  25.632  23.697  1.00  0.00     0.109 A 
ATOM     19  N   UNL A   1      33.120  26.611  22.824  1.00  0.00    -0.235 N 
ATOM     20  C   UNL A   1      32.791  26.264  21.527  1.00  0.00     0.133 A 
ATOM     21  N   UNL A   1      33.251  23.960  22.019  1.00  0.00    -0.235 NA
ATOM     22  C   UNL A   1      32.880  24.977  21.163  1.00  0.00     0.133 A 
BRANCH  15  23
ATOM     23  C   UNL A   1      33.659  28.681  25.650  1.00  0.00     0.006 A 
ATOM     24  C   UNL A   1      33.940  30.752  27.523  1.00  0.00     0.160 A 
ATOM     25  C   UNL A   1      32.880  30.766  26.604  1.00  0.00     0.051 A 
ATOM     26  C   UNL A   1      34.863  29.700  27.511  1.00  0.00     0.161 A 
ATOM     27  C   UNL A   1      32.746  29.741  25.661  1.00  0.00     0.014 A 
ATOM     28  C   UNL A   1      34.705  28.667  26.578  1.00  0.00     0.060 A 
BRANCH  24  29
ATOM     29  O   UNL A   1      33.955  31.700  28.511  1.00  0.00    -0.493 OA
ATOM     30  C   UNL A   1      34.694  32.867  28.140  1.00  0.00     0.278 C 
ENDBRANCH  24  29
BRANCH  26  31
ATOM     31  O   UNL A   1      35.927  29.505  28.352  1.00  0.00    -0.493 OA
ATOM     32  C   UNL A   1      37.214  29.835  27.851  1.00  0.00     0.278 C 
ENDBRANCH  26  31
ENDBRANCH  15  23
ENDBRANCH   9  14
ENDBRANCH   5   8
ENDBRANCH   3   4
ENDBRANCH   2   3
ENDBRANCH   1   2
BRANCH   1  33
ATOM     33  C   UNL A   1      41.018  25.327  26.743  1.00  0.00     0.002 C 
BRANCH  33  34
ATOM     34  C   UNL A   1      42.230  24.387  26.827  1.00  0.00     0.021 C 
BRANCH  34  35
ATOM     35  C   UNL A   1      43.560  25.092  26.619  1.00  0.00     0.116 C 
BRANCH  35  36
ATOM     36  N   UNL A   1      43.551  25.959  25.439  1.00  0.00    -0.352 N 
ATOM     37  C   UNL A   1      43.190  27.289  25.354  1.00  0.00     0.251 C 
ATOM     38  H   UNL A   1      43.839  25.540  24.597  1.00  0.00     0.163 HD
ATOM     39  O   UNL A   1      42.893  27.793  24.273  1.00  0.00    -0.269 OA
BRANCH  37  40
ATOM     40  C   UNL A   1      43.179  28.095  26.585  1.00  0.00     0.039 A 
ATOM     41  C   UNL A   1      44.253  28.106  27.484  1.00  0.00     0.014 A 
ATOM     42  C   UNL A   1      42.053  28.875  26.813  1.00  0.00     0.014 A 
ATOM     43  C   UNL A   1      44.205  28.966  28.580  1.00  0.00     0.010 A 
ATOM     44  C   UNL A   1      42.097  29.856  27.762  1.00  0.00     0.010 A 
ATOM     45  C   UNL A   1      43.121  29.843  28.705  1.00  0.00    -0.014 A 
BRANCH  45  46
ATOM     46  C   UNL A   1      43.017  30.820  29.785  1.00  0.00     0.031 A 
ATOM     47  C   UNL A   1      43.851  32.047  29.609  1.00  0.00     0.074 A 
ATOM     48  C   UNL A   1      41.976  30.736  30.648  1.00  0.00     0.049 A 
ATOM     49  N   UNL A   1      44.729  32.557  30.411  1.00  0.00    -0.248 NA
ATOM     50  C   UNL A   1      43.783  32.739  28.306  1.00  0.00     0.031 C 
ATOM     51  C   UNL A   1      40.887  29.742  30.647  1.00  0.00     0.029 A 
ATOM     52  N   UNL A   1      41.559  31.612  31.598  1.00  0.00    -0.354 N 
ATOM     53  C   UNL A   1      45.156  33.746  29.814  1.00  0.00     0.074 A 
ATOM     54  C   UNL A   1      44.702  33.694  28.452  1.00  0.00     0.031 C 
ATOM     55  C   UNL A   1      39.831  30.220  31.337  1.00  0.00     0.029 A 
ATOM     56  C   UNL A   1      40.229  31.454  31.983  1.00  0.00     0.049 A 
ATOM     57  H   UNL A   1      42.147  32.301  31.982  1.00  0.00     0.167 HD
ATOM     58  C   UNL A   1      45.635  34.791  30.548  1.00  0.00     0.037 A 
ATOM     59  C   UNL A   1      39.493  32.313  32.732  1.00  0.00     0.037 A 
ATOM     60  C   UNL A   1      45.980  34.367  31.880  1.00  0.00     0.049 A 
ATOM     61  C   UNL A   1      40.458  33.224  33.405  1.00  0.00     0.074 A 
ATOM     62  C   UNL A   1      46.880  33.464  32.408  1.00  0.00     0.029 A 
ATOM     63  N   UNL A   1      45.075  34.629  32.881  1.00  0.00    -0.354 N 
ATOM     64  N   UNL A   1      41.341  32.829  34.283  1.00  0.00    -0.248 NA
ATOM     65  C   UNL A   1      40.760  34.483  32.742  1.00  0.00     0.031 C 
ATOM     66  C   UNL A   1      46.199  32.868  33.508  1.00  0.00     0.029 A 
ATOM     67  C   UNL A   1      44.954  33.491  33.635  1.00  0.00     0.049 A 
ATOM     68  H   UNL A   1      44.601  35.479  33.028  1.00  0.00     0.167 HD
ATOM     69  C   UNL A   1      42.488  33.560  33.995  1.00  0.00     0.074 A 
ATOM     70  C   UNL A   1      42.044  34.613  33.085  1.00  0.00     0.031 C 
ATOM     71  C   UNL A   1      43.731  33.074  34.288  1.00  0.00     0.037 A 
BRANCH  58  72
ATOM     72  C   UNL A   1      45.457  36.255  30.198  1.00  0.00     0.058 A 
ATOM     73  C   UNL A   1      44.152  36.789  30.108  1.00  0.00     0.135 A 
ATOM     74  C   UNL A   1      46.480  37.076  29.674  1.00  0.00     0.135 A 
ATOM     75  F   UNL A   1      43.097  36.104  30.575  1.00  0.00    -0.206 F 
ATOM     76  C   UNL A   1      43.879  38.002  29.469  1.00  0.00     0.059 A 
ATOM     77  C   UNL A   1      46.235  38.312  29.084  1.00  0.00     0.059 A 
ATOM     78  F   UNL A   1      47.758  36.684  29.613  1.00  0.00    -0.206 F 
ATOM     79  C   UNL A   1      44.929  38.746  28.942  1.00  0.00     0.060 A 
BRANCH  79  80
ATOM     80  S   UNL A   1      44.580  40.247  28.010  1.00  0.00     0.124 S 
ATOM     81  O   UNL A   1      45.599  41.152  28.528  1.00  0.00    -0.237 OA
ATOM     82  O   UNL A   1      44.758  39.798  26.634  1.00  0.00    -0.237 OA
ATOM     83  O   UNL A   1      43.204  40.561  28.387  1.00  0.00    -0.744 OA
ENDBRANCH  79  80
ENDBRANCH  58  72
BRANCH  59  84
ATOM     84  C   UNL A   1      38.042  32.613  32.602  1.00  0.00     0.058 A 
ATOM     85  C   UNL A   1      37.166  32.529  33.698  1.00  0.00     0.135 A 
ATOM     86  C   UNL A   1      37.527  33.233  31.443  1.00  0.00     0.135 A 
ATOM     87  F   UNL A   1      37.584  31.983  34.850  1.00  0.00    -0.206 F 
ATOM     88  C   UNL A   1      35.865  33.047  33.657  1.00  0.00     0.059 A 
ATOM     89  C   UNL A   1      36.233  33.750  31.375  1.00  0.00     0.059 A 
ATOM     90  F   UNL A   1      38.302  33.432  30.366  1.00  0.00    -0.206 F 
ATOM     91  C   UNL A   1      35.411  33.670  32.493  1.00  0.00     0.060 A 
BRANCH  91  92
ATOM     92  S   UNL A   1      33.785  34.465  32.476  1.00  0.00     0.124 S 
ATOM     93  O   UNL A   1      33.513  34.567  31.048  1.00  0.00    -0.237 OA
ATOM     94  O   UNL A   1      32.968  33.508  33.216  1.00  0.00    -0.237 OA
ATOM     95  O   UNL A   1      34.022  35.735  33.159  1.00  0.00    -0.744 OA
ENDBRANCH  91  92
ENDBRANCH  59  84
BRANCH  71  96
ATOM     96  C   UNL A   1      43.846  31.864  35.182  1.00  0.00     0.058 A 
ATOM     97  C   UNL A   1      43.920  30.538  34.720  1.00  0.00     0.135 A 
ATOM     98  C   UNL A   1      44.113  32.082  36.541  1.00  0.00     0.135 A 
ATOM     99  F   UNL A   1      43.768  30.252  33.420  1.00  0.00    -0.206 F 
ATOM    100  C   UNL A   1      44.236  29.477  35.572  1.00  0.00     0.059 A 
ATOM    101  C   UNL A   1      44.460  31.046  37.401  1.00  0.00     0.059 A 
ATOM    102  F   UNL A   1      44.117  33.333  37.031  1.00  0.00    -0.206 F 
ATOM    103  C   UNL A   1      44.518  29.744  36.911  1.00  0.00     0.060 A 
BRANCH 103 104
ATOM    104  S   UNL A   1      45.050  28.393  37.987  1.00  0.00     0.124 S 
ATOM    105  O   UNL A   1      46.394  28.117  37.491  1.00  0.00    -0.237 OA
ATOM    106  O   UNL A   1      44.975  28.996  39.315  1.00  0.00    -0.237 OA
ATOM    107  O   UNL A   1      44.064  27.345  37.732  1.00  0.00    -0.744 OA
ENDBRANCH 103 104
ENDBRANCH  71  96
ENDBRANCH  45  46
ENDBRANCH  37  40
ENDBRANCH  35  36
ENDBRANCH  34  35
ENDBRANCH  33  34
ENDBRANCH   1  33
TORSDOF 20
ENDMDL
