MODEL 1
REMARK VINA RESULT:      -9.9      0.000      0.000
REMARK SMILES C[NH+](C)[C@@H]1CC[N@@H+](Cc2ccc(C(=O)NCCCCCCNC(=O)c3ccc(-c4c5nc(c(-c6c(F)cc(S(=O)(=O)[O-])cc6F)c6ccc([nH]6)c(-c6c(F)cc(S(=O)(=O)[O-])cc6F)c6nc(c(-c7c(F)cc(S(=O)(=O)[O-])cc7F)c7ccc4[nH]7)C=C6)C=C5)cc3)cn2)C1
REMARK SMILES IDX 18 1 17 2 16 3 15 4 13 5 14 6 12 8 9 9 10 10 92 11 11 12
REMARK SMILES IDX 91 13 8 14 7 15 4 16 5 17 93 18 6 19 2 21 1 22 3 23 19 25
REMARK SMILES IDX 20 26 21 27 22 28 23 29 24 31 25 32 26 33 90 34 27 35 89 36
REMARK SMILES IDX 28 37 29 38 30 39 83 40 31 41 88 42 82 43 84 44 32 45 87 46
REMARK SMILES IDX 81 47 80 48 33 50 67 51 46 52 66 53 47 54 50 55 65 56 85 57
REMARK SMILES IDX 48 58 49 59 64 61 86 62 51 63 34 64 35 65 44 66 36 67 37 68
REMARK SMILES IDX 43 69 45 70 38 71 39 72 40 73 41 74 42 75 68 76 69 77 78 78
REMARK SMILES IDX 70 79 71 80 77 81 79 82 72 83 73 84 74 85 75 86 76 87 52 88
REMARK SMILES IDX 53 89 62 90 54 91 55 92 61 93 63 94 56 95 57 96 58 97 59 98
REMARK SMILES IDX 60 99
REMARK H PARENT 15 7 7 20 2 24 22 30 84 49 50 60
REMARK Flexibility Score: inf
ROOT
ATOM      1  C   UNL A   1      33.364  35.076  28.696  1.00  0.00     0.002 C 
ENDROOT
BRANCH   1   2
ATOM      2  C   UNL A   1      33.201  36.306  29.598  1.00  0.00     0.021 C 
BRANCH   2   3
ATOM      3  C   UNL A   1      32.441  36.018  30.894  1.00  0.00     0.116 C 
BRANCH   3   4
ATOM      4  N   UNL A   1      32.979  36.821  31.980  1.00  0.00    -0.352 N 
ATOM      5  C   UNL A   1      33.921  36.542  32.936  1.00  0.00     0.252 C 
ATOM      6  O   UNL A   1      34.230  37.425  33.735  1.00  0.00    -0.269 OA
ATOM      7  H   UNL A   1      32.599  37.727  32.040  1.00  0.00     0.163 HD
BRANCH   5   8
ATOM      8  C   UNL A   1      34.635  35.249  32.987  1.00  0.00     0.058 A 
ATOM      9  C   UNL A   1      36.115  32.968  33.446  1.00  0.00     0.095 A 
ATOM     10  C   UNL A   1      36.125  33.541  32.175  1.00  0.00     0.030 A 
ATOM     11  N   UNL A   1      35.312  33.429  34.438  1.00  0.00    -0.255 NA
ATOM     12  C   UNL A   1      35.364  34.687  31.942  1.00  0.00     0.017 A 
ATOM     13  C   UNL A   1      34.590  34.549  34.185  1.00  0.00     0.125 A 
BRANCH   9  14
ATOM     14  C   UNL A   1      37.117  31.884  33.799  1.00  0.00     0.319 C 
BRANCH  14  15
ATOM     15  N   UNL A   1      38.167  32.220  34.782  1.00  0.00    -0.325 N 
ATOM     16  C   UNL A   1      40.257  31.090  34.320  1.00  0.00     0.245 C 
ATOM     17  C   UNL A   1      40.393  32.551  33.876  1.00  0.00     0.132 C 
ATOM     18  C   UNL A   1      39.007  31.098  35.229  1.00  0.00     0.328 C 
ATOM     19  C   UNL A   1      39.107  33.245  34.317  1.00  0.00     0.269 C 
ATOM     20  H   UNL A   1      37.594  32.555  35.557  1.00  0.00     0.348 HD
BRANCH  16  21
ATOM     21  N   UNL A   1      41.473  30.412  34.807  1.00  0.00    -0.333 N 
ATOM     22  C   UNL A   1      41.780  30.762  36.195  1.00  0.00     0.332 C 
ATOM     23  C   UNL A   1      41.460  28.961  34.640  1.00  0.00     0.332 C 
ATOM     24  H   UNL A   1      42.218  30.764  34.206  1.00  0.00     0.348 HD
ENDBRANCH  16  21
ENDBRANCH  14  15
ENDBRANCH   9  14
ENDBRANCH   5   8
ENDBRANCH   3   4
ENDBRANCH   2   3
ENDBRANCH   1   2
BRANCH   1  25
ATOM     25  C   UNL A   1      34.759  34.902  28.084  1.00  0.00     0.002 C 
BRANCH  25  26
ATOM     26  C   UNL A   1      35.251  33.455  27.992  1.00  0.00     0.021 C 
BRANCH  26  27
ATOM     27  C   UNL A   1      34.729  32.539  29.095  1.00  0.00     0.116 C 
BRANCH  27  28
ATOM     28  N   UNL A   1      34.018  31.393  28.552  1.00  0.00    -0.352 N 
ATOM     29  C   UNL A   1      34.517  30.210  28.066  1.00  0.00     0.251 C 
ATOM     30  H   UNL A   1      33.038  31.478  28.528  1.00  0.00     0.163 HD
ATOM     31  O   UNL A   1      33.787  29.453  27.434  1.00  0.00    -0.269 OA
BRANCH  29  32
ATOM     32  C   UNL A   1      35.935  29.856  28.299  1.00  0.00     0.039 A 
ATOM     33  C   UNL A   1      36.853  30.021  27.259  1.00  0.00     0.014 A 
ATOM     34  C   UNL A   1      36.352  29.335  29.527  1.00  0.00     0.014 A 
ATOM     35  C   UNL A   1      38.198  29.701  27.465  1.00  0.00     0.010 A 
ATOM     36  C   UNL A   1      37.702  29.088  29.754  1.00  0.00     0.010 A 
ATOM     37  C   UNL A   1      38.638  29.254  28.722  1.00  0.00    -0.014 A 
BRANCH  37  38
ATOM     38  C   UNL A   1      40.067  28.930  28.965  1.00  0.00     0.031 A 
ATOM     39  C   UNL A   1      40.985  29.967  29.554  1.00  0.00     0.074 A 
ATOM     40  C   UNL A   1      40.547  27.722  28.612  1.00  0.00     0.049 A 
ATOM     41  N   UNL A   1      42.268  29.891  29.800  1.00  0.00    -0.248 NA
ATOM     42  C   UNL A   1      40.389  31.271  29.884  1.00  0.00     0.031 C 
ATOM     43  C   UNL A   1      39.766  26.650  27.991  1.00  0.00     0.029 A 
ATOM     44  N   UNL A   1      41.809  27.192  28.720  1.00  0.00    -0.354 N 
ATOM     45  C   UNL A   1      42.633  31.136  30.302  1.00  0.00     0.074 A 
ATOM     46  C   UNL A   1      41.449  31.967  30.267  1.00  0.00     0.031 C 
ATOM     47  C   UNL A   1      40.558  25.582  27.801  1.00  0.00     0.029 A 
ATOM     48  C   UNL A   1      41.908  25.903  28.252  1.00  0.00     0.049 A 
ATOM     49  H   UNL A   1      42.570  27.689  29.098  1.00  0.00     0.167 HD
ATOM     50  C   UNL A   1      43.836  31.541  30.774  1.00  0.00     0.037 A 
ATOM     51  C   UNL A   1      42.969  25.075  28.193  1.00  0.00     0.037 A 
ATOM     52  C   UNL A   1      45.004  30.701  30.824  1.00  0.00     0.049 A 
ATOM     53  C   UNL A   1      44.296  25.546  28.722  1.00  0.00     0.074 A 
ATOM     54  C   UNL A   1      46.260  30.999  31.326  1.00  0.00     0.029 A 
ATOM     55  N   UNL A   1      45.062  29.397  30.354  1.00  0.00    -0.354 N 
ATOM     56  N   UNL A   1      44.610  26.709  29.244  1.00  0.00    -0.248 NA
ATOM     57  C   UNL A   1      45.411  24.592  28.662  1.00  0.00     0.031 C 
ATOM     58  C   UNL A   1      47.088  29.890  31.120  1.00  0.00     0.029 A 
ATOM     59  C   UNL A   1      46.335  28.881  30.539  1.00  0.00     0.049 A 
ATOM     60  H   UNL A   1      44.309  28.908  29.950  1.00  0.00     0.167 HD
ATOM     61  C   UNL A   1      45.950  26.613  29.606  1.00  0.00     0.074 A 
ATOM     62  C   UNL A   1      46.383  25.277  29.250  1.00  0.00     0.031 C 
ATOM     63  C   UNL A   1      46.747  27.546  30.184  1.00  0.00     0.037 A 
BRANCH  50  64
ATOM     64  C   UNL A   1      43.943  32.957  31.275  1.00  0.00     0.058 A 
ATOM     65  C   UNL A   1      43.848  33.265  32.643  1.00  0.00     0.135 A 
ATOM     66  C   UNL A   1      44.156  34.019  30.382  1.00  0.00     0.135 A 
ATOM     67  F   UNL A   1      43.632  32.292  33.542  1.00  0.00    -0.206 F 
ATOM     68  C   UNL A   1      43.917  34.577  33.102  1.00  0.00     0.059 A 
ATOM     69  C   UNL A   1      44.259  35.337  30.821  1.00  0.00     0.059 A 
ATOM     70  F   UNL A   1      44.257  33.785  29.063  1.00  0.00    -0.206 F 
ATOM     71  C   UNL A   1      44.118  35.607  32.182  1.00  0.00     0.060 A 
BRANCH  71  72
ATOM     72  S   UNL A   1      44.190  37.304  32.791  1.00  0.00     0.124 S 
ATOM     73  O   UNL A   1      45.524  37.343  33.385  1.00  0.00    -0.237 OA
ATOM     74  O   UNL A   1      44.017  38.083  31.570  1.00  0.00    -0.237 OA
ATOM     75  O   UNL A   1      43.081  37.374  33.738  1.00  0.00    -0.744 OA
ENDBRANCH  71  72
ENDBRANCH  50  64
BRANCH  51  76
ATOM     76  C   UNL A   1      42.806  23.701  27.648  1.00  0.00     0.058 A 
ATOM     77  C   UNL A   1      42.538  22.617  28.496  1.00  0.00     0.135 A 
ATOM     78  C   UNL A   1      42.890  23.447  26.270  1.00  0.00     0.135 A 
ATOM     79  F   UNL A   1      42.453  22.808  29.821  1.00  0.00    -0.206 F 
ATOM     80  C   UNL A   1      42.372  21.327  28.002  1.00  0.00     0.059 A 
ATOM     81  C   UNL A   1      42.702  22.170  25.749  1.00  0.00     0.059 A 
ATOM     82  F   UNL A   1      43.127  24.452  25.412  1.00  0.00    -0.206 F 
ATOM     83  C   UNL A   1      42.452  21.115  26.625  1.00  0.00     0.060 A 
BRANCH  83  84
ATOM     84  S   UNL A   1      42.178  19.447  25.990  1.00  0.00     0.124 S 
ATOM     85  O   UNL A   1      42.629  18.628  27.109  1.00  0.00    -0.237 OA
ATOM     86  O   UNL A   1      40.741  19.447  25.737  1.00  0.00    -0.237 OA
ATOM     87  O   UNL A   1      43.016  19.401  24.795  1.00  0.00    -0.744 OA
ENDBRANCH  83  84
ENDBRANCH  51  76
BRANCH  63  88
ATOM     88  C   UNL A   1      48.161  27.141  30.507  1.00  0.00     0.058 A 
ATOM     89  C   UNL A   1      49.233  27.448  29.656  1.00  0.00     0.135 A 
ATOM     90  C   UNL A   1      48.447  26.472  31.709  1.00  0.00     0.135 A 
ATOM     91  F   UNL A   1      49.012  28.082  28.493  1.00  0.00    -0.206 F 
ATOM     92  C   UNL A   1      50.537  27.079  29.969  1.00  0.00     0.059 A 
ATOM     93  C   UNL A   1      49.748  26.120  32.056  1.00  0.00     0.059 A 
ATOM     94  F   UNL A   1      47.461  26.164  32.565  1.00  0.00    -0.206 F 
ATOM     95  C   UNL A   1      50.785  26.416  31.172  1.00  0.00     0.060 A 
BRANCH  95  96
ATOM     96  S   UNL A   1      52.485  25.963  31.578  1.00  0.00     0.124 S 
ATOM     97  O   UNL A   1      52.308  24.629  32.140  1.00  0.00    -0.237 OA
ATOM     98  O   UNL A   1      53.142  26.022  30.277  1.00  0.00    -0.237 OA
ATOM     99  O   UNL A   1      52.894  26.995  32.527  1.00  0.00    -0.744 OA
ENDBRANCH  95  96
ENDBRANCH  63  88
ENDBRANCH  37  38
ENDBRANCH  29  32
ENDBRANCH  27  28
ENDBRANCH  26  27
ENDBRANCH  25  26
ENDBRANCH   1  25
TORSDOF 19
ENDMDL
MODEL 2
REMARK VINA RESULT:      -9.7      5.060     12.575
REMARK SMILES C[NH+](C)[C@@H]1CC[N@@H+](Cc2ccc(C(=O)NCCCCCCNC(=O)c3ccc(-c4c5nc(c(-c6c(F)cc(S(=O)(=O)[O-])cc6F)c6ccc([nH]6)c(-c6c(F)cc(S(=O)(=O)[O-])cc6F)c6nc(c(-c7c(F)cc(S(=O)(=O)[O-])cc7F)c7ccc4[nH]7)C=C6)C=C5)cc3)cn2)C1
REMARK SMILES IDX 18 1 17 2 16 3 15 4 13 5 14 6 12 8 9 9 10 10 92 11 11 12
REMARK SMILES IDX 91 13 8 14 7 15 4 16 5 17 93 18 6 19 2 21 1 22 3 23 19 25
REMARK SMILES IDX 20 26 21 27 22 28 23 29 24 31 25 32 26 33 90 34 27 35 89 36
REMARK SMILES IDX 28 37 29 38 30 39 83 40 31 41 88 42 82 43 84 44 32 45 87 46
REMARK SMILES IDX 81 47 80 48 33 50 67 51 46 52 66 53 47 54 50 55 65 56 85 57
REMARK SMILES IDX 48 58 49 59 64 61 86 62 51 63 34 64 35 65 44 66 36 67 37 68
REMARK SMILES IDX 43 69 45 70 38 71 39 72 40 73 41 74 42 75 68 76 69 77 78 78
REMARK SMILES IDX 70 79 71 80 77 81 79 82 72 83 73 84 74 85 75 86 76 87 52 88
REMARK SMILES IDX 53 89 62 90 54 91 55 92 61 93 63 94 56 95 57 96 58 97 59 98
REMARK SMILES IDX 60 99
REMARK H PARENT 15 7 7 20 2 24 22 30 84 49 50 60
REMARK Flexibility Score: inf
ROOT
ATOM      1  C   UNL A   1      41.357  21.401  27.052  1.00  0.00     0.002 C 
ENDROOT
BRANCH   1   2
ATOM      2  C   UNL A   1      40.417  22.450  27.660  1.00  0.00     0.021 C 
BRANCH   2   3
ATOM      3  C   UNL A   1      39.399  23.010  26.665  1.00  0.00     0.116 C 
BRANCH   3   4
ATOM      4  N   UNL A   1      38.969  21.968  25.747  1.00  0.00    -0.352 N 
ATOM      5  C   UNL A   1      37.734  21.653  25.244  1.00  0.00     0.252 C 
ATOM      6  O   UNL A   1      37.644  20.726  24.439  1.00  0.00    -0.269 OA
ATOM      7  H   UNL A   1      39.696  21.383  25.430  1.00  0.00     0.163 HD
BRANCH   5   8
ATOM      8  C   UNL A   1      36.525  22.438  25.570  1.00  0.00     0.058 A 
ATOM      9  C   UNL A   1      34.059  23.556  26.091  1.00  0.00     0.095 A 
ATOM     10  C   UNL A   1      34.996  24.285  25.359  1.00  0.00     0.030 A 
ATOM     11  N   UNL A   1      34.358  22.358  26.654  1.00  0.00    -0.255 NA
ATOM     12  C   UNL A   1      36.248  23.722  25.110  1.00  0.00     0.017 A 
ATOM     13  C   UNL A   1      35.579  21.832  26.387  1.00  0.00     0.125 A 
BRANCH   9  14
ATOM     14  C   UNL A   1      32.618  24.027  26.163  1.00  0.00     0.319 C 
BRANCH  14  15
ATOM     15  N   UNL A   1      31.718  23.636  25.058  1.00  0.00    -0.325 N 
ATOM     16  C   UNL A   1      32.216  24.817  23.005  1.00  0.00     0.245 C 
ATOM     17  C   UNL A   1      32.764  23.390  22.884  1.00  0.00     0.132 C 
ATOM     18  C   UNL A   1      31.243  24.735  24.203  1.00  0.00     0.328 C 
ATOM     19  C   UNL A   1      32.301  22.655  24.138  1.00  0.00     0.269 C 
ATOM     20  H   UNL A   1      30.937  23.245  25.585  1.00  0.00     0.348 HD
BRANCH  16  21
ATOM     21  N   UNL A   1      31.751  25.473  21.768  1.00  0.00    -0.333 N 
ATOM     22  C   UNL A   1      31.250  26.826  22.017  1.00  0.00     0.332 C 
ATOM     23  C   UNL A   1      32.736  25.487  20.689  1.00  0.00     0.332 C 
ATOM     24  H   UNL A   1      30.980  24.890  21.445  1.00  0.00     0.348 HD
ENDBRANCH  16  21
ENDBRANCH  14  15
ENDBRANCH   9  14
ENDBRANCH   5   8
ENDBRANCH   3   4
ENDBRANCH   2   3
ENDBRANCH   1   2
BRANCH   1  25
ATOM     25  C   UNL A   1      42.758  21.915  26.699  1.00  0.00     0.002 C 
BRANCH  25  26
ATOM     26  C   UNL A   1      43.430  22.762  27.782  1.00  0.00     0.021 C 
BRANCH  26  27
ATOM     27  C   UNL A   1      44.102  24.032  27.266  1.00  0.00     0.116 C 
BRANCH  27  28
ATOM     28  N   UNL A   1      43.445  24.542  26.074  1.00  0.00    -0.352 N 
ATOM     29  C   UNL A   1      42.471  25.503  25.962  1.00  0.00     0.251 C 
ATOM     30  H   UNL A   1      43.740  24.141  25.225  1.00  0.00     0.163 HD
ATOM     31  O   UNL A   1      41.869  25.641  24.902  1.00  0.00    -0.269 OA
BRANCH  29  32
ATOM     32  C   UNL A   1      42.145  26.363  27.121  1.00  0.00     0.039 A 
ATOM     33  C   UNL A   1      41.178  25.933  28.032  1.00  0.00     0.014 A 
ATOM     34  C   UNL A   1      42.768  27.603  27.292  1.00  0.00     0.014 A 
ATOM     35  C   UNL A   1      40.866  26.728  29.138  1.00  0.00     0.010 A 
ATOM     36  C   UNL A   1      42.511  28.358  28.432  1.00  0.00     0.010 A 
ATOM     37  C   UNL A   1      41.546  27.937  29.360  1.00  0.00    -0.014 A 
BRANCH  37  38
ATOM     38  C   UNL A   1      41.243  28.785  30.541  1.00  0.00     0.031 A 
ATOM     39  C   UNL A   1      42.051  28.637  31.802  1.00  0.00     0.074 A 
ATOM     40  C   UNL A   1      40.212  29.650  30.495  1.00  0.00     0.049 A 
ATOM     41  N   UNL A   1      41.913  29.252  32.949  1.00  0.00    -0.248 NA
ATOM     42  C   UNL A   1      43.141  27.648  31.781  1.00  0.00     0.031 C 
ATOM     43  C   UNL A   1      39.327  29.850  29.345  1.00  0.00     0.029 A 
ATOM     44  N   UNL A   1      39.730  30.522  31.439  1.00  0.00    -0.354 N 
ATOM     45  C   UNL A   1      42.888  28.719  33.786  1.00  0.00     0.074 A 
ATOM     46  C   UNL A   1      43.569  27.687  33.033  1.00  0.00     0.031 C 
ATOM     47  C   UNL A   1      38.431  30.805  29.641  1.00  0.00     0.029 A 
ATOM     48  C   UNL A   1      38.651  31.259  31.011  1.00  0.00     0.049 A 
ATOM     49  H   UNL A   1      40.120  30.610  32.338  1.00  0.00     0.167 HD
ATOM     50  C   UNL A   1      43.205  29.073  35.054  1.00  0.00     0.037 A 
ATOM     51  C   UNL A   1      37.923  32.195  31.650  1.00  0.00     0.037 A 
ATOM     52  C   UNL A   1      42.535  30.115  35.788  1.00  0.00     0.049 A 
ATOM     53  C   UNL A   1      38.292  32.573  33.059  1.00  0.00     0.074 A 
ATOM     54  C   UNL A   1      42.808  30.585  37.061  1.00  0.00     0.029 A 
ATOM     55  N   UNL A   1      41.457  30.849  35.315  1.00  0.00    -0.354 N 
ATOM     56  N   UNL A   1      39.252  32.096  33.816  1.00  0.00    -0.248 NA
ATOM     57  C   UNL A   1      37.485  33.620  33.697  1.00  0.00     0.031 C 
ATOM     58  C   UNL A   1      41.868  31.573  37.374  1.00  0.00     0.029 A 
ATOM     59  C   UNL A   1      41.042  31.757  36.276  1.00  0.00     0.049 A 
ATOM     60  H   UNL A   1      41.047  30.742  34.426  1.00  0.00     0.167 HD
ATOM     61  C   UNL A   1      39.185  32.810  35.008  1.00  0.00     0.074 A 
ATOM     62  C   UNL A   1      38.096  33.755  34.866  1.00  0.00     0.031 C 
ATOM     63  C   UNL A   1      39.959  32.696  36.117  1.00  0.00     0.037 A 
BRANCH  50  64
ATOM     64  C   UNL A   1      44.328  28.326  35.723  1.00  0.00     0.058 A 
ATOM     65  C   UNL A   1      44.093  27.176  36.495  1.00  0.00     0.135 A 
ATOM     66  C   UNL A   1      45.658  28.755  35.582  1.00  0.00     0.135 A 
ATOM     67  F   UNL A   1      42.841  26.727  36.675  1.00  0.00    -0.206 F 
ATOM     68  C   UNL A   1      45.128  26.505  37.137  1.00  0.00     0.059 A 
ATOM     69  C   UNL A   1      46.713  28.081  36.191  1.00  0.00     0.059 A 
ATOM     70  F   UNL A   1      45.944  29.847  34.855  1.00  0.00    -0.206 F 
ATOM     71  C   UNL A   1      46.435  26.968  36.984  1.00  0.00     0.060 A 
BRANCH  71  72
ATOM     72  S   UNL A   1      47.765  26.095  37.836  1.00  0.00     0.124 S 
ATOM     73  O   UNL A   1      47.223  25.990  39.188  1.00  0.00    -0.237 OA
ATOM     74  O   UNL A   1      47.850  24.845  37.088  1.00  0.00    -0.237 OA
ATOM     75  O   UNL A   1      48.909  26.990  37.688  1.00  0.00    -0.744 OA
ENDBRANCH  71  72
ENDBRANCH  50  64
BRANCH  51  76
ATOM     76  C   UNL A   1      36.798  32.866  30.946  1.00  0.00     0.058 A 
ATOM     77  C   UNL A   1      35.469  32.498  31.197  1.00  0.00     0.135 A 
ATOM     78  C   UNL A   1      37.027  33.904  30.029  1.00  0.00     0.135 A 
ATOM     79  F   UNL A   1      35.200  31.508  32.062  1.00  0.00    -0.206 F 
ATOM     80  C   UNL A   1      34.405  33.123  30.556  1.00  0.00     0.059 A 
ATOM     81  C   UNL A   1      35.977  34.562  29.393  1.00  0.00     0.059 A 
ATOM     82  F   UNL A   1      38.279  34.307  29.766  1.00  0.00    -0.206 F 
ATOM     83  C   UNL A   1      34.670  34.158  29.657  1.00  0.00     0.060 A 
BRANCH  83  84
ATOM     84  S   UNL A   1      33.278  35.000  28.873  1.00  0.00     0.124 S 
ATOM     85  O   UNL A   1      32.753  33.954  28.003  1.00  0.00    -0.237 OA
ATOM     86  O   UNL A   1      32.448  35.353  30.020  1.00  0.00    -0.237 OA
ATOM     87  O   UNL A   1      33.909  36.129  28.195  1.00  0.00    -0.744 OA
ENDBRANCH  83  84
ENDBRANCH  51  76
BRANCH  63  88
ATOM     88  C   UNL A   1      39.683  33.645  37.251  1.00  0.00     0.058 A 
ATOM     89  C   UNL A   1      38.805  33.317  38.296  1.00  0.00     0.135 A 
ATOM     90  C   UNL A   1      40.340  34.885  37.313  1.00  0.00     0.135 A 
ATOM     91  F   UNL A   1      38.147  32.146  38.283  1.00  0.00    -0.206 F 
ATOM     92  C   UNL A   1      38.565  34.196  39.346  1.00  0.00     0.059 A 
ATOM     93  C   UNL A   1      40.138  35.767  38.369  1.00  0.00     0.059 A 
ATOM     94  F   UNL A   1      41.199  35.244  36.346  1.00  0.00    -0.206 F 
ATOM     95  C   UNL A   1      39.237  35.419  39.374  1.00  0.00     0.060 A 
BRANCH  95  96
ATOM     96  S   UNL A   1      38.934  36.542  40.755  1.00  0.00     0.124 S 
ATOM     97  O   UNL A   1      38.384  37.707  40.071  1.00  0.00    -0.237 OA
ATOM     98  O   UNL A   1      37.994  35.784  41.574  1.00  0.00    -0.237 OA
ATOM     99  O   UNL A   1      40.259  36.725  41.341  1.00  0.00    -0.744 OA
ENDBRANCH  95  96
ENDBRANCH  63  88
ENDBRANCH  37  38
ENDBRANCH  29  32
ENDBRANCH  27  28
ENDBRANCH  26  27
ENDBRANCH  25  26
ENDBRANCH   1  25
TORSDOF 19
ENDMDL
MODEL 3
REMARK VINA RESULT:      -9.7      4.608     12.877
REMARK SMILES C[NH+](C)[C@@H]1CC[N@@H+](Cc2ccc(C(=O)NCCCCCCNC(=O)c3ccc(-c4c5nc(c(-c6c(F)cc(S(=O)(=O)[O-])cc6F)c6ccc([nH]6)c(-c6c(F)cc(S(=O)(=O)[O-])cc6F)c6nc(c(-c7c(F)cc(S(=O)(=O)[O-])cc7F)c7ccc4[nH]7)C=C6)C=C5)cc3)cn2)C1
REMARK SMILES IDX 18 1 17 2 16 3 15 4 13 5 14 6 12 8 9 9 10 10 92 11 11 12
REMARK SMILES IDX 91 13 8 14 7 15 4 16 5 17 93 18 6 19 2 21 1 22 3 23 19 25
REMARK SMILES IDX 20 26 21 27 22 28 23 29 24 31 25 32 26 33 90 34 27 35 89 36
REMARK SMILES IDX 28 37 29 38 30 39 83 40 31 41 88 42 82 43 84 44 32 45 87 46
REMARK SMILES IDX 81 47 80 48 33 50 67 51 46 52 66 53 47 54 50 55 65 56 85 57
REMARK SMILES IDX 48 58 49 59 64 61 86 62 51 63 34 64 35 65 44 66 36 67 37 68
REMARK SMILES IDX 43 69 45 70 38 71 39 72 40 73 41 74 42 75 68 76 69 77 78 78
REMARK SMILES IDX 70 79 71 80 77 81 79 82 72 83 73 84 74 85 75 86 76 87 52 88
REMARK SMILES IDX 53 89 62 90 54 91 55 92 61 93 63 94 56 95 57 96 58 97 59 98
REMARK SMILES IDX 60 99
REMARK H PARENT 15 7 7 20 2 24 22 30 84 49 50 60
REMARK Flexibility Score: inf
ROOT
ATOM      1  C   UNL A   1      45.771  22.882  24.220  1.00  0.00     0.002 C 
ENDROOT
BRANCH   1   2
ATOM      2  C   UNL A   1      45.855  21.360  24.396  1.00  0.00     0.021 C 
BRANCH   2   3
ATOM      3  C   UNL A   1      45.316  20.869  25.741  1.00  0.00     0.116 C 
BRANCH   3   4
ATOM      4  N   UNL A   1      44.607  19.612  25.569  1.00  0.00    -0.352 N 
ATOM      5  C   UNL A   1      43.283  19.289  25.711  1.00  0.00     0.252 C 
ATOM      6  O   UNL A   1      42.928  18.136  25.466  1.00  0.00    -0.269 OA
ATOM      7  H   UNL A   1      45.182  18.857  25.303  1.00  0.00     0.163 HD
BRANCH   5   8
ATOM      8  C   UNL A   1      42.258  20.293  26.065  1.00  0.00     0.058 A 
ATOM      9  C   UNL A   1      40.105  21.972  26.452  1.00  0.00     0.095 A 
ATOM     10  C   UNL A   1      41.384  22.518  26.344  1.00  0.00     0.030 A 
ATOM     11  N   UNL A   1      39.895  20.632  26.487  1.00  0.00    -0.255 NA
ATOM     12  C   UNL A   1      42.472  21.665  26.162  1.00  0.00     0.017 A 
ATOM     13  C   UNL A   1      40.971  19.828  26.299  1.00  0.00     0.125 A 
BRANCH   9  14
ATOM     14  C   UNL A   1      38.886  22.874  26.395  1.00  0.00     0.319 C 
BRANCH  14  15
ATOM     15  N   UNL A   1      37.600  22.258  26.007  1.00  0.00    -0.325 N 
ATOM     16  C   UNL A   1      36.047  23.872  25.090  1.00  0.00     0.245 C 
ATOM     17  C   UNL A   1      36.633  23.056  23.931  1.00  0.00     0.132 C 
ATOM     18  C   UNL A   1      36.395  23.033  26.340  1.00  0.00     0.328 C 
ATOM     19  C   UNL A   1      37.490  21.970  24.574  1.00  0.00     0.269 C 
ATOM     20  H   UNL A   1      37.629  21.404  26.564  1.00  0.00     0.348 HD
BRANCH  16  21
ATOM     21  N   UNL A   1      34.665  24.368  24.940  1.00  0.00    -0.333 N 
ATOM     22  C   UNL A   1      34.029  23.865  23.722  1.00  0.00     0.332 C 
ATOM     23  C   UNL A   1      33.810  24.121  26.099  1.00  0.00     0.332 C 
ATOM     24  H   UNL A   1      34.765  25.379  24.867  1.00  0.00     0.348 HD
ENDBRANCH  16  21
ENDBRANCH  14  15
ENDBRANCH   9  14
ENDBRANCH   5   8
ENDBRANCH   3   4
ENDBRANCH   2   3
ENDBRANCH   1   2
BRANCH   1  25
ATOM     25  C   UNL A   1      46.427  23.700  25.338  1.00  0.00     0.002 C 
BRANCH  25  26
ATOM     26  C   UNL A   1      45.469  24.206  26.419  1.00  0.00     0.021 C 
BRANCH  26  27
ATOM     27  C   UNL A   1      44.913  25.605  26.166  1.00  0.00     0.116 C 
BRANCH  27  28
ATOM     28  N   UNL A   1      43.725  25.569  25.331  1.00  0.00    -0.352 N 
ATOM     29  C   UNL A   1      42.441  25.954  25.628  1.00  0.00     0.251 C 
ATOM     30  H   UNL A   1      43.859  25.219  24.421  1.00  0.00     0.163 HD
ATOM     31  O   UNL A   1      41.520  25.637  24.882  1.00  0.00    -0.269 OA
BRANCH  29  32
ATOM     32  C   UNL A   1      42.170  26.742  26.851  1.00  0.00     0.039 A 
ATOM     33  C   UNL A   1      42.655  28.050  26.935  1.00  0.00     0.014 A 
ATOM     34  C   UNL A   1      41.468  26.185  27.923  1.00  0.00     0.014 A 
ATOM     35  C   UNL A   1      42.399  28.811  28.078  1.00  0.00     0.010 A 
ATOM     36  C   UNL A   1      41.150  26.968  29.028  1.00  0.00     0.010 A 
ATOM     37  C   UNL A   1      41.625  28.285  29.125  1.00  0.00    -0.014 A 
BRANCH  37  38
ATOM     38  C   UNL A   1      41.325  29.087  30.338  1.00  0.00     0.031 A 
ATOM     39  C   UNL A   1      42.163  28.922  31.578  1.00  0.00     0.074 A 
ATOM     40  C   UNL A   1      40.272  29.927  30.340  1.00  0.00     0.049 A 
ATOM     41  N   UNL A   1      42.033  29.498  32.746  1.00  0.00    -0.248 NA
ATOM     42  C   UNL A   1      43.277  27.963  31.504  1.00  0.00     0.031 C 
ATOM     43  C   UNL A   1      39.358  30.139  29.215  1.00  0.00     0.029 A 
ATOM     44  N   UNL A   1      39.788  30.757  31.320  1.00  0.00    -0.354 N 
ATOM     45  C   UNL A   1      43.039  28.965  33.546  1.00  0.00     0.074 A 
ATOM     46  C   UNL A   1      43.729  27.974  32.748  1.00  0.00     0.031 C 
ATOM     47  C   UNL A   1      38.444  31.061  29.558  1.00  0.00     0.029 A 
ATOM     48  C   UNL A   1      38.682  31.478  30.937  1.00  0.00     0.049 A 
ATOM     49  H   UNL A   1      40.194  30.828  32.213  1.00  0.00     0.167 HD
ATOM     50  C   UNL A   1      43.373  29.288  34.817  1.00  0.00     0.037 A 
ATOM     51  C   UNL A   1      37.944  32.375  31.619  1.00  0.00     0.037 A 
ATOM     52  C   UNL A   1      42.693  30.290  35.597  1.00  0.00     0.049 A 
ATOM     53  C   UNL A   1      38.333  32.719  33.032  1.00  0.00     0.074 A 
ATOM     54  C   UNL A   1      42.980  30.727  36.879  1.00  0.00     0.029 A 
ATOM     55  N   UNL A   1      41.587  31.010  35.169  1.00  0.00    -0.354 N 
ATOM     56  N   UNL A   1      39.321  32.245  33.754  1.00  0.00    -0.248 NA
ATOM     57  C   UNL A   1      37.513  33.726  33.719  1.00  0.00     0.031 C 
ATOM     58  C   UNL A   1      42.022  31.681  37.241  1.00  0.00     0.029 A 
ATOM     59  C   UNL A   1      41.169  31.877  36.166  1.00  0.00     0.049 A 
ATOM     60  H   UNL A   1      41.161  30.920  34.286  1.00  0.00     0.167 HD
ATOM     61  C   UNL A   1      39.261  32.920  34.968  1.00  0.00     0.074 A 
ATOM     62  C   UNL A   1      38.145  33.840  34.879  1.00  0.00     0.031 C 
ATOM     63  C   UNL A   1      40.060  32.792  36.057  1.00  0.00     0.037 A 
BRANCH  50  64
ATOM     64  C   UNL A   1      44.529  28.551  35.440  1.00  0.00     0.058 A 
ATOM     65  C   UNL A   1      45.851  29.009  35.315  1.00  0.00     0.135 A 
ATOM     66  C   UNL A   1      44.314  27.378  36.183  1.00  0.00     0.135 A 
ATOM     67  F   UNL A   1      46.118  30.117  34.605  1.00  0.00    -0.206 F 
ATOM     68  C   UNL A   1      46.920  28.311  35.865  1.00  0.00     0.059 A 
ATOM     69  C   UNL A   1      45.366  26.679  36.768  1.00  0.00     0.059 A 
ATOM     70  F   UNL A   1      43.071  26.894  36.338  1.00  0.00    -0.206 F 
ATOM     71  C   UNL A   1      46.668  27.143  36.586  1.00  0.00     0.060 A 
BRANCH  71  72
ATOM     72  S   UNL A   1      48.068  26.240  37.281  1.00  0.00     0.124 S 
ATOM     73  O   UNL A   1      49.096  27.277  37.311  1.00  0.00    -0.237 OA
ATOM     74  O   UNL A   1      47.555  25.818  38.581  1.00  0.00    -0.237 OA
ATOM     75  O   UNL A   1      48.290  25.165  36.319  1.00  0.00    -0.744 OA
ENDBRANCH  71  72
ENDBRANCH  50  64
BRANCH  51  76
ATOM     76  C   UNL A   1      36.788  33.039  30.960  1.00  0.00     0.058 A 
ATOM     77  C   UNL A   1      35.472  32.699  31.301  1.00  0.00     0.135 A 
ATOM     78  C   UNL A   1      36.975  34.041  29.994  1.00  0.00     0.135 A 
ATOM     79  F   UNL A   1      35.242  31.744  32.215  1.00  0.00    -0.206 F 
ATOM     80  C   UNL A   1      34.379  33.317  30.702  1.00  0.00     0.059 A 
ATOM     81  C   UNL A   1      35.898  34.692  29.398  1.00  0.00     0.059 A 
ATOM     82  F   UNL A   1      38.215  34.416  29.644  1.00  0.00    -0.206 F 
ATOM     83  C   UNL A   1      34.604  34.316  29.753  1.00  0.00     0.060 A 
BRANCH  83  84
ATOM     84  S   UNL A   1      33.179  35.152  29.023  1.00  0.00     0.124 S 
ATOM     85  O   UNL A   1      32.702  34.149  28.078  1.00  0.00    -0.237 OA
ATOM     86  O   UNL A   1      32.331  35.386  30.188  1.00  0.00    -0.237 OA
ATOM     87  O   UNL A   1      33.762  36.352  28.430  1.00  0.00    -0.744 OA
ENDBRANCH  83  84
ENDBRANCH  51  76
BRANCH  63  88
ATOM     88  C   UNL A   1      39.784  33.699  37.227  1.00  0.00     0.058 A 
ATOM     89  C   UNL A   1      40.421  34.941  37.368  1.00  0.00     0.135 A 
ATOM     90  C   UNL A   1      38.835  33.334  38.196  1.00  0.00     0.135 A 
ATOM     91  F   UNL A   1      41.341  35.335  36.472  1.00  0.00    -0.206 F 
ATOM     92  C   UNL A   1      40.151  35.777  38.446  1.00  0.00     0.059 A 
ATOM     93  C   UNL A   1      38.527  34.169  39.266  1.00  0.00     0.059 A 
ATOM     94  F   UNL A   1      38.187  32.163  38.103  1.00  0.00    -0.206 F 
ATOM     95  C   UNL A   1      39.202  35.382  39.390  1.00  0.00     0.060 A 
BRANCH  95  96
ATOM     96  S   UNL A   1      38.843  36.487  40.772  1.00  0.00     0.124 S 
ATOM     97  O   UNL A   1      37.944  35.668  41.577  1.00  0.00    -0.237 OA
ATOM     98  O   UNL A   1      40.168  36.719  41.338  1.00  0.00    -0.237 OA
ATOM     99  O   UNL A   1      38.230  37.647  40.130  1.00  0.00    -0.744 OA
ENDBRANCH  95  96
ENDBRANCH  63  88
ENDBRANCH  37  38
ENDBRANCH  29  32
ENDBRANCH  27  28
ENDBRANCH  26  27
ENDBRANCH  25  26
ENDBRANCH   1  25
TORSDOF 19
ENDMDL
