MODEL 1
REMARK VINA RESULT:     -11.7      0.000      0.000
REMARK SMILES C[C@H](Oc1ccnc2c(F)cc(F)cc12)C(=O)NCCCCCCNC(=O)c1ccc(-c2c3nc(c(-c4c(F)cc(S(=O)(=O)[O-])cc4F)c4ccc([nH]4)c(-c4c(F)cc(S(=O)(=O)[O-])cc4F)c4nc(c(-c5c(F)cc(S(=O)(=O)[O-])cc5F)c5ccc2[nH]5)C=C4)C=C3)cc1
REMARK SMILES IDX 22 1 21 2 20 3 19 4 18 5 16 6 17 7 2 9 1 10 3 11 4 12 5 13
REMARK SMILES IDX 15 14 6 15 8 16 14 17 7 18 9 19 12 20 10 21 11 22 13 23
REMARK SMILES IDX 23 24 24 25 25 26 26 27 27 29 28 30 29 31 93 32 30 33 92 34
REMARK SMILES IDX 31 35 32 36 33 37 86 38 34 39 91 40 85 41 87 42 35 43 90 44
REMARK SMILES IDX 84 45 83 46 36 48 70 49 49 50 69 51 50 52 53 53 68 54 88 55
REMARK SMILES IDX 51 56 52 57 67 59 89 60 54 61 37 62 38 63 47 64 39 65 40 66
REMARK SMILES IDX 46 67 48 68 41 69 42 70 43 71 44 72 45 73 71 74 72 75 81 76
REMARK SMILES IDX 73 77 74 78 80 79 82 80 75 81 76 82 77 83 78 84 79 85 55 86
REMARK SMILES IDX 56 87 65 88 57 89 58 90 64 91 66 92 59 93 60 94 61 95 62 96
REMARK SMILES IDX 63 97
REMARK H PARENT 18 8 25 28 87 47 53 58
REMARK Flexibility Score: inf
ROOT
ATOM      1  C   UNL A   1      34.691  29.273  27.226  1.00  0.00     0.002 C 
ENDROOT
BRANCH   1   2
ATOM      2  C   UNL A   1      33.912  28.750  26.020  1.00  0.00     0.002 C 
BRANCH   2   3
ATOM      3  C   UNL A   1      33.731  27.229  25.954  1.00  0.00     0.021 C 
BRANCH   3   4
ATOM      4  C   UNL A   1      32.660  26.729  24.985  1.00  0.00     0.116 C 
BRANCH   4   5
ATOM      5  N   UNL A   1      33.154  26.604  23.630  1.00  0.00    -0.353 N 
ATOM      6  C   UNL A   1      33.298  25.506  22.842  1.00  0.00     0.260 C 
ATOM      7  O   UNL A   1      33.796  25.661  21.722  1.00  0.00    -0.271 OA
ATOM      8  H   UNL A   1      33.432  27.451  23.212  1.00  0.00     0.163 HD
BRANCH   6   9
ATOM      9  C   UNL A   1      32.837  24.101  23.299  1.00  0.00     0.258 C 
ATOM     10  C   UNL A   1      31.309  24.056  23.197  1.00  0.00     0.064 C 
BRANCH   9  11
ATOM     11  O   UNL A   1      33.179  23.601  24.583  1.00  0.00    -0.480 OA
BRANCH  11  12
ATOM     12  C   UNL A   1      33.614  22.308  24.730  1.00  0.00     0.131 A 
ATOM     13  C   UNL A   1      32.804  21.185  24.630  1.00  0.00     0.067 A 
ATOM     14  C   UNL A   1      35.007  22.152  24.926  1.00  0.00     0.048 A 
ATOM     15  C   UNL A   1      33.414  19.947  24.623  1.00  0.00     0.115 A 
ATOM     16  C   UNL A   1      35.535  20.842  24.904  1.00  0.00     0.110 A 
ATOM     17  C   UNL A   1      35.880  23.246  25.125  1.00  0.00     0.053 A 
ATOM     18  N   UNL A   1      34.743  19.762  24.741  1.00  0.00    -0.253 NA
ATOM     19  C   UNL A   1      36.919  20.695  25.045  1.00  0.00     0.152 A 
ATOM     20  C   UNL A   1      37.244  23.044  25.291  1.00  0.00     0.127 A 
ATOM     21  F   UNL A   1      37.465  19.467  24.995  1.00  0.00    -0.204 F 
ATOM     22  C   UNL A   1      37.778  21.773  25.240  1.00  0.00     0.080 A 
ATOM     23  F   UNL A   1      38.047  24.093  25.503  1.00  0.00    -0.207 F 
ENDBRANCH  11  12
ENDBRANCH   9  11
ENDBRANCH   6   9
ENDBRANCH   4   5
ENDBRANCH   3   4
ENDBRANCH   2   3
ENDBRANCH   1   2
BRANCH   1  24
ATOM     24  C   UNL A   1      34.580  30.778  27.472  1.00  0.00     0.021 C 
BRANCH  24  25
ATOM     25  C   UNL A   1      35.718  31.380  28.287  1.00  0.00     0.116 C 
BRANCH  25  26
ATOM     26  N   UNL A   1      35.533  31.183  29.714  1.00  0.00    -0.352 N 
ATOM     27  C   UNL A   1      36.389  30.593  30.609  1.00  0.00     0.251 C 
ATOM     28  H   UNL A   1      34.684  31.517  30.087  1.00  0.00     0.163 HD
ATOM     29  O   UNL A   1      36.021  30.333  31.751  1.00  0.00    -0.269 OA
BRANCH  27  30
ATOM     30  C   UNL A   1      37.757  30.252  30.169  1.00  0.00     0.039 A 
ATOM     31  C   UNL A   1      38.745  30.034  31.130  1.00  0.00     0.014 A 
ATOM     32  C   UNL A   1      38.045  30.122  28.807  1.00  0.00     0.014 A 
ATOM     33  C   UNL A   1      40.020  29.637  30.725  1.00  0.00     0.010 A 
ATOM     34  C   UNL A   1      39.301  29.677  28.407  1.00  0.00     0.010 A 
ATOM     35  C   UNL A   1      40.301  29.439  29.363  1.00  0.00    -0.014 A 
BRANCH  35  36
ATOM     36  C   UNL A   1      41.655  29.032  28.918  1.00  0.00     0.031 A 
ATOM     37  C   UNL A   1      42.763  30.045  28.898  1.00  0.00     0.074 A 
ATOM     38  C   UNL A   1      41.877  27.768  28.507  1.00  0.00     0.049 A 
ATOM     39  N   UNL A   1      44.007  29.899  28.523  1.00  0.00    -0.248 NA
ATOM     40  C   UNL A   1      42.422  31.407  29.340  1.00  0.00     0.031 C 
ATOM     41  C   UNL A   1      40.871  26.706  28.456  1.00  0.00     0.029 A 
ATOM     42  N   UNL A   1      43.022  27.166  28.049  1.00  0.00    -0.354 N 
ATOM     43  C   UNL A   1      44.599  31.145  28.691  1.00  0.00     0.074 A 
ATOM     44  C   UNL A   1      43.565  32.049  29.144  1.00  0.00     0.031 C 
ATOM     45  C   UNL A   1      41.448  25.577  28.011  1.00  0.00     0.029 A 
ATOM     46  C   UNL A   1      42.855  25.840  27.723  1.00  0.00     0.049 A 
ATOM     47  H   UNL A   1      43.880  27.638  27.963  1.00  0.00     0.167 HD
ATOM     48  C   UNL A   1      45.894  31.496  28.512  1.00  0.00     0.037 A 
ATOM     49  C   UNL A   1      43.741  24.942  27.247  1.00  0.00     0.037 A 
ATOM     50  C   UNL A   1      46.921  30.588  28.076  1.00  0.00     0.049 A 
ATOM     51  C   UNL A   1      45.167  25.364  27.024  1.00  0.00     0.074 A 
ATOM     52  C   UNL A   1      48.270  30.837  27.903  1.00  0.00     0.029 A 
ATOM     53  N   UNL A   1      46.712  29.259  27.742  1.00  0.00    -0.354 N 
ATOM     54  N   UNL A   1      45.723  26.534  27.236  1.00  0.00    -0.248 NA
ATOM     55  C   UNL A   1      46.090  24.346  26.499  1.00  0.00     0.031 C 
ATOM     56  C   UNL A   1      48.872  29.666  27.431  1.00  0.00     0.029 A 
ATOM     57  C   UNL A   1      47.904  28.678  27.345  1.00  0.00     0.049 A 
ATOM     58  H   UNL A   1      45.843  28.797  27.782  1.00  0.00     0.167 HD
ATOM     59  C   UNL A   1      47.062  26.387  26.891  1.00  0.00     0.074 A 
ATOM     60  C   UNL A   1      47.236  25.014  26.464  1.00  0.00     0.031 C 
ATOM     61  C   UNL A   1      48.056  27.308  26.925  1.00  0.00     0.037 A 
BRANCH  48  62
ATOM     62  C   UNL A   1      46.272  32.919  28.808  1.00  0.00     0.058 A 
ATOM     63  C   UNL A   1      46.681  33.311  30.092  1.00  0.00     0.135 A 
ATOM     64  C   UNL A   1      46.256  33.891  27.796  1.00  0.00     0.135 A 
ATOM     65  F   UNL A   1      46.694  32.423  31.099  1.00  0.00    -0.206 F 
ATOM     66  C   UNL A   1      47.042  34.624  30.369  1.00  0.00     0.059 A 
ATOM     67  C   UNL A   1      46.637  35.207  28.046  1.00  0.00     0.059 A 
ATOM     68  F   UNL A   1      45.868  33.568  26.553  1.00  0.00    -0.206 F 
ATOM     69  C   UNL A   1      47.017  35.566  29.339  1.00  0.00     0.060 A 
BRANCH  69  70
ATOM     70  S   UNL A   1      47.498  37.264  29.715  1.00  0.00     0.124 S 
ATOM     71  O   UNL A   1      48.595  37.054  30.655  1.00  0.00    -0.237 OA
ATOM     72  O   UNL A   1      47.878  37.778  28.403  1.00  0.00    -0.237 OA
ATOM     73  O   UNL A   1      46.287  37.844  30.286  1.00  0.00    -0.744 OA
ENDBRANCH  69  70
ENDBRANCH  48  62
BRANCH  49  74
ATOM     74  C   UNL A   1      43.308  23.546  26.982  1.00  0.00     0.058 A 
ATOM     75  C   UNL A   1      42.993  23.127  25.681  1.00  0.00     0.135 A 
ATOM     76  C   UNL A   1      43.222  22.598  28.014  1.00  0.00     0.135 A 
ATOM     77  F   UNL A   1      43.054  23.998  24.663  1.00  0.00    -0.206 F 
ATOM     78  C   UNL A   1      42.604  21.819  25.411  1.00  0.00     0.059 A 
ATOM     79  C   UNL A   1      42.853  21.280  27.766  1.00  0.00     0.059 A 
ATOM     80  F   UNL A   1      43.526  22.948  29.273  1.00  0.00    -0.206 F 
ATOM     81  C   UNL A   1      42.541  20.901  26.461  1.00  0.00     0.060 A 
BRANCH  81  82
ATOM     82  S   UNL A   1      42.094  19.191  26.089  1.00  0.00     0.124 S 
ATOM     83  O   UNL A   1      40.662  19.307  25.843  1.00  0.00    -0.237 OA
ATOM     84  O   UNL A   1      42.922  18.906  24.920  1.00  0.00    -0.237 OA
ATOM     85  O   UNL A   1      42.472  18.473  27.303  1.00  0.00    -0.744 OA
ENDBRANCH  81  82
ENDBRANCH  49  74
BRANCH  61  86
ATOM     86  C   UNL A   1      49.429  26.866  26.501  1.00  0.00     0.058 A 
ATOM     87  C   UNL A   1      50.319  26.277  27.410  1.00  0.00     0.135 A 
ATOM     88  C   UNL A   1      49.821  26.954  25.155  1.00  0.00     0.135 A 
ATOM     89  F   UNL A   1      49.993  26.179  28.708  1.00  0.00    -0.206 F 
ATOM     90  C   UNL A   1      51.556  25.792  27.001  1.00  0.00     0.059 A 
ATOM     91  C   UNL A   1      51.045  26.456  24.720  1.00  0.00     0.059 A 
ATOM     92  F   UNL A   1      49.000  27.502  24.245  1.00  0.00    -0.206 F 
ATOM     93  C   UNL A   1      51.908  25.880  25.652  1.00  0.00     0.060 A 
BRANCH  93  94
ATOM     94  S   UNL A   1      53.490  25.190  25.126  1.00  0.00     0.124 S 
ATOM     95  O   UNL A   1      53.262  23.760  25.306  1.00  0.00    -0.237 OA
ATOM     96  O   UNL A   1      53.586  25.647  23.743  1.00  0.00    -0.237 OA
ATOM     97  O   UNL A   1      54.449  25.794  26.047  1.00  0.00    -0.744 OA
ENDBRANCH  93  94
ENDBRANCH  61  86
ENDBRANCH  35  36
ENDBRANCH  27  30
ENDBRANCH  25  26
ENDBRANCH  24  25
ENDBRANCH   1  24
TORSDOF 18
ENDMDL
MODEL 2
REMARK VINA RESULT:     -11.7      2.965      4.295
REMARK SMILES C[C@H](Oc1ccnc2c(F)cc(F)cc12)C(=O)NCCCCCCNC(=O)c1ccc(-c2c3nc(c(-c4c(F)cc(S(=O)(=O)[O-])cc4F)c4ccc([nH]4)c(-c4c(F)cc(S(=O)(=O)[O-])cc4F)c4nc(c(-c5c(F)cc(S(=O)(=O)[O-])cc5F)c5ccc2[nH]5)C=C4)C=C3)cc1
REMARK SMILES IDX 22 1 21 2 20 3 19 4 18 5 16 6 17 7 2 9 1 10 3 11 4 12 5 13
REMARK SMILES IDX 15 14 6 15 8 16 14 17 7 18 9 19 12 20 10 21 11 22 13 23
REMARK SMILES IDX 23 24 24 25 25 26 26 27 27 29 28 30 29 31 93 32 30 33 92 34
REMARK SMILES IDX 31 35 32 36 33 37 86 38 34 39 91 40 85 41 87 42 35 43 90 44
REMARK SMILES IDX 84 45 83 46 36 48 70 49 49 50 69 51 50 52 53 53 68 54 88 55
REMARK SMILES IDX 51 56 52 57 67 59 89 60 54 61 37 62 38 63 47 64 39 65 40 66
REMARK SMILES IDX 46 67 48 68 41 69 42 70 43 71 44 72 45 73 71 74 72 75 81 76
REMARK SMILES IDX 73 77 74 78 80 79 82 80 75 81 76 82 77 83 78 84 79 85 55 86
REMARK SMILES IDX 56 87 65 88 57 89 58 90 64 91 66 92 59 93 60 94 61 95 62 96
REMARK SMILES IDX 63 97
REMARK H PARENT 18 8 25 28 87 47 53 58
REMARK Flexibility Score: inf
ROOT
ATOM      1  C   UNL A   1      34.053  26.708  24.837  1.00  0.00     0.002 C 
ENDROOT
BRANCH   1   2
ATOM      2  C   UNL A   1      34.049  25.504  25.779  1.00  0.00     0.002 C 
BRANCH   2   3
ATOM      3  C   UNL A   1      35.133  24.451  25.517  1.00  0.00     0.021 C 
BRANCH   3   4
ATOM      4  C   UNL A   1      35.020  23.697  24.193  1.00  0.00     0.116 C 
BRANCH   4   5
ATOM      5  N   UNL A   1      35.359  22.295  24.325  1.00  0.00    -0.353 N 
ATOM      6  C   UNL A   1      34.594  21.234  24.693  1.00  0.00     0.260 C 
ATOM      7  O   UNL A   1      35.142  20.130  24.775  1.00  0.00    -0.271 OA
ATOM      8  H   UNL A   1      36.295  22.075  24.113  1.00  0.00     0.163 HD
BRANCH   6   9
ATOM      9  C   UNL A   1      33.080  21.374  24.982  1.00  0.00     0.258 C 
ATOM     10  C   UNL A   1      32.479  19.964  25.009  1.00  0.00     0.064 C 
BRANCH   9  11
ATOM     11  O   UNL A   1      32.246  22.161  24.147  1.00  0.00    -0.480 OA
BRANCH  11  12
ATOM     12  C   UNL A   1      31.429  23.121  24.689  1.00  0.00     0.131 A 
ATOM     13  C   UNL A   1      30.797  23.018  25.920  1.00  0.00     0.067 A 
ATOM     14  C   UNL A   1      31.307  24.314  23.937  1.00  0.00     0.048 A 
ATOM     15  C   UNL A   1      30.154  24.135  26.412  1.00  0.00     0.115 A 
ATOM     16  C   UNL A   1      30.628  25.402  24.528  1.00  0.00     0.110 A 
ATOM     17  C   UNL A   1      31.847  24.460  22.638  1.00  0.00     0.053 A 
ATOM     18  N   UNL A   1      30.075  25.309  25.754  1.00  0.00    -0.253 NA
ATOM     19  C   UNL A   1      30.555  26.597  23.804  1.00  0.00     0.152 A 
ATOM     20  C   UNL A   1      31.721  25.658  21.948  1.00  0.00     0.127 A 
ATOM     21  F   UNL A   1      29.947  27.666  24.346  1.00  0.00    -0.204 F 
ATOM     22  C   UNL A   1      31.087  26.739  22.526  1.00  0.00     0.080 A 
ATOM     23  F   UNL A   1      32.219  25.763  20.710  1.00  0.00    -0.207 F 
ENDBRANCH  11  12
ENDBRANCH   9  11
ENDBRANCH   6   9
ENDBRANCH   4   5
ENDBRANCH   3   4
ENDBRANCH   2   3
ENDBRANCH   1   2
BRANCH   1  24
ATOM     24  C   UNL A   1      33.556  28.018  25.451  1.00  0.00     0.021 C 
BRANCH  24  25
ATOM     25  C   UNL A   1      33.929  28.221  26.914  1.00  0.00     0.116 C 
BRANCH  25  26
ATOM     26  N   UNL A   1      33.701  29.588  27.351  1.00  0.00    -0.352 N 
ATOM     27  C   UNL A   1      34.547  30.407  28.057  1.00  0.00     0.251 C 
ATOM     28  H   UNL A   1      32.830  29.977  27.109  1.00  0.00     0.163 HD
ATOM     29  O   UNL A   1      34.150  31.474  28.513  1.00  0.00    -0.269 OA
BRANCH  27  30
ATOM     30  C   UNL A   1      35.940  29.970  28.279  1.00  0.00     0.039 A 
ATOM     31  C   UNL A   1      36.869  30.112  27.247  1.00  0.00     0.014 A 
ATOM     32  C   UNL A   1      36.325  29.450  29.520  1.00  0.00     0.014 A 
ATOM     33  C   UNL A   1      38.204  29.773  27.474  1.00  0.00     0.010 A 
ATOM     34  C   UNL A   1      37.665  29.162  29.761  1.00  0.00     0.010 A 
ATOM     35  C   UNL A   1      38.613  29.313  28.737  1.00  0.00    -0.014 A 
BRANCH  35  36
ATOM     36  C   UNL A   1      40.024  28.936  28.987  1.00  0.00     0.031 A 
ATOM     37  C   UNL A   1      40.960  29.939  29.601  1.00  0.00     0.074 A 
ATOM     38  C   UNL A   1      40.468  27.713  28.638  1.00  0.00     0.049 A 
ATOM     39  N   UNL A   1      42.231  29.817  29.879  1.00  0.00    -0.248 NA
ATOM     40  C   UNL A   1      40.394  31.258  29.927  1.00  0.00     0.031 C 
ATOM     41  C   UNL A   1      39.658  26.667  28.009  1.00  0.00     0.029 A 
ATOM     42  N   UNL A   1      41.711  27.146  28.757  1.00  0.00    -0.354 N 
ATOM     43  C   UNL A   1      42.616  31.038  30.419  1.00  0.00     0.074 A 
ATOM     44  C   UNL A   1      41.459  31.906  30.375  1.00  0.00     0.031 C 
ATOM     45  C   UNL A   1      40.422  25.579  27.817  1.00  0.00     0.029 A 
ATOM     46  C   UNL A   1      41.778  25.856  28.284  1.00  0.00     0.049 A 
ATOM     47  H   UNL A   1      42.482  27.617  29.146  1.00  0.00     0.167 HD
ATOM     48  C   UNL A   1      43.816  31.394  30.933  1.00  0.00     0.037 A 
ATOM     49  C   UNL A   1      42.816  24.998  28.236  1.00  0.00     0.037 A 
ATOM     50  C   UNL A   1      44.958  30.521  30.989  1.00  0.00     0.049 A 
ATOM     51  C   UNL A   1      44.150  25.427  28.783  1.00  0.00     0.074 A 
ATOM     52  C   UNL A   1      46.207  30.774  31.527  1.00  0.00     0.029 A 
ATOM     53  N   UNL A   1      44.991  29.229  30.488  1.00  0.00    -0.354 N 
ATOM     54  N   UNL A   1      44.484  26.568  29.337  1.00  0.00    -0.248 NA
ATOM     55  C   UNL A   1      45.248  24.453  28.701  1.00  0.00     0.031 C 
ATOM     56  C   UNL A   1      47.007  29.645  31.319  1.00  0.00     0.029 A 
ATOM     57  C   UNL A   1      46.245  28.677  30.686  1.00  0.00     0.049 A 
ATOM     58  H   UNL A   1      44.234  28.772  30.054  1.00  0.00     0.167 HD
ATOM     59  C   UNL A   1      45.823  26.443  29.689  1.00  0.00     0.074 A 
ATOM     60  C   UNL A   1      46.237  25.112  29.292  1.00  0.00     0.031 C 
ATOM     61  C   UNL A   1      46.636  27.349  30.285  1.00  0.00     0.037 A 
BRANCH  48  62
ATOM     62  C   UNL A   1      43.946  32.781  31.493  1.00  0.00     0.058 A 
ATOM     63  C   UNL A   1      43.707  33.043  32.852  1.00  0.00     0.135 A 
ATOM     64  C   UNL A   1      44.340  33.852  30.676  1.00  0.00     0.135 A 
ATOM     65  F   UNL A   1      43.309  32.057  33.671  1.00  0.00    -0.206 F 
ATOM     66  C   UNL A   1      43.836  34.323  33.378  1.00  0.00     0.059 A 
ATOM     67  C   UNL A   1      44.497  35.137  31.186  1.00  0.00     0.059 A 
ATOM     68  F   UNL A   1      44.574  33.655  29.370  1.00  0.00    -0.206 F 
ATOM     69  C   UNL A   1      44.231  35.365  32.536  1.00  0.00     0.060 A 
BRANCH  69  70
ATOM     70  S   UNL A   1      44.402  37.018  33.239  1.00  0.00     0.124 S 
ATOM     71  O   UNL A   1      45.227  36.752  34.413  1.00  0.00    -0.237 OA
ATOM     72  O   UNL A   1      45.056  37.750  32.159  1.00  0.00    -0.237 OA
ATOM     73  O   UNL A   1      43.025  37.415  33.517  1.00  0.00    -0.744 OA
ENDBRANCH  69  70
ENDBRANCH  48  62
BRANCH  49  74
ATOM     74  C   UNL A   1      42.623  23.635  27.678  1.00  0.00     0.058 A 
ATOM     75  C   UNL A   1      42.715  23.404  26.298  1.00  0.00     0.135 A 
ATOM     76  C   UNL A   1      42.367  22.533  28.510  1.00  0.00     0.135 A 
ATOM     77  F   UNL A   1      42.951  24.427  25.463  1.00  0.00    -0.206 F 
ATOM     78  C   UNL A   1      42.555  22.132  25.759  1.00  0.00     0.059 A 
ATOM     79  C   UNL A   1      42.222  21.248  27.997  1.00  0.00     0.059 A 
ATOM     80  F   UNL A   1      42.283  22.700  29.839  1.00  0.00    -0.206 F 
ATOM     81  C   UNL A   1      42.313  21.059  26.618  1.00  0.00     0.060 A 
BRANCH  81  82
ATOM     82  S   UNL A   1      42.170  19.401  25.913  1.00  0.00     0.124 S 
ATOM     83  O   UNL A   1      42.669  18.573  27.004  1.00  0.00    -0.237 OA
ATOM     84  O   UNL A   1      40.738  19.307  25.644  1.00  0.00    -0.237 OA
ATOM     85  O   UNL A   1      43.019  19.466  24.727  1.00  0.00    -0.744 OA
ENDBRANCH  81  82
ENDBRANCH  49  74
BRANCH  61  86
ATOM     86  C   UNL A   1      48.055  26.937  30.560  1.00  0.00     0.058 A 
ATOM     87  C   UNL A   1      49.099  27.295  29.696  1.00  0.00     0.135 A 
ATOM     88  C   UNL A   1      48.383  26.254  31.743  1.00  0.00     0.135 A 
ATOM     89  F   UNL A   1      48.836  27.941  28.549  1.00  0.00    -0.206 F 
ATOM     90  C   UNL A   1      50.423  26.987  29.991  1.00  0.00     0.059 A 
ATOM     91  C   UNL A   1      49.701  25.955  32.070  1.00  0.00     0.059 A 
ATOM     92  F   UNL A   1      47.419  25.897  32.607  1.00  0.00    -0.206 F 
ATOM     93  C   UNL A   1      50.714  26.322  31.185  1.00  0.00     0.060 A 
BRANCH  93  94
ATOM     94  S   UNL A   1      52.442  25.985  31.585  1.00  0.00     0.124 S 
ATOM     95  O   UNL A   1      53.060  26.009  30.263  1.00  0.00    -0.237 OA
ATOM     96  O   UNL A   1      52.783  27.100  32.463  1.00  0.00    -0.237 OA
ATOM     97  O   UNL A   1      52.393  24.676  32.232  1.00  0.00    -0.744 OA
ENDBRANCH  93  94
ENDBRANCH  61  86
ENDBRANCH  35  36
ENDBRANCH  27  30
ENDBRANCH  25  26
ENDBRANCH  24  25
ENDBRANCH   1  24
TORSDOF 18
ENDMDL
MODEL 3
REMARK VINA RESULT:     -11.5      2.900      3.713
REMARK SMILES C[C@H](Oc1ccnc2c(F)cc(F)cc12)C(=O)NCCCCCCNC(=O)c1ccc(-c2c3nc(c(-c4c(F)cc(S(=O)(=O)[O-])cc4F)c4ccc([nH]4)c(-c4c(F)cc(S(=O)(=O)[O-])cc4F)c4nc(c(-c5c(F)cc(S(=O)(=O)[O-])cc5F)c5ccc2[nH]5)C=C4)C=C3)cc1
REMARK SMILES IDX 22 1 21 2 20 3 19 4 18 5 16 6 17 7 2 9 1 10 3 11 4 12 5 13
REMARK SMILES IDX 15 14 6 15 8 16 14 17 7 18 9 19 12 20 10 21 11 22 13 23
REMARK SMILES IDX 23 24 24 25 25 26 26 27 27 29 28 30 29 31 93 32 30 33 92 34
REMARK SMILES IDX 31 35 32 36 33 37 86 38 34 39 91 40 85 41 87 42 35 43 90 44
REMARK SMILES IDX 84 45 83 46 36 48 70 49 49 50 69 51 50 52 53 53 68 54 88 55
REMARK SMILES IDX 51 56 52 57 67 59 89 60 54 61 37 62 38 63 47 64 39 65 40 66
REMARK SMILES IDX 46 67 48 68 41 69 42 70 43 71 44 72 45 73 71 74 72 75 81 76
REMARK SMILES IDX 73 77 74 78 80 79 82 80 75 81 76 82 77 83 78 84 79 85 55 86
REMARK SMILES IDX 56 87 65 88 57 89 58 90 64 91 66 92 59 93 60 94 61 95 62 96
REMARK SMILES IDX 63 97
REMARK H PARENT 18 8 25 28 87 47 53 58
REMARK Flexibility Score: inf
ROOT
ATOM      1  C   UNL A   1      31.700  28.096  25.304  1.00  0.00     0.002 C 
ENDROOT
BRANCH   1   2
ATOM      2  C   UNL A   1      30.911  27.089  24.469  1.00  0.00     0.002 C 
BRANCH   2   3
ATOM      3  C   UNL A   1      31.731  25.953  23.847  1.00  0.00     0.021 C 
BRANCH   3   4
ATOM      4  C   UNL A   1      31.196  24.541  24.086  1.00  0.00     0.116 C 
BRANCH   4   5
ATOM      5  N   UNL A   1      30.449  24.434  25.322  1.00  0.00    -0.353 N 
ATOM      6  C   UNL A   1      30.600  23.586  26.373  1.00  0.00     0.260 C 
ATOM      7  O   UNL A   1      29.790  23.669  27.302  1.00  0.00    -0.271 OA
ATOM      8  H   UNL A   1      29.712  25.080  25.416  1.00  0.00     0.163 HD
BRANCH   6   9
ATOM      9  C   UNL A   1      31.756  22.558  26.440  1.00  0.00     0.258 C 
ATOM     10  C   UNL A   1      32.494  22.773  27.765  1.00  0.00     0.064 C 
BRANCH   9  11
ATOM     11  O   UNL A   1      32.745  22.502  25.422  1.00  0.00    -0.480 OA
BRANCH  11  12
ATOM     12  C   UNL A   1      33.510  21.375  25.261  1.00  0.00     0.131 A 
ATOM     13  C   UNL A   1      33.005  20.106  25.012  1.00  0.00     0.067 A 
ATOM     14  C   UNL A   1      34.910  21.580  25.287  1.00  0.00     0.048 A 
ATOM     15  C   UNL A   1      33.901  19.106  24.695  1.00  0.00     0.115 A 
ATOM     16  C   UNL A   1      35.743  20.491  24.947  1.00  0.00     0.110 A 
ATOM     17  C   UNL A   1      35.497  22.822  25.620  1.00  0.00     0.053 A 
ATOM     18  N   UNL A   1      35.236  19.279  24.644  1.00  0.00    -0.253 NA
ATOM     19  C   UNL A   1      37.125  20.710  24.923  1.00  0.00     0.152 A 
ATOM     20  C   UNL A   1      36.877  22.980  25.610  1.00  0.00     0.127 A 
ATOM     21  F   UNL A   1      37.950  19.709  24.572  1.00  0.00    -0.204 F 
ATOM     22  C   UNL A   1      37.701  21.934  25.250  1.00  0.00     0.080 A 
ATOM     23  F   UNL A   1      37.410  24.158  25.954  1.00  0.00    -0.207 F 
ENDBRANCH  11  12
ENDBRANCH   9  11
ENDBRANCH   6   9
ENDBRANCH   4   5
ENDBRANCH   3   4
ENDBRANCH   2   3
ENDBRANCH   1   2
BRANCH   1  24
ATOM     24  C   UNL A   1      33.193  27.799  25.446  1.00  0.00     0.021 C 
BRANCH  24  25
ATOM     25  C   UNL A   1      33.792  28.158  26.801  1.00  0.00     0.116 C 
BRANCH  25  26
ATOM     26  N   UNL A   1      33.542  29.544  27.158  1.00  0.00    -0.352 N 
ATOM     27  C   UNL A   1      34.360  30.404  27.848  1.00  0.00     0.251 C 
ATOM     28  H   UNL A   1      32.677  29.914  26.869  1.00  0.00     0.163 HD
ATOM     29  O   UNL A   1      33.942  31.491  28.235  1.00  0.00    -0.269 OA
BRANCH  27  30
ATOM     30  C   UNL A   1      35.747  29.991  28.138  1.00  0.00     0.039 A 
ATOM     31  C   UNL A   1      36.717  30.123  27.143  1.00  0.00     0.014 A 
ATOM     32  C   UNL A   1      36.085  29.501  29.404  1.00  0.00     0.014 A 
ATOM     33  C   UNL A   1      38.045  29.806  27.433  1.00  0.00     0.010 A 
ATOM     34  C   UNL A   1      37.417  29.234  29.707  1.00  0.00     0.010 A 
ATOM     35  C   UNL A   1      38.406  29.376  28.721  1.00  0.00    -0.014 A 
BRANCH  35  36
ATOM     36  C   UNL A   1      39.810  29.023  29.039  1.00  0.00     0.031 A 
ATOM     37  C   UNL A   1      40.690  30.031  29.720  1.00  0.00     0.074 A 
ATOM     38  C   UNL A   1      40.296  27.816  28.689  1.00  0.00     0.049 A 
ATOM     39  N   UNL A   1      41.948  29.929  30.063  1.00  0.00    -0.248 NA
ATOM     40  C   UNL A   1      40.081  31.332  30.042  1.00  0.00     0.031 C 
ATOM     41  C   UNL A   1      39.544  26.768  27.998  1.00  0.00     0.029 A 
ATOM     42  N   UNL A   1      41.544  27.272  28.863  1.00  0.00    -0.354 N 
ATOM     43  C   UNL A   1      42.278  31.146  30.647  1.00  0.00     0.074 A 
ATOM     44  C   UNL A   1      41.107  31.992  30.558  1.00  0.00     0.031 C 
ATOM     45  C   UNL A   1      40.339  25.699  27.825  1.00  0.00     0.029 A 
ATOM     46  C   UNL A   1      41.662  25.994  28.369  1.00  0.00     0.049 A 
ATOM     47  H   UNL A   1      42.283  27.750  29.302  1.00  0.00     0.167 HD
ATOM     48  C   UNL A   1      43.441  31.515  31.230  1.00  0.00     0.037 A 
ATOM     49  C   UNL A   1      42.720  25.158  28.359  1.00  0.00     0.037 A 
ATOM     50  C   UNL A   1      44.597  30.665  31.330  1.00  0.00     0.049 A 
ATOM     51  C   UNL A   1      44.013  25.602  28.984  1.00  0.00     0.074 A 
ATOM     52  C   UNL A   1      45.810  30.931  31.938  1.00  0.00     0.029 A 
ATOM     53  N   UNL A   1      44.684  29.384  30.806  1.00  0.00    -0.354 N 
ATOM     54  N   UNL A   1      44.294  26.738  29.578  1.00  0.00    -0.248 NA
ATOM     55  C   UNL A   1      45.135  24.652  28.942  1.00  0.00     0.031 C 
ATOM     56  C   UNL A   1      46.644  29.823  31.751  1.00  0.00     0.029 A 
ATOM     57  C   UNL A   1      45.937  28.853  31.059  1.00  0.00     0.049 A 
ATOM     58  H   UNL A   1      43.960  28.921  30.324  1.00  0.00     0.167 HD
ATOM     59  C   UNL A   1      45.615  26.632  29.997  1.00  0.00     0.074 A 
ATOM     60  C   UNL A   1      46.077  25.319  29.597  1.00  0.00     0.031 C 
ATOM     61  C   UNL A   1      46.376  27.542  30.654  1.00  0.00     0.037 A 
BRANCH  48  62
ATOM     62  C   UNL A   1      43.512  32.893  31.824  1.00  0.00     0.058 A 
ATOM     63  C   UNL A   1      43.123  33.135  33.151  1.00  0.00     0.135 A 
ATOM     64  C   UNL A   1      44.000  33.974  31.073  1.00  0.00     0.135 A 
ATOM     65  F   UNL A   1      42.631  32.139  33.904  1.00  0.00    -0.206 F 
ATOM     66  C   UNL A   1      43.196  34.406  33.708  1.00  0.00     0.059 A 
ATOM     67  C   UNL A   1      44.104  35.250  31.619  1.00  0.00     0.059 A 
ATOM     68  F   UNL A   1      44.380  33.796  29.799  1.00  0.00    -0.206 F 
ATOM     69  C   UNL A   1      43.687  35.458  32.934  1.00  0.00     0.060 A 
BRANCH  69  70
ATOM     70  S   UNL A   1      43.784  37.100  33.677  1.00  0.00     0.124 S 
ATOM     71  O   UNL A   1      42.643  37.075  34.587  1.00  0.00    -0.237 OA
ATOM     72  O   UNL A   1      45.099  37.079  34.310  1.00  0.00    -0.237 OA
ATOM     73  O   UNL A   1      43.656  38.000  32.536  1.00  0.00    -0.744 OA
ENDBRANCH  69  70
ENDBRANCH  48  62
BRANCH  49  74
ATOM     74  C   UNL A   1      42.585  23.803  27.765  1.00  0.00     0.058 A 
ATOM     75  C   UNL A   1      42.683  23.614  26.379  1.00  0.00     0.135 A 
ATOM     76  C   UNL A   1      42.379  22.669  28.567  1.00  0.00     0.135 A 
ATOM     77  F   UNL A   1      42.872  24.668  25.571  1.00  0.00    -0.206 F 
ATOM     78  C   UNL A   1      42.578  22.350  25.806  1.00  0.00     0.059 A 
ATOM     79  C   UNL A   1      42.290  21.393  28.020  1.00  0.00     0.059 A 
ATOM     80  F   UNL A   1      42.291  22.797  29.900  1.00  0.00    -0.206 F 
ATOM     81  C   UNL A   1      42.385  21.245  26.636  1.00  0.00     0.060 A 
BRANCH  81  82
ATOM     82  S   UNL A   1      42.313  19.603  25.887  1.00  0.00     0.124 S 
ATOM     83  O   UNL A   1      42.668  18.749  27.015  1.00  0.00    -0.237 OA
ATOM     84  O   UNL A   1      40.923  19.530  25.445  1.00  0.00    -0.237 OA
ATOM     85  O   UNL A   1      43.300  19.678  24.815  1.00  0.00    -0.744 OA
ENDBRANCH  81  82
ENDBRANCH  49  74
BRANCH  61  86
ATOM     86  C   UNL A   1      47.787  27.153  30.995  1.00  0.00     0.058 A 
ATOM     87  C   UNL A   1      48.095  26.513  32.204  1.00  0.00     0.135 A 
ATOM     88  C   UNL A   1      48.823  27.342  30.067  1.00  0.00     0.135 A 
ATOM     89  F   UNL A   1      47.140  26.316  33.127  1.00  0.00    -0.206 F 
ATOM     90  C   UNL A   1      49.385  26.077  32.485  1.00  0.00     0.059 A 
ATOM     91  C   UNL A   1      50.116  26.895  30.317  1.00  0.00     0.059 A 
ATOM     92  F   UNL A   1      48.577  27.942  28.891  1.00  0.00    -0.206 F 
ATOM     93  C   UNL A   1      50.388  26.267  31.532  1.00  0.00     0.060 A 
BRANCH  93  94
ATOM     94  S   UNL A   1      52.044  25.640  31.885  1.00  0.00     0.124 S 
ATOM     95  O   UNL A   1      51.782  24.220  32.095  1.00  0.00    -0.237 OA
ATOM     96  O   UNL A   1      52.772  25.976  30.665  1.00  0.00    -0.237 OA
ATOM     97  O   UNL A   1      52.445  26.387  33.074  1.00  0.00    -0.744 OA
ENDBRANCH  93  94
ENDBRANCH  61  86
ENDBRANCH  35  36
ENDBRANCH  27  30
ENDBRANCH  25  26
ENDBRANCH  24  25
ENDBRANCH   1  24
TORSDOF 18
ENDMDL
