MODEL 1
REMARK VINA RESULT:     -11.8      0.000      0.000
REMARK SMILES CC(C)C(=O)Nc1ccc2c([C@H](C(=O)NCCCCCCNC(=O)c3ccc(-c4c5nc(c(-c6c(F)cc(S(=O)(=O)[O-])cc6F)c6ccc([nH]6)c(-c6c(F)cc(S(=O)(=O)[O-])cc6F)c6nc(c(-c7c(F)cc(S(=O)(=O)[O-])cc7F)c7ccc4[nH]7)C=C6)C=C5)cc3)[NH+]3CC[NH+](CC(=O)N(C)C)CC3)c[nH]c2c1
REMARK SMILES IDX 18 1 17 2 16 3 15 4 13 5 14 6 12 8 11 9 7 10 8 11 106 12
REMARK SMILES IDX 9 13 105 14 10 15 104 16 103 17 6 19 4 20 5 21 2 23 1 24
REMARK SMILES IDX 3 25 91 26 92 27 102 28 93 30 101 31 94 32 95 34 96 35 97 36
REMARK SMILES IDX 98 37 99 38 100 39 19 40 20 41 21 42 22 43 23 44 24 46 25 47
REMARK SMILES IDX 26 48 90 49 27 50 89 51 28 52 29 53 30 54 83 55 31 56 88 57
REMARK SMILES IDX 82 58 84 59 32 60 87 61 81 62 80 63 33 65 67 66 46 67 66 68
REMARK SMILES IDX 47 69 50 70 65 71 85 72 48 73 49 74 64 76 86 77 51 78 34 79
REMARK SMILES IDX 35 80 44 81 36 82 37 83 43 84 45 85 38 86 39 87 40 88 41 89
REMARK SMILES IDX 42 90 68 91 69 92 78 93 70 94 71 95 77 96 79 97 72 98 73 99
REMARK SMILES IDX 74 100 75 101 76 102 52 103 53 104 62 105 54 106 55 107
REMARK SMILES IDX 61 108 63 109 56 110 57 111 58 112 59 113 60 114
REMARK H PARENT 15 7 104 18 6 22 91 29 94 33 22 45 84 64 50 75
REMARK Flexibility Score: inf
ROOT
ATOM      1  C   UNL A   1      39.477  22.151  26.161  1.00  0.00     0.002 C 
ENDROOT
BRANCH   1   2
ATOM      2  C   UNL A   1      38.931  23.518  26.607  1.00  0.00     0.021 C 
BRANCH   2   3
ATOM      3  C   UNL A   1      37.697  23.983  25.828  1.00  0.00     0.116 C 
BRANCH   3   4
ATOM      4  N   UNL A   1      37.428  23.231  24.610  1.00  0.00    -0.351 N 
ATOM      5  C   UNL A   1      36.386  23.158  23.732  1.00  0.00     0.283 C 
ATOM      6  O   UNL A   1      36.753  22.877  22.575  1.00  0.00    -0.268 OA
ATOM      7  H   UNL A   1      38.172  22.634  24.363  1.00  0.00     0.163 HD
BRANCH   5   8
ATOM      8  C   UNL A   1      34.840  23.342  24.044  1.00  0.00     0.308 C 
BRANCH   8   9
ATOM      9  C   UNL A   1      34.432  22.373  25.166  1.00  0.00     0.044 A 
ATOM     10  C   UNL A   1      32.719  18.499  25.361  1.00  0.00     0.043 A 
ATOM     11  C   UNL A   1      32.624  19.145  24.136  1.00  0.00     0.027 A 
ATOM     12  C   UNL A   1      33.223  19.185  26.472  1.00  0.00     0.052 A 
ATOM     13  C   UNL A   1      33.171  20.419  23.938  1.00  0.00     0.013 A 
ATOM     14  C   UNL A   1      33.747  20.472  26.265  1.00  0.00     0.048 A 
ATOM     15  C   UNL A   1      33.764  21.101  25.018  1.00  0.00     0.009 A 
ATOM     16  N   UNL A   1      34.344  21.331  27.155  1.00  0.00    -0.361 N 
ATOM     17  C   UNL A   1      34.731  22.477  26.518  1.00  0.00     0.094 A 
ATOM     18  H   UNL A   1      34.474  21.148  28.113  1.00  0.00     0.166 HD
BRANCH  10  19
ATOM     19  N   UNL A   1      32.273  17.186  25.553  1.00  0.00    -0.326 N 
ATOM     20  C   UNL A   1      32.742  15.992  25.086  1.00  0.00     0.226 C 
ATOM     21  O   UNL A   1      32.022  14.999  25.255  1.00  0.00    -0.274 OA
ATOM     22  H   UNL A   1      31.478  17.110  26.129  1.00  0.00     0.169 HD
BRANCH  20  23
ATOM     23  C   UNL A   1      34.145  15.804  24.494  1.00  0.00     0.072 C 
ATOM     24  C   UNL A   1      34.385  16.488  23.157  1.00  0.00     0.018 C 
ATOM     25  C   UNL A   1      35.271  16.041  25.497  1.00  0.00     0.018 C 
ENDBRANCH  20  23
ENDBRANCH  10  19
ENDBRANCH   8   9
BRANCH   8  26
ATOM     26  N   UNL A   1      34.482  24.757  24.277  1.00  0.00    -0.312 N 
ATOM     27  C   UNL A   1      34.135  25.189  25.645  1.00  0.00     0.325 C 
ATOM     28  C   UNL A   1      33.332  25.146  23.436  1.00  0.00     0.325 C 
ATOM     29  H   UNL A   1      35.363  25.217  24.049  1.00  0.00     0.349 HD
ATOM     30  C   UNL A   1      33.885  26.728  25.732  1.00  0.00     0.325 C 
ATOM     31  C   UNL A   1      33.303  26.679  23.344  1.00  0.00     0.325 C 
ATOM     32  N   UNL A   1      33.200  27.396  24.608  1.00  0.00    -0.318 N 
ATOM     33  H   UNL A   1      33.750  28.246  24.478  1.00  0.00     0.348 HD
BRANCH  32  34
ATOM     34  C   UNL A   1      31.862  27.931  24.896  1.00  0.00     0.364 C 
BRANCH  34  35
ATOM     35  C   UNL A   1      31.049  27.040  25.842  1.00  0.00     0.277 C 
ATOM     36  O   UNL A   1      31.314  27.055  27.050  1.00  0.00    -0.268 OA
ATOM     37  N   UNL A   1      30.081  26.183  25.320  1.00  0.00    -0.344 N 
ATOM     38  C   UNL A   1      29.624  26.107  23.935  1.00  0.00     0.146 C 
ATOM     39  C   UNL A   1      29.419  25.264  26.229  1.00  0.00     0.146 C 
ENDBRANCH  34  35
ENDBRANCH  32  34
ENDBRANCH   8  26
ENDBRANCH   5   8
ENDBRANCH   3   4
ENDBRANCH   2   3
ENDBRANCH   1   2
BRANCH   1  40
ATOM     40  C   UNL A   1      40.655  21.548  26.939  1.00  0.00     0.002 C 
BRANCH  40  41
ATOM     41  C   UNL A   1      41.378  22.440  27.953  1.00  0.00     0.021 C 
BRANCH  41  42
ATOM     42  C   UNL A   1      42.709  23.051  27.512  1.00  0.00     0.116 C 
BRANCH  42  43
ATOM     43  N   UNL A   1      42.568  23.949  26.376  1.00  0.00    -0.352 N 
ATOM     44  C   UNL A   1      42.146  25.252  26.290  1.00  0.00     0.251 C 
ATOM     45  H   UNL A   1      42.821  23.549  25.512  1.00  0.00     0.163 HD
ATOM     46  O   UNL A   1      41.953  25.740  25.178  1.00  0.00    -0.269 OA
BRANCH  44  47
ATOM     47  C   UNL A   1      41.905  26.076  27.497  1.00  0.00     0.039 A 
ATOM     48  C   UNL A   1      42.780  27.137  27.766  1.00  0.00     0.014 A 
ATOM     49  C   UNL A   1      40.886  25.777  28.404  1.00  0.00     0.014 A 
ATOM     50  C   UNL A   1      42.598  27.929  28.904  1.00  0.00     0.010 A 
ATOM     51  C   UNL A   1      40.672  26.601  29.512  1.00  0.00     0.010 A 
ATOM     52  C   UNL A   1      41.523  27.687  29.773  1.00  0.00    -0.014 A 
BRANCH  52  53
ATOM     53  C   UNL A   1      41.267  28.565  30.946  1.00  0.00     0.031 A 
ATOM     54  C   UNL A   1      40.163  29.587  30.909  1.00  0.00     0.074 A 
ATOM     55  C   UNL A   1      42.076  28.488  32.022  1.00  0.00     0.049 A 
ATOM     56  N   UNL A   1      39.850  30.498  31.796  1.00  0.00    -0.248 NA
ATOM     57  C   UNL A   1      39.313  29.602  29.709  1.00  0.00     0.031 C 
ATOM     58  C   UNL A   1      43.203  27.563  32.166  1.00  0.00     0.029 A 
ATOM     59  N   UNL A   1      42.087  29.207  33.191  1.00  0.00    -0.354 N 
ATOM     60  C   UNL A   1      38.782  31.205  31.256  1.00  0.00     0.074 A 
ATOM     61  C   UNL A   1      38.524  30.641  29.948  1.00  0.00     0.031 C 
ATOM     62  C   UNL A   1      43.789  27.767  33.356  1.00  0.00     0.029 A 
ATOM     63  C   UNL A   1      43.107  28.858  34.045  1.00  0.00     0.049 A 
ATOM     64  H   UNL A   1      41.426  29.908  33.399  1.00  0.00     0.167 HD
ATOM     65  C   UNL A   1      38.071  32.219  31.807  1.00  0.00     0.037 A 
ATOM     66  C   UNL A   1      43.462  29.367  35.241  1.00  0.00     0.037 A 
ATOM     67  C   UNL A   1      38.315  32.760  33.119  1.00  0.00     0.049 A 
ATOM     68  C   UNL A   1      42.659  30.493  35.832  1.00  0.00     0.074 A 
ATOM     69  C   UNL A   1      37.611  33.746  33.789  1.00  0.00     0.029 A 
ATOM     70  N   UNL A   1      39.342  32.363  33.963  1.00  0.00    -0.354 N 
ATOM     71  N   UNL A   1      41.617  31.111  35.330  1.00  0.00    -0.248 NA
ATOM     72  C   UNL A   1      43.076  30.988  37.151  1.00  0.00     0.031 C 
ATOM     73  C   UNL A   1      38.236  33.973  35.019  1.00  0.00     0.029 A 
ATOM     74  C   UNL A   1      39.303  33.098  35.136  1.00  0.00     0.049 A 
ATOM     75  H   UNL A   1      40.003  31.662  33.757  1.00  0.00     0.167 HD
ATOM     76  C   UNL A   1      41.239  32.052  36.282  1.00  0.00     0.074 A 
ATOM     77  C   UNL A   1      42.158  31.915  37.393  1.00  0.00     0.031 C 
ATOM     78  C   UNL A   1      40.222  32.948  36.238  1.00  0.00     0.037 A 
BRANCH  65  79
ATOM     79  C   UNL A   1      36.956  32.815  30.989  1.00  0.00     0.058 A 
ATOM     80  C   UNL A   1      35.623  32.412  31.159  1.00  0.00     0.135 A 
ATOM     81  C   UNL A   1      37.219  33.826  30.051  1.00  0.00     0.135 A 
ATOM     82  F   UNL A   1      35.315  31.441  32.034  1.00  0.00    -0.206 F 
ATOM     83  C   UNL A   1      34.593  32.968  30.407  1.00  0.00     0.059 A 
ATOM     84  C   UNL A   1      36.201  34.415  29.306  1.00  0.00     0.059 A 
ATOM     85  F   UNL A   1      38.476  34.253  29.850  1.00  0.00    -0.206 F 
ATOM     86  C   UNL A   1      34.893  33.968  29.480  1.00  0.00     0.060 A 
BRANCH  86  87
ATOM     87  S   UNL A   1      33.546  34.678  28.510  1.00  0.00     0.124 S 
ATOM     88  O   UNL A   1      33.249  33.590  27.584  1.00  0.00    -0.237 OA
ATOM     89  O   UNL A   1      32.531  34.939  29.526  1.00  0.00    -0.237 OA
ATOM     90  O   UNL A   1      34.148  35.867  27.912  1.00  0.00    -0.744 OA
ENDBRANCH  86  87
ENDBRANCH  65  79
BRANCH  66  91
ATOM     91  C   UNL A   1      44.633  28.804  35.965  1.00  0.00     0.058 A 
ATOM     92  C   UNL A   1      45.927  29.290  35.731  1.00  0.00     0.135 A 
ATOM     93  C   UNL A   1      44.478  27.787  36.920  1.00  0.00     0.135 A 
ATOM     94  F   UNL A   1      46.127  30.256  34.823  1.00  0.00    -0.206 F 
ATOM     95  C   UNL A   1      47.030  28.781  36.411  1.00  0.00     0.059 A 
ATOM     96  C   UNL A   1      45.562  27.279  37.629  1.00  0.00     0.059 A 
ATOM     97  F   UNL A   1      43.257  27.301  37.193  1.00  0.00    -0.206 F 
ATOM     98  C   UNL A   1      46.835  27.777  37.361  1.00  0.00     0.060 A 
BRANCH  98  99
ATOM     99  S   UNL A   1      48.263  27.167  38.284  1.00  0.00     0.124 S 
ATOM    100  O   UNL A   1      49.100  28.359  38.353  1.00  0.00    -0.237 OA
ATOM    101  O   UNL A   1      47.657  26.736  39.540  1.00  0.00    -0.237 OA
ATOM    102  O   UNL A   1      48.768  26.088  37.440  1.00  0.00    -0.744 OA
ENDBRANCH  98  99
ENDBRANCH  66  91
BRANCH  78 103
ATOM    103  C   UNL A   1      40.026  33.833  37.437  1.00  0.00     0.058 A 
ATOM    104  C   UNL A   1      40.763  35.016  37.606  1.00  0.00     0.135 A 
ATOM    105  C   UNL A   1      39.050  33.523  38.399  1.00  0.00     0.135 A 
ATOM    106  F   UNL A   1      41.713  35.352  36.721  1.00  0.00    -0.206 F 
ATOM    107  C   UNL A   1      40.550  35.853  38.696  1.00  0.00     0.059 A 
ATOM    108  C   UNL A   1      38.804  34.358  39.483  1.00  0.00     0.059 A 
ATOM    109  F   UNL A   1      38.314  32.406  38.278  1.00  0.00    -0.206 F 
ATOM    110  C   UNL A   1      39.566  35.516  39.629  1.00  0.00     0.060 A 
BRANCH 110 111
ATOM    111  S   UNL A   1      39.270  36.632  41.017  1.00  0.00     0.124 S 
ATOM    112  O   UNL A   1      38.329  37.584  40.435  1.00  0.00    -0.237 OA
ATOM    113  O   UNL A   1      38.719  35.735  42.029  1.00  0.00    -0.237 OA
ATOM    114  O   UNL A   1      40.597  37.163  41.314  1.00  0.00    -0.744 OA
ENDBRANCH 110 111
ENDBRANCH  78 103
ENDBRANCH  52  53
ENDBRANCH  44  47
ENDBRANCH  42  43
ENDBRANCH  41  42
ENDBRANCH  40  41
ENDBRANCH   1  40
TORSDOF 22
ENDMDL
MODEL 2
REMARK VINA RESULT:     -10.8      3.407      9.760
REMARK SMILES CC(C)C(=O)Nc1ccc2c([C@H](C(=O)NCCCCCCNC(=O)c3ccc(-c4c5nc(c(-c6c(F)cc(S(=O)(=O)[O-])cc6F)c6ccc([nH]6)c(-c6c(F)cc(S(=O)(=O)[O-])cc6F)c6nc(c(-c7c(F)cc(S(=O)(=O)[O-])cc7F)c7ccc4[nH]7)C=C6)C=C5)cc3)[NH+]3CC[NH+](CC(=O)N(C)C)CC3)c[nH]c2c1
REMARK SMILES IDX 18 1 17 2 16 3 15 4 13 5 14 6 12 8 11 9 7 10 8 11 106 12
REMARK SMILES IDX 9 13 105 14 10 15 104 16 103 17 6 19 4 20 5 21 2 23 1 24
REMARK SMILES IDX 3 25 91 26 92 27 102 28 93 30 101 31 94 32 95 34 96 35 97 36
REMARK SMILES IDX 98 37 99 38 100 39 19 40 20 41 21 42 22 43 23 44 24 46 25 47
REMARK SMILES IDX 26 48 90 49 27 50 89 51 28 52 29 53 30 54 83 55 31 56 88 57
REMARK SMILES IDX 82 58 84 59 32 60 87 61 81 62 80 63 33 65 67 66 46 67 66 68
REMARK SMILES IDX 47 69 50 70 65 71 85 72 48 73 49 74 64 76 86 77 51 78 34 79
REMARK SMILES IDX 35 80 44 81 36 82 37 83 43 84 45 85 38 86 39 87 40 88 41 89
REMARK SMILES IDX 42 90 68 91 69 92 78 93 70 94 71 95 77 96 79 97 72 98 73 99
REMARK SMILES IDX 74 100 75 101 76 102 52 103 53 104 62 105 54 106 55 107
REMARK SMILES IDX 61 108 63 109 56 110 57 111 58 112 59 113 60 114
REMARK H PARENT 15 7 104 18 6 22 91 29 94 33 22 45 84 64 50 75
REMARK Flexibility Score: inf
ROOT
ATOM      1  C   UNL A   1      33.640  26.887  23.573  1.00  0.00     0.002 C 
ENDROOT
BRANCH   1   2
ATOM      2  C   UNL A   1      34.223  25.716  24.382  1.00  0.00     0.021 C 
BRANCH   2   3
ATOM      3  C   UNL A   1      33.945  25.794  25.887  1.00  0.00     0.116 C 
BRANCH   3   4
ATOM      4  N   UNL A   1      32.816  26.639  26.253  1.00  0.00    -0.351 N 
ATOM      5  C   UNL A   1      31.483  26.432  26.454  1.00  0.00     0.283 C 
ATOM      6  O   UNL A   1      30.995  27.222  27.285  1.00  0.00    -0.268 OA
ATOM      7  H   UNL A   1      33.076  27.580  26.384  1.00  0.00     0.163 HD
BRANCH   5   8
ATOM      8  C   UNL A   1      30.546  25.371  25.734  1.00  0.00     0.308 C 
BRANCH   8   9
ATOM      9  C   UNL A   1      29.452  26.113  24.950  1.00  0.00     0.044 A 
ATOM     10  C   UNL A   1      29.327  29.412  22.288  1.00  0.00     0.043 A 
ATOM     11  C   UNL A   1      30.494  29.271  23.028  1.00  0.00     0.027 A 
ATOM     12  C   UNL A   1      28.233  28.581  22.550  1.00  0.00     0.052 A 
ATOM     13  C   UNL A   1      30.666  28.208  23.924  1.00  0.00     0.013 A 
ATOM     14  C   UNL A   1      28.410  27.534  23.470  1.00  0.00     0.048 A 
ATOM     15  C   UNL A   1      29.610  27.303  24.146  1.00  0.00     0.009 A 
ATOM     16  N   UNL A   1      27.533  26.554  23.865  1.00  0.00    -0.361 N 
ATOM     17  C   UNL A   1      28.133  25.719  24.767  1.00  0.00     0.094 A 
ATOM     18  H   UNL A   1      26.607  26.465  23.547  1.00  0.00     0.166 HD
BRANCH  10  19
ATOM     19  N   UNL A   1      29.173  30.404  21.312  1.00  0.00    -0.326 N 
ATOM     20  C   UNL A   1      28.526  31.605  21.336  1.00  0.00     0.226 C 
ATOM     21  O   UNL A   1      28.382  32.190  20.254  1.00  0.00    -0.274 OA
ATOM     22  H   UNL A   1      29.611  30.198  20.455  1.00  0.00     0.169 HD
BRANCH  20  23
ATOM     23  C   UNL A   1      28.096  32.312  22.628  1.00  0.00     0.072 C 
ATOM     24  C   UNL A   1      27.485  31.412  23.692  1.00  0.00     0.018 C 
ATOM     25  C   UNL A   1      29.149  33.266  23.187  1.00  0.00     0.018 C 
ENDBRANCH  20  23
ENDBRANCH  10  19
ENDBRANCH   8   9
BRANCH   8  26
ATOM     26  N   UNL A   1      31.319  24.384  24.950  1.00  0.00    -0.312 N 
ATOM     27  C   UNL A   1      30.780  23.922  23.657  1.00  0.00     0.325 C 
ATOM     28  C   UNL A   1      31.550  23.159  25.743  1.00  0.00     0.325 C 
ATOM     29  H   UNL A   1      32.155  24.926  24.733  1.00  0.00     0.349 HD
ATOM     30  C   UNL A   1      31.766  22.964  22.916  1.00  0.00     0.325 C 
ATOM     31  C   UNL A   1      32.719  22.392  25.108  1.00  0.00     0.325 C 
ATOM     32  N   UNL A   1      32.550  22.002  23.714  1.00  0.00    -0.318 N 
ATOM     33  H   UNL A   1      33.482  22.070  23.304  1.00  0.00     0.348 HD
BRANCH  32  34
ATOM     34  C   UNL A   1      32.224  20.583  23.516  1.00  0.00     0.364 C 
BRANCH  34  35
ATOM     35  C   UNL A   1      33.165  19.639  24.273  1.00  0.00     0.277 C 
ATOM     36  O   UNL A   1      33.763  20.065  25.268  1.00  0.00    -0.268 OA
ATOM     37  N   UNL A   1      33.382  18.349  23.789  1.00  0.00    -0.344 N 
ATOM     38  C   UNL A   1      32.702  17.699  22.673  1.00  0.00     0.146 C 
ATOM     39  C   UNL A   1      34.374  17.526  24.458  1.00  0.00     0.146 C 
ENDBRANCH  34  35
ENDBRANCH  32  34
ENDBRANCH   8  26
ENDBRANCH   5   8
ENDBRANCH   3   4
ENDBRANCH   2   3
ENDBRANCH   1   2
BRANCH   1  40
ATOM     40  C   UNL A   1      34.365  28.239  23.624  1.00  0.00     0.002 C 
BRANCH  40  41
ATOM     41  C   UNL A   1      33.803  29.320  24.553  1.00  0.00     0.021 C 
BRANCH  41  42
ATOM     42  C   UNL A   1      34.367  29.370  25.974  1.00  0.00     0.116 C 
BRANCH  42  43
ATOM     43  N   UNL A   1      33.963  30.566  26.699  1.00  0.00    -0.352 N 
ATOM     44  C   UNL A   1      34.457  31.153  27.837  1.00  0.00     0.251 C 
ATOM     45  H   UNL A   1      33.197  31.038  26.302  1.00  0.00     0.163 HD
ATOM     46  O   UNL A   1      33.826  32.075  28.349  1.00  0.00    -0.269 OA
BRANCH  44  47
ATOM     47  C   UNL A   1      35.718  30.698  28.467  1.00  0.00     0.039 A 
ATOM     48  C   UNL A   1      36.913  31.333  28.104  1.00  0.00     0.014 A 
ATOM     49  C   UNL A   1      35.755  29.611  29.344  1.00  0.00     0.014 A 
ATOM     50  C   UNL A   1      38.127  30.922  28.662  1.00  0.00     0.010 A 
ATOM     51  C   UNL A   1      36.961  29.237  29.943  1.00  0.00     0.010 A 
ATOM     52  C   UNL A   1      38.159  29.889  29.611  1.00  0.00    -0.014 A 
BRANCH  52  53
ATOM     53  C   UNL A   1      39.429  29.489  30.274  1.00  0.00     0.031 A 
ATOM     54  C   UNL A   1      39.941  30.249  31.468  1.00  0.00     0.074 A 
ATOM     55  C   UNL A   1      40.158  28.480  29.757  1.00  0.00     0.049 A 
ATOM     56  N   UNL A   1      41.067  30.106  32.118  1.00  0.00    -0.248 NA
ATOM     57  C   UNL A   1      39.083  31.327  31.985  1.00  0.00     0.031 C 
ATOM     58  C   UNL A   1      39.789  27.687  28.582  1.00  0.00     0.029 A 
ATOM     59  N   UNL A   1      41.369  27.958  30.141  1.00  0.00    -0.354 N 
ATOM     60  C   UNL A   1      41.064  31.083  33.107  1.00  0.00     0.074 A 
ATOM     61  C   UNL A   1      39.839  31.837  32.948  1.00  0.00     0.031 C 
ATOM     62  C   UNL A   1      40.748  26.777  28.347  1.00  0.00     0.029 A 
ATOM     63  C   UNL A   1      41.816  26.943  29.328  1.00  0.00     0.049 A 
ATOM     64  H   UNL A   1      41.871  28.281  30.925  1.00  0.00     0.167 HD
ATOM     65  C   UNL A   1      41.988  31.318  34.070  1.00  0.00     0.037 A 
ATOM     66  C   UNL A   1      42.962  26.235  29.358  1.00  0.00     0.037 A 
ATOM     67  C   UNL A   1      43.194  30.549  34.241  1.00  0.00     0.049 A 
ATOM     68  C   UNL A   1      43.973  26.515  30.435  1.00  0.00     0.074 A 
ATOM     69  C   UNL A   1      44.162  30.672  35.224  1.00  0.00     0.029 A 
ATOM     70  N   UNL A   1      43.599  29.514  33.412  1.00  0.00    -0.354 N 
ATOM     71  N   UNL A   1      43.927  27.406  31.396  1.00  0.00    -0.248 NA
ATOM     72  C   UNL A   1      45.191  25.692  30.436  1.00  0.00     0.031 C 
ATOM     73  C   UNL A   1      45.171  29.738  34.964  1.00  0.00     0.029 A 
ATOM     74  C   UNL A   1      44.811  29.003  33.846  1.00  0.00     0.049 A 
ATOM     75  H   UNL A   1      43.098  29.190  32.628  1.00  0.00     0.167 HD
ATOM     76  C   UNL A   1      45.096  27.236  32.130  1.00  0.00     0.074 A 
ATOM     77  C   UNL A   1      45.825  26.150  31.507  1.00  0.00     0.031 C 
ATOM     78  C   UNL A   1      45.525  27.918  33.220  1.00  0.00     0.037 A 
BRANCH  65  79
ATOM     79  C   UNL A   1      41.734  32.459  35.019  1.00  0.00     0.058 A 
ATOM     80  C   UNL A   1      40.972  32.291  36.185  1.00  0.00     0.135 A 
ATOM     81  C   UNL A   1      42.289  33.727  34.778  1.00  0.00     0.135 A 
ATOM     82  F   UNL A   1      40.408  31.103  36.460  1.00  0.00    -0.206 F 
ATOM     83  C   UNL A   1      40.742  33.345  37.064  1.00  0.00     0.059 A 
ATOM     84  C   UNL A   1      42.094  34.789  35.656  1.00  0.00     0.059 A 
ATOM     85  F   UNL A   1      43.029  33.943  33.679  1.00  0.00    -0.206 F 
ATOM     86  C   UNL A   1      41.306  34.592  36.789  1.00  0.00     0.060 A 
BRANCH  86  87
ATOM     87  S   UNL A   1      40.998  35.950  37.938  1.00  0.00     0.124 S 
ATOM     88  O   UNL A   1      40.524  35.232  39.117  1.00  0.00    -0.237 OA
ATOM     89  O   UNL A   1      42.316  36.565  38.058  1.00  0.00    -0.237 OA
ATOM     90  O   UNL A   1      39.995  36.758  37.249  1.00  0.00    -0.744 OA
ENDBRANCH  86  87
ENDBRANCH  65  79
BRANCH  66  91
ATOM     91  C   UNL A   1      43.206  25.181  28.338  1.00  0.00     0.058 A 
ATOM     92  C   UNL A   1      42.964  23.830  28.625  1.00  0.00     0.135 A 
ATOM     93  C   UNL A   1      43.663  25.505  27.051  1.00  0.00     0.135 A 
ATOM     94  F   UNL A   1      42.534  23.470  29.842  1.00  0.00    -0.206 F 
ATOM     95  C   UNL A   1      43.175  22.835  27.675  1.00  0.00     0.059 A 
ATOM     96  C   UNL A   1      43.860  24.530  26.078  1.00  0.00     0.059 A 
ATOM     97  F   UNL A   1      43.892  26.786  26.721  1.00  0.00    -0.206 F 
ATOM     98  C   UNL A   1      43.621  23.196  26.403  1.00  0.00     0.060 A 
BRANCH  98  99
ATOM     99  S   UNL A   1      43.832  21.905  25.157  1.00  0.00     0.124 S 
ATOM    100  O   UNL A   1      42.724  21.011  25.471  1.00  0.00    -0.237 OA
ATOM    101  O   UNL A   1      43.716  22.656  23.912  1.00  0.00    -0.237 OA
ATOM    102  O   UNL A   1      45.165  21.384  25.443  1.00  0.00    -0.744 OA
ENDBRANCH  98  99
ENDBRANCH  66  91
BRANCH  78 103
ATOM    103  C   UNL A   1      46.830  27.493  33.833  1.00  0.00     0.058 A 
ATOM    104  C   UNL A   1      48.046  28.089  33.460  1.00  0.00     0.135 A 
ATOM    105  C   UNL A   1      46.858  26.520  34.845  1.00  0.00     0.135 A 
ATOM    106  F   UNL A   1      48.074  29.017  32.491  1.00  0.00    -0.206 F 
ATOM    107  C   UNL A   1      49.246  27.723  34.059  1.00  0.00     0.059 A 
ATOM    108  C   UNL A   1      48.044  26.156  35.474  1.00  0.00     0.059 A 
ATOM    109  F   UNL A   1      45.721  25.927  35.243  1.00  0.00    -0.206 F 
ATOM    110  C   UNL A   1      49.235  26.757  35.068  1.00  0.00     0.060 A 
BRANCH 110 111
ATOM    111  S   UNL A   1      50.794  26.319  35.867  1.00  0.00     0.124 S 
ATOM    112  O   UNL A   1      50.841  27.277  36.966  1.00  0.00    -0.237 OA
ATOM    113  O   UNL A   1      50.572  24.928  36.247  1.00  0.00    -0.237 OA
ATOM    114  O   UNL A   1      51.784  26.524  34.813  1.00  0.00    -0.744 OA
ENDBRANCH 110 111
ENDBRANCH  78 103
ENDBRANCH  52  53
ENDBRANCH  44  47
ENDBRANCH  42  43
ENDBRANCH  41  42
ENDBRANCH  40  41
ENDBRANCH   1  40
TORSDOF 22
ENDMDL
MODEL 3
REMARK VINA RESULT:     -10.6      3.135      9.385
REMARK SMILES CC(C)C(=O)Nc1ccc2c([C@H](C(=O)NCCCCCCNC(=O)c3ccc(-c4c5nc(c(-c6c(F)cc(S(=O)(=O)[O-])cc6F)c6ccc([nH]6)c(-c6c(F)cc(S(=O)(=O)[O-])cc6F)c6nc(c(-c7c(F)cc(S(=O)(=O)[O-])cc7F)c7ccc4[nH]7)C=C6)C=C5)cc3)[NH+]3CC[NH+](CC(=O)N(C)C)CC3)c[nH]c2c1
REMARK SMILES IDX 18 1 17 2 16 3 15 4 13 5 14 6 12 8 11 9 7 10 8 11 106 12
REMARK SMILES IDX 9 13 105 14 10 15 104 16 103 17 6 19 4 20 5 21 2 23 1 24
REMARK SMILES IDX 3 25 91 26 92 27 102 28 93 30 101 31 94 32 95 34 96 35 97 36
REMARK SMILES IDX 98 37 99 38 100 39 19 40 20 41 21 42 22 43 23 44 24 46 25 47
REMARK SMILES IDX 26 48 90 49 27 50 89 51 28 52 29 53 30 54 83 55 31 56 88 57
REMARK SMILES IDX 82 58 84 59 32 60 87 61 81 62 80 63 33 65 67 66 46 67 66 68
REMARK SMILES IDX 47 69 50 70 65 71 85 72 48 73 49 74 64 76 86 77 51 78 34 79
REMARK SMILES IDX 35 80 44 81 36 82 37 83 43 84 45 85 38 86 39 87 40 88 41 89
REMARK SMILES IDX 42 90 68 91 69 92 78 93 70 94 71 95 77 96 79 97 72 98 73 99
REMARK SMILES IDX 74 100 75 101 76 102 52 103 53 104 62 105 54 106 55 107
REMARK SMILES IDX 61 108 63 109 56 110 57 111 58 112 59 113 60 114
REMARK H PARENT 15 7 104 18 6 22 91 29 94 33 22 45 84 64 50 75
REMARK Flexibility Score: inf
ROOT
ATOM      1  C   UNL A   1      33.228  27.639  22.315  1.00  0.00     0.002 C 
ENDROOT
BRANCH   1   2
ATOM      2  C   UNL A   1      33.835  26.333  21.774  1.00  0.00     0.021 C 
BRANCH   2   3
ATOM      3  C   UNL A   1      33.695  25.138  22.722  1.00  0.00     0.116 C 
BRANCH   3   4
ATOM      4  N   UNL A   1      34.017  25.425  24.114  1.00  0.00    -0.351 N 
ATOM      5  C   UNL A   1      34.026  24.701  25.270  1.00  0.00     0.283 C 
ATOM      6  O   UNL A   1      34.879  25.107  26.083  1.00  0.00    -0.268 OA
ATOM      7  H   UNL A   1      34.291  26.361  24.252  1.00  0.00     0.163 HD
BRANCH   5   8
ATOM      8  C   UNL A   1      33.076  23.492  25.665  1.00  0.00     0.308 C 
BRANCH   8   9
ATOM      9  C   UNL A   1      31.682  24.039  26.015  1.00  0.00     0.044 A 
ATOM     10  C   UNL A   1      28.856  26.580  24.134  1.00  0.00     0.043 A 
ATOM     11  C   UNL A   1      30.140  26.603  23.607  1.00  0.00     0.027 A 
ATOM     12  C   UNL A   1      28.598  25.861  25.307  1.00  0.00     0.052 A 
ATOM     13  C   UNL A   1      31.157  25.792  24.126  1.00  0.00     0.013 A 
ATOM     14  C   UNL A   1      29.633  25.070  25.832  1.00  0.00     0.048 A 
ATOM     15  C   UNL A   1      30.903  24.990  25.256  1.00  0.00     0.009 A 
ATOM     16  N   UNL A   1      29.635  24.236  26.922  1.00  0.00    -0.361 N 
ATOM     17  C   UNL A   1      30.857  23.638  27.057  1.00  0.00     0.094 A 
ATOM     18  H   UNL A   1      28.868  24.089  27.520  1.00  0.00     0.166 HD
BRANCH  10  19
ATOM     19  N   UNL A   1      27.799  27.303  23.568  1.00  0.00    -0.326 N 
ATOM     20  C   UNL A   1      27.739  28.567  23.055  1.00  0.00     0.226 C 
ATOM     21  O   UNL A   1      26.614  29.021  22.804  1.00  0.00    -0.274 OA
ATOM     22  H   UNL A   1      26.947  26.812  23.533  1.00  0.00     0.169 HD
BRANCH  20  23
ATOM     23  C   UNL A   1      28.977  29.382  22.657  1.00  0.00     0.072 C 
ATOM     24  C   UNL A   1      28.828  30.221  21.397  1.00  0.00     0.018 C 
ATOM     25  C   UNL A   1      29.603  30.153  23.816  1.00  0.00     0.018 C 
ENDBRANCH  20  23
ENDBRANCH  10  19
ENDBRANCH   8   9
BRANCH   8  26
ATOM     26  N   UNL A   1      33.091  22.415  24.653  1.00  0.00    -0.312 N 
ATOM     27  C   UNL A   1      31.883  22.188  23.836  1.00  0.00     0.325 C 
ATOM     28  C   UNL A   1      33.391  21.114  25.285  1.00  0.00     0.325 C 
ATOM     29  H   UNL A   1      33.804  22.764  24.014  1.00  0.00     0.349 HD
ATOM     30  C   UNL A   1      32.104  21.086  22.751  1.00  0.00     0.325 C 
ATOM     31  C   UNL A   1      33.863  20.148  24.188  1.00  0.00     0.325 C 
ATOM     32  N   UNL A   1      32.929  19.912  23.094  1.00  0.00    -0.318 N 
ATOM     33  H   UNL A   1      33.514  19.793  22.266  1.00  0.00     0.348 HD
BRANCH  32  34
ATOM     34  C   UNL A   1      32.222  18.626  23.165  1.00  0.00     0.364 C 
BRANCH  34  35
ATOM     35  C   UNL A   1      33.157  17.442  23.439  1.00  0.00     0.277 C 
ATOM     36  O   UNL A   1      33.804  16.963  22.501  1.00  0.00    -0.268 OA
ATOM     37  N   UNL A   1      33.207  16.886  24.717  1.00  0.00    -0.344 N 
ATOM     38  C   UNL A   1      32.550  17.383  25.922  1.00  0.00     0.146 C 
ATOM     39  C   UNL A   1      34.006  15.689  24.911  1.00  0.00     0.146 C 
ENDBRANCH  34  35
ENDBRANCH  32  34
ENDBRANCH   8  26
ENDBRANCH   5   8
ENDBRANCH   3   4
ENDBRANCH   2   3
ENDBRANCH   1   2
BRANCH   1  40
ATOM     40  C   UNL A   1      33.994  28.402  23.405  1.00  0.00     0.002 C 
BRANCH  40  41
ATOM     41  C   UNL A   1      33.256  28.728  24.707  1.00  0.00     0.021 C 
BRANCH  41  42
ATOM     42  C   UNL A   1      34.118  29.053  25.927  1.00  0.00     0.116 C 
BRANCH  42  43
ATOM     43  N   UNL A   1      33.845  30.372  26.476  1.00  0.00    -0.352 N 
ATOM     44  C   UNL A   1      34.422  31.068  27.509  1.00  0.00     0.251 C 
ATOM     45  H   UNL A   1      33.114  30.852  26.025  1.00  0.00     0.163 HD
ATOM     46  O   UNL A   1      33.891  32.110  27.890  1.00  0.00    -0.269 OA
BRANCH  44  47
ATOM     47  C   UNL A   1      35.653  30.591  28.181  1.00  0.00     0.039 A 
ATOM     48  C   UNL A   1      36.883  31.126  27.778  1.00  0.00     0.014 A 
ATOM     49  C   UNL A   1      35.624  29.577  29.140  1.00  0.00     0.014 A 
ATOM     50  C   UNL A   1      38.070  30.691  28.374  1.00  0.00     0.010 A 
ATOM     51  C   UNL A   1      36.805  29.181  29.774  1.00  0.00     0.010 A 
ATOM     52  C   UNL A   1      38.039  29.734  29.401  1.00  0.00    -0.014 A 
BRANCH  52  53
ATOM     53  C   UNL A   1      39.283  29.315  30.102  1.00  0.00     0.031 A 
ATOM     54  C   UNL A   1      39.749  30.042  31.334  1.00  0.00     0.074 A 
ATOM     55  C   UNL A   1      40.031  28.319  29.587  1.00  0.00     0.049 A 
ATOM     56  N   UNL A   1      40.849  29.879  32.023  1.00  0.00    -0.248 NA
ATOM     57  C   UNL A   1      38.872  31.107  31.846  1.00  0.00     0.031 C 
ATOM     58  C   UNL A   1      39.707  27.558  28.378  1.00  0.00     0.029 A 
ATOM     59  N   UNL A   1      41.225  27.784  30.003  1.00  0.00    -0.354 N 
ATOM     60  C   UNL A   1      40.808  30.830  33.037  1.00  0.00     0.074 A 
ATOM     61  C   UNL A   1      39.591  31.591  32.851  1.00  0.00     0.031 C 
ATOM     62  C   UNL A   1      40.673  26.653  28.155  1.00  0.00     0.029 A 
ATOM     63  C   UNL A   1      41.703  26.791  29.181  1.00  0.00     0.049 A 
ATOM     64  H   UNL A   1      41.697  28.085  30.814  1.00  0.00     0.167 HD
ATOM     65  C   UNL A   1      41.695  31.038  34.041  1.00  0.00     0.037 A 
ATOM     66  C   UNL A   1      42.846  26.080  29.236  1.00  0.00     0.037 A 
ATOM     67  C   UNL A   1      42.893  30.262  34.238  1.00  0.00     0.049 A 
ATOM     68  C   UNL A   1      43.815  26.329  30.358  1.00  0.00     0.074 A 
ATOM     69  C   UNL A   1      43.823  30.357  35.259  1.00  0.00     0.029 A 
ATOM     70  N   UNL A   1      43.329  29.249  33.397  1.00  0.00    -0.354 N 
ATOM     71  N   UNL A   1      43.732  27.195  31.340  1.00  0.00    -0.248 NA
ATOM     72  C   UNL A   1      45.032  25.504  30.384  1.00  0.00     0.031 C 
ATOM     73  C   UNL A   1      44.840  29.429  35.014  1.00  0.00     0.029 A 
ATOM     74  C   UNL A   1      44.523  28.725  33.864  1.00  0.00     0.049 A 
ATOM     75  H   UNL A   1      42.858  28.947  32.586  1.00  0.00     0.167 HD
ATOM     76  C   UNL A   1      44.872  27.003  32.114  1.00  0.00     0.074 A 
ATOM     77  C   UNL A   1      45.624  25.933  31.491  1.00  0.00     0.031 C 
ATOM     78  C   UNL A   1      45.259  27.655  33.238  1.00  0.00     0.037 A 
BRANCH  65  79
ATOM     79  C   UNL A   1      41.406  32.154  35.009  1.00  0.00     0.058 A 
ATOM     80  C   UNL A   1      41.943  33.439  34.834  1.00  0.00     0.135 A 
ATOM     81  C   UNL A   1      40.551  31.947  36.104  1.00  0.00     0.135 A 
ATOM     82  F   UNL A   1      42.776  33.690  33.811  1.00  0.00    -0.206 F 
ATOM     83  C   UNL A   1      41.670  34.470  35.727  1.00  0.00     0.059 A 
ATOM     84  C   UNL A   1      40.242  32.971  36.995  1.00  0.00     0.059 A 
ATOM     85  F   UNL A   1      40.005  30.738  36.317  1.00  0.00    -0.206 F 
ATOM     86  C   UNL A   1      40.819  34.226  36.806  1.00  0.00     0.060 A 
BRANCH  86  87
ATOM     87  S   UNL A   1      40.475  35.574  37.956  1.00  0.00     0.124 S 
ATOM     88  O   UNL A   1      39.374  35.016  38.736  1.00  0.00    -0.237 OA
ATOM     89  O   UNL A   1      41.744  35.715  38.664  1.00  0.00    -0.237 OA
ATOM     90  O   UNL A   1      40.124  36.688  37.080  1.00  0.00    -0.744 OA
ENDBRANCH  86  87
ENDBRANCH  65  79
BRANCH  66  91
ATOM     91  C   UNL A   1      43.129  25.053  28.198  1.00  0.00     0.058 A 
ATOM     92  C   UNL A   1      43.750  25.401  26.990  1.00  0.00     0.135 A 
ATOM     93  C   UNL A   1      42.806  23.703  28.403  1.00  0.00     0.135 A 
ATOM     94  F   UNL A   1      44.071  26.680  26.745  1.00  0.00    -0.206 F 
ATOM     95  C   UNL A   1      44.032  24.449  26.016  1.00  0.00     0.059 A 
ATOM     96  C   UNL A   1      43.099  22.729  27.454  1.00  0.00     0.059 A 
ATOM     97  F   UNL A   1      42.227  23.316  29.551  1.00  0.00    -0.206 F 
ATOM     98  C   UNL A   1      43.705  23.113  26.259  1.00  0.00     0.060 A 
BRANCH  98  99
ATOM     99  S   UNL A   1      44.133  21.874  25.017  1.00  0.00     0.124 S 
ATOM    100  O   UNL A   1      43.175  20.816  25.315  1.00  0.00    -0.237 OA
ATOM    101  O   UNL A   1      43.917  22.601  23.770  1.00  0.00    -0.237 OA
ATOM    102  O   UNL A   1      45.528  21.567  25.320  1.00  0.00    -0.744 OA
ENDBRANCH  98  99
ENDBRANCH  66  91
BRANCH  78 103
ATOM    103  C   UNL A   1      46.540  27.212  33.889  1.00  0.00     0.058 A 
ATOM    104  C   UNL A   1      47.771  27.808  33.571  1.00  0.00     0.135 A 
ATOM    105  C   UNL A   1      46.527  26.220  34.883  1.00  0.00     0.135 A 
ATOM    106  F   UNL A   1      47.838  28.754  32.622  1.00  0.00    -0.206 F 
ATOM    107  C   UNL A   1      48.947  27.424  34.206  1.00  0.00     0.059 A 
ATOM    108  C   UNL A   1      47.688  25.838  35.547  1.00  0.00     0.059 A 
ATOM    109  F   UNL A   1      45.374  25.625  35.228  1.00  0.00    -0.206 F 
ATOM    110  C   UNL A   1      48.895  26.439  35.195  1.00  0.00     0.060 A 
BRANCH 110 111
ATOM    111  S   UNL A   1      50.422  25.978  36.041  1.00  0.00     0.124 S 
ATOM    112  O   UNL A   1      51.275  27.128  35.756  1.00  0.00    -0.237 OA
ATOM    113  O   UNL A   1      49.985  25.841  37.426  1.00  0.00    -0.237 OA
ATOM    114  O   UNL A   1      50.810  24.733  35.386  1.00  0.00    -0.744 OA
ENDBRANCH 110 111
ENDBRANCH  78 103
ENDBRANCH  52  53
ENDBRANCH  44  47
ENDBRANCH  42  43
ENDBRANCH  41  42
ENDBRANCH  40  41
ENDBRANCH   1  40
TORSDOF 22
ENDMDL
