MODEL 1
REMARK VINA RESULT:     -12.7      0.000      0.000
REMARK SMILES Cc1cccc(NS(=O)(=O)c2ccc(Br)c(C(=O)NCCCCCCNC(=O)c3ccc(-c4c5nc(c(-c6c(F)cc(S(=O)(=O)[O-])cc6F)c6ccc([nH]6)c(-c6c(F)cc(S(=O)(=O)[O-])cc6F)c6nc(c(-c7c(F)cc(S(=O)(=O)[O-])cc7F)c7ccc4[nH]7)C=C6)C=C5)cc3)c2)c1
REMARK SMILES IDX 22 1 21 2 20 3 19 4 17 5 18 6 16 8 11 9 12 10 95 11 13 12
REMARK SMILES IDX 14 13 15 14 8 15 9 16 10 17 7 18 6 20 1 21 2 22 3 23 96 24
REMARK SMILES IDX 4 25 5 26 23 27 24 28 25 29 26 30 27 31 28 33 29 34 30 35
REMARK SMILES IDX 94 36 31 37 93 38 32 39 33 40 34 41 87 42 35 43 92 44 86 45
REMARK SMILES IDX 88 46 36 47 91 48 85 49 84 50 37 52 71 53 50 54 70 55 51 56
REMARK SMILES IDX 54 57 69 58 89 59 52 60 53 61 68 63 90 64 55 65 38 66 39 67
REMARK SMILES IDX 48 68 40 69 41 70 47 71 49 72 42 73 43 74 44 75 45 76 46 77
REMARK SMILES IDX 72 78 73 79 82 80 74 81 75 82 81 83 83 84 76 85 77 86 78 87
REMARK SMILES IDX 79 88 80 89 56 90 57 91 66 92 58 93 59 94 65 95 67 96 60 97
REMARK SMILES IDX 61 98 62 99 63 100 64 101
REMARK H PARENT 19 7 7 19 26 32 88 51 54 62
REMARK Flexibility Score: inf
ROOT
ATOM      1  C   UNL A   1      34.576  23.515  26.732  1.00  0.00     0.002 C 
ENDROOT
BRANCH   1   2
ATOM      2  C   UNL A   1      33.131  23.982  26.533  1.00  0.00     0.021 C 
BRANCH   2   3
ATOM      3  C   UNL A   1      32.751  25.406  26.911  1.00  0.00     0.116 C 
BRANCH   3   4
ATOM      4  N   UNL A   1      31.440  25.891  26.534  1.00  0.00    -0.352 N 
ATOM      5  C   UNL A   1      30.907  26.056  25.267  1.00  0.00     0.252 C 
ATOM      6  O   UNL A   1      29.707  26.304  25.157  1.00  0.00    -0.269 OA
ATOM      7  H   UNL A   1      30.846  26.136  27.280  1.00  0.00     0.163 HD
BRANCH   5   8
ATOM      8  C   UNL A   1      31.763  26.098  24.042  1.00  0.00     0.055 A 
ATOM      9  C   UNL A   1      32.541  24.879  22.077  1.00  0.00     0.088 A 
ATOM     10  C   UNL A   1      32.850  26.077  21.444  1.00  0.00     0.023 A 
ATOM     11  C   UNL A   1      31.905  24.894  23.329  1.00  0.00     0.037 A 
ATOM     12  C   UNL A   1      32.875  27.238  22.214  1.00  0.00     0.018 A 
ATOM     13  C   UNL A   1      32.454  27.207  23.550  1.00  0.00     0.030 A 
ATOM     14  Br  UNL A   1      33.227  28.530  24.685  1.00  0.00    -0.050 Br
BRANCH   9  15
ATOM     15  S   UNL A   1      33.241  23.334  21.526  1.00  0.00     0.261 S 
ATOM     16  O   UNL A   1      34.384  23.068  22.374  1.00  0.00    -0.201 OA
ATOM     17  O   UNL A   1      33.379  23.418  20.088  1.00  0.00    -0.201 OA
BRANCH  15  18
ATOM     18  N   UNL A   1      32.164  22.091  21.848  1.00  0.00    -0.280 N 
ATOM     19  H   UNL A   1      31.417  21.996  21.214  1.00  0.00     0.180 HD
BRANCH  18  20
ATOM     20  C   UNL A   1      32.188  21.151  22.922  1.00  0.00     0.049 A 
ATOM     21  C   UNL A   1      32.926  17.412  23.085  1.00  0.00     0.044 C 
ATOM     22  C   UNL A   1      32.666  18.827  23.509  1.00  0.00    -0.049 A 
ATOM     23  C   UNL A   1      32.773  19.204  24.849  1.00  0.00     0.003 A 
ATOM     24  C   UNL A   1      32.388  19.813  22.553  1.00  0.00     0.030 A 
ATOM     25  C   UNL A   1      32.472  20.511  25.232  1.00  0.00     0.002 A 
ATOM     26  C   UNL A   1      32.118  21.471  24.275  1.00  0.00     0.027 A 
ENDBRANCH  18  20
ENDBRANCH  15  18
ENDBRANCH   9  15
ENDBRANCH   5   8
ENDBRANCH   3   4
ENDBRANCH   2   3
ENDBRANCH   1   2
BRANCH   1  27
ATOM     27  C   UNL A   1      35.355  22.912  25.556  1.00  0.00     0.002 C 
BRANCH  27  28
ATOM     28  C   UNL A   1      36.785  22.426  25.783  1.00  0.00     0.021 C 
BRANCH  28  29
ATOM     29  C   UNL A   1      37.831  23.508  26.018  1.00  0.00     0.116 C 
BRANCH  29  30
ATOM     30  N   UNL A   1      38.892  23.091  26.921  1.00  0.00    -0.352 N 
ATOM     31  C   UNL A   1      39.846  23.891  27.533  1.00  0.00     0.251 C 
ATOM     32  H   UNL A   1      38.937  22.128  27.124  1.00  0.00     0.163 HD
ATOM     33  O   UNL A   1      40.890  23.449  27.971  1.00  0.00    -0.269 OA
BRANCH  31  34
ATOM     34  C   UNL A   1      39.462  25.297  27.774  1.00  0.00     0.039 A 
ATOM     35  C   UNL A   1      39.955  26.248  26.871  1.00  0.00     0.014 A 
ATOM     36  C   UNL A   1      38.896  25.679  28.984  1.00  0.00     0.014 A 
ATOM     37  C   UNL A   1      40.058  27.578  27.266  1.00  0.00     0.010 A 
ATOM     38  C   UNL A   1      39.073  26.982  29.406  1.00  0.00     0.010 A 
ATOM     39  C   UNL A   1      39.702  27.917  28.567  1.00  0.00    -0.014 A 
BRANCH  39  40
ATOM     40  C   UNL A   1      39.989  29.204  29.187  1.00  0.00     0.031 A 
ATOM     41  C   UNL A   1      38.994  30.296  29.098  1.00  0.00     0.074 A 
ATOM     42  C   UNL A   1      41.085  29.342  29.963  1.00  0.00     0.049 A 
ATOM     43  N   UNL A   1      39.194  31.500  29.510  1.00  0.00    -0.248 NA
ATOM     44  C   UNL A   1      37.697  30.126  28.444  1.00  0.00     0.031 C 
ATOM     45  C   UNL A   1      41.310  30.341  31.004  1.00  0.00     0.029 A 
ATOM     46  N   UNL A   1      42.325  28.722  29.808  1.00  0.00    -0.354 N 
ATOM     47  C   UNL A   1      37.994  32.170  29.452  1.00  0.00     0.074 A 
ATOM     48  C   UNL A   1      37.141  31.322  28.660  1.00  0.00     0.031 C 
ATOM     49  C   UNL A   1      42.626  30.435  31.247  1.00  0.00     0.029 A 
ATOM     50  C   UNL A   1      43.304  29.635  30.243  1.00  0.00     0.049 A 
ATOM     51  H   UNL A   1      42.486  27.815  29.459  1.00  0.00     0.167 HD
ATOM     52  C   UNL A   1      37.839  33.297  30.203  1.00  0.00     0.037 A 
ATOM     53  C   UNL A   1      44.241  30.134  29.380  1.00  0.00     0.037 A 
ATOM     54  C   UNL A   1      39.148  33.803  30.630  1.00  0.00     0.049 A 
ATOM     55  C   UNL A   1      44.182  31.634  29.195  1.00  0.00     0.074 A 
ATOM     56  C   UNL A   1      39.836  33.789  31.830  1.00  0.00     0.029 A 
ATOM     57  N   UNL A   1      40.064  34.201  29.657  1.00  0.00    -0.354 N 
ATOM     58  N   UNL A   1      43.162  32.377  29.531  1.00  0.00    -0.248 NA
ATOM     59  C   UNL A   1      45.267  32.416  28.608  1.00  0.00     0.031 C 
ATOM     60  C   UNL A   1      41.202  34.075  31.550  1.00  0.00     0.029 A 
ATOM     61  C   UNL A   1      41.333  34.309  30.191  1.00  0.00     0.049 A 
ATOM     62  H   UNL A   1      39.837  34.383  28.716  1.00  0.00     0.167 HD
ATOM     63  C   UNL A   1      43.404  33.680  29.180  1.00  0.00     0.074 A 
ATOM     64  C   UNL A   1      44.752  33.657  28.642  1.00  0.00     0.031 C 
ATOM     65  C   UNL A   1      42.467  34.664  29.344  1.00  0.00     0.037 A 
BRANCH  52  66
ATOM     66  C   UNL A   1      36.513  33.828  30.735  1.00  0.00     0.058 A 
ATOM     67  C   UNL A   1      35.503  34.253  29.838  1.00  0.00     0.135 A 
ATOM     68  C   UNL A   1      36.215  34.088  32.093  1.00  0.00     0.135 A 
ATOM     69  F   UNL A   1      35.633  34.081  28.514  1.00  0.00    -0.206 F 
ATOM     70  C   UNL A   1      34.334  34.910  30.249  1.00  0.00     0.059 A 
ATOM     71  C   UNL A   1      35.041  34.706  32.528  1.00  0.00     0.059 A 
ATOM     72  F   UNL A   1      37.063  33.814  33.085  1.00  0.00    -0.206 F 
ATOM     73  C   UNL A   1      34.115  35.143  31.599  1.00  0.00     0.060 A 
BRANCH  73  74
ATOM     74  S   UNL A   1      32.649  36.043  32.135  1.00  0.00     0.124 S 
ATOM     75  O   UNL A   1      33.177  36.853  33.228  1.00  0.00    -0.237 OA
ATOM     76  O   UNL A   1      32.268  36.768  30.929  1.00  0.00    -0.237 OA
ATOM     77  O   UNL A   1      31.728  34.983  32.538  1.00  0.00    -0.744 OA
ENDBRANCH  73  74
ENDBRANCH  52  66
BRANCH  53  78
ATOM     78  C   UNL A   1      44.656  29.147  28.343  1.00  0.00     0.058 A 
ATOM     79  C   UNL A   1      45.562  28.144  28.738  1.00  0.00     0.135 A 
ATOM     80  C   UNL A   1      43.848  28.893  27.225  1.00  0.00     0.135 A 
ATOM     81  F   UNL A   1      46.377  28.352  29.785  1.00  0.00    -0.206 F 
ATOM     82  C   UNL A   1      45.529  26.873  28.179  1.00  0.00     0.059 A 
ATOM     83  C   UNL A   1      43.810  27.625  26.640  1.00  0.00     0.059 A 
ATOM     84  F   UNL A   1      42.977  29.816  26.796  1.00  0.00    -0.206 F 
ATOM     85  C   UNL A   1      44.591  26.605  27.184  1.00  0.00     0.060 A 
BRANCH  85  86
ATOM     86  S   UNL A   1      44.276  24.871  26.769  1.00  0.00     0.124 S 
ATOM     87  O   UNL A   1      45.500  24.496  26.069  1.00  0.00    -0.237 OA
ATOM     88  O   UNL A   1      44.103  24.280  28.096  1.00  0.00    -0.237 OA
ATOM     89  O   UNL A   1      43.073  24.937  25.948  1.00  0.00    -0.744 OA
ENDBRANCH  85  86
ENDBRANCH  53  78
BRANCH  65  90
ATOM     90  C   UNL A   1      42.559  36.069  28.786  1.00  0.00     0.058 A 
ATOM     91  C   UNL A   1      41.884  36.509  27.633  1.00  0.00     0.135 A 
ATOM     92  C   UNL A   1      43.250  37.079  29.503  1.00  0.00     0.135 A 
ATOM     93  F   UNL A   1      41.089  35.688  26.933  1.00  0.00    -0.206 F 
ATOM     94  C   UNL A   1      41.955  37.828  27.177  1.00  0.00     0.059 A 
ATOM     95  C   UNL A   1      43.285  38.411  29.097  1.00  0.00     0.059 A 
ATOM     96  F   UNL A   1      43.908  36.802  30.638  1.00  0.00    -0.206 F 
ATOM     97  C   UNL A   1      42.659  38.773  27.914  1.00  0.00     0.060 A 
BRANCH  97  98
ATOM     98  S   UNL A   1      42.708  40.490  27.367  1.00  0.00     0.124 S 
ATOM     99  O   UNL A   1      41.297  40.752  27.103  1.00  0.00    -0.237 OA
ATOM    100  O   UNL A   1      43.272  41.186  28.520  1.00  0.00    -0.237 OA
ATOM    101  O   UNL A   1      43.574  40.438  26.193  1.00  0.00    -0.744 OA
ENDBRANCH  97  98
ENDBRANCH  65  90
ENDBRANCH  39  40
ENDBRANCH  31  34
ENDBRANCH  29  30
ENDBRANCH  28  29
ENDBRANCH  27  28
ENDBRANCH   1  27
TORSDOF 19
ENDMDL
MODEL 2
REMARK VINA RESULT:     -12.6      2.167      3.705
REMARK SMILES Cc1cccc(NS(=O)(=O)c2ccc(Br)c(C(=O)NCCCCCCNC(=O)c3ccc(-c4c5nc(c(-c6c(F)cc(S(=O)(=O)[O-])cc6F)c6ccc([nH]6)c(-c6c(F)cc(S(=O)(=O)[O-])cc6F)c6nc(c(-c7c(F)cc(S(=O)(=O)[O-])cc7F)c7ccc4[nH]7)C=C6)C=C5)cc3)c2)c1
REMARK SMILES IDX 22 1 21 2 20 3 19 4 17 5 18 6 16 8 11 9 12 10 95 11 13 12
REMARK SMILES IDX 14 13 15 14 8 15 9 16 10 17 7 18 6 20 1 21 2 22 3 23 96 24
REMARK SMILES IDX 4 25 5 26 23 27 24 28 25 29 26 30 27 31 28 33 29 34 30 35
REMARK SMILES IDX 94 36 31 37 93 38 32 39 33 40 34 41 87 42 35 43 92 44 86 45
REMARK SMILES IDX 88 46 36 47 91 48 85 49 84 50 37 52 71 53 50 54 70 55 51 56
REMARK SMILES IDX 54 57 69 58 89 59 52 60 53 61 68 63 90 64 55 65 38 66 39 67
REMARK SMILES IDX 48 68 40 69 41 70 47 71 49 72 42 73 43 74 44 75 45 76 46 77
REMARK SMILES IDX 72 78 73 79 82 80 74 81 75 82 81 83 83 84 76 85 77 86 78 87
REMARK SMILES IDX 79 88 80 89 56 90 57 91 66 92 58 93 59 94 65 95 67 96 60 97
REMARK SMILES IDX 61 98 62 99 63 100 64 101
REMARK H PARENT 19 7 7 19 26 32 88 51 54 62
REMARK Flexibility Score: inf
ROOT
ATOM      1  C   UNL A   1      35.092  21.893  25.560  1.00  0.00     0.002 C 
ENDROOT
BRANCH   1   2
ATOM      2  C   UNL A   1      34.104  21.502  26.662  1.00  0.00     0.021 C 
BRANCH   2   3
ATOM      3  C   UNL A   1      32.620  21.420  26.337  1.00  0.00     0.116 C 
BRANCH   3   4
ATOM      4  N   UNL A   1      31.718  22.330  27.011  1.00  0.00    -0.352 N 
ATOM      5  C   UNL A   1      31.337  23.608  26.641  1.00  0.00     0.252 C 
ATOM      6  O   UNL A   1      30.415  24.151  27.248  1.00  0.00    -0.269 OA
ATOM      7  H   UNL A   1      31.319  21.993  27.846  1.00  0.00     0.163 HD
BRANCH   5   8
ATOM      8  C   UNL A   1      32.106  24.410  25.639  1.00  0.00     0.055 A 
ATOM      9  C   UNL A   1      33.515  26.365  25.268  1.00  0.00     0.088 A 
ATOM     10  C   UNL A   1      34.027  25.790  24.112  1.00  0.00     0.023 A 
ATOM     11  C   UNL A   1      32.636  25.634  26.083  1.00  0.00     0.037 A 
ATOM     12  C   UNL A   1      33.374  24.674  23.591  1.00  0.00     0.018 A 
ATOM     13  C   UNL A   1      32.328  24.073  24.303  1.00  0.00     0.030 A 
ATOM     14  Br  UNL A   1      31.046  23.140  23.245  1.00  0.00    -0.050 Br
BRANCH   9  15
ATOM     15  S   UNL A   1      33.652  28.118  25.568  1.00  0.00     0.261 S 
ATOM     16  O   UNL A   1      34.277  28.693  24.396  1.00  0.00    -0.201 OA
ATOM     17  O   UNL A   1      34.235  28.280  26.883  1.00  0.00    -0.201 OA
BRANCH  15  18
ATOM     18  N   UNL A   1      32.120  28.795  25.618  1.00  0.00    -0.280 N 
ATOM     19  H   UNL A   1      31.880  29.249  26.458  1.00  0.00     0.180 HD
BRANCH  18  20
ATOM     20  C   UNL A   1      31.117  28.798  24.604  1.00  0.00     0.049 A 
ATOM     21  C   UNL A   1      28.775  31.502  23.276  1.00  0.00     0.044 C 
ATOM     22  C   UNL A   1      29.525  30.208  23.399  1.00  0.00    -0.049 A 
ATOM     23  C   UNL A   1      29.455  29.243  22.393  1.00  0.00     0.003 A 
ATOM     24  C   UNL A   1      30.371  29.981  24.492  1.00  0.00     0.030 A 
ATOM     25  C   UNL A   1      30.113  28.023  22.550  1.00  0.00     0.002 A 
ATOM     26  C   UNL A   1      30.894  27.775  23.686  1.00  0.00     0.027 A 
ENDBRANCH  18  20
ENDBRANCH  15  18
ENDBRANCH   9  15
ENDBRANCH   5   8
ENDBRANCH   3   4
ENDBRANCH   2   3
ENDBRANCH   1   2
BRANCH   1  27
ATOM     27  C   UNL A   1      36.060  20.847  24.992  1.00  0.00     0.002 C 
BRANCH  27  28
ATOM     28  C   UNL A   1      37.526  21.225  24.789  1.00  0.00     0.021 C 
BRANCH  28  29
ATOM     29  C   UNL A   1      38.078  22.294  25.722  1.00  0.00     0.116 C 
BRANCH  29  30
ATOM     30  N   UNL A   1      39.343  21.919  26.336  1.00  0.00    -0.352 N 
ATOM     31  C   UNL A   1      40.407  22.749  26.657  1.00  0.00     0.251 C 
ATOM     32  H   UNL A   1      39.457  20.964  26.549  1.00  0.00     0.163 HD
ATOM     33  O   UNL A   1      41.537  22.333  26.826  1.00  0.00    -0.269 OA
BRANCH  31  34
ATOM     34  C   UNL A   1      40.070  24.159  26.947  1.00  0.00     0.039 A 
ATOM     35  C   UNL A   1      40.651  25.127  26.118  1.00  0.00     0.014 A 
ATOM     36  C   UNL A   1      39.457  24.509  28.144  1.00  0.00     0.014 A 
ATOM     37  C   UNL A   1      40.789  26.431  26.583  1.00  0.00     0.010 A 
ATOM     38  C   UNL A   1      39.666  25.782  28.637  1.00  0.00     0.010 A 
ATOM     39  C   UNL A   1      40.379  26.725  27.879  1.00  0.00    -0.014 A 
BRANCH  39  40
ATOM     40  C   UNL A   1      40.687  27.967  28.574  1.00  0.00     0.031 A 
ATOM     41  C   UNL A   1      39.685  29.056  28.604  1.00  0.00     0.074 A 
ATOM     42  C   UNL A   1      41.815  28.059  29.311  1.00  0.00     0.049 A 
ATOM     43  N   UNL A   1      39.897  30.230  29.091  1.00  0.00    -0.248 NA
ATOM     44  C   UNL A   1      38.362  28.923  27.995  1.00  0.00     0.031 C 
ATOM     45  C   UNL A   1      42.079  28.984  30.410  1.00  0.00     0.029 A 
ATOM     46  N   UNL A   1      43.049  27.459  29.061  1.00  0.00    -0.354 N 
ATOM     47  C   UNL A   1      38.693  30.894  29.131  1.00  0.00     0.074 A 
ATOM     48  C   UNL A   1      37.811  30.097  28.318  1.00  0.00     0.031 C 
ATOM     49  C   UNL A   1      43.404  29.070  30.603  1.00  0.00     0.029 A 
ATOM     50  C   UNL A   1      44.042  28.347  29.517  1.00  0.00     0.049 A 
ATOM     51  H   UNL A   1      43.199  26.581  28.643  1.00  0.00     0.167 HD
ATOM     52  C   UNL A   1      38.566  31.964  29.964  1.00  0.00     0.037 A 
ATOM     53  C   UNL A   1      44.939  28.911  28.653  1.00  0.00     0.037 A 
ATOM     54  C   UNL A   1      39.889  32.449  30.370  1.00  0.00     0.049 A 
ATOM     55  C   UNL A   1      44.866  30.420  28.576  1.00  0.00     0.074 A 
ATOM     56  C   UNL A   1      40.628  32.356  31.536  1.00  0.00     0.029 A 
ATOM     57  N   UNL A   1      40.762  32.920  29.390  1.00  0.00    -0.354 N 
ATOM     58  N   UNL A   1      43.859  31.130  29.006  1.00  0.00    -0.248 NA
ATOM     59  C   UNL A   1      45.923  31.249  28.001  1.00  0.00     0.031 C 
ATOM     60  C   UNL A   1      41.980  32.670  31.220  1.00  0.00     0.029 A 
ATOM     61  C   UNL A   1      42.052  32.999  29.877  1.00  0.00     0.049 A 
ATOM     62  H   UNL A   1      40.494  33.165  28.474  1.00  0.00     0.167 HD
ATOM     63  C   UNL A   1      44.080  32.457  28.738  1.00  0.00     0.074 A 
ATOM     64  C   UNL A   1      45.405  32.481  28.143  1.00  0.00     0.031 C 
ATOM     65  C   UNL A   1      43.148  33.420  29.010  1.00  0.00     0.037 A 
BRANCH  52  66
ATOM     66  C   UNL A   1      37.261  32.448  30.588  1.00  0.00     0.058 A 
ATOM     67  C   UNL A   1      36.504  33.465  29.958  1.00  0.00     0.135 A 
ATOM     68  C   UNL A   1      36.769  32.075  31.860  1.00  0.00     0.135 A 
ATOM     69  F   UNL A   1      36.840  33.932  28.746  1.00  0.00    -0.206 F 
ATOM     70  C   UNL A   1      35.392  34.079  30.554  1.00  0.00     0.059 A 
ATOM     71  C   UNL A   1      35.642  32.646  32.456  1.00  0.00     0.059 A 
ATOM     72  F   UNL A   1      37.375  31.176  32.636  1.00  0.00    -0.206 F 
ATOM     73  C   UNL A   1      34.974  33.670  31.812  1.00  0.00     0.060 A 
BRANCH  73  74
ATOM     74  S   UNL A   1      33.588  34.494  32.616  1.00  0.00     0.124 S 
ATOM     75  O   UNL A   1      34.270  35.416  33.519  1.00  0.00    -0.237 OA
ATOM     76  O   UNL A   1      32.889  35.102  31.491  1.00  0.00    -0.237 OA
ATOM     77  O   UNL A   1      32.875  33.400  33.271  1.00  0.00    -0.744 OA
ENDBRANCH  73  74
ENDBRANCH  52  66
BRANCH  53  78
ATOM     78  C   UNL A   1      45.314  28.002  27.533  1.00  0.00     0.058 A 
ATOM     79  C   UNL A   1      46.259  26.996  27.811  1.00  0.00     0.135 A 
ATOM     80  C   UNL A   1      44.450  27.801  26.447  1.00  0.00     0.135 A 
ATOM     81  F   UNL A   1      47.128  27.155  28.824  1.00  0.00    -0.206 F 
ATOM     82  C   UNL A   1      46.219  25.763  27.173  1.00  0.00     0.059 A 
ATOM     83  C   UNL A   1      44.402  26.574  25.784  1.00  0.00     0.059 A 
ATOM     84  F   UNL A   1      43.538  28.731  26.127  1.00  0.00    -0.206 F 
ATOM     85  C   UNL A   1      45.232  25.538  26.216  1.00  0.00     0.060 A 
BRANCH  85  86
ATOM     86  S   UNL A   1      44.927  23.828  25.708  1.00  0.00     0.124 S 
ATOM     87  O   UNL A   1      43.688  23.951  24.947  1.00  0.00    -0.237 OA
ATOM     88  O   UNL A   1      46.124  23.539  24.919  1.00  0.00    -0.237 OA
ATOM     89  O   UNL A   1      44.822  23.116  26.975  1.00  0.00    -0.744 OA
ENDBRANCH  85  86
ENDBRANCH  53  78
BRANCH  65  90
ATOM     90  C   UNL A   1      43.211  34.862  28.548  1.00  0.00     0.058 A 
ATOM     91  C   UNL A   1      43.151  35.265  27.202  1.00  0.00     0.135 A 
ATOM     92  C   UNL A   1      43.197  35.916  29.495  1.00  0.00     0.135 A 
ATOM     93  F   UNL A   1      43.029  34.372  26.209  1.00  0.00    -0.206 F 
ATOM     94  C   UNL A   1      43.162  36.609  26.818  1.00  0.00     0.059 A 
ATOM     95  C   UNL A   1      43.149  37.261  29.135  1.00  0.00     0.059 A 
ATOM     96  F   UNL A   1      43.217  35.670  30.813  1.00  0.00    -0.206 F 
ATOM     97  C   UNL A   1      43.164  37.602  27.791  1.00  0.00     0.060 A 
BRANCH  97  98
ATOM     98  S   UNL A   1      43.118  39.338  27.309  1.00  0.00     0.124 S 
ATOM     99  O   UNL A   1      41.799  39.434  26.691  1.00  0.00    -0.237 OA
ATOM    100  O   UNL A   1      43.268  40.036  28.583  1.00  0.00    -0.237 OA
ATOM    101  O   UNL A   1      44.254  39.459  26.402  1.00  0.00    -0.744 OA
ENDBRANCH  97  98
ENDBRANCH  65  90
ENDBRANCH  39  40
ENDBRANCH  31  34
ENDBRANCH  29  30
ENDBRANCH  28  29
ENDBRANCH  27  28
ENDBRANCH   1  27
TORSDOF 19
ENDMDL
MODEL 3
REMARK VINA RESULT:     -12.3      2.305      3.832
REMARK SMILES Cc1cccc(NS(=O)(=O)c2ccc(Br)c(C(=O)NCCCCCCNC(=O)c3ccc(-c4c5nc(c(-c6c(F)cc(S(=O)(=O)[O-])cc6F)c6ccc([nH]6)c(-c6c(F)cc(S(=O)(=O)[O-])cc6F)c6nc(c(-c7c(F)cc(S(=O)(=O)[O-])cc7F)c7ccc4[nH]7)C=C6)C=C5)cc3)c2)c1
REMARK SMILES IDX 22 1 21 2 20 3 19 4 17 5 18 6 16 8 11 9 12 10 95 11 13 12
REMARK SMILES IDX 14 13 15 14 8 15 9 16 10 17 7 18 6 20 1 21 2 22 3 23 96 24
REMARK SMILES IDX 4 25 5 26 23 27 24 28 25 29 26 30 27 31 28 33 29 34 30 35
REMARK SMILES IDX 94 36 31 37 93 38 32 39 33 40 34 41 87 42 35 43 92 44 86 45
REMARK SMILES IDX 88 46 36 47 91 48 85 49 84 50 37 52 71 53 50 54 70 55 51 56
REMARK SMILES IDX 54 57 69 58 89 59 52 60 53 61 68 63 90 64 55 65 38 66 39 67
REMARK SMILES IDX 48 68 40 69 41 70 47 71 49 72 42 73 43 74 44 75 45 76 46 77
REMARK SMILES IDX 72 78 73 79 82 80 74 81 75 82 81 83 83 84 76 85 77 86 78 87
REMARK SMILES IDX 79 88 80 89 56 90 57 91 66 92 58 93 59 94 65 95 67 96 60 97
REMARK SMILES IDX 61 98 62 99 63 100 64 101
REMARK H PARENT 19 7 7 19 26 32 88 51 54 62
REMARK Flexibility Score: inf
ROOT
ATOM      1  C   UNL A   1      35.193  21.644  26.209  1.00  0.00     0.002 C 
ENDROOT
BRANCH   1   2
ATOM      2  C   UNL A   1      34.746  23.108  26.199  1.00  0.00     0.021 C 
BRANCH   2   3
ATOM      3  C   UNL A   1      33.554  23.527  27.046  1.00  0.00     0.116 C 
BRANCH   3   4
ATOM      4  N   UNL A   1      32.301  22.825  26.865  1.00  0.00    -0.352 N 
ATOM      5  C   UNL A   1      31.662  22.478  25.687  1.00  0.00     0.252 C 
ATOM      6  O   UNL A   1      30.696  21.718  25.738  1.00  0.00    -0.269 OA
ATOM      7  H   UNL A   1      31.839  22.558  27.693  1.00  0.00     0.163 HD
BRANCH   5   8
ATOM      8  C   UNL A   1      32.007  23.113  24.377  1.00  0.00     0.055 A 
ATOM      9  C   UNL A   1      32.083  25.185  23.094  1.00  0.00     0.088 A 
ATOM     10  C   UNL A   1      33.040  24.639  22.248  1.00  0.00     0.023 A 
ATOM     11  C   UNL A   1      31.645  24.462  24.215  1.00  0.00     0.037 A 
ATOM     12  C   UNL A   1      33.255  23.263  22.305  1.00  0.00     0.018 A 
ATOM     13  C   UNL A   1      32.629  22.492  23.293  1.00  0.00     0.030 A 
ATOM     14  Br  UNL A   1      32.340  20.662  22.844  1.00  0.00    -0.050 Br
BRANCH   9  15
ATOM     15  S   UNL A   1      31.133  26.617  22.615  1.00  0.00     0.261 S 
ATOM     16  O   UNL A   1      29.903  26.574  23.377  1.00  0.00    -0.201 OA
ATOM     17  O   UNL A   1      31.117  26.651  21.168  1.00  0.00    -0.201 OA
BRANCH  15  18
ATOM     18  N   UNL A   1      31.917  28.004  23.135  1.00  0.00    -0.280 N 
ATOM     19  H   UNL A   1      31.855  28.782  22.535  1.00  0.00     0.180 HD
BRANCH  18  20
ATOM     20  C   UNL A   1      32.664  28.205  24.334  1.00  0.00     0.049 A 
ATOM     21  C   UNL A   1      32.592  30.920  27.013  1.00  0.00     0.044 C 
ATOM     22  C   UNL A   1      32.904  29.638  26.299  1.00  0.00    -0.049 A 
ATOM     23  C   UNL A   1      33.610  28.617  26.938  1.00  0.00     0.003 A 
ATOM     24  C   UNL A   1      32.423  29.414  25.002  1.00  0.00     0.030 A 
ATOM     25  C   UNL A   1      33.941  27.455  26.241  1.00  0.00     0.002 A 
ATOM     26  C   UNL A   1      33.521  27.275  24.916  1.00  0.00     0.027 A 
ENDBRANCH  18  20
ENDBRANCH  15  18
ENDBRANCH   9  15
ENDBRANCH   5   8
ENDBRANCH   3   4
ENDBRANCH   2   3
ENDBRANCH   1   2
BRANCH   1  27
ATOM     27  C   UNL A   1      35.894  21.048  24.981  1.00  0.00     0.002 C 
BRANCH  27  28
ATOM     28  C   UNL A   1      37.420  21.058  24.918  1.00  0.00     0.021 C 
BRANCH  28  29
ATOM     29  C   UNL A   1      38.114  22.192  25.662  1.00  0.00     0.116 C 
BRANCH  29  30
ATOM     30  N   UNL A   1      39.416  21.816  26.189  1.00  0.00    -0.352 N 
ATOM     31  C   UNL A   1      40.486  22.651  26.477  1.00  0.00     0.251 C 
ATOM     32  H   UNL A   1      39.555  20.856  26.364  1.00  0.00     0.163 HD
ATOM     33  O   UNL A   1      41.629  22.246  26.568  1.00  0.00    -0.269 OA
BRANCH  31  34
ATOM     34  C   UNL A   1      40.149  24.045  26.832  1.00  0.00     0.039 A 
ATOM     35  C   UNL A   1      40.712  25.051  26.037  1.00  0.00     0.014 A 
ATOM     36  C   UNL A   1      39.554  24.341  28.053  1.00  0.00     0.014 A 
ATOM     37  C   UNL A   1      40.853  26.334  26.554  1.00  0.00     0.010 A 
ATOM     38  C   UNL A   1      39.766  25.592  28.597  1.00  0.00     0.010 A 
ATOM     39  C   UNL A   1      40.463  26.571  27.868  1.00  0.00    -0.014 A 
BRANCH  39  40
ATOM     40  C   UNL A   1      40.777  27.783  28.611  1.00  0.00     0.031 A 
ATOM     41  C   UNL A   1      39.806  28.901  28.630  1.00  0.00     0.074 A 
ATOM     42  C   UNL A   1      41.875  27.820  29.396  1.00  0.00     0.049 A 
ATOM     43  N   UNL A   1      40.032  30.054  29.159  1.00  0.00    -0.248 NA
ATOM     44  C   UNL A   1      38.507  28.825  27.964  1.00  0.00     0.031 C 
ATOM     45  C   UNL A   1      42.120  28.707  30.530  1.00  0.00     0.029 A 
ATOM     46  N   UNL A   1      43.101  27.191  29.180  1.00  0.00    -0.354 N 
ATOM     47  C   UNL A   1      38.848  30.753  29.168  1.00  0.00     0.074 A 
ATOM     48  C   UNL A   1      37.978  30.006  28.297  1.00  0.00     0.031 C 
ATOM     49  C   UNL A   1      43.437  28.747  30.780  1.00  0.00     0.029 A 
ATOM     50  C   UNL A   1      44.099  28.035  29.702  1.00  0.00     0.049 A 
ATOM     51  H   UNL A   1      43.242  26.320  28.744  1.00  0.00     0.167 HD
ATOM     52  C   UNL A   1      38.717  31.804  30.026  1.00  0.00     0.037 A 
ATOM     53  C   UNL A   1      45.048  28.595  28.892  1.00  0.00     0.037 A 
ATOM     54  C   UNL A   1      40.035  32.236  30.500  1.00  0.00     0.049 A 
ATOM     55  C   UNL A   1      45.022  30.108  28.855  1.00  0.00     0.074 A 
ATOM     56  C   UNL A   1      40.721  32.089  31.692  1.00  0.00     0.029 A 
ATOM     57  N   UNL A   1      40.962  32.708  29.570  1.00  0.00    -0.354 N 
ATOM     58  N   UNL A   1      44.019  30.836  29.264  1.00  0.00    -0.248 NA
ATOM     59  C   UNL A   1      46.126  30.919  28.348  1.00  0.00     0.031 C 
ATOM     60  C   UNL A   1      42.094  32.371  31.441  1.00  0.00     0.029 A 
ATOM     61  C   UNL A   1      42.232  32.734  30.112  1.00  0.00     0.049 A 
ATOM     62  H   UNL A   1      40.740  32.986  28.652  1.00  0.00     0.167 HD
ATOM     63  C   UNL A   1      44.290  32.162  29.043  1.00  0.00     0.074 A 
ATOM     64  C   UNL A   1      45.638  32.162  28.504  1.00  0.00     0.031 C 
ATOM     65  C   UNL A   1      43.375  33.145  29.303  1.00  0.00     0.037 A 
BRANCH  52  66
ATOM     66  C   UNL A   1      37.402  32.309  30.608  1.00  0.00     0.058 A 
ATOM     67  C   UNL A   1      36.973  33.635  30.356  1.00  0.00     0.135 A 
ATOM     68  C   UNL A   1      36.589  31.614  31.533  1.00  0.00     0.135 A 
ATOM     69  F   UNL A   1      37.636  34.429  29.503  1.00  0.00    -0.206 F 
ATOM     70  C   UNL A   1      35.870  34.223  30.994  1.00  0.00     0.059 A 
ATOM     71  C   UNL A   1      35.466  32.166  32.152  1.00  0.00     0.059 A 
ATOM     72  F   UNL A   1      36.859  30.374  31.946  1.00  0.00    -0.206 F 
ATOM     73  C   UNL A   1      35.127  33.482  31.902  1.00  0.00     0.060 A 
BRANCH  73  74
ATOM     74  S   UNL A   1      33.749  34.245  32.777  1.00  0.00     0.124 S 
ATOM     75  O   UNL A   1      34.439  35.064  33.767  1.00  0.00    -0.237 OA
ATOM     76  O   UNL A   1      33.065  34.970  31.713  1.00  0.00    -0.237 OA
ATOM     77  O   UNL A   1      33.015  33.103  33.318  1.00  0.00    -0.744 OA
ENDBRANCH  73  74
ENDBRANCH  52  66
BRANCH  53  78
ATOM     78  C   UNL A   1      45.443  27.706  27.763  1.00  0.00     0.058 A 
ATOM     79  C   UNL A   1      44.871  27.973  26.505  1.00  0.00     0.135 A 
ATOM     80  C   UNL A   1      46.655  27.001  27.792  1.00  0.00     0.135 A 
ATOM     81  F   UNL A   1      43.696  28.620  26.426  1.00  0.00    -0.206 F 
ATOM     82  C   UNL A   1      45.563  27.731  25.325  1.00  0.00     0.059 A 
ATOM     83  C   UNL A   1      47.361  26.737  26.616  1.00  0.00     0.059 A 
ATOM     84  F   UNL A   1      47.240  26.708  28.962  1.00  0.00    -0.206 F 
ATOM     85  C   UNL A   1      46.843  27.186  25.401  1.00  0.00     0.060 A 
BRANCH  85  86
ATOM     86  S   UNL A   1      47.881  27.267  23.920  1.00  0.00     0.124 S 
ATOM     87  O   UNL A   1      47.981  25.862  23.538  1.00  0.00    -0.237 OA
ATOM     88  O   UNL A   1      47.068  28.104  23.038  1.00  0.00    -0.237 OA
ATOM     89  O   UNL A   1      49.111  27.878  24.407  1.00  0.00    -0.744 OA
ENDBRANCH  85  86
ENDBRANCH  53  78
BRANCH  65  90
ATOM     90  C   UNL A   1      43.499  34.596  28.886  1.00  0.00     0.058 A 
ATOM     91  C   UNL A   1      43.508  35.038  27.551  1.00  0.00     0.135 A 
ATOM     92  C   UNL A   1      43.477  35.624  29.861  1.00  0.00     0.135 A 
ATOM     93  F   UNL A   1      43.401  34.177  26.529  1.00  0.00    -0.206 F 
ATOM     94  C   UNL A   1      43.574  36.391  27.206  1.00  0.00     0.059 A 
ATOM     95  C   UNL A   1      43.484  36.979  29.539  1.00  0.00     0.059 A 
ATOM     96  F   UNL A   1      43.435  35.342  31.172  1.00  0.00    -0.206 F 
ATOM     97  C   UNL A   1      43.564  37.356  28.207  1.00  0.00     0.060 A 
BRANCH  97  98
ATOM     98  S   UNL A   1      43.589  39.106  27.773  1.00  0.00     0.124 S 
ATOM     99  O   UNL A   1      44.044  39.709  29.022  1.00  0.00    -0.237 OA
ATOM    100  O   UNL A   1      44.541  39.156  26.666  1.00  0.00    -0.237 OA
ATOM    101  O   UNL A   1      42.203  39.375  27.407  1.00  0.00    -0.744 OA
ENDBRANCH  97  98
ENDBRANCH  65  90
ENDBRANCH  39  40
ENDBRANCH  31  34
ENDBRANCH  29  30
ENDBRANCH  28  29
ENDBRANCH  27  28
ENDBRANCH   1  27
TORSDOF 19
ENDMDL
