MODEL 1
REMARK VINA RESULT:     -10.9      0.000      0.000
REMARK SMILES CC(C)(C(=O)NCCCCCCNC(=O)c1ccc(-c2c3nc(c(-c4c(F)cc(S(=O)(=O)[O-])cc4F)c4ccc([nH]4)c(-c4c(F)cc(S(=O)(=O)[O-])cc4F)c4nc(c(-c5c(F)cc(S(=O)(=O)[O-])cc5F)c5ccc2[nH]5)C=C4)C=C3)cc1)c1ccc(C(=O)CCCCl)cc1
REMARK SMILES IDX 8 1 7 2 6 3 4 4 5 5 2 7 1 8 3 9 82 10 83 11 93 12 84 13
REMARK SMILES IDX 92 14 85 15 86 16 87 17 88 18 89 19 90 20 91 21 9 22 10 23
REMARK SMILES IDX 11 24 12 25 13 26 14 27 15 29 16 30 17 31 81 32 18 33 80 34
REMARK SMILES IDX 19 35 20 36 21 37 74 38 22 39 79 40 73 41 75 42 23 43 78 44
REMARK SMILES IDX 72 45 71 46 24 48 58 49 37 50 57 51 38 52 41 53 56 54 76 55
REMARK SMILES IDX 39 56 40 57 55 59 77 60 42 61 25 62 26 63 35 64 27 65 28 66
REMARK SMILES IDX 34 67 36 68 29 69 30 70 31 71 32 72 33 73 59 74 60 75 69 76
REMARK SMILES IDX 61 77 62 78 68 79 70 80 63 81 64 82 65 83 66 84 67 85 43 86
REMARK SMILES IDX 44 87 53 88 45 89 46 90 52 91 54 92 47 93 48 94 49 95 50 96
REMARK SMILES IDX 51 97
REMARK H PARENT 6 6 13 28 75 47 41 58
REMARK Flexibility Score: inf
ROOT
ATOM      1  C   UNL A   1      35.611  22.337  24.108  1.00  0.00     0.021 C 
ENDROOT
BRANCH   1   2
ATOM      2  C   UNL A   1      35.472  23.749  23.540  1.00  0.00     0.116 C 
BRANCH   2   3
ATOM      3  N   UNL A   1      34.576  24.544  24.355  1.00  0.00    -0.355 N 
ATOM      4  C   UNL A   1      33.245  24.820  24.259  1.00  0.00     0.230 C 
ATOM      5  O   UNL A   1      32.850  25.718  25.011  1.00  0.00    -0.274 OA
ATOM      6  H   UNL A   1      35.013  24.967  25.129  1.00  0.00     0.163 HD
BRANCH   4   7
ATOM      7  C   UNL A   1      32.297  24.066  23.272  1.00  0.00     0.068 C 
ATOM      8  C   UNL A   1      30.887  24.689  23.402  1.00  0.00     0.026 C 
ATOM      9  C   UNL A   1      32.818  24.165  21.824  1.00  0.00     0.026 C 
BRANCH   7  10
ATOM     10  C   UNL A   1      32.246  22.539  23.580  1.00  0.00    -0.033 A 
ATOM     11  C   UNL A   1      32.264  21.590  22.539  1.00  0.00     0.005 A 
ATOM     12  C   UNL A   1      32.139  22.050  24.892  1.00  0.00     0.005 A 
ATOM     13  C   UNL A   1      32.316  20.219  22.806  1.00  0.00     0.012 A 
ATOM     14  C   UNL A   1      32.154  20.681  25.161  1.00  0.00     0.012 A 
ATOM     15  C   UNL A   1      32.317  19.764  24.125  1.00  0.00     0.018 A 
BRANCH  15  16
ATOM     16  C   UNL A   1      32.572  18.323  24.391  1.00  0.00     0.162 C 
ATOM     17  O   UNL A   1      31.836  17.707  25.161  1.00  0.00    -0.294 OA
BRANCH  16  18
ATOM     18  C   UNL A   1      33.687  17.610  23.639  1.00  0.00     0.082 C 
BRANCH  18  19
ATOM     19  C   UNL A   1      34.983  17.493  24.449  1.00  0.00     0.024 C 
BRANCH  19  20
ATOM     20  C   UNL A   1      35.241  16.160  25.150  1.00  0.00     0.110 C 
ATOM     21  Cl  UNL A   1      33.736  15.250  25.426  1.00  0.00    -0.127 Cl
ENDBRANCH  19  20
ENDBRANCH  18  19
ENDBRANCH  16  18
ENDBRANCH  15  16
ENDBRANCH   7  10
ENDBRANCH   4   7
ENDBRANCH   2   3
ENDBRANCH   1   2
BRANCH   1  22
ATOM     22  C   UNL A   1      36.148  22.291  25.542  1.00  0.00     0.002 C 
BRANCH  22  23
ATOM     23  C   UNL A   1      37.671  22.408  25.663  1.00  0.00     0.002 C 
BRANCH  23  24
ATOM     24  C   UNL A   1      38.177  23.758  26.179  1.00  0.00     0.021 C 
BRANCH  24  25
ATOM     25  C   UNL A   1      39.443  23.677  27.024  1.00  0.00     0.116 C 
BRANCH  25  26
ATOM     26  N   UNL A   1      40.625  24.027  26.256  1.00  0.00    -0.352 N 
ATOM     27  C   UNL A   1      41.383  25.169  26.304  1.00  0.00     0.251 C 
ATOM     28  H   UNL A   1      40.926  23.347  25.612  1.00  0.00     0.163 HD
ATOM     29  O   UNL A   1      42.216  25.387  25.432  1.00  0.00    -0.269 OA
BRANCH  27  30
ATOM     30  C   UNL A   1      41.179  26.141  27.401  1.00  0.00     0.039 A 
ATOM     31  C   UNL A   1      40.208  25.875  28.366  1.00  0.00     0.014 A 
ATOM     32  C   UNL A   1      41.931  27.319  27.464  1.00  0.00     0.014 A 
ATOM     33  C   UNL A   1      40.017  26.772  29.420  1.00  0.00     0.010 A 
ATOM     34  C   UNL A   1      41.793  28.173  28.556  1.00  0.00     0.010 A 
ATOM     35  C   UNL A   1      40.824  27.916  29.537  1.00  0.00    -0.014 A 
BRANCH  35  36
ATOM     36  C   UNL A   1      40.646  28.867  30.665  1.00  0.00     0.031 A 
ATOM     37  C   UNL A   1      41.482  28.724  31.909  1.00  0.00     0.074 A 
ATOM     38  C   UNL A   1      39.706  29.829  30.584  1.00  0.00     0.049 A 
ATOM     39  N   UNL A   1      41.440  29.419  33.017  1.00  0.00    -0.248 NA
ATOM     40  C   UNL A   1      42.482  27.643  31.919  1.00  0.00     0.031 C 
ATOM     41  C   UNL A   1      38.802  30.038  29.451  1.00  0.00     0.029 A 
ATOM     42  N   UNL A   1      39.350  30.810  31.477  1.00  0.00    -0.354 N 
ATOM     43  C   UNL A   1      42.402  28.861  33.851  1.00  0.00     0.074 A 
ATOM     44  C   UNL A   1      42.963  27.728  33.150  1.00  0.00     0.031 C 
ATOM     45  C   UNL A   1      38.009  31.091  29.708  1.00  0.00     0.029 A 
ATOM     46  C   UNL A   1      38.324  31.612  31.035  1.00  0.00     0.049 A 
ATOM     47  H   UNL A   1      39.789  30.928  32.350  1.00  0.00     0.167 HD
ATOM     48  C   UNL A   1      42.805  29.273  35.077  1.00  0.00     0.037 A 
ATOM     49  C   UNL A   1      37.702  32.645  31.636  1.00  0.00     0.037 A 
ATOM     50  C   UNL A   1      42.252  30.412  35.765  1.00  0.00     0.049 A 
ATOM     51  C   UNL A   1      38.162  33.080  33.002  1.00  0.00     0.074 A 
ATOM     52  C   UNL A   1      42.603  30.927  37.000  1.00  0.00     0.029 A 
ATOM     53  N   UNL A   1      41.234  31.217  35.272  1.00  0.00    -0.354 N 
ATOM     54  N   UNL A   1      39.104  32.567  33.758  1.00  0.00    -0.248 NA
ATOM     55  C   UNL A   1      37.484  34.242  33.592  1.00  0.00     0.031 C 
ATOM     56  C   UNL A   1      41.775  32.021  37.270  1.00  0.00     0.029 A 
ATOM     57  C   UNL A   1      40.942  32.220  36.181  1.00  0.00     0.049 A 
ATOM     58  H   UNL A   1      40.787  31.093  34.404  1.00  0.00     0.167 HD
ATOM     59  C   UNL A   1      39.156  33.366  34.895  1.00  0.00     0.074 A 
ATOM     60  C   UNL A   1      38.159  34.401  34.722  1.00  0.00     0.031 C 
ATOM     61  C   UNL A   1      39.956  33.254  35.985  1.00  0.00     0.037 A 
BRANCH  48  62
ATOM     62  C   UNL A   1      43.908  28.499  35.745  1.00  0.00     0.058 A 
ATOM     63  C   UNL A   1      43.630  27.411  36.591  1.00  0.00     0.135 A 
ATOM     64  C   UNL A   1      45.255  28.818  35.514  1.00  0.00     0.135 A 
ATOM     65  F   UNL A   1      42.360  27.071  36.860  1.00  0.00    -0.206 F 
ATOM     66  C   UNL A   1      44.647  26.687  37.205  1.00  0.00     0.059 A 
ATOM     67  C   UNL A   1      46.289  28.089  36.094  1.00  0.00     0.059 A 
ATOM     68  F   UNL A   1      45.579  29.848  34.716  1.00  0.00    -0.206 F 
ATOM     69  C   UNL A   1      45.975  27.034  36.950  1.00  0.00     0.060 A 
BRANCH  69  70
ATOM     70  S   UNL A   1      47.281  26.077  37.750  1.00  0.00     0.124 S 
ATOM     71  O   UNL A   1      48.257  25.962  36.671  1.00  0.00    -0.237 OA
ATOM     72  O   UNL A   1      47.663  26.941  38.862  1.00  0.00    -0.237 OA
ATOM     73  O   UNL A   1      46.612  24.835  38.125  1.00  0.00    -0.744 OA
ENDBRANCH  69  70
ENDBRANCH  48  62
BRANCH  49  74
ATOM     74  C   UNL A   1      36.587  33.350  30.948  1.00  0.00     0.058 A 
ATOM     75  C   UNL A   1      35.264  33.229  31.399  1.00  0.00     0.135 A 
ATOM     76  C   UNL A   1      36.820  34.149  29.818  1.00  0.00     0.135 A 
ATOM     77  F   UNL A   1      34.988  32.475  32.475  1.00  0.00    -0.206 F 
ATOM     78  C   UNL A   1      34.207  33.845  30.735  1.00  0.00     0.059 A 
ATOM     79  C   UNL A   1      35.784  34.799  29.155  1.00  0.00     0.059 A 
ATOM     80  F   UNL A   1      38.069  34.316  29.358  1.00  0.00    -0.206 F 
ATOM     81  C   UNL A   1      34.478  34.626  29.612  1.00  0.00     0.060 A 
BRANCH  81  82
ATOM     82  S   UNL A   1      33.104  35.437  28.766  1.00  0.00     0.124 S 
ATOM     83  O   UNL A   1      33.789  36.514  28.060  1.00  0.00    -0.237 OA
ATOM     84  O   UNL A   1      32.577  34.361  27.934  1.00  0.00    -0.237 OA
ATOM     85  O   UNL A   1      32.235  35.854  29.863  1.00  0.00    -0.744 OA
ENDBRANCH  81  82
ENDBRANCH  49  74
BRANCH  61  86
ATOM     86  C   UNL A   1      39.823  34.307  37.051  1.00  0.00     0.058 A 
ATOM     87  C   UNL A   1      39.019  34.118  38.185  1.00  0.00     0.135 A 
ATOM     88  C   UNL A   1      40.541  35.511  36.948  1.00  0.00     0.135 A 
ATOM     89  F   UNL A   1      38.308  32.989  38.329  1.00  0.00    -0.206 F 
ATOM     90  C   UNL A   1      38.903  35.100  39.164  1.00  0.00     0.059 A 
ATOM     91  C   UNL A   1      40.464  36.492  37.930  1.00  0.00     0.059 A 
ATOM     92  F   UNL A   1      41.335  35.737  35.890  1.00  0.00    -0.206 F 
ATOM     93  C   UNL A   1      39.630  36.284  39.027  1.00  0.00     0.060 A 
BRANCH  93  94
ATOM     94  S   UNL A   1      39.485  37.543  40.314  1.00  0.00     0.124 S 
ATOM     95  O   UNL A   1      38.554  38.483  39.701  1.00  0.00    -0.237 OA
ATOM     96  O   UNL A   1      38.964  36.777  41.442  1.00  0.00    -0.237 OA
ATOM     97  O   UNL A   1      40.854  38.026  40.471  1.00  0.00    -0.744 OA
ENDBRANCH  93  94
ENDBRANCH  61  86
ENDBRANCH  35  36
ENDBRANCH  27  30
ENDBRANCH  25  26
ENDBRANCH  24  25
ENDBRANCH  23  24
ENDBRANCH  22  23
ENDBRANCH   1  22
TORSDOF 21
ENDMDL
MODEL 2
REMARK VINA RESULT:     -10.6      2.623      8.749
REMARK SMILES CC(C)(C(=O)NCCCCCCNC(=O)c1ccc(-c2c3nc(c(-c4c(F)cc(S(=O)(=O)[O-])cc4F)c4ccc([nH]4)c(-c4c(F)cc(S(=O)(=O)[O-])cc4F)c4nc(c(-c5c(F)cc(S(=O)(=O)[O-])cc5F)c5ccc2[nH]5)C=C4)C=C3)cc1)c1ccc(C(=O)CCCCl)cc1
REMARK SMILES IDX 8 1 7 2 6 3 4 4 5 5 2 7 1 8 3 9 82 10 83 11 93 12 84 13
REMARK SMILES IDX 92 14 85 15 86 16 87 17 88 18 89 19 90 20 91 21 9 22 10 23
REMARK SMILES IDX 11 24 12 25 13 26 14 27 15 29 16 30 17 31 81 32 18 33 80 34
REMARK SMILES IDX 19 35 20 36 21 37 74 38 22 39 79 40 73 41 75 42 23 43 78 44
REMARK SMILES IDX 72 45 71 46 24 48 58 49 37 50 57 51 38 52 41 53 56 54 76 55
REMARK SMILES IDX 39 56 40 57 55 59 77 60 42 61 25 62 26 63 35 64 27 65 28 66
REMARK SMILES IDX 34 67 36 68 29 69 30 70 31 71 32 72 33 73 59 74 60 75 69 76
REMARK SMILES IDX 61 77 62 78 68 79 70 80 63 81 64 82 65 83 66 84 67 85 43 86
REMARK SMILES IDX 44 87 53 88 45 89 46 90 52 91 54 92 47 93 48 94 49 95 50 96
REMARK SMILES IDX 51 97
REMARK H PARENT 6 6 13 28 75 47 41 58
REMARK Flexibility Score: inf
ROOT
ATOM      1  C   UNL A   1      35.027  30.379  27.919  1.00  0.00     0.021 C 
ENDROOT
BRANCH   1   2
ATOM      2  C   UNL A   1      34.743  29.055  27.211  1.00  0.00     0.116 C 
BRANCH   2   3
ATOM      3  N   UNL A   1      34.265  29.287  25.862  1.00  0.00    -0.355 N 
ATOM      4  C   UNL A   1      33.288  28.698  25.118  1.00  0.00     0.230 C 
ATOM      5  O   UNL A   1      33.298  29.005  23.921  1.00  0.00    -0.274 OA
ATOM      6  H   UNL A   1      34.738  30.011  25.392  1.00  0.00     0.163 HD
BRANCH   4   7
ATOM      7  C   UNL A   1      32.243  27.709  25.729  1.00  0.00     0.068 C 
ATOM      8  C   UNL A   1      31.878  28.221  27.142  1.00  0.00     0.026 C 
ATOM      9  C   UNL A   1      30.992  27.609  24.832  1.00  0.00     0.026 C 
BRANCH   7  10
ATOM     10  C   UNL A   1      32.805  26.257  25.804  1.00  0.00    -0.033 A 
ATOM     11  C   UNL A   1      32.111  25.249  26.501  1.00  0.00     0.005 A 
ATOM     12  C   UNL A   1      34.034  25.906  25.222  1.00  0.00     0.005 A 
ATOM     13  C   UNL A   1      32.555  23.924  26.495  1.00  0.00     0.012 A 
ATOM     14  C   UNL A   1      34.499  24.591  25.244  1.00  0.00     0.012 A 
ATOM     15  C   UNL A   1      33.726  23.583  25.816  1.00  0.00     0.018 A 
BRANCH  15  16
ATOM     16  C   UNL A   1      34.073  22.145  25.653  1.00  0.00     0.162 C 
ATOM     17  O   UNL A   1      34.992  21.664  26.315  1.00  0.00    -0.294 OA
BRANCH  16  18
ATOM     18  C   UNL A   1      33.230  21.272  24.735  1.00  0.00     0.082 C 
BRANCH  18  19
ATOM     19  C   UNL A   1      33.059  19.840  25.254  1.00  0.00     0.024 C 
BRANCH  19  20
ATOM     20  C   UNL A   1      33.560  18.715  24.349  1.00  0.00     0.110 C 
ATOM     21  Cl  UNL A   1      32.522  18.493  22.921  1.00  0.00    -0.127 Cl
ENDBRANCH  19  20
ENDBRANCH  18  19
ENDBRANCH  16  18
ENDBRANCH  15  16
ENDBRANCH   7  10
ENDBRANCH   4   7
ENDBRANCH   2   3
ENDBRANCH   1   2
BRANCH   1  22
ATOM     22  C   UNL A   1      34.022  31.488  27.593  1.00  0.00     0.002 C 
BRANCH  22  23
ATOM     23  C   UNL A   1      34.242  32.800  28.354  1.00  0.00     0.002 C 
BRANCH  23  24
ATOM     24  C   UNL A   1      33.201  33.889  28.078  1.00  0.00     0.021 C 
BRANCH  24  25
ATOM     25  C   UNL A   1      33.629  35.291  28.496  1.00  0.00     0.116 C 
BRANCH  25  26
ATOM     26  N   UNL A   1      32.862  35.772  29.632  1.00  0.00    -0.352 N 
ATOM     27  C   UNL A   1      32.983  35.447  30.959  1.00  0.00     0.251 C 
ATOM     28  H   UNL A   1      32.157  36.424  29.420  1.00  0.00     0.163 HD
ATOM     29  O   UNL A   1      32.110  35.781  31.753  1.00  0.00    -0.269 OA
BRANCH  27  30
ATOM     30  C   UNL A   1      34.161  34.681  31.424  1.00  0.00     0.039 A 
ATOM     31  C   UNL A   1      35.434  35.221  31.237  1.00  0.00     0.014 A 
ATOM     32  C   UNL A   1      34.010  33.427  32.025  1.00  0.00     0.014 A 
ATOM     33  C   UNL A   1      36.555  34.521  31.689  1.00  0.00     0.010 A 
ATOM     34  C   UNL A   1      35.121  32.767  32.543  1.00  0.00     0.010 A 
ATOM     35  C   UNL A   1      36.406  33.300  32.367  1.00  0.00    -0.014 A 
BRANCH  35  36
ATOM     36  C   UNL A   1      37.589  32.555  32.872  1.00  0.00     0.031 A 
ATOM     37  C   UNL A   1      38.224  32.948  34.180  1.00  0.00     0.074 A 
ATOM     38  C   UNL A   1      38.114  31.557  32.135  1.00  0.00     0.049 A 
ATOM     39  N   UNL A   1      39.288  32.458  34.761  1.00  0.00    -0.248 NA
ATOM     40  C   UNL A   1      37.593  34.054  34.920  1.00  0.00     0.031 C 
ATOM     41  C   UNL A   1      37.617  31.116  30.829  1.00  0.00     0.029 A 
ATOM     42  N   UNL A   1      39.187  30.735  32.375  1.00  0.00    -0.354 N 
ATOM     43  C   UNL A   1      39.454  33.192  35.930  1.00  0.00     0.074 A 
ATOM     44  C   UNL A   1      38.423  34.206  35.941  1.00  0.00     0.031 C 
ATOM     45  C   UNL A   1      38.370  30.094  30.393  1.00  0.00     0.029 A 
ATOM     46  C   UNL A   1      39.423  29.827  31.369  1.00  0.00     0.049 A 
ATOM     47  H   UNL A   1      39.735  30.790  33.191  1.00  0.00     0.167 HD
ATOM     48  C   UNL A   1      40.361  33.018  36.921  1.00  0.00     0.037 A 
ATOM     49  C   UNL A   1      40.384  28.891  31.244  1.00  0.00     0.037 A 
ATOM     50  C   UNL A   1      41.377  31.996  36.911  1.00  0.00     0.049 A 
ATOM     51  C   UNL A   1      41.387  28.722  32.355  1.00  0.00     0.074 A 
ATOM     52  C   UNL A   1      42.331  31.721  37.874  1.00  0.00     0.029 A 
ATOM     53  N   UNL A   1      41.565  31.077  35.888  1.00  0.00    -0.354 N 
ATOM     54  N   UNL A   1      41.500  29.397  33.475  1.00  0.00    -0.248 NA
ATOM     55  C   UNL A   1      42.384  27.655  32.193  1.00  0.00     0.031 C 
ATOM     56  C   UNL A   1      43.120  30.659  37.419  1.00  0.00     0.029 A 
ATOM     57  C   UNL A   1      42.624  30.239  36.195  1.00  0.00     0.049 A 
ATOM     58  H   UNL A   1      41.026  31.028  35.067  1.00  0.00     0.167 HD
ATOM     59  C   UNL A   1      42.558  28.814  34.165  1.00  0.00     0.074 A 
ATOM     60  C   UNL A   1      43.040  27.724  33.342  1.00  0.00     0.031 C 
ATOM     61  C   UNL A   1      43.081  29.148  35.371  1.00  0.00     0.037 A 
BRANCH  48  62
ATOM     62  C   UNL A   1      40.285  33.941  38.106  1.00  0.00     0.058 A 
ATOM     63  C   UNL A   1      39.426  33.675  39.187  1.00  0.00     0.135 A 
ATOM     64  C   UNL A   1      41.098  35.083  38.185  1.00  0.00     0.135 A 
ATOM     65  F   UNL A   1      38.614  32.607  39.158  1.00  0.00    -0.206 F 
ATOM     66  C   UNL A   1      39.356  34.522  40.287  1.00  0.00     0.059 A 
ATOM     67  C   UNL A   1      41.067  35.928  39.290  1.00  0.00     0.059 A 
ATOM     68  F   UNL A   1      41.936  35.386  37.181  1.00  0.00    -0.206 F 
ATOM     69  C   UNL A   1      40.181  35.647  40.331  1.00  0.00     0.060 A 
BRANCH  69  70
ATOM     70  S   UNL A   1      40.083  36.730  41.772  1.00  0.00     0.124 S 
ATOM     71  O   UNL A   1      41.367  36.472  42.416  1.00  0.00    -0.237 OA
ATOM     72  O   UNL A   1      39.933  38.047  41.162  1.00  0.00    -0.237 OA
ATOM     73  O   UNL A   1      38.911  36.236  42.489  1.00  0.00    -0.744 OA
ENDBRANCH  69  70
ENDBRANCH  48  62
BRANCH  49  74
ATOM     74  C   UNL A   1      40.440  28.032  30.031  1.00  0.00     0.058 A 
ATOM     75  C   UNL A   1      39.574  26.938  29.877  1.00  0.00     0.135 A 
ATOM     76  C   UNL A   1      41.368  28.279  29.008  1.00  0.00     0.135 A 
ATOM     77  F   UNL A   1      38.670  26.659  30.829  1.00  0.00    -0.206 F 
ATOM     78  C   UNL A   1      39.649  26.099  28.770  1.00  0.00     0.059 A 
ATOM     79  C   UNL A   1      41.442  27.471  27.877  1.00  0.00     0.059 A 
ATOM     80  F   UNL A   1      42.204  29.324  29.095  1.00  0.00    -0.206 F 
ATOM     81  C   UNL A   1      40.589  26.372  27.776  1.00  0.00     0.060 A 
BRANCH  81  82
ATOM     82  S   UNL A   1      40.668  25.289  26.333  1.00  0.00     0.124 S 
ATOM     83  O   UNL A   1      41.609  24.271  26.783  1.00  0.00    -0.237 OA
ATOM     84  O   UNL A   1      39.280  24.861  26.195  1.00  0.00    -0.237 OA
ATOM     85  O   UNL A   1      41.151  26.174  25.277  1.00  0.00    -0.744 OA
ENDBRANCH  81  82
ENDBRANCH  49  74
BRANCH  61  86
ATOM     86  C   UNL A   1      44.202  28.293  35.898  1.00  0.00     0.058 A 
ATOM     87  C   UNL A   1      45.548  28.589  35.634  1.00  0.00     0.135 A 
ATOM     88  C   UNL A   1      43.921  27.180  36.707  1.00  0.00     0.135 A 
ATOM     89  F   UNL A   1      45.871  29.639  34.861  1.00  0.00    -0.206 F 
ATOM     90  C   UNL A   1      46.576  27.792  36.126  1.00  0.00     0.059 A 
ATOM     91  C   UNL A   1      44.935  26.388  37.235  1.00  0.00     0.059 A 
ATOM     92  F   UNL A   1      42.652  26.860  37.001  1.00  0.00    -0.206 F 
ATOM     93  C   UNL A   1      46.260  26.692  36.926  1.00  0.00     0.060 A 
BRANCH  93  94
ATOM     94  S   UNL A   1      47.604  25.676  37.573  1.00  0.00     0.124 S 
ATOM     95  O   UNL A   1      47.740  26.197  38.928  1.00  0.00    -0.237 OA
ATOM     96  O   UNL A   1      47.056  24.327  37.463  1.00  0.00    -0.237 OA
ATOM     97  O   UNL A   1      48.715  25.968  36.672  1.00  0.00    -0.744 OA
ENDBRANCH  93  94
ENDBRANCH  61  86
ENDBRANCH  35  36
ENDBRANCH  27  30
ENDBRANCH  25  26
ENDBRANCH  24  25
ENDBRANCH  23  24
ENDBRANCH  22  23
ENDBRANCH   1  22
TORSDOF 21
ENDMDL
MODEL 3
REMARK VINA RESULT:     -10.1      4.409      9.819
REMARK SMILES CC(C)(C(=O)NCCCCCCNC(=O)c1ccc(-c2c3nc(c(-c4c(F)cc(S(=O)(=O)[O-])cc4F)c4ccc([nH]4)c(-c4c(F)cc(S(=O)(=O)[O-])cc4F)c4nc(c(-c5c(F)cc(S(=O)(=O)[O-])cc5F)c5ccc2[nH]5)C=C4)C=C3)cc1)c1ccc(C(=O)CCCCl)cc1
REMARK SMILES IDX 8 1 7 2 6 3 4 4 5 5 2 7 1 8 3 9 82 10 83 11 93 12 84 13
REMARK SMILES IDX 92 14 85 15 86 16 87 17 88 18 89 19 90 20 91 21 9 22 10 23
REMARK SMILES IDX 11 24 12 25 13 26 14 27 15 29 16 30 17 31 81 32 18 33 80 34
REMARK SMILES IDX 19 35 20 36 21 37 74 38 22 39 79 40 73 41 75 42 23 43 78 44
REMARK SMILES IDX 72 45 71 46 24 48 58 49 37 50 57 51 38 52 41 53 56 54 76 55
REMARK SMILES IDX 39 56 40 57 55 59 77 60 42 61 25 62 26 63 35 64 27 65 28 66
REMARK SMILES IDX 34 67 36 68 29 69 30 70 31 71 32 72 33 73 59 74 60 75 69 76
REMARK SMILES IDX 61 77 62 78 68 79 70 80 63 81 64 82 65 83 66 84 67 85 43 86
REMARK SMILES IDX 44 87 53 88 45 89 46 90 52 91 54 92 47 93 48 94 49 95 50 96
REMARK SMILES IDX 51 97
REMARK H PARENT 6 6 13 28 75 47 41 58
REMARK Flexibility Score: inf
ROOT
ATOM      1  C   UNL A   1      34.361  29.947  27.244  1.00  0.00     0.021 C 
ENDROOT
BRANCH   1   2
ATOM      2  C   UNL A   1      33.765  28.870  26.338  1.00  0.00     0.116 C 
BRANCH   2   3
ATOM      3  N   UNL A   1      34.182  29.068  24.964  1.00  0.00    -0.355 N 
ATOM      4  C   UNL A   1      34.026  28.319  23.837  1.00  0.00     0.230 C 
ATOM      5  O   UNL A   1      34.704  28.691  22.873  1.00  0.00    -0.274 OA
ATOM      6  H   UNL A   1      34.674  29.908  24.815  1.00  0.00     0.163 HD
BRANCH   4   7
ATOM      7  C   UNL A   1      33.071  27.083  23.772  1.00  0.00     0.068 C 
ATOM      8  C   UNL A   1      33.592  26.141  22.661  1.00  0.00     0.026 C 
ATOM      9  C   UNL A   1      33.014  26.361  25.133  1.00  0.00     0.026 C 
BRANCH   7  10
ATOM     10  C   UNL A   1      31.602  27.510  23.478  1.00  0.00    -0.033 A 
ATOM     11  C   UNL A   1      30.533  26.988  24.234  1.00  0.00     0.005 A 
ATOM     12  C   UNL A   1      31.279  28.389  22.432  1.00  0.00     0.005 A 
ATOM     13  C   UNL A   1      29.223  27.436  24.043  1.00  0.00     0.012 A 
ATOM     14  C   UNL A   1      29.967  28.810  22.214  1.00  0.00     0.012 A 
ATOM     15  C   UNL A   1      28.946  28.393  23.065  1.00  0.00     0.018 A 
BRANCH  15  16
ATOM     16  C   UNL A   1      27.588  28.998  23.012  1.00  0.00     0.162 C 
ATOM     17  O   UNL A   1      26.637  28.400  23.512  1.00  0.00    -0.294 OA
BRANCH  16  18
ATOM     18  C   UNL A   1      27.412  30.388  22.416  1.00  0.00     0.082 C 
BRANCH  18  19
ATOM     19  C   UNL A   1      27.619  31.513  23.437  1.00  0.00     0.024 C 
BRANCH  19  20
ATOM     20  C   UNL A   1      29.031  32.086  23.553  1.00  0.00     0.110 C 
ATOM     21  Cl  UNL A   1      29.054  33.853  23.338  1.00  0.00    -0.127 Cl
ENDBRANCH  19  20
ENDBRANCH  18  19
ENDBRANCH  16  18
ENDBRANCH  15  16
ENDBRANCH   7  10
ENDBRANCH   4   7
ENDBRANCH   2   3
ENDBRANCH   1   2
BRANCH   1  22
ATOM     22  C   UNL A   1      33.439  31.148  27.475  1.00  0.00     0.002 C 
BRANCH  22  23
ATOM     23  C   UNL A   1      34.114  32.364  28.118  1.00  0.00     0.002 C 
BRANCH  23  24
ATOM     24  C   UNL A   1      33.296  33.658  28.069  1.00  0.00     0.021 C 
BRANCH  24  25
ATOM     25  C   UNL A   1      33.863  34.795  28.910  1.00  0.00     0.116 C 
BRANCH  25  26
ATOM     26  N   UNL A   1      32.958  35.177  29.980  1.00  0.00    -0.352 N 
ATOM     27  C   UNL A   1      33.057  34.935  31.326  1.00  0.00     0.251 C 
ATOM     28  H   UNL A   1      32.161  35.682  29.699  1.00  0.00     0.163 HD
ATOM     29  O   UNL A   1      32.093  35.138  32.056  1.00  0.00    -0.269 OA
BRANCH  27  30
ATOM     30  C   UNL A   1      34.322  34.414  31.889  1.00  0.00     0.039 A 
ATOM     31  C   UNL A   1      34.411  33.058  32.206  1.00  0.00     0.014 A 
ATOM     32  C   UNL A   1      35.408  35.264  32.121  1.00  0.00     0.014 A 
ATOM     33  C   UNL A   1      35.605  32.545  32.719  1.00  0.00     0.010 A 
ATOM     34  C   UNL A   1      36.620  34.737  32.559  1.00  0.00     0.010 A 
ATOM     35  C   UNL A   1      36.727  33.375  32.877  1.00  0.00    -0.014 A 
BRANCH  35  36
ATOM     36  C   UNL A   1      38.010  32.838  33.402  1.00  0.00     0.031 A 
ATOM     37  C   UNL A   1      38.891  31.997  32.517  1.00  0.00     0.074 A 
ATOM     38  C   UNL A   1      38.357  33.073  34.682  1.00  0.00     0.049 A 
ATOM     39  N   UNL A   1      40.018  31.397  32.804  1.00  0.00    -0.248 NA
ATOM     40  C   UNL A   1      38.435  31.783  31.133  1.00  0.00     0.031 C 
ATOM     41  C   UNL A   1      37.564  33.833  35.651  1.00  0.00     0.029 A 
ATOM     42  N   UNL A   1      39.468  32.690  35.393  1.00  0.00    -0.354 N 
ATOM     43  C   UNL A   1      40.402  30.736  31.643  1.00  0.00     0.074 A 
ATOM     44  C   UNL A   1      39.356  30.952  30.669  1.00  0.00     0.031 C 
ATOM     45  C   UNL A   1      38.220  33.876  36.821  1.00  0.00     0.029 A 
ATOM     46  C   UNL A   1      39.464  33.121  36.699  1.00  0.00     0.049 A 
ATOM     47  H   UNL A   1      40.199  32.158  35.004  1.00  0.00     0.167 HD
ATOM     48  C   UNL A   1      41.539  30.041  31.399  1.00  0.00     0.037 A 
ATOM     49  C   UNL A   1      40.357  32.923  37.688  1.00  0.00     0.037 A 
ATOM     50  C   UNL A   1      42.585  29.843  32.370  1.00  0.00     0.049 A 
ATOM     51  C   UNL A   1      41.609  32.140  37.394  1.00  0.00     0.074 A 
ATOM     52  C   UNL A   1      43.785  29.172  32.217  1.00  0.00     0.029 A 
ATOM     53  N   UNL A   1      42.557  30.319  33.673  1.00  0.00    -0.354 N 
ATOM     54  N   UNL A   1      41.977  31.560  36.276  1.00  0.00    -0.248 NA
ATOM     55  C   UNL A   1      42.574  31.994  38.492  1.00  0.00     0.031 C 
ATOM     56  C   UNL A   1      44.468  29.213  33.438  1.00  0.00     0.029 A 
ATOM     57  C   UNL A   1      43.716  29.953  34.336  1.00  0.00     0.049 A 
ATOM     58  H   UNL A   1      41.822  30.842  34.066  1.00  0.00     0.167 HD
ATOM     59  C   UNL A   1      43.231  31.013  36.526  1.00  0.00     0.074 A 
ATOM     60  C   UNL A   1      43.562  31.342  37.897  1.00  0.00     0.031 C 
ATOM     61  C   UNL A   1      44.037  30.303  35.697  1.00  0.00     0.037 A 
BRANCH  48  62
ATOM     62  C   UNL A   1      41.718  29.460  30.023  1.00  0.00     0.058 A 
ATOM     63  C   UNL A   1      41.083  28.263  29.646  1.00  0.00     0.135 A 
ATOM     64  C   UNL A   1      42.498  30.116  29.058  1.00  0.00     0.135 A 
ATOM     65  F   UNL A   1      40.339  27.584  30.533  1.00  0.00    -0.206 F 
ATOM     66  C   UNL A   1      41.240  27.725  28.374  1.00  0.00     0.059 A 
ATOM     67  C   UNL A   1      42.644  29.611  27.769  1.00  0.00     0.059 A 
ATOM     68  F   UNL A   1      43.127  31.262  29.363  1.00  0.00    -0.206 F 
ATOM     69  C   UNL A   1      42.023  28.407  27.441  1.00  0.00     0.060 A 
BRANCH  69  70
ATOM     70  S   UNL A   1      42.207  27.697  25.791  1.00  0.00     0.124 S 
ATOM     71  O   UNL A   1      42.181  28.894  24.956  1.00  0.00    -0.237 OA
ATOM     72  O   UNL A   1      43.494  27.017  25.886  1.00  0.00    -0.237 OA
ATOM     73  O   UNL A   1      41.046  26.821  25.666  1.00  0.00    -0.744 OA
ENDBRANCH  69  70
ENDBRANCH  48  62
BRANCH  49  74
ATOM     74  C   UNL A   1      40.111  33.485  39.043  1.00  0.00     0.058 A 
ATOM     75  C   UNL A   1      39.188  32.891  39.918  1.00  0.00     0.135 A 
ATOM     76  C   UNL A   1      40.784  34.634  39.486  1.00  0.00     0.135 A 
ATOM     77  F   UNL A   1      38.518  31.792  39.541  1.00  0.00    -0.206 F 
ATOM     78  C   UNL A   1      38.915  33.436  41.169  1.00  0.00     0.059 A 
ATOM     79  C   UNL A   1      40.549  35.181  40.744  1.00  0.00     0.059 A 
ATOM     80  F   UNL A   1      41.692  35.229  38.697  1.00  0.00    -0.206 F 
ATOM     81  C   UNL A   1      39.599  34.583  41.572  1.00  0.00     0.060 A 
BRANCH  81  82
ATOM     82  S   UNL A   1      39.252  35.273  43.204  1.00  0.00     0.124 S 
ATOM     83  O   UNL A   1      39.506  34.126  44.067  1.00  0.00    -0.237 OA
ATOM     84  O   UNL A   1      40.219  36.363  43.288  1.00  0.00    -0.237 OA
ATOM     85  O   UNL A   1      37.857  35.691  43.101  1.00  0.00    -0.744 OA
ENDBRANCH  81  82
ENDBRANCH  49  74
BRANCH  61  86
ATOM     86  C   UNL A   1      45.377  29.879  36.232  1.00  0.00     0.058 A 
ATOM     87  C   UNL A   1      46.520  30.682  36.093  1.00  0.00     0.135 A 
ATOM     88  C   UNL A   1      45.510  28.664  36.924  1.00  0.00     0.135 A 
ATOM     89  F   UNL A   1      46.449  31.851  35.437  1.00  0.00    -0.206 F 
ATOM     90  C   UNL A   1      47.754  30.280  36.592  1.00  0.00     0.059 A 
ATOM     91  C   UNL A   1      46.728  28.257  37.458  1.00  0.00     0.059 A 
ATOM     92  F   UNL A   1      44.446  27.864  37.096  1.00  0.00    -0.206 F 
ATOM     93  C   UNL A   1      47.849  29.064  37.272  1.00  0.00     0.060 A 
BRANCH  93  94
ATOM     94  S   UNL A   1      49.453  28.561  37.930  1.00  0.00     0.124 S 
ATOM     95  O   UNL A   1      50.008  27.812  36.808  1.00  0.00    -0.237 OA
ATOM     96  O   UNL A   1      50.090  29.843  38.214  1.00  0.00    -0.237 OA
ATOM     97  O   UNL A   1      49.105  27.768  39.105  1.00  0.00    -0.744 OA
ENDBRANCH  93  94
ENDBRANCH  61  86
ENDBRANCH  35  36
ENDBRANCH  27  30
ENDBRANCH  25  26
ENDBRANCH  24  25
ENDBRANCH  23  24
ENDBRANCH  22  23
ENDBRANCH   1  22
TORSDOF 21
ENDMDL
