MODEL 1
REMARK VINA RESULT:     -13.1      0.000      0.000
REMARK SMILES CC1=C(C)C[C@@H](C(=O)NCCCCCCNC(=O)c2ccc(-c3c4nc(c(-c5c(F)cc(S(=O)(=O)[O-])cc5F)c5ccc([nH]5)c(-c5c(F)cc(S(=O)(=O)[O-])cc5F)c5nc(c(-c6c(F)cc(S(=O)(=O)[O-])cc6F)c6ccc3[nH]6)C=C5)C=C4)cc2)[C@@H](C(=O)N2CCN(c3cccc(C(F)(F)F)c3)CC2)C1
REMARK SMILES IDX 12 1 11 2 10 3 9 4 7 5 8 6 6 8 1 9 2 10 3 11 104 12 4 13
REMARK SMILES IDX 5 14 85 15 86 16 87 17 88 18 89 19 103 20 90 21 102 22 91 23
REMARK SMILES IDX 92 24 93 25 101 26 94 27 96 28 95 29 97 30 98 31 99 32
REMARK SMILES IDX 100 33 13 34 14 35 15 36 16 37 17 38 18 40 19 41 20 42 84 43
REMARK SMILES IDX 21 44 83 45 22 46 23 47 24 48 77 49 25 50 82 51 76 52 78 53
REMARK SMILES IDX 26 54 81 55 75 56 74 57 27 59 61 60 40 61 60 62 41 63 44 64
REMARK SMILES IDX 59 65 79 66 42 67 43 68 58 70 80 71 45 72 28 73 29 74 38 75
REMARK SMILES IDX 30 76 31 77 37 78 39 79 32 80 33 81 34 82 35 83 36 84 62 85
REMARK SMILES IDX 63 86 72 87 64 88 65 89 71 90 73 91 66 92 67 93 68 94 69 95
REMARK SMILES IDX 70 96 46 97 47 98 56 99 48 100 49 101 55 102 57 103 50 104
REMARK SMILES IDX 51 105 52 106 53 107 54 108
REMARK H PARENT 9 7 16 39 78 58 44 69
REMARK Flexibility Score: inf
ROOT
ATOM      1  C   UNL A   1      32.368  30.748  27.311  1.00  0.00     0.002 C 
ENDROOT
BRANCH   1   2
ATOM      2  C   UNL A   1      31.387  31.261  26.255  1.00  0.00     0.021 C 
BRANCH   2   3
ATOM      3  C   UNL A   1      31.217  30.328  25.066  1.00  0.00     0.116 C 
BRANCH   3   4
ATOM      4  N   UNL A   1      32.472  29.735  24.654  1.00  0.00    -0.356 N 
ATOM      5  C   UNL A   1      32.779  28.811  23.709  1.00  0.00     0.224 C 
ATOM      6  O   UNL A   1      33.983  28.673  23.454  1.00  0.00    -0.275 OA
ATOM      7  H   UNL A   1      33.252  30.065  25.156  1.00  0.00     0.163 HD
BRANCH   5   8
ATOM      8  C   UNL A   1      31.738  28.014  22.902  1.00  0.00     0.095 C 
ATOM      9  C   UNL A   1      27.363  28.783  23.244  1.00  0.00     0.039 C 
ATOM     10  C   UNL A   1      28.826  28.525  22.966  1.00  0.00    -0.074 C 
ATOM     11  C   UNL A   1      29.589  29.267  22.144  1.00  0.00    -0.074 C 
ATOM     12  C   UNL A   1      29.369  27.361  23.739  1.00  0.00     0.045 C 
ATOM     13  C   UNL A   1      29.125  30.535  21.473  1.00  0.00     0.039 C 
ATOM     14  C   UNL A   1      31.035  28.926  21.884  1.00  0.00     0.045 C 
ATOM     15  C   UNL A   1      30.848  26.957  23.616  1.00  0.00     0.095 C 
BRANCH  15  16
ATOM     16  C   UNL A   1      31.454  26.474  24.955  1.00  0.00     0.226 C 
ATOM     17  O   UNL A   1      31.150  27.012  26.021  1.00  0.00    -0.275 OA
ATOM     18  N   UNL A   1      32.334  25.410  24.972  1.00  0.00    -0.339 N 
ATOM     19  C   UNL A   1      32.346  24.545  26.159  1.00  0.00     0.141 C 
ATOM     20  C   UNL A   1      33.419  25.128  24.016  1.00  0.00     0.141 C 
ATOM     21  C   UNL A   1      32.278  23.070  25.732  1.00  0.00     0.138 C 
ATOM     22  C   UNL A   1      33.470  23.632  23.602  1.00  0.00     0.138 C 
ATOM     23  N   UNL A   1      33.369  22.791  24.797  1.00  0.00    -0.368 N 
BRANCH  23  24
ATOM     24  C   UNL A   1      33.907  21.525  24.826  1.00  0.00     0.037 A 
ATOM     25  C   UNL A   1      35.236  21.263  25.161  1.00  0.00     0.026 A 
ATOM     26  C   UNL A   1      33.100  20.468  24.399  1.00  0.00     0.039 A 
ATOM     27  C   UNL A   1      35.749  19.966  25.052  1.00  0.00     0.003 A 
ATOM     28  C   UNL A   1      33.599  19.167  24.270  1.00  0.00     0.058 A 
ATOM     29  C   UNL A   1      34.939  18.925  24.597  1.00  0.00     0.013 A 
BRANCH  28  30
ATOM     30  C   UNL A   1      32.713  18.065  23.753  1.00  0.00     0.416 C 
ATOM     31  F   UNL A   1      33.422  16.991  23.310  1.00  0.00    -0.166 F 
ATOM     32  F   UNL A   1      31.852  17.595  24.694  1.00  0.00    -0.166 F 
ATOM     33  F   UNL A   1      31.934  18.448  22.699  1.00  0.00    -0.166 F 
ENDBRANCH  28  30
ENDBRANCH  23  24
ENDBRANCH  15  16
ENDBRANCH   5   8
ENDBRANCH   3   4
ENDBRANCH   2   3
ENDBRANCH   1   2
BRANCH   1  34
ATOM     34  C   UNL A   1      33.548  31.686  27.585  1.00  0.00     0.002 C 
BRANCH  34  35
ATOM     35  C   UNL A   1      34.926  31.015  27.640  1.00  0.00     0.021 C 
BRANCH  35  36
ATOM     36  C   UNL A   1      35.945  31.694  28.553  1.00  0.00     0.116 C 
BRANCH  36  37
ATOM     37  N   UNL A   1      35.757  31.325  29.950  1.00  0.00    -0.352 N 
ATOM     38  C   UNL A   1      36.487  30.462  30.726  1.00  0.00     0.251 C 
ATOM     39  H   UNL A   1      34.997  31.760  30.401  1.00  0.00     0.163 HD
ATOM     40  O   UNL A   1      36.047  30.102  31.822  1.00  0.00    -0.269 OA
BRANCH  38  41
ATOM     41  C   UNL A   1      37.790  29.951  30.252  1.00  0.00     0.039 A 
ATOM     42  C   UNL A   1      38.034  29.863  28.879  1.00  0.00     0.014 A 
ATOM     43  C   UNL A   1      38.769  29.549  31.163  1.00  0.00     0.014 A 
ATOM     44  C   UNL A   1      39.286  29.434  28.424  1.00  0.00     0.010 A 
ATOM     45  C   UNL A   1      40.035  29.184  30.711  1.00  0.00     0.010 A 
ATOM     46  C   UNL A   1      40.307  29.123  29.336  1.00  0.00    -0.014 A 
BRANCH  46  47
ATOM     47  C   UNL A   1      41.671  28.757  28.872  1.00  0.00     0.031 A 
ATOM     48  C   UNL A   1      42.748  29.801  28.764  1.00  0.00     0.074 A 
ATOM     49  C   UNL A   1      41.917  27.493  28.475  1.00  0.00     0.049 A 
ATOM     50  N   UNL A   1      43.977  29.677  28.333  1.00  0.00    -0.248 NA
ATOM     51  C   UNL A   1      42.392  31.170  29.169  1.00  0.00     0.031 C 
ATOM     52  C   UNL A   1      40.939  26.402  28.474  1.00  0.00     0.029 A 
ATOM     53  N   UNL A   1      43.060  26.911  27.986  1.00  0.00    -0.354 N 
ATOM     54  C   UNL A   1      44.538  30.947  28.406  1.00  0.00     0.074 A 
ATOM     55  C   UNL A   1      43.498  31.838  28.874  1.00  0.00     0.031 C 
ATOM     56  C   UNL A   1      41.529  25.282  28.025  1.00  0.00     0.029 A 
ATOM     57  C   UNL A   1      42.916  25.578  27.680  1.00  0.00     0.049 A 
ATOM     58  H   UNL A   1      43.905  27.402  27.866  1.00  0.00     0.167 HD
ATOM     59  C   UNL A   1      45.808  31.330  28.132  1.00  0.00     0.037 A 
ATOM     60  C   UNL A   1      43.798  24.694  27.177  1.00  0.00     0.037 A 
ATOM     61  C   UNL A   1      46.848  30.434  27.692  1.00  0.00     0.049 A 
ATOM     62  C   UNL A   1      45.205  25.141  26.889  1.00  0.00     0.074 A 
ATOM     63  C   UNL A   1      48.182  30.714  27.456  1.00  0.00     0.029 A 
ATOM     64  N   UNL A   1      46.668  29.086  27.418  1.00  0.00    -0.354 N 
ATOM     65  N   UNL A   1      45.738  26.331  27.037  1.00  0.00    -0.248 NA
ATOM     66  C   UNL A   1      46.134  24.126  26.374  1.00  0.00     0.031 C 
ATOM     67  C   UNL A   1      48.802  29.545  27.001  1.00  0.00     0.029 A 
ATOM     68  C   UNL A   1      47.863  28.526  26.996  1.00  0.00     0.049 A 
ATOM     69  H   UNL A   1      45.817  28.599  27.510  1.00  0.00     0.167 HD
ATOM     70  C   UNL A   1      47.070  26.200  26.661  1.00  0.00     0.074 A 
ATOM     71  C   UNL A   1      47.265  24.814  26.287  1.00  0.00     0.031 C 
ATOM     72  C   UNL A   1      48.044  27.143  26.630  1.00  0.00     0.037 A 
BRANCH  59  73
ATOM     73  C   UNL A   1      46.153  32.784  28.309  1.00  0.00     0.058 A 
ATOM     74  C   UNL A   1      46.690  33.270  29.512  1.00  0.00     0.135 A 
ATOM     75  C   UNL A   1      45.986  33.693  27.253  1.00  0.00     0.135 A 
ATOM     76  F   UNL A   1      46.858  32.447  30.559  1.00  0.00    -0.206 F 
ATOM     77  C   UNL A   1      47.020  34.612  29.671  1.00  0.00     0.059 A 
ATOM     78  C   UNL A   1      46.335  35.035  27.380  1.00  0.00     0.059 A 
ATOM     79  F   UNL A   1      45.478  33.282  26.080  1.00  0.00    -0.206 F 
ATOM     80  C   UNL A   1      46.839  35.487  28.599  1.00  0.00     0.060 A 
BRANCH  80  81
ATOM     81  S   UNL A   1      47.276  37.225  28.821  1.00  0.00     0.124 S 
ATOM     82  O   UNL A   1      48.633  37.117  29.348  1.00  0.00    -0.237 OA
ATOM     83  O   UNL A   1      47.164  37.751  27.464  1.00  0.00    -0.237 OA
ATOM     84  O   UNL A   1      46.272  37.710  29.763  1.00  0.00    -0.744 OA
ENDBRANCH  80  81
ENDBRANCH  59  73
BRANCH  60  85
ATOM     85  C   UNL A   1      43.384  23.285  26.942  1.00  0.00     0.058 A 
ATOM     86  C   UNL A   1      43.150  22.812  25.643  1.00  0.00     0.135 A 
ATOM     87  C   UNL A   1      43.232  22.383  28.005  1.00  0.00     0.135 A 
ATOM     88  F   UNL A   1      43.278  23.640  24.595  1.00  0.00    -0.206 F 
ATOM     89  C   UNL A   1      42.766  21.497  25.404  1.00  0.00     0.059 A 
ATOM     90  C   UNL A   1      42.871  21.056  27.791  1.00  0.00     0.059 A 
ATOM     91  F   UNL A   1      43.463  22.782  29.265  1.00  0.00    -0.206 F 
ATOM     92  C   UNL A   1      42.632  20.625  26.486  1.00  0.00     0.060 A 
BRANCH  92  93
ATOM     93  S   UNL A   1      42.185  18.906  26.164  1.00  0.00     0.124 S 
ATOM     94  O   UNL A   1      40.809  19.042  25.704  1.00  0.00    -0.237 OA
ATOM     95  O   UNL A   1      43.162  18.519  25.150  1.00  0.00    -0.237 OA
ATOM     96  O   UNL A   1      42.358  18.266  27.465  1.00  0.00    -0.744 OA
ENDBRANCH  92  93
ENDBRANCH  60  85
BRANCH  72  97
ATOM     97  C   UNL A   1      49.418  26.704  26.205  1.00  0.00     0.058 A 
ATOM     98  C   UNL A   1      49.859  26.841  24.881  1.00  0.00     0.135 A 
ATOM     99  C   UNL A   1      50.320  26.184  27.148  1.00  0.00     0.135 A 
ATOM    100  F   UNL A   1      49.033  27.325  23.940  1.00  0.00    -0.206 F 
ATOM    101  C   UNL A   1      51.141  26.457  24.500  1.00  0.00     0.059 A 
ATOM    102  C   UNL A   1      51.615  25.819  26.794  1.00  0.00     0.059 A 
ATOM    103  F   UNL A   1      49.951  26.041  28.431  1.00  0.00    -0.206 F 
ATOM    104  C   UNL A   1      52.013  25.947  25.464  1.00  0.00     0.060 A 
BRANCH 104 105
ATOM    105  S   UNL A   1      53.684  25.484  24.964  1.00  0.00     0.124 S 
ATOM    106  O   UNL A   1      53.718  25.957  23.584  1.00  0.00    -0.237 OA
ATOM    107  O   UNL A   1      54.511  26.229  25.909  1.00  0.00    -0.237 OA
ATOM    108  O   UNL A   1      53.700  24.034  25.133  1.00  0.00    -0.744 OA
ENDBRANCH 104 105
ENDBRANCH  72  97
ENDBRANCH  46  47
ENDBRANCH  38  41
ENDBRANCH  36  37
ENDBRANCH  35  36
ENDBRANCH  34  35
ENDBRANCH   1  34
TORSDOF 19
ENDMDL
MODEL 2
REMARK VINA RESULT:     -12.7      5.033      8.919
REMARK SMILES CC1=C(C)C[C@@H](C(=O)NCCCCCCNC(=O)c2ccc(-c3c4nc(c(-c5c(F)cc(S(=O)(=O)[O-])cc5F)c5ccc([nH]5)c(-c5c(F)cc(S(=O)(=O)[O-])cc5F)c5nc(c(-c6c(F)cc(S(=O)(=O)[O-])cc6F)c6ccc3[nH]6)C=C5)C=C4)cc2)[C@@H](C(=O)N2CCN(c3cccc(C(F)(F)F)c3)CC2)C1
REMARK SMILES IDX 12 1 11 2 10 3 9 4 7 5 8 6 6 8 1 9 2 10 3 11 104 12 4 13
REMARK SMILES IDX 5 14 85 15 86 16 87 17 88 18 89 19 103 20 90 21 102 22 91 23
REMARK SMILES IDX 92 24 93 25 101 26 94 27 96 28 95 29 97 30 98 31 99 32
REMARK SMILES IDX 100 33 13 34 14 35 15 36 16 37 17 38 18 40 19 41 20 42 84 43
REMARK SMILES IDX 21 44 83 45 22 46 23 47 24 48 77 49 25 50 82 51 76 52 78 53
REMARK SMILES IDX 26 54 81 55 75 56 74 57 27 59 61 60 40 61 60 62 41 63 44 64
REMARK SMILES IDX 59 65 79 66 42 67 43 68 58 70 80 71 45 72 28 73 29 74 38 75
REMARK SMILES IDX 30 76 31 77 37 78 39 79 32 80 33 81 34 82 35 83 36 84 62 85
REMARK SMILES IDX 63 86 72 87 64 88 65 89 71 90 73 91 66 92 67 93 68 94 69 95
REMARK SMILES IDX 70 96 46 97 47 98 56 99 48 100 49 101 55 102 57 103 50 104
REMARK SMILES IDX 51 105 52 106 53 107 54 108
REMARK H PARENT 9 7 16 39 78 58 44 69
REMARK Flexibility Score: inf
ROOT
ATOM      1  C   UNL A   1      37.510  33.314  30.161  1.00  0.00     0.002 C 
ENDROOT
BRANCH   1   2
ATOM      2  C   UNL A   1      38.660  34.180  30.678  1.00  0.00     0.021 C 
BRANCH   2   3
ATOM      3  C   UNL A   1      38.485  34.642  32.116  1.00  0.00     0.116 C 
BRANCH   3   4
ATOM      4  N   UNL A   1      39.591  34.239  32.958  1.00  0.00    -0.356 N 
ATOM      5  C   UNL A   1      39.726  34.141  34.305  1.00  0.00     0.224 C 
ATOM      6  O   UNL A   1      40.738  33.554  34.708  1.00  0.00    -0.275 OA
ATOM      7  H   UNL A   1      40.401  33.987  32.458  1.00  0.00     0.163 HD
BRANCH   5   8
ATOM      8  C   UNL A   1      38.677  34.629  35.321  1.00  0.00     0.095 C 
ATOM      9  C   UNL A   1      38.613  33.210  39.543  1.00  0.00     0.039 C 
ATOM     10  C   UNL A   1      38.620  33.843  38.171  1.00  0.00    -0.074 C 
ATOM     11  C   UNL A   1      39.422  34.856  37.801  1.00  0.00    -0.074 C 
ATOM     12  C   UNL A   1      37.653  33.194  37.226  1.00  0.00     0.045 C 
ATOM     13  C   UNL A   1      40.515  35.430  38.668  1.00  0.00     0.039 C 
ATOM     14  C   UNL A   1      39.346  35.465  36.423  1.00  0.00     0.045 C 
ATOM     15  C   UNL A   1      37.533  33.676  35.771  1.00  0.00     0.095 C 
BRANCH  15  16
ATOM     16  C   UNL A   1      37.292  32.520  34.771  1.00  0.00     0.226 C 
ATOM     17  O   UNL A   1      36.386  32.578  33.938  1.00  0.00    -0.275 OA
ATOM     18  N   UNL A   1      38.112  31.409  34.789  1.00  0.00    -0.339 N 
ATOM     19  C   UNL A   1      38.358  30.714  33.519  1.00  0.00     0.141 C 
ATOM     20  C   UNL A   1      38.638  30.701  35.969  1.00  0.00     0.141 C 
ATOM     21  C   UNL A   1      39.865  30.471  33.338  1.00  0.00     0.138 C 
ATOM     22  C   UNL A   1      40.141  30.341  35.824  1.00  0.00     0.138 C 
ATOM     23  N   UNL A   1      40.378  29.751  34.505  1.00  0.00    -0.368 N 
BRANCH  23  24
ATOM     24  C   UNL A   1      41.417  28.876  34.290  1.00  0.00     0.037 A 
ATOM     25  C   UNL A   1      42.421  29.091  33.345  1.00  0.00     0.026 A 
ATOM     26  C   UNL A   1      41.399  27.665  34.987  1.00  0.00     0.039 A 
ATOM     27  C   UNL A   1      43.378  28.103  33.093  1.00  0.00     0.003 A 
ATOM     28  C   UNL A   1      42.339  26.659  34.739  1.00  0.00     0.058 A 
ATOM     29  C   UNL A   1      43.331  26.887  33.778  1.00  0.00     0.013 A 
BRANCH  28  30
ATOM     30  C   UNL A   1      42.253  25.347  35.472  1.00  0.00     0.416 C 
ATOM     31  F   UNL A   1      43.210  25.224  36.433  1.00  0.00    -0.166 F 
ATOM     32  F   UNL A   1      41.059  25.167  36.096  1.00  0.00    -0.166 F 
ATOM     33  F   UNL A   1      42.412  24.262  34.658  1.00  0.00    -0.166 F 
ENDBRANCH  28  30
ENDBRANCH  23  24
ENDBRANCH  15  16
ENDBRANCH   5   8
ENDBRANCH   3   4
ENDBRANCH   2   3
ENDBRANCH   1   2
BRANCH   1  34
ATOM     34  C   UNL A   1      37.101  33.606  28.713  1.00  0.00     0.002 C 
BRANCH  34  35
ATOM     35  C   UNL A   1      35.602  33.477  28.413  1.00  0.00     0.021 C 
BRANCH  35  36
ATOM     36  C   UNL A   1      34.814  32.613  29.394  1.00  0.00     0.116 C 
BRANCH  36  37
ATOM     37  N   UNL A   1      34.055  31.570  28.717  1.00  0.00    -0.352 N 
ATOM     38  C   UNL A   1      34.501  30.418  28.123  1.00  0.00     0.251 C 
ATOM     39  H   UNL A   1      33.081  31.714  28.682  1.00  0.00     0.163 HD
ATOM     40  O   UNL A   1      33.740  29.765  27.402  1.00  0.00    -0.269 OA
BRANCH  38  41
ATOM     41  C   UNL A   1      35.891  29.960  28.331  1.00  0.00     0.039 A 
ATOM     42  C   UNL A   1      36.810  30.058  27.283  1.00  0.00     0.014 A 
ATOM     43  C   UNL A   1      36.285  29.424  29.559  1.00  0.00     0.014 A 
ATOM     44  C   UNL A   1      38.141  29.680  27.491  1.00  0.00     0.010 A 
ATOM     45  C   UNL A   1      37.623  29.109  29.784  1.00  0.00     0.010 A 
ATOM     46  C   UNL A   1      38.566  29.234  28.753  1.00  0.00    -0.014 A 
BRANCH  46  47
ATOM     47  C   UNL A   1      39.993  28.917  29.019  1.00  0.00     0.031 A 
ATOM     48  C   UNL A   1      40.914  29.960  29.593  1.00  0.00     0.074 A 
ATOM     49  C   UNL A   1      40.478  27.708  28.673  1.00  0.00     0.049 A 
ATOM     50  N   UNL A   1      42.196  29.881  29.843  1.00  0.00    -0.248 NA
ATOM     51  C   UNL A   1      40.324  31.272  29.901  1.00  0.00     0.031 C 
ATOM     52  C   UNL A   1      39.701  26.633  28.052  1.00  0.00     0.029 A 
ATOM     53  N   UNL A   1      41.741  27.183  28.781  1.00  0.00    -0.354 N 
ATOM     54  C   UNL A   1      42.568  31.128  30.329  1.00  0.00     0.074 A 
ATOM     55  C   UNL A   1      41.386  31.963  30.289  1.00  0.00     0.031 C 
ATOM     56  C   UNL A   1      40.499  25.571  27.854  1.00  0.00     0.029 A 
ATOM     57  C   UNL A   1      41.849  25.898  28.304  1.00  0.00     0.049 A 
ATOM     58  H   UNL A   1      42.500  27.679  29.165  1.00  0.00     0.167 HD
ATOM     59  C   UNL A   1      43.776  31.534  30.789  1.00  0.00     0.037 A 
ATOM     60  C   UNL A   1      42.913  25.075  28.234  1.00  0.00     0.037 A 
ATOM     61  C   UNL A   1      44.943  30.691  30.853  1.00  0.00     0.049 A 
ATOM     62  C   UNL A   1      44.242  25.544  28.759  1.00  0.00     0.074 A 
ATOM     63  C   UNL A   1      46.193  30.988  31.367  1.00  0.00     0.029 A 
ATOM     64  N   UNL A   1      45.005  29.387  30.383  1.00  0.00    -0.354 N 
ATOM     65  N   UNL A   1      44.557  26.704  29.286  1.00  0.00    -0.248 NA
ATOM     66  C   UNL A   1      45.360  24.592  28.690  1.00  0.00     0.031 C 
ATOM     67  C   UNL A   1      47.023  29.878  31.172  1.00  0.00     0.029 A 
ATOM     68  C   UNL A   1      46.277  28.874  30.577  1.00  0.00     0.049 A 
ATOM     69  H   UNL A   1      44.255  28.897  29.972  1.00  0.00     0.167 HD
ATOM     70  C   UNL A   1      45.899  26.611  29.636  1.00  0.00     0.074 A 
ATOM     71  C   UNL A   1      46.335  25.278  29.269  1.00  0.00     0.031 C 
ATOM     72  C   UNL A   1      46.697  27.544  30.211  1.00  0.00     0.037 A 
BRANCH  59  73
ATOM     73  C   UNL A   1      43.899  32.953  31.272  1.00  0.00     0.058 A 
ATOM     74  C   UNL A   1      44.191  34.007  30.390  1.00  0.00     0.135 A 
ATOM     75  C   UNL A   1      43.682  33.271  32.622  1.00  0.00     0.135 A 
ATOM     76  F   UNL A   1      44.421  33.758  29.092  1.00  0.00    -0.206 F 
ATOM     77  C   UNL A   1      44.292  35.321  30.836  1.00  0.00     0.059 A 
ATOM     78  C   UNL A   1      43.751  34.583  33.085  1.00  0.00     0.059 A 
ATOM     79  F   UNL A   1      43.398  32.303  33.507  1.00  0.00    -0.206 F 
ATOM     80  C   UNL A   1      44.071  35.599  32.186  1.00  0.00     0.060 A 
BRANCH  80  81
ATOM     81  S   UNL A   1      44.204  37.310  32.747  1.00  0.00     0.124 S 
ATOM     82  O   UNL A   1      45.505  37.298  33.408  1.00  0.00    -0.237 OA
ATOM     83  O   UNL A   1      44.137  38.056  31.493  1.00  0.00    -0.237 OA
ATOM     84  O   UNL A   1      43.052  37.468  33.628  1.00  0.00    -0.744 OA
ENDBRANCH  80  81
ENDBRANCH  59  73
BRANCH  60  85
ATOM     85  C   UNL A   1      42.757  23.707  27.671  1.00  0.00     0.058 A 
ATOM     86  C   UNL A   1      42.748  23.498  26.284  1.00  0.00     0.135 A 
ATOM     87  C   UNL A   1      42.633  22.585  28.503  1.00  0.00     0.135 A 
ATOM     88  F   UNL A   1      42.858  24.542  25.448  1.00  0.00    -0.206 F 
ATOM     89  C   UNL A   1      42.607  22.227  25.740  1.00  0.00     0.059 A 
ATOM     90  C   UNL A   1      42.514  21.300  27.983  1.00  0.00     0.059 A 
ATOM     91  F   UNL A   1      42.655  22.731  29.837  1.00  0.00    -0.206 F 
ATOM     92  C   UNL A   1      42.493  21.132  26.599  1.00  0.00     0.060 A 
BRANCH  92  93
ATOM     93  S   UNL A   1      42.364  19.479  25.885  1.00  0.00     0.124 S 
ATOM     94  O   UNL A   1      40.982  19.467  25.421  1.00  0.00    -0.237 OA
ATOM     95  O   UNL A   1      43.387  19.513  24.844  1.00  0.00    -0.237 OA
ATOM     96  O   UNL A   1      42.661  18.603  27.015  1.00  0.00    -0.744 OA
ENDBRANCH  92  93
ENDBRANCH  60  85
BRANCH  72  97
ATOM     97  C   UNL A   1      48.118  27.150  30.508  1.00  0.00     0.058 A 
ATOM     98  C   UNL A   1      49.156  27.390  29.595  1.00  0.00     0.135 A 
ATOM     99  C   UNL A   1      48.450  26.569  31.743  1.00  0.00     0.135 A 
ATOM    100  F   UNL A   1      48.890  27.937  28.398  1.00  0.00    -0.206 F 
ATOM    101  C   UNL A   1      50.472  27.048  29.887  1.00  0.00     0.059 A 
ATOM    102  C   UNL A   1      49.763  26.244  32.066  1.00  0.00     0.059 A 
ATOM    103  F   UNL A   1      47.496  26.327  32.655  1.00  0.00    -0.206 F 
ATOM    104  C   UNL A   1      50.767  26.475  31.125  1.00  0.00     0.060 A 
BRANCH 104 105
ATOM    105  S   UNL A   1      52.483  26.066  31.505  1.00  0.00     0.124 S 
ATOM    106  O   UNL A   1      52.835  27.126  32.445  1.00  0.00    -0.237 OA
ATOM    107  O   UNL A   1      52.367  24.727  32.076  1.00  0.00    -0.237 OA
ATOM    108  O   UNL A   1      53.144  26.132  30.206  1.00  0.00    -0.744 OA
ENDBRANCH 104 105
ENDBRANCH  72  97
ENDBRANCH  46  47
ENDBRANCH  38  41
ENDBRANCH  36  37
ENDBRANCH  35  36
ENDBRANCH  34  35
ENDBRANCH   1  34
TORSDOF 19
ENDMDL
MODEL 3
REMARK VINA RESULT:     -12.6      4.946     11.642
REMARK SMILES CC1=C(C)C[C@@H](C(=O)NCCCCCCNC(=O)c2ccc(-c3c4nc(c(-c5c(F)cc(S(=O)(=O)[O-])cc5F)c5ccc([nH]5)c(-c5c(F)cc(S(=O)(=O)[O-])cc5F)c5nc(c(-c6c(F)cc(S(=O)(=O)[O-])cc6F)c6ccc3[nH]6)C=C5)C=C4)cc2)[C@@H](C(=O)N2CCN(c3cccc(C(F)(F)F)c3)CC2)C1
REMARK SMILES IDX 12 1 11 2 10 3 9 4 7 5 8 6 6 8 1 9 2 10 3 11 104 12 4 13
REMARK SMILES IDX 5 14 85 15 86 16 87 17 88 18 89 19 103 20 90 21 102 22 91 23
REMARK SMILES IDX 92 24 93 25 101 26 94 27 96 28 95 29 97 30 98 31 99 32
REMARK SMILES IDX 100 33 13 34 14 35 15 36 16 37 17 38 18 40 19 41 20 42 84 43
REMARK SMILES IDX 21 44 83 45 22 46 23 47 24 48 77 49 25 50 82 51 76 52 78 53
REMARK SMILES IDX 26 54 81 55 75 56 74 57 27 59 61 60 40 61 60 62 41 63 44 64
REMARK SMILES IDX 59 65 79 66 42 67 43 68 58 70 80 71 45 72 28 73 29 74 38 75
REMARK SMILES IDX 30 76 31 77 37 78 39 79 32 80 33 81 34 82 35 83 36 84 62 85
REMARK SMILES IDX 63 86 72 87 64 88 65 89 71 90 73 91 66 92 67 93 68 94 69 95
REMARK SMILES IDX 70 96 46 97 47 98 56 99 48 100 49 101 55 102 57 103 50 104
REMARK SMILES IDX 51 105 52 106 53 107 54 108
REMARK H PARENT 9 7 16 39 78 58 44 69
REMARK Flexibility Score: inf
ROOT
ATOM      1  C   UNL A   1      37.589  33.256  29.865  1.00  0.00     0.002 C 
ENDROOT
BRANCH   1   2
ATOM      2  C   UNL A   1      38.557  34.298  30.428  1.00  0.00     0.021 C 
BRANCH   2   3
ATOM      3  C   UNL A   1      38.361  34.583  31.909  1.00  0.00     0.116 C 
BRANCH   3   4
ATOM      4  N   UNL A   1      39.493  34.153  32.702  1.00  0.00    -0.356 N 
ATOM      5  C   UNL A   1      39.690  34.067  34.042  1.00  0.00     0.224 C 
ATOM      6  O   UNL A   1      40.701  33.452  34.404  1.00  0.00    -0.275 OA
ATOM      7  H   UNL A   1      40.269  33.869  32.167  1.00  0.00     0.163 HD
BRANCH   5   8
ATOM      8  C   UNL A   1      38.708  34.602  35.101  1.00  0.00     0.095 C 
ATOM      9  C   UNL A   1      38.938  33.397  39.383  1.00  0.00     0.039 C 
ATOM     10  C   UNL A   1      38.848  33.960  37.984  1.00  0.00    -0.074 C 
ATOM     11  C   UNL A   1      39.616  34.957  37.511  1.00  0.00    -0.074 C 
ATOM     12  C   UNL A   1      37.825  33.260  37.140  1.00  0.00     0.045 C 
ATOM     13  C   UNL A   1      40.761  35.578  38.272  1.00  0.00     0.039 C 
ATOM     14  C   UNL A   1      39.444  35.494  36.112  1.00  0.00     0.045 C 
ATOM     15  C   UNL A   1      37.604  33.668  35.674  1.00  0.00     0.095 C 
BRANCH  15  16
ATOM     16  C   UNL A   1      37.305  32.462  34.752  1.00  0.00     0.226 C 
ATOM     17  O   UNL A   1      36.350  32.478  33.973  1.00  0.00    -0.275 OA
ATOM     18  N   UNL A   1      38.127  31.352  34.777  1.00  0.00    -0.339 N 
ATOM     19  C   UNL A   1      38.296  30.593  33.531  1.00  0.00     0.141 C 
ATOM     20  C   UNL A   1      38.725  30.706  35.957  1.00  0.00     0.141 C 
ATOM     21  C   UNL A   1      39.790  30.339  33.272  1.00  0.00     0.138 C 
ATOM     22  C   UNL A   1      40.218  30.338  35.739  1.00  0.00     0.138 C 
ATOM     23  N   UNL A   1      40.375  29.680  34.440  1.00  0.00    -0.368 N 
BRANCH  23  24
ATOM     24  C   UNL A   1      41.401  28.794  34.208  1.00  0.00     0.037 A 
ATOM     25  C   UNL A   1      42.377  28.988  33.230  1.00  0.00     0.026 A 
ATOM     26  C   UNL A   1      41.396  27.594  34.924  1.00  0.00     0.039 A 
ATOM     27  C   UNL A   1      43.319  27.989  32.964  1.00  0.00     0.003 A 
ATOM     28  C   UNL A   1      42.321  26.577  34.663  1.00  0.00     0.058 A 
ATOM     29  C   UNL A   1      43.285  26.784  33.669  1.00  0.00     0.013 A 
BRANCH  28  30
ATOM     30  C   UNL A   1      42.248  25.278  35.418  1.00  0.00     0.416 C 
ATOM     31  F   UNL A   1      42.671  24.218  34.674  1.00  0.00    -0.166 F 
ATOM     32  F   UNL A   1      43.005  25.279  36.547  1.00  0.00    -0.166 F 
ATOM     33  F   UNL A   1      40.984  24.957  35.823  1.00  0.00    -0.166 F 
ENDBRANCH  28  30
ENDBRANCH  23  24
ENDBRANCH  15  16
ENDBRANCH   5   8
ENDBRANCH   3   4
ENDBRANCH   2   3
ENDBRANCH   1   2
BRANCH   1  34
ATOM     34  C   UNL A   1      37.056  33.580  28.465  1.00  0.00     0.002 C 
BRANCH  34  35
ATOM     35  C   UNL A   1      35.550  33.371  28.268  1.00  0.00     0.021 C 
BRANCH  35  36
ATOM     36  C   UNL A   1      34.870  32.501  29.323  1.00  0.00     0.116 C 
BRANCH  36  37
ATOM     37  N   UNL A   1      34.122  31.403  28.727  1.00  0.00    -0.352 N 
ATOM     38  C   UNL A   1      34.585  30.243  28.160  1.00  0.00     0.251 C 
ATOM     39  H   UNL A   1      33.142  31.508  28.734  1.00  0.00     0.163 HD
ATOM     40  O   UNL A   1      33.817  29.532  27.504  1.00  0.00    -0.269 OA
BRANCH  38  41
ATOM     41  C   UNL A   1      36.000  29.847  28.319  1.00  0.00     0.039 A 
ATOM     42  C   UNL A   1      36.877  29.986  27.240  1.00  0.00     0.014 A 
ATOM     43  C   UNL A   1      36.460  29.329  29.532  1.00  0.00     0.014 A 
ATOM     44  C   UNL A   1      38.229  29.667  27.401  1.00  0.00     0.010 A 
ATOM     45  C   UNL A   1      37.818  29.073  29.710  1.00  0.00     0.010 A 
ATOM     46  C   UNL A   1      38.717  29.240  28.647  1.00  0.00    -0.014 A 
BRANCH  46  47
ATOM     47  C   UNL A   1      40.166  28.986  28.863  1.00  0.00     0.031 A 
ATOM     48  C   UNL A   1      40.767  27.649  28.525  1.00  0.00     0.074 A 
ATOM     49  C   UNL A   1      40.926  29.941  29.434  1.00  0.00     0.049 A 
ATOM     50  N   UNL A   1      41.995  27.231  28.692  1.00  0.00    -0.248 NA
ATOM     51  C   UNL A   1      39.865  26.640  27.950  1.00  0.00     0.031 C 
ATOM     52  C   UNL A   1      40.448  31.258  29.863  1.00  0.00     0.029 A 
ATOM     53  N   UNL A   1      42.258  29.950  29.764  1.00  0.00    -0.354 N 
ATOM     54  C   UNL A   1      42.013  25.913  28.252  1.00  0.00     0.074 A 
ATOM     55  C   UNL A   1      40.660  25.583  27.859  1.00  0.00     0.031 C 
ATOM     56  C   UNL A   1      41.474  31.952  30.381  1.00  0.00     0.029 A 
ATOM     57  C   UNL A   1      42.676  31.123  30.348  1.00  0.00     0.049 A 
ATOM     58  H   UNL A   1      42.859  29.189  29.598  1.00  0.00     0.167 HD
ATOM     59  C   UNL A   1      43.065  25.064  28.160  1.00  0.00     0.037 A 
ATOM     60  C   UNL A   1      43.887  31.491  30.808  1.00  0.00     0.037 A 
ATOM     61  C   UNL A   1      44.416  25.406  28.527  1.00  0.00     0.049 A 
ATOM     62  C   UNL A   1      45.041  30.534  30.687  1.00  0.00     0.074 A 
ATOM     63  C   UNL A   1      45.562  24.638  28.404  1.00  0.00     0.029 A 
ATOM     64  N   UNL A   1      44.803  26.612  29.091  1.00  0.00    -0.354 N 
ATOM     65  N   UNL A   1      45.055  29.317  30.196  1.00  0.00    -0.248 NA
ATOM     66  C   UNL A   1      46.347  31.001  31.173  1.00  0.00     0.031 C 
ATOM     67  C   UNL A   1      46.635  25.365  28.932  1.00  0.00     0.029 A 
ATOM     68  C   UNL A   1      46.166  26.603  29.341  1.00  0.00     0.049 A 
ATOM     69  H   UNL A   1      44.199  27.366  29.285  1.00  0.00     0.167 HD
ATOM     70  C   UNL A   1      46.373  28.885  30.289  1.00  0.00     0.074 A 
ATOM     71  C   UNL A   1      47.130  29.973  30.874  1.00  0.00     0.031 C 
ATOM     72  C   UNL A   1      46.908  27.694  29.920  1.00  0.00     0.037 A 
BRANCH  59  73
ATOM     73  C   UNL A   1      42.802  23.680  27.632  1.00  0.00     0.058 A 
ATOM     74  C   UNL A   1      42.832  23.401  26.255  1.00  0.00     0.135 A 
ATOM     75  C   UNL A   1      42.559  22.612  28.510  1.00  0.00     0.135 A 
ATOM     76  F   UNL A   1      43.046  24.387  25.370  1.00  0.00    -0.206 F 
ATOM     77  C   UNL A   1      42.601  22.119  25.768  1.00  0.00     0.059 A 
ATOM     78  C   UNL A   1      42.353  21.316  28.047  1.00  0.00     0.059 A 
ATOM     79  F   UNL A   1      42.521  22.823  29.835  1.00  0.00    -0.206 F 
ATOM     80  C   UNL A   1      42.361  21.082  26.672  1.00  0.00     0.060 A 
BRANCH  80  81
ATOM     81  S   UNL A   1      42.067  19.423  26.023  1.00  0.00     0.124 S 
ATOM     82  O   UNL A   1      42.498  18.594  27.144  1.00  0.00    -0.237 OA
ATOM     83  O   UNL A   1      40.630  19.440  25.764  1.00  0.00    -0.237 OA
ATOM     84  O   UNL A   1      42.914  19.367  24.837  1.00  0.00    -0.744 OA
ENDBRANCH  80  81
ENDBRANCH  59  73
BRANCH  60  85
ATOM     85  C   UNL A   1      44.077  32.843  31.398  1.00  0.00     0.058 A 
ATOM     86  C   UNL A   1      43.889  33.061  32.770  1.00  0.00     0.135 A 
ATOM     87  C   UNL A   1      44.468  33.935  30.608  1.00  0.00     0.135 A 
ATOM     88  F   UNL A   1      43.510  32.047  33.564  1.00  0.00    -0.206 F 
ATOM     89  C   UNL A   1      44.066  34.317  33.339  1.00  0.00     0.059 A 
ATOM     90  C   UNL A   1      44.674  35.196  31.158  1.00  0.00     0.059 A 
ATOM     91  F   UNL A   1      44.680  33.773  29.293  1.00  0.00    -0.206 F 
ATOM     92  C   UNL A   1      44.462  35.379  32.525  1.00  0.00     0.060 A 
BRANCH  92  93
ATOM     93  S   UNL A   1      44.742  36.995  33.280  1.00  0.00     0.124 S 
ATOM     94  O   UNL A   1      44.160  37.888  32.286  1.00  0.00    -0.237 OA
ATOM     95  O   UNL A   1      44.009  36.876  34.538  1.00  0.00    -0.237 OA
ATOM     96  O   UNL A   1      46.194  37.054  33.413  1.00  0.00    -0.744 OA
ENDBRANCH  92  93
ENDBRANCH  60  85
BRANCH  72  97
ATOM     97  C   UNL A   1      48.389  27.514  30.110  1.00  0.00     0.058 A 
ATOM     98  C   UNL A   1      48.917  26.927  31.270  1.00  0.00     0.135 A 
ATOM     99  C   UNL A   1      49.286  27.889  29.096  1.00  0.00     0.135 A 
ATOM    100  F   UNL A   1      48.103  26.558  32.272  1.00  0.00    -0.206 F 
ATOM    101  C   UNL A   1      50.286  26.738  31.428  1.00  0.00     0.059 A 
ATOM    102  C   UNL A   1      50.656  27.685  29.223  1.00  0.00     0.059 A 
ATOM    103  F   UNL A   1      48.831  28.446  27.963  1.00  0.00    -0.206 F 
ATOM    104  C   UNL A   1      51.149  27.121  30.399  1.00  0.00     0.060 A 
BRANCH 104 105
ATOM    105  S   UNL A   1      52.920  26.840  30.602  1.00  0.00     0.124 S 
ATOM    106  O   UNL A   1      52.936  25.807  31.632  1.00  0.00    -0.237 OA
ATOM    107  O   UNL A   1      53.324  26.408  29.266  1.00  0.00    -0.237 OA
ATOM    108  O   UNL A   1      53.426  28.146  31.012  1.00  0.00    -0.744 OA
ENDBRANCH 104 105
ENDBRANCH  72  97
ENDBRANCH  46  47
ENDBRANCH  38  41
ENDBRANCH  36  37
ENDBRANCH  35  36
ENDBRANCH  34  35
ENDBRANCH   1  34
TORSDOF 19
ENDMDL
