MODEL 1
REMARK VINA RESULT:     -10.0      0.000      0.000
REMARK SMILES COc1ccc2[nH]c(/C(C#N)=C/c3ccc(-c4cc(C(=O)NCCCCCCNC(=O)c5ccc(-c6c7nc(c(-c8c(F)cc(S(=O)(=O)[O-])cc8F)c8ccc([nH]8)c(-c8c(F)cc(S(=O)(=O)[O-])cc8F)c8nc(c(-c9c(F)cc(S(=O)(=O)[O-])cc9F)c9ccc6[nH]9)C=C8)C=C7)cc5)ccc4Cl)o3)nc2c1
REMARK SMILES IDX 25 1 24 2 23 3 22 4 20 5 21 6 19 8 17 9 18 10 100 11 99 12
REMARK SMILES IDX 101 13 98 14 16 15 13 16 14 17 102 18 15 19 12 20 9 21 8 22
REMARK SMILES IDX 3 23 4 24 105 25 5 26 104 27 6 28 103 29 7 30 2 32 1 33
REMARK SMILES IDX 10 34 11 35 26 36 27 37 28 38 29 39 30 40 31 42 32 43 33 44
REMARK SMILES IDX 97 45 34 46 96 47 35 48 36 49 37 50 90 51 38 52 95 53 89 54
REMARK SMILES IDX 91 55 39 56 94 57 88 58 87 59 40 61 74 62 53 63 73 64 54 65
REMARK SMILES IDX 57 66 72 67 92 68 55 69 56 70 71 72 93 73 58 74 41 75 42 76
REMARK SMILES IDX 51 77 43 78 44 79 50 80 52 81 45 82 46 83 47 84 48 85 49 86
REMARK SMILES IDX 75 87 76 88 85 89 77 90 78 91 84 92 86 93 79 94 80 95 81 96
REMARK SMILES IDX 82 97 83 98 59 99 60 100 69 101 61 102 62 103 68 104 70 105
REMARK SMILES IDX 63 106 64 107 65 108 66 109 67 110
REMARK H PARENT 22 7 7 31 29 41 91 60 57 71
REMARK Flexibility Score: inf
ROOT
ATOM      1  C   UNL A   1      50.006  28.167  32.207  1.00  0.00     0.002 C 
ENDROOT
BRANCH   1   2
ATOM      2  C   UNL A   1      50.796  27.978  30.904  1.00  0.00     0.021 C 
BRANCH   2   3
ATOM      3  C   UNL A   1      49.973  27.301  29.804  1.00  0.00     0.116 C 
BRANCH   3   4
ATOM      4  N   UNL A   1      48.828  28.119  29.461  1.00  0.00    -0.352 N 
ATOM      5  C   UNL A   1      47.699  27.935  28.710  1.00  0.00     0.251 C 
ATOM      6  O   UNL A   1      46.934  28.901  28.640  1.00  0.00    -0.269 OA
ATOM      7  H   UNL A   1      48.872  29.016  29.863  1.00  0.00     0.163 HD
BRANCH   5   8
ATOM      8  C   UNL A   1      47.314  26.669  28.014  1.00  0.00     0.040 A 
ATOM      9  C   UNL A   1      45.686  24.825  27.912  1.00  0.00     0.037 A 
ATOM     10  C   UNL A   1      46.121  26.050  28.447  1.00  0.00     0.027 A 
ATOM     11  C   UNL A   1      46.457  24.216  26.911  1.00  0.00     0.052 A 
ATOM     12  C   UNL A   1      47.622  24.826  26.456  1.00  0.00     0.022 A 
ATOM     13  Cl  UNL A   1      46.010  22.716  26.170  1.00  0.00    -0.084 Cl
ATOM     14  C   UNL A   1      48.031  26.054  26.985  1.00  0.00     0.015 A 
BRANCH   9  15
ATOM     15  C   UNL A   1      44.529  24.154  28.477  1.00  0.00     0.136 A 
ATOM     16  C   UNL A   1      42.413  23.470  28.485  1.00  0.00     0.129 A 
ATOM     17  C   UNL A   1      43.072  22.875  29.559  1.00  0.00     0.051 A 
ATOM     18  O   UNL A   1      43.343  24.241  27.809  1.00  0.00    -0.457 OA
ATOM     19  C   UNL A   1      44.393  23.352  29.585  1.00  0.00     0.051 A 
BRANCH  16  20
ATOM     20  C   UNL A   1      41.058  23.312  28.058  1.00  0.00     0.070 C 
ATOM     21  C   UNL A   1      40.719  22.696  26.904  1.00  0.00     0.098 C 
BRANCH  21  22
ATOM     22  C   UNL A   1      39.382  22.648  26.400  1.00  0.00     0.149 A 
ATOM     23  C   UNL A   1      35.061  23.016  25.139  1.00  0.00     0.121 A 
ATOM     24  C   UNL A   1      35.241  21.673  24.790  1.00  0.00     0.049 A 
ATOM     25  C   UNL A   1      36.114  23.767  25.665  1.00  0.00     0.077 A 
ATOM     26  C   UNL A   1      36.468  21.024  24.996  1.00  0.00     0.032 A 
ATOM     27  C   UNL A   1      37.342  23.129  25.877  1.00  0.00     0.093 A 
ATOM     28  C   UNL A   1      37.496  21.791  25.549  1.00  0.00     0.066 A 
ATOM     29  N   UNL A   1      38.503  23.635  26.390  1.00  0.00    -0.228 NA
ATOM     30  N   UNL A   1      38.800  21.506  25.887  1.00  0.00    -0.337 N 
ATOM     31  H   UNL A   1      39.243  20.634  25.781  1.00  0.00     0.168 HD
BRANCH  23  32
ATOM     32  O   UNL A   1      33.889  23.688  24.916  1.00  0.00    -0.497 OA
ATOM     33  C   UNL A   1      33.795  24.891  25.676  1.00  0.00     0.278 C 
ENDBRANCH  23  32
ENDBRANCH  21  22
BRANCH  21  34
ATOM     34  C   UNL A   1      41.710  22.039  26.088  1.00  0.00     0.103 C 
ATOM     35  N   UNL A   1      42.486  21.477  25.437  1.00  0.00    -0.192 NA
ENDBRANCH  21  34
ENDBRANCH  16  20
ENDBRANCH   9  15
ENDBRANCH   5   8
ENDBRANCH   3   4
ENDBRANCH   2   3
ENDBRANCH   1   2
BRANCH   1  36
ATOM     36  C   UNL A   1      50.012  26.948  33.141  1.00  0.00     0.002 C 
BRANCH  36  37
ATOM     37  C   UNL A   1      49.944  27.289  34.631  1.00  0.00     0.021 C 
BRANCH  37  38
ATOM     38  C   UNL A   1      48.876  26.511  35.388  1.00  0.00     0.116 C 
BRANCH  38  39
ATOM     39  N   UNL A   1      48.931  26.791  36.815  1.00  0.00    -0.352 N 
ATOM     40  C   UNL A   1      48.213  27.701  37.547  1.00  0.00     0.251 C 
ATOM     41  H   UNL A   1      49.576  26.252  37.327  1.00  0.00     0.163 HD
ATOM     42  O   UNL A   1      48.577  28.004  38.678  1.00  0.00    -0.269 OA
BRANCH  40  43
ATOM     43  C   UNL A   1      47.004  28.315  36.958  1.00  0.00     0.039 A 
ATOM     44  C   UNL A   1      47.111  29.553  36.324  1.00  0.00     0.014 A 
ATOM     45  C   UNL A   1      45.768  27.666  37.040  1.00  0.00     0.014 A 
ATOM     46  C   UNL A   1      45.983  30.116  35.725  1.00  0.00     0.010 A 
ATOM     47  C   UNL A   1      44.668  28.188  36.368  1.00  0.00     0.010 A 
ATOM     48  C   UNL A   1      44.761  29.422  35.711  1.00  0.00    -0.014 A 
BRANCH  48  49
ATOM     49  C   UNL A   1      43.572  29.976  35.016  1.00  0.00     0.031 A 
ATOM     50  C   UNL A   1      42.585  30.828  35.769  1.00  0.00     0.074 A 
ATOM     51  C   UNL A   1      43.357  29.668  33.721  1.00  0.00     0.049 A 
ATOM     52  N   UNL A   1      41.463  31.355  35.349  1.00  0.00    -0.248 NA
ATOM     53  C   UNL A   1      42.883  31.106  37.184  1.00  0.00     0.031 C 
ATOM     54  C   UNL A   1      44.221  28.816  32.900  1.00  0.00     0.029 A 
ATOM     55  N   UNL A   1      42.344  30.028  32.868  1.00  0.00    -0.354 N 
ATOM     56  C   UNL A   1      40.920  32.015  36.445  1.00  0.00     0.074 A 
ATOM     57  C   UNL A   1      41.804  31.777  37.564  1.00  0.00     0.031 C 
ATOM     58  C   UNL A   1      43.718  28.742  31.658  1.00  0.00     0.029 A 
ATOM     59  C   UNL A   1      42.470  29.497  31.605  1.00  0.00     0.049 A 
ATOM     60  H   UNL A   1      41.597  30.611  33.135  1.00  0.00     0.167 HD
ATOM     61  C   UNL A   1      39.798  32.769  36.506  1.00  0.00     0.037 A 
ATOM     62  C   UNL A   1      41.662  29.593  30.531  1.00  0.00     0.037 A 
ATOM     63  C   UNL A   1      38.935  33.016  35.379  1.00  0.00     0.049 A 
ATOM     64  C   UNL A   1      40.406  30.418  30.634  1.00  0.00     0.074 A 
ATOM     65  C   UNL A   1      37.805  33.813  35.324  1.00  0.00     0.029 A 
ATOM     66  N   UNL A   1      39.098  32.466  34.116  1.00  0.00    -0.354 N 
ATOM     67  N   UNL A   1      39.946  31.094  31.661  1.00  0.00    -0.248 NA
ATOM     68  C   UNL A   1      39.562  30.499  29.436  1.00  0.00     0.031 C 
ATOM     69  C   UNL A   1      37.246  33.690  34.049  1.00  0.00     0.029 A 
ATOM     70  C   UNL A   1      38.070  32.880  33.286  1.00  0.00     0.049 A 
ATOM     71  H   UNL A   1      39.835  31.870  33.850  1.00  0.00     0.167 HD
ATOM     72  C   UNL A   1      38.780  31.711  31.217  1.00  0.00     0.074 A 
ATOM     73  C   UNL A   1      38.615  31.339  29.828  1.00  0.00     0.031 C 
ATOM     74  C   UNL A   1      37.926  32.513  31.898  1.00  0.00     0.037 A 
BRANCH  61  75
ATOM     75  C   UNL A   1      39.429  33.388  37.827  1.00  0.00     0.058 A 
ATOM     76  C   UNL A   1      38.454  32.820  38.664  1.00  0.00     0.135 A 
ATOM     77  C   UNL A   1      40.115  34.519  38.299  1.00  0.00     0.135 A 
ATOM     78  F   UNL A   1      37.753  31.750  38.259  1.00  0.00    -0.206 F 
ATOM     79  C   UNL A   1      38.164  33.361  39.914  1.00  0.00     0.059 A 
ATOM     80  C   UNL A   1      39.866  35.056  39.557  1.00  0.00     0.059 A 
ATOM     81  F   UNL A   1      41.054  35.105  37.538  1.00  0.00    -0.206 F 
ATOM     82  C   UNL A   1      38.883  34.473  40.356  1.00  0.00     0.060 A 
BRANCH  82  83
ATOM     83  S   UNL A   1      38.523  35.133  41.996  1.00  0.00     0.124 S 
ATOM     84  O   UNL A   1      39.451  34.370  42.828  1.00  0.00    -0.237 OA
ATOM     85  O   UNL A   1      38.835  36.549  41.836  1.00  0.00    -0.237 OA
ATOM     86  O   UNL A   1      37.110  34.820  42.188  1.00  0.00    -0.744 OA
ENDBRANCH  82  83
ENDBRANCH  61  75
BRANCH  62  87
ATOM     87  C   UNL A   1      42.009  28.892  29.262  1.00  0.00     0.058 A 
ATOM     88  C   UNL A   1      42.981  29.406  28.389  1.00  0.00     0.135 A 
ATOM     89  C   UNL A   1      41.358  27.708  28.884  1.00  0.00     0.135 A 
ATOM     90  F   UNL A   1      43.631  30.537  28.701  1.00  0.00    -0.206 F 
ATOM     91  C   UNL A   1      43.267  28.794  27.172  1.00  0.00     0.059 A 
ATOM     92  C   UNL A   1      41.652  27.058  27.690  1.00  0.00     0.059 A 
ATOM     93  F   UNL A   1      40.433  27.160  29.689  1.00  0.00    -0.206 F 
ATOM     94  C   UNL A   1      42.594  27.620  26.832  1.00  0.00     0.060 A 
BRANCH  94  95
ATOM     95  S   UNL A   1      42.981  26.827  25.256  1.00  0.00     0.124 S 
ATOM     96  O   UNL A   1      44.403  26.542  25.413  1.00  0.00    -0.237 OA
ATOM     97  O   UNL A   1      42.091  25.670  25.271  1.00  0.00    -0.237 OA
ATOM     98  O   UNL A   1      42.648  27.854  24.274  1.00  0.00    -0.744 OA
ENDBRANCH  94  95
ENDBRANCH  62  87
BRANCH  74  99
ATOM     99  C   UNL A   1      36.760  33.092  31.141  1.00  0.00     0.058 A 
ATOM    100  C   UNL A   1      35.438  32.689  31.387  1.00  0.00     0.135 A 
ATOM    101  C   UNL A   1      36.968  34.108  30.193  1.00  0.00     0.135 A 
ATOM    102  F   UNL A   1      35.180  31.718  32.278  1.00  0.00    -0.206 F 
ATOM    103  C   UNL A   1      34.367  33.253  30.700  1.00  0.00     0.059 A 
ATOM    104  C   UNL A   1      35.910  34.712  29.523  1.00  0.00     0.059 A 
ATOM    105  F   UNL A   1      38.210  34.542  29.926  1.00  0.00    -0.206 F 
ATOM    106  C   UNL A   1      34.613  34.268  29.773  1.00  0.00     0.060 A 
BRANCH 106 107
ATOM    107  S   UNL A   1      33.210  35.014  28.918  1.00  0.00     0.124 S 
ATOM    108  O   UNL A   1      33.838  36.153  28.258  1.00  0.00    -0.237 OA
ATOM    109  O   UNL A   1      32.773  33.933  28.039  1.00  0.00    -0.237 OA
ATOM    110  O   UNL A   1      32.288  35.346  30.000  1.00  0.00    -0.744 OA
ENDBRANCH 106 107
ENDBRANCH  74  99
ENDBRANCH  48  49
ENDBRANCH  40  43
ENDBRANCH  38  39
ENDBRANCH  37  38
ENDBRANCH  36  37
ENDBRANCH   1  36
TORSDOF 21
ENDMDL
MODEL 2
REMARK VINA RESULT:     -10.0      4.484     11.074
REMARK SMILES COc1ccc2[nH]c(/C(C#N)=C/c3ccc(-c4cc(C(=O)NCCCCCCNC(=O)c5ccc(-c6c7nc(c(-c8c(F)cc(S(=O)(=O)[O-])cc8F)c8ccc([nH]8)c(-c8c(F)cc(S(=O)(=O)[O-])cc8F)c8nc(c(-c9c(F)cc(S(=O)(=O)[O-])cc9F)c9ccc6[nH]9)C=C8)C=C7)cc5)ccc4Cl)o3)nc2c1
REMARK SMILES IDX 25 1 24 2 23 3 22 4 20 5 21 6 19 8 17 9 18 10 100 11 99 12
REMARK SMILES IDX 101 13 98 14 16 15 13 16 14 17 102 18 15 19 12 20 9 21 8 22
REMARK SMILES IDX 3 23 4 24 105 25 5 26 104 27 6 28 103 29 7 30 2 32 1 33
REMARK SMILES IDX 10 34 11 35 26 36 27 37 28 38 29 39 30 40 31 42 32 43 33 44
REMARK SMILES IDX 97 45 34 46 96 47 35 48 36 49 37 50 90 51 38 52 95 53 89 54
REMARK SMILES IDX 91 55 39 56 94 57 88 58 87 59 40 61 74 62 53 63 73 64 54 65
REMARK SMILES IDX 57 66 72 67 92 68 55 69 56 70 71 72 93 73 58 74 41 75 42 76
REMARK SMILES IDX 51 77 43 78 44 79 50 80 52 81 45 82 46 83 47 84 48 85 49 86
REMARK SMILES IDX 75 87 76 88 85 89 77 90 78 91 84 92 86 93 79 94 80 95 81 96
REMARK SMILES IDX 82 97 83 98 59 99 60 100 69 101 61 102 62 103 68 104 70 105
REMARK SMILES IDX 63 106 64 107 65 108 66 109 67 110
REMARK H PARENT 22 7 7 31 29 41 91 60 57 71
REMARK Flexibility Score: inf
ROOT
ATOM      1  C   UNL A   1      36.694  33.266  28.218  1.00  0.00     0.002 C 
ENDROOT
BRANCH   1   2
ATOM      2  C   UNL A   1      35.166  33.364  28.345  1.00  0.00     0.021 C 
BRANCH   2   3
ATOM      3  C   UNL A   1      34.569  32.237  29.194  1.00  0.00     0.116 C 
BRANCH   3   4
ATOM      4  N   UNL A   1      34.395  31.044  28.390  1.00  0.00    -0.352 N 
ATOM      5  C   UNL A   1      35.107  29.891  28.205  1.00  0.00     0.251 C 
ATOM      6  O   UNL A   1      34.629  29.084  27.403  1.00  0.00    -0.269 OA
ATOM      7  H   UNL A   1      33.571  31.069  27.853  1.00  0.00     0.163 HD
BRANCH   5   8
ATOM      8  C   UNL A   1      36.373  29.528  28.912  1.00  0.00     0.040 A 
ATOM      9  C   UNL A   1      38.694  28.749  28.644  1.00  0.00     0.037 A 
ATOM     10  C   UNL A   1      37.469  29.168  28.096  1.00  0.00     0.027 A 
ATOM     11  C   UNL A   1      38.827  28.705  30.040  1.00  0.00     0.052 A 
ATOM     12  C   UNL A   1      37.764  29.081  30.857  1.00  0.00     0.022 A 
ATOM     13  Cl  UNL A   1      40.292  28.220  30.825  1.00  0.00    -0.084 Cl
ATOM     14  C   UNL A   1      36.559  29.513  30.296  1.00  0.00     0.015 A 
BRANCH   9  15
ATOM     15  C   UNL A   1      39.750  28.258  27.777  1.00  0.00     0.136 A 
ATOM     16  C   UNL A   1      41.059  26.687  26.904  1.00  0.00     0.129 A 
ATOM     17  C   UNL A   1      41.257  27.869  26.195  1.00  0.00     0.051 A 
ATOM     18  O   UNL A   1      40.098  26.942  27.867  1.00  0.00    -0.457 OA
ATOM     19  C   UNL A   1      40.471  28.874  26.784  1.00  0.00     0.051 A 
BRANCH  16  20
ATOM     20  C   UNL A   1      41.646  25.400  26.695  1.00  0.00     0.070 C 
ATOM     21  C   UNL A   1      40.917  24.265  26.616  1.00  0.00     0.098 C 
BRANCH  21  22
ATOM     22  C   UNL A   1      41.497  22.960  26.541  1.00  0.00     0.149 A 
ATOM     23  C   UNL A   1      43.563  19.022  25.756  1.00  0.00     0.121 A 
ATOM     24  C   UNL A   1      42.684  18.573  26.747  1.00  0.00     0.049 A 
ATOM     25  C   UNL A   1      43.583  20.363  25.368  1.00  0.00     0.077 A 
ATOM     26  C   UNL A   1      41.764  19.444  27.354  1.00  0.00     0.032 A 
ATOM     27  C   UNL A   1      42.669  21.239  25.964  1.00  0.00     0.093 A 
ATOM     28  C   UNL A   1      41.786  20.774  26.927  1.00  0.00     0.066 A 
ATOM     29  N   UNL A   1      42.480  22.574  25.745  1.00  0.00    -0.228 NA
ATOM     30  N   UNL A   1      41.053  21.883  27.282  1.00  0.00    -0.337 N 
ATOM     31  H   UNL A   1      40.332  21.906  27.951  1.00  0.00     0.168 HD
BRANCH  23  32
ATOM     32  O   UNL A   1      44.497  18.208  25.171  1.00  0.00    -0.497 OA
ATOM     33  C   UNL A   1      45.823  18.718  25.298  1.00  0.00     0.278 C 
ENDBRANCH  23  32
ENDBRANCH  21  22
BRANCH  21  34
ATOM     34  C   UNL A   1      39.476  24.301  26.606  1.00  0.00     0.103 C 
ATOM     35  N   UNL A   1      38.317  24.296  26.618  1.00  0.00    -0.192 NA
ENDBRANCH  21  34
ENDBRANCH  16  20
ENDBRANCH   9  15
ENDBRANCH   5   8
ENDBRANCH   3   4
ENDBRANCH   2   3
ENDBRANCH   1   2
BRANCH   1  36
ATOM     36  C   UNL A   1      37.464  33.598  29.503  1.00  0.00     0.002 C 
BRANCH  36  37
ATOM     37  C   UNL A   1      38.573  32.604  29.853  1.00  0.00     0.021 C 
BRANCH  37  38
ATOM     38  C   UNL A   1      39.605  33.156  30.829  1.00  0.00     0.116 C 
BRANCH  38  39
ATOM     39  N   UNL A   1      38.994  33.502  32.103  1.00  0.00    -0.352 N 
ATOM     40  C   UNL A   1      39.178  32.928  33.335  1.00  0.00     0.251 C 
ATOM     41  H   UNL A   1      38.358  34.252  32.077  1.00  0.00     0.163 HD
ATOM     42  O   UNL A   1      38.384  33.153  34.242  1.00  0.00    -0.269 OA
BRANCH  40  43
ATOM     43  C   UNL A   1      40.335  32.036  33.555  1.00  0.00     0.039 A 
ATOM     44  C   UNL A   1      40.125  30.659  33.638  1.00  0.00     0.014 A 
ATOM     45  C   UNL A   1      41.623  32.564  33.684  1.00  0.00     0.014 A 
ATOM     46  C   UNL A   1      41.218  29.807  33.799  1.00  0.00     0.010 A 
ATOM     47  C   UNL A   1      42.716  31.709  33.757  1.00  0.00     0.010 A 
ATOM     48  C   UNL A   1      42.526  30.322  33.825  1.00  0.00    -0.014 A 
BRANCH  48  49
ATOM     49  C   UNL A   1      43.702  29.422  33.922  1.00  0.00     0.031 A 
ATOM     50  C   UNL A   1      44.316  29.123  35.265  1.00  0.00     0.074 A 
ATOM     51  C   UNL A   1      44.248  28.917  32.798  1.00  0.00     0.049 A 
ATOM     52  N   UNL A   1      45.374  28.408  35.546  1.00  0.00    -0.248 NA
ATOM     53  C   UNL A   1      43.672  29.726  36.444  1.00  0.00     0.031 C 
ATOM     54  C   UNL A   1      43.766  29.171  31.437  1.00  0.00     0.029 A 
ATOM     55  N   UNL A   1      45.329  28.091  32.615  1.00  0.00    -0.354 N 
ATOM     56  C   UNL A   1      45.528  28.481  36.925  1.00  0.00     0.074 A 
ATOM     57  C   UNL A   1      44.489  29.357  37.421  1.00  0.00     0.031 C 
ATOM     58  C   UNL A   1      44.530  28.494  30.565  1.00  0.00     0.029 A 
ATOM     59  C   UNL A   1      45.585  27.799  31.295  1.00  0.00     0.049 A 
ATOM     60  H   UNL A   1      45.870  27.740  33.359  1.00  0.00     0.167 HD
ATOM     61  C   UNL A   1      46.438  27.857  37.709  1.00  0.00     0.037 A 
ATOM     62  C   UNL A   1      46.569  27.069  30.735  1.00  0.00     0.037 A 
ATOM     63  C   UNL A   1      47.457  26.972  37.206  1.00  0.00     0.049 A 
ATOM     64  C   UNL A   1      47.584  26.406  31.630  1.00  0.00     0.074 A 
ATOM     65  C   UNL A   1      48.391  26.246  37.923  1.00  0.00     0.029 A 
ATOM     66  N   UNL A   1      47.681  26.697  35.865  1.00  0.00    -0.354 N 
ATOM     67  N   UNL A   1      47.670  26.430  32.939  1.00  0.00    -0.248 NA
ATOM     68  C   UNL A   1      48.633  25.615  30.974  1.00  0.00     0.031 C 
ATOM     69  C   UNL A   1      49.224  25.588  37.014  1.00  0.00     0.029 A 
ATOM     70  C   UNL A   1      48.761  25.840  35.734  1.00  0.00     0.049 A 
ATOM     71  H   UNL A   1      47.152  27.058  35.117  1.00  0.00     0.167 HD
ATOM     72  C   UNL A   1      48.758  25.626  33.263  1.00  0.00     0.074 A 
ATOM     73  C   UNL A   1      49.288  25.120  32.014  1.00  0.00     0.031 C 
ATOM     74  C   UNL A   1      49.270  25.331  34.483  1.00  0.00     0.037 A 
BRANCH  61  75
ATOM     75  C   UNL A   1      46.385  28.102  39.193  1.00  0.00     0.058 A 
ATOM     76  C   UNL A   1      45.613  27.300  40.049  1.00  0.00     0.135 A 
ATOM     77  C   UNL A   1      47.179  29.103  39.777  1.00  0.00     0.135 A 
ATOM     78  F   UNL A   1      44.821  26.340  39.546  1.00  0.00    -0.206 F 
ATOM     79  C   UNL A   1      45.620  27.491  41.427  1.00  0.00     0.059 A 
ATOM     80  C   UNL A   1      47.227  29.290  41.154  1.00  0.00     0.059 A 
ATOM     81  F   UNL A   1      47.934  29.902  39.005  1.00  0.00    -0.206 F 
ATOM     82  C   UNL A   1      46.438  28.482  41.971  1.00  0.00     0.060 A 
BRANCH  82  83
ATOM     83  S   UNL A   1      46.466  28.686  43.764  1.00  0.00     0.124 S 
ATOM     84  O   UNL A   1      45.052  28.531  44.097  1.00  0.00    -0.237 OA
ATOM     85  O   UNL A   1      47.338  27.595  44.186  1.00  0.00    -0.237 OA
ATOM     86  O   UNL A   1      47.009  30.028  43.948  1.00  0.00    -0.744 OA
ENDBRANCH  82  83
ENDBRANCH  61  75
BRANCH  62  87
ATOM     87  C   UNL A   1      46.649  26.920  29.255  1.00  0.00     0.058 A 
ATOM     88  C   UNL A   1      45.954  25.900  28.587  1.00  0.00     0.135 A 
ATOM     89  C   UNL A   1      47.442  27.781  28.479  1.00  0.00     0.135 A 
ATOM     90  F   UNL A   1      45.184  25.048  29.281  1.00  0.00    -0.206 F 
ATOM     91  C   UNL A   1      46.072  25.714  27.213  1.00  0.00     0.059 A 
ATOM     92  C   UNL A   1      47.547  27.638  27.100  1.00  0.00     0.059 A 
ATOM     93  F   UNL A   1      48.113  28.787  29.063  1.00  0.00    -0.206 F 
ATOM     94  C   UNL A   1      46.874  26.588  26.479  1.00  0.00     0.060 A 
BRANCH  94  95
ATOM     95  S   UNL A   1      47.010  26.346  24.694  1.00  0.00     0.124 S 
ATOM     96  O   UNL A   1      46.468  27.600  24.186  1.00  0.00    -0.237 OA
ATOM     97  O   UNL A   1      48.446  26.152  24.522  1.00  0.00    -0.237 OA
ATOM     98  O   UNL A   1      46.191  25.161  24.454  1.00  0.00    -0.744 OA
ENDBRANCH  94  95
ENDBRANCH  62  87
BRANCH  74  99
ATOM     99  C   UNL A   1      50.433  24.376  34.540  1.00  0.00     0.058 A 
ATOM    100  C   UNL A   1      50.254  22.984  34.553  1.00  0.00     0.135 A 
ATOM    101  C   UNL A   1      51.750  24.866  34.522  1.00  0.00     0.135 A 
ATOM    102  F   UNL A   1      49.018  22.460  34.576  1.00  0.00    -0.206 F 
ATOM    103  C   UNL A   1      51.339  22.112  34.577  1.00  0.00     0.059 A 
ATOM    104  C   UNL A   1      52.848  24.013  34.507  1.00  0.00     0.059 A 
ATOM    105  F   UNL A   1      51.980  26.188  34.497  1.00  0.00    -0.206 F 
ATOM    106  C   UNL A   1      52.632  22.637  34.548  1.00  0.00     0.060 A 
BRANCH 106 107
ATOM    107  S   UNL A   1      54.028  21.493  34.542  1.00  0.00     0.124 S 
ATOM    108  O   UNL A   1      53.871  20.844  33.245  1.00  0.00    -0.237 OA
ATOM    109  O   UNL A   1      55.169  22.395  34.667  1.00  0.00    -0.237 OA
ATOM    110  O   UNL A   1      53.778  20.644  35.703  1.00  0.00    -0.744 OA
ENDBRANCH 106 107
ENDBRANCH  74  99
ENDBRANCH  48  49
ENDBRANCH  40  43
ENDBRANCH  38  39
ENDBRANCH  37  38
ENDBRANCH  36  37
ENDBRANCH   1  36
TORSDOF 21
ENDMDL
MODEL 3
REMARK VINA RESULT:      -9.7      7.061     13.093
REMARK SMILES COc1ccc2[nH]c(/C(C#N)=C/c3ccc(-c4cc(C(=O)NCCCCCCNC(=O)c5ccc(-c6c7nc(c(-c8c(F)cc(S(=O)(=O)[O-])cc8F)c8ccc([nH]8)c(-c8c(F)cc(S(=O)(=O)[O-])cc8F)c8nc(c(-c9c(F)cc(S(=O)(=O)[O-])cc9F)c9ccc6[nH]9)C=C8)C=C7)cc5)ccc4Cl)o3)nc2c1
REMARK SMILES IDX 25 1 24 2 23 3 22 4 20 5 21 6 19 8 17 9 18 10 100 11 99 12
REMARK SMILES IDX 101 13 98 14 16 15 13 16 14 17 102 18 15 19 12 20 9 21 8 22
REMARK SMILES IDX 3 23 4 24 105 25 5 26 104 27 6 28 103 29 7 30 2 32 1 33
REMARK SMILES IDX 10 34 11 35 26 36 27 37 28 38 29 39 30 40 31 42 32 43 33 44
REMARK SMILES IDX 97 45 34 46 96 47 35 48 36 49 37 50 90 51 38 52 95 53 89 54
REMARK SMILES IDX 91 55 39 56 94 57 88 58 87 59 40 61 74 62 53 63 73 64 54 65
REMARK SMILES IDX 57 66 72 67 92 68 55 69 56 70 71 72 93 73 58 74 41 75 42 76
REMARK SMILES IDX 51 77 43 78 44 79 50 80 52 81 45 82 46 83 47 84 48 85 49 86
REMARK SMILES IDX 75 87 76 88 85 89 77 90 78 91 84 92 86 93 79 94 80 95 81 96
REMARK SMILES IDX 82 97 83 98 59 99 60 100 69 101 61 102 62 103 68 104 70 105
REMARK SMILES IDX 63 106 64 107 65 108 66 109 67 110
REMARK H PARENT 22 7 7 31 29 41 91 60 57 71
REMARK Flexibility Score: inf
ROOT
ATOM      1  C   UNL A   1      44.038  39.256  31.926  1.00  0.00     0.002 C 
ENDROOT
BRANCH   1   2
ATOM      2  C   UNL A   1      43.808  39.604  33.404  1.00  0.00     0.021 C 
BRANCH   2   3
ATOM      3  C   UNL A   1      43.294  38.415  34.220  1.00  0.00     0.116 C 
BRANCH   3   4
ATOM      4  N   UNL A   1      44.281  37.354  34.236  1.00  0.00    -0.352 N 
ATOM      5  C   UNL A   1      44.369  36.107  33.681  1.00  0.00     0.251 C 
ATOM      6  O   UNL A   1      45.394  35.471  33.939  1.00  0.00    -0.269 OA
ATOM      7  H   UNL A   1      45.074  37.585  34.771  1.00  0.00     0.163 HD
BRANCH   5   8
ATOM      8  C   UNL A   1      43.354  35.485  32.775  1.00  0.00     0.040 A 
ATOM      9  C   UNL A   1      42.461  35.405  30.482  1.00  0.00     0.037 A 
ATOM     10  C   UNL A   1      43.400  35.874  31.418  1.00  0.00     0.027 A 
ATOM     11  C   UNL A   1      41.465  34.516  30.914  1.00  0.00     0.052 A 
ATOM     12  C   UNL A   1      41.423  34.105  32.243  1.00  0.00     0.022 A 
ATOM     13  Cl  UNL A   1      40.267  33.864  29.847  1.00  0.00    -0.084 Cl
ATOM     14  C   UNL A   1      42.375  34.565  33.158  1.00  0.00     0.015 A 
BRANCH   9  15
ATOM     15  C   UNL A   1      42.457  35.932  29.128  1.00  0.00     0.136 A 
ATOM     16  C   UNL A   1      43.119  37.305  27.510  1.00  0.00     0.129 A 
ATOM     17  C   UNL A   1      42.315  36.316  26.947  1.00  0.00     0.051 A 
ATOM     18  O   UNL A   1      43.217  37.033  28.864  1.00  0.00    -0.457 OA
ATOM     19  C   UNL A   1      41.853  35.482  27.980  1.00  0.00     0.051 A 
BRANCH  16  20
ATOM     20  C   UNL A   1      43.802  38.385  26.869  1.00  0.00     0.070 C 
ATOM     21  C   UNL A   1      43.517  39.683  27.117  1.00  0.00     0.098 C 
BRANCH  21  22
ATOM     22  C   UNL A   1      44.096  40.769  26.389  1.00  0.00     0.149 A 
ATOM     23  C   UNL A   1      46.307  43.773  23.844  1.00  0.00     0.121 A 
ATOM     24  C   UNL A   1      45.714  44.682  24.727  1.00  0.00     0.049 A 
ATOM     25  C   UNL A   1      46.061  42.404  23.953  1.00  0.00     0.077 A 
ATOM     26  C   UNL A   1      44.888  44.247  25.776  1.00  0.00     0.032 A 
ATOM     27  C   UNL A   1      45.242  41.957  24.996  1.00  0.00     0.093 A 
ATOM     28  C   UNL A   1      44.682  42.869  25.878  1.00  0.00     0.066 A 
ATOM     29  N   UNL A   1      44.870  40.684  25.321  1.00  0.00    -0.228 NA
ATOM     30  N   UNL A   1      43.956  42.093  26.754  1.00  0.00    -0.337 N 
ATOM     31  H   UNL A   1      43.425  42.427  27.513  1.00  0.00     0.168 HD
BRANCH  23  32
ATOM     32  O   UNL A   1      47.086  44.168  22.789  1.00  0.00    -0.497 OA
ATOM     33  C   UNL A   1      46.973  45.563  22.516  1.00  0.00     0.278 C 
ENDBRANCH  23  32
ENDBRANCH  21  22
BRANCH  21  34
ATOM     34  C   UNL A   1      42.588  40.060  28.153  1.00  0.00     0.103 C 
ATOM     35  N   UNL A   1      41.831  40.325  28.990  1.00  0.00    -0.192 NA
ENDBRANCH  21  34
ENDBRANCH  16  20
ENDBRANCH   9  15
ENDBRANCH   5   8
ENDBRANCH   3   4
ENDBRANCH   2   3
ENDBRANCH   1   2
BRANCH   1  36
ATOM     36  C   UNL A   1      45.450  39.565  31.409  1.00  0.00     0.002 C 
BRANCH  36  37
ATOM     37  C   UNL A   1      46.287  38.329  31.071  1.00  0.00     0.021 C 
BRANCH  37  38
ATOM     38  C   UNL A   1      46.381  38.044  29.577  1.00  0.00     0.116 C 
BRANCH  38  39
ATOM     39  N   UNL A   1      47.766  37.997  29.135  1.00  0.00    -0.352 N 
ATOM     40  C   UNL A   1      48.561  36.907  28.891  1.00  0.00     0.251 C 
ATOM     41  H   UNL A   1      48.194  38.872  28.992  1.00  0.00     0.163 HD
ATOM     42  O   UNL A   1      49.777  37.040  28.797  1.00  0.00    -0.269 OA
BRANCH  40  43
ATOM     43  C   UNL A   1      47.940  35.573  28.748  1.00  0.00     0.039 A 
ATOM     44  C   UNL A   1      47.194  35.290  27.604  1.00  0.00     0.014 A 
ATOM     45  C   UNL A   1      48.094  34.609  29.749  1.00  0.00     0.014 A 
ATOM     46  C   UNL A   1      46.644  34.018  27.441  1.00  0.00     0.010 A 
ATOM     47  C   UNL A   1      47.619  33.318  29.544  1.00  0.00     0.010 A 
ATOM     48  C   UNL A   1      46.882  33.011  28.392  1.00  0.00    -0.014 A 
BRANCH  48  49
ATOM     49  C   UNL A   1      46.364  31.634  28.197  1.00  0.00     0.031 A 
ATOM     50  C   UNL A   1      44.956  31.290  28.604  1.00  0.00     0.074 A 
ATOM     51  C   UNL A   1      47.181  30.682  27.701  1.00  0.00     0.049 A 
ATOM     52  N   UNL A   1      44.345  30.134  28.561  1.00  0.00    -0.248 NA
ATOM     53  C   UNL A   1      44.132  32.381  29.151  1.00  0.00     0.031 C 
ATOM     54  C   UNL A   1      48.578  30.885  27.312  1.00  0.00     0.029 A 
ATOM     55  N   UNL A   1      46.959  29.351  27.445  1.00  0.00    -0.354 N 
ATOM     56  C   UNL A   1      43.075  30.356  29.083  1.00  0.00     0.074 A 
ATOM     57  C   UNL A   1      43.020  31.743  29.488  1.00  0.00     0.031 C 
ATOM     58  C   UNL A   1      49.079  29.732  26.842  1.00  0.00     0.029 A 
ATOM     59  C   UNL A   1      48.058  28.694  26.943  1.00  0.00     0.049 A 
ATOM     60  H   UNL A   1      46.094  28.909  27.606  1.00  0.00     0.167 HD
ATOM     61  C   UNL A   1      42.044  29.487  29.192  1.00  0.00     0.037 A 
ATOM     62  C   UNL A   1      48.230  27.398  26.616  1.00  0.00     0.037 A 
ATOM     63  C   UNL A   1      42.103  28.112  28.767  1.00  0.00     0.049 A 
ATOM     64  C   UNL A   1      47.071  26.448  26.773  1.00  0.00     0.074 A 
ATOM     65  C   UNL A   1      41.094  27.166  28.783  1.00  0.00     0.029 A 
ATOM     66  N   UNL A   1      43.231  27.485  28.259  1.00  0.00    -0.354 N 
ATOM     67  N   UNL A   1      45.855  26.693  27.202  1.00  0.00    -0.248 NA
ATOM     68  C   UNL A   1      47.304  25.047  26.398  1.00  0.00     0.031 C 
ATOM     69  C   UNL A   1      41.629  25.950  28.350  1.00  0.00     0.029 A 
ATOM     70  C   UNL A   1      42.951  26.155  27.990  1.00  0.00     0.049 A 
ATOM     71  H   UNL A   1      44.102  27.920  28.111  1.00  0.00     0.167 HD
ATOM     72  C   UNL A   1      45.170  25.486  27.110  1.00  0.00     0.074 A 
ATOM     73  C   UNL A   1      46.103  24.517  26.572  1.00  0.00     0.031 C 
ATOM     74  C   UNL A   1      43.885  25.205  27.439  1.00  0.00     0.037 A 
BRANCH  61  75
ATOM     75  C   UNL A   1      40.757  29.985  29.794  1.00  0.00     0.058 A 
ATOM     76  C   UNL A   1      39.594  30.150  29.024  1.00  0.00     0.135 A 
ATOM     77  C   UNL A   1      40.664  30.223  31.175  1.00  0.00     0.135 A 
ATOM     78  F   UNL A   1      39.627  29.954  27.696  1.00  0.00    -0.206 F 
ATOM     79  C   UNL A   1      38.391  30.549  29.599  1.00  0.00     0.059 A 
ATOM     80  C   UNL A   1      39.465  30.590  31.777  1.00  0.00     0.059 A 
ATOM     81  F   UNL A   1      41.746  30.085  31.958  1.00  0.00    -0.206 F 
ATOM     82  C   UNL A   1      38.334  30.756  30.979  1.00  0.00     0.060 A 
BRANCH  82  83
ATOM     83  S   UNL A   1      36.754  31.230  31.712  1.00  0.00     0.124 S 
ATOM     84  O   UNL A   1      35.955  30.030  31.482  1.00  0.00    -0.237 OA
ATOM     85  O   UNL A   1      37.123  31.489  33.100  1.00  0.00    -0.237 OA
ATOM     86  O   UNL A   1      36.358  32.403  30.940  1.00  0.00    -0.744 OA
ENDBRANCH  82  83
ENDBRANCH  61  75
BRANCH  62  87
ATOM     87  C   UNL A   1      49.545  26.916  26.109  1.00  0.00     0.058 A 
ATOM     88  C   UNL A   1      50.533  26.441  26.986  1.00  0.00     0.135 A 
ATOM     89  C   UNL A   1      49.851  26.943  24.740  1.00  0.00     0.135 A 
ATOM     90  F   UNL A   1      50.293  26.397  28.306  1.00  0.00    -0.206 F 
ATOM     91  C   UNL A   1      51.787  26.047  26.529  1.00  0.00     0.059 A 
ATOM     92  C   UNL A   1      51.084  26.521  24.255  1.00  0.00     0.059 A 
ATOM     93  F   UNL A   1      48.937  27.369  23.853  1.00  0.00    -0.206 F 
ATOM     94  C   UNL A   1      52.053  26.093  25.160  1.00  0.00     0.060 A 
BRANCH  94  95
ATOM     95  S   UNL A   1      53.679  25.568  24.576  1.00  0.00     0.124 S 
ATOM     96  O   UNL A   1      53.553  24.116  24.623  1.00  0.00    -0.237 OA
ATOM     97  O   UNL A   1      53.732  26.164  23.245  1.00  0.00    -0.237 OA
ATOM     98  O   UNL A   1      54.591  26.154  25.555  1.00  0.00    -0.744 OA
ENDBRANCH  94  95
ENDBRANCH  62  87
BRANCH  74  99
ATOM     99  C   UNL A   1      43.388  23.808  27.179  1.00  0.00     0.058 A 
ATOM    100  C   UNL A   1      43.393  22.817  28.175  1.00  0.00     0.135 A 
ATOM    101  C   UNL A   1      42.845  23.473  25.927  1.00  0.00     0.135 A 
ATOM    102  F   UNL A   1      43.905  23.080  29.388  1.00  0.00    -0.206 F 
ATOM    103  C   UNL A   1      42.904  21.538  27.929  1.00  0.00     0.059 A 
ATOM    104  C   UNL A   1      42.316  22.213  25.672  1.00  0.00     0.059 A 
ATOM    105  F   UNL A   1      42.803  24.384  24.942  1.00  0.00    -0.206 F 
ATOM    106  C   UNL A   1      42.362  21.247  26.676  1.00  0.00     0.060 A 
BRANCH 106 107
ATOM    107  S   UNL A   1      41.698  19.595  26.385  1.00  0.00     0.124 S 
ATOM    108  O   UNL A   1      41.961  18.942  27.663  1.00  0.00    -0.237 OA
ATOM    109  O   UNL A   1      40.295  19.872  26.091  1.00  0.00    -0.237 OA
ATOM    110  O   UNL A   1      42.484  19.104  25.257  1.00  0.00    -0.744 OA
ENDBRANCH 106 107
ENDBRANCH  74  99
ENDBRANCH  48  49
ENDBRANCH  40  43
ENDBRANCH  38  39
ENDBRANCH  37  38
ENDBRANCH  36  37
ENDBRANCH   1  36
TORSDOF 21
ENDMDL
