MODEL 1
REMARK VINA RESULT:     -12.3      0.000      0.000
REMARK SMILES O=C(NCCCCCCNC(=O)[C@H]1O[C@@H](Oc2c(-c3cc(O)c(O)c(O)c3)oc3cc(O)cc(O)c3c2=O)[C@H](O)[C@@H](O)[C@@H]1O)c1ccc(-c2c3nc(c(-c4c(F)cc(S(=O)(=O)[O-])cc4F)c4ccc([nH]4)c(-c4c(F)cc(S(=O)(=O)[O-])cc4F)c4nc(c(-c5c(F)cc(S(=O)(=O)[O-])cc5F)c5ccc2[nH]5)C=C4)C=C3)cc1
REMARK SMILES IDX 7 1 6 2 5 3 4 4 3 5 1 6 2 7 45 9 46 10 110 11 47 12 109 13
REMARK SMILES IDX 48 14 49 15 50 16 103 17 51 18 108 19 102 20 104 21 52 22
REMARK SMILES IDX 107 23 101 24 100 25 53 27 87 28 66 29 86 30 67 31 70 32
REMARK SMILES IDX 85 33 105 34 68 35 69 36 84 38 106 39 71 40 54 41 55 42
REMARK SMILES IDX 64 43 56 44 57 45 63 46 65 47 58 48 59 49 60 50 61 51 62 52
REMARK SMILES IDX 88 53 89 54 98 55 90 56 91 57 97 58 99 59 92 60 93 61 94 62
REMARK SMILES IDX 95 63 96 64 72 65 73 66 82 67 74 68 75 69 81 70 83 71 76 72
REMARK SMILES IDX 77 73 78 74 79 75 80 76 8 77 9 78 10 79 11 80 12 82 13 83
REMARK SMILES IDX 14 84 43 85 15 86 41 87 39 88 44 89 16 91 17 92 18 93 37 94
REMARK SMILES IDX 28 95 36 96 38 97 29 98 34 99 30 100 33 101 31 102 19 103
REMARK SMILES IDX 20 104 27 105 21 106 25 107 23 108 22 109 26 111 24 113
REMARK SMILES IDX 35 115 32 117 42 119 40 121
REMARK H PARENT 3 8 104 26 70 37 10 81 44 90 22 110 26 112 24 114 35 116
REMARK H PARENT 32 118 42 120 40 122
REMARK Flexibility Score: inf
ROOT
ATOM      1  C   UNL A   1      32.114  30.941  26.832  1.00  0.00     0.002 C 
ENDROOT
BRANCH   1   2
ATOM      2  C   UNL A   1      33.184  29.916  27.227  1.00  0.00     0.002 C 
BRANCH   2   3
ATOM      3  C   UNL A   1      34.599  30.490  27.284  1.00  0.00     0.021 C 
BRANCH   3   4
ATOM      4  C   UNL A   1      35.556  29.633  28.100  1.00  0.00     0.116 C 
BRANCH   4   5
ATOM      5  N   UNL A   1      35.520  30.008  29.505  1.00  0.00    -0.352 N 
ATOM      6  O   UNL A   1      36.218  29.930  31.652  1.00  0.00    -0.269 OA
ATOM      7  C   UNL A   1      36.482  29.806  30.458  1.00  0.00     0.251 C 
ATOM      8  H   UNL A   1      34.702  30.466  29.809  1.00  0.00     0.163 HD
BRANCH   7   9
ATOM      9  C   UNL A   1      37.841  29.436  30.024  1.00  0.00     0.039 A 
ATOM     10  C   UNL A   1      38.229  29.663  28.699  1.00  0.00     0.014 A 
ATOM     11  C   UNL A   1      38.732  28.874  30.939  1.00  0.00     0.014 A 
ATOM     12  C   UNL A   1      39.474  29.238  28.263  1.00  0.00     0.010 A 
ATOM     13  C   UNL A   1      40.018  28.530  30.520  1.00  0.00     0.010 A 
ATOM     14  C   UNL A   1      40.396  28.709  29.181  1.00  0.00    -0.014 A 
BRANCH  14  15
ATOM     15  C   UNL A   1      41.796  28.500  28.743  1.00  0.00     0.031 A 
ATOM     16  C   UNL A   1      42.782  29.628  28.697  1.00  0.00     0.074 A 
ATOM     17  C   UNL A   1      42.155  27.251  28.382  1.00  0.00     0.049 A 
ATOM     18  N   UNL A   1      44.040  29.595  28.344  1.00  0.00    -0.248 NA
ATOM     19  C   UNL A   1      42.309  30.962  29.103  1.00  0.00     0.031 C 
ATOM     20  C   UNL A   1      41.257  26.089  28.367  1.00  0.00     0.029 A 
ATOM     21  N   UNL A   1      43.354  26.741  27.959  1.00  0.00    -0.354 N 
ATOM     22  C   UNL A   1      44.506  30.899  28.452  1.00  0.00     0.074 A 
ATOM     23  C   UNL A   1      43.395  31.704  28.914  1.00  0.00     0.031 C 
ATOM     24  C   UNL A   1      41.942  25.004  27.984  1.00  0.00     0.029 A 
ATOM     25  C   UNL A   1      43.301  25.402  27.650  1.00  0.00     0.049 A 
ATOM     26  H   UNL A   1      44.174  27.281  27.885  1.00  0.00     0.167 HD
ATOM     27  C   UNL A   1      45.746  31.368  28.180  1.00  0.00     0.037 A 
ATOM     28  C   UNL A   1      44.229  24.590  27.112  1.00  0.00     0.037 A 
ATOM     29  C   UNL A   1      46.838  30.546  27.721  1.00  0.00     0.049 A 
ATOM     30  C   UNL A   1      45.582  25.157  26.790  1.00  0.00     0.074 A 
ATOM     31  C   UNL A   1      48.152  30.918  27.492  1.00  0.00     0.029 A 
ATOM     32  N   UNL A   1      46.743  29.201  27.393  1.00  0.00    -0.354 N 
ATOM     33  N   UNL A   1      46.030  26.374  26.990  1.00  0.00    -0.248 NA
ATOM     34  C   UNL A   1      46.551  24.250  26.166  1.00  0.00     0.031 C 
ATOM     35  C   UNL A   1      48.833  29.817  26.963  1.00  0.00     0.029 A 
ATOM     36  C   UNL A   1      47.962  28.742  26.921  1.00  0.00     0.049 A 
ATOM     37  H   UNL A   1      45.930  28.654  27.484  1.00  0.00     0.167 HD
ATOM     38  C   UNL A   1      47.336  26.375  26.520  1.00  0.00     0.074 A 
ATOM     39  C   UNL A   1      47.617  25.030  26.061  1.00  0.00     0.031 C 
ATOM     40  C   UNL A   1      48.222  27.399  26.464  1.00  0.00     0.037 A 
BRANCH  27  41
ATOM     41  C   UNL A   1      46.010  32.839  28.346  1.00  0.00     0.058 A 
ATOM     42  C   UNL A   1      45.783  33.754  27.308  1.00  0.00     0.135 A 
ATOM     43  C   UNL A   1      46.376  33.352  29.603  1.00  0.00     0.135 A 
ATOM     44  F   UNL A   1      45.449  33.316  26.083  1.00  0.00    -0.206 F 
ATOM     45  C   UNL A   1      45.897  35.126  27.511  1.00  0.00     0.059 A 
ATOM     46  C   UNL A   1      46.474  34.721  29.835  1.00  0.00     0.059 A 
ATOM     47  F   UNL A   1      46.612  32.518  30.629  1.00  0.00    -0.206 F 
ATOM     48  C   UNL A   1      46.230  35.601  28.782  1.00  0.00     0.060 A 
BRANCH  48  49
ATOM     49  S   UNL A   1      46.306  37.386  29.044  1.00  0.00     0.124 S 
ATOM     50  O   UNL A   1      47.467  37.749  28.236  1.00  0.00    -0.237 OA
ATOM     51  O   UNL A   1      45.014  37.828  28.530  1.00  0.00    -0.237 OA
ATOM     52  O   UNL A   1      46.482  37.513  30.487  1.00  0.00    -0.744 OA
ENDBRANCH  48  49
ENDBRANCH  27  41
BRANCH  28  53
ATOM     53  C   UNL A   1      43.890  23.179  26.787  1.00  0.00     0.058 A 
ATOM     54  C   UNL A   1      43.677  22.230  27.797  1.00  0.00     0.135 A 
ATOM     55  C   UNL A   1      43.792  22.748  25.453  1.00  0.00     0.135 A 
ATOM     56  F   UNL A   1      43.759  22.593  29.086  1.00  0.00    -0.206 F 
ATOM     57  C   UNL A   1      43.416  20.898  27.497  1.00  0.00     0.059 A 
ATOM     58  C   UNL A   1      43.497  21.430  25.129  1.00  0.00     0.059 A 
ATOM     59  F   UNL A   1      43.966  23.621  24.448  1.00  0.00    -0.206 F 
ATOM     60  C   UNL A   1      43.333  20.507  26.160  1.00  0.00     0.060 A 
BRANCH  60  61
ATOM     61  S   UNL A   1      42.999  18.774  25.780  1.00  0.00     0.124 S 
ATOM     62  O   UNL A   1      43.083  18.167  27.104  1.00  0.00    -0.237 OA
ATOM     63  O   UNL A   1      41.665  18.842  25.190  1.00  0.00    -0.237 OA
ATOM     64  O   UNL A   1      44.070  18.422  24.854  1.00  0.00    -0.744 OA
ENDBRANCH  60  61
ENDBRANCH  28  53
BRANCH  40  65
ATOM     65  C   UNL A   1      49.580  27.101  25.894  1.00  0.00     0.058 A 
ATOM     66  C   UNL A   1      50.613  26.587  26.693  1.00  0.00     0.135 A 
ATOM     67  C   UNL A   1      49.838  27.289  24.527  1.00  0.00     0.135 A 
ATOM     68  F   UNL A   1      50.422  26.402  28.009  1.00  0.00    -0.206 F 
ATOM     69  C   UNL A   1      51.863  26.290  26.161  1.00  0.00     0.059 A 
ATOM     70  C   UNL A   1      51.070  26.969  23.967  1.00  0.00     0.059 A 
ATOM     71  F   UNL A   1      48.882  27.773  23.719  1.00  0.00    -0.206 F 
ATOM     72  C   UNL A   1      52.080  26.479  24.795  1.00  0.00     0.060 A 
BRANCH  72  73
ATOM     73  S   UNL A   1      53.693  26.048  24.111  1.00  0.00     0.124 S 
ATOM     74  O   UNL A   1      53.375  25.871  22.698  1.00  0.00    -0.237 OA
ATOM     75  O   UNL A   1      54.493  27.223  24.440  1.00  0.00    -0.237 OA
ATOM     76  O   UNL A   1      54.052  24.829  24.830  1.00  0.00    -0.744 OA
ENDBRANCH  72  73
ENDBRANCH  40  65
ENDBRANCH  14  15
ENDBRANCH   7   9
ENDBRANCH   4   5
ENDBRANCH   3   4
ENDBRANCH   2   3
ENDBRANCH   1   2
BRANCH   1  77
ATOM     77  C   UNL A   1      31.395  30.611  25.517  1.00  0.00     0.021 C 
BRANCH  77  78
ATOM     78  C   UNL A   1      31.791  29.240  24.971  1.00  0.00     0.116 C 
BRANCH  78  79
ATOM     79  N   UNL A   1      30.594  28.457  24.745  1.00  0.00    -0.354 N 
ATOM     80  C   UNL A   1      30.451  27.406  23.888  1.00  0.00     0.252 C 
ATOM     81  H   UNL A   1      29.799  28.710  25.267  1.00  0.00     0.163 HD
ATOM     82  O   UNL A   1      29.327  27.165  23.439  1.00  0.00    -0.272 OA
BRANCH  80  83
ATOM     83  C   UNL A   1      31.639  26.474  23.604  1.00  0.00     0.242 C 
ATOM     84  O   UNL A   1      31.724  25.300  24.413  1.00  0.00    -0.324 OA
ATOM     85  C   UNL A   1      31.555  26.074  22.124  1.00  0.00     0.184 C 
ATOM     86  C   UNL A   1      32.890  24.514  24.199  1.00  0.00     0.340 C 
ATOM     87  C   UNL A   1      32.878  25.410  21.754  1.00  0.00     0.181 C 
ATOM     88  C   UNL A   1      33.191  24.257  22.700  1.00  0.00     0.214 C 
BRANCH  85  89
ATOM     89  O   UNL A   1      31.307  27.174  21.246  1.00  0.00    -0.387 OA
ATOM     90  H   UNL A   1      31.891  27.110  20.475  1.00  0.00     0.211 HD
ENDBRANCH  85  89
BRANCH  86  91
ATOM     91  O   UNL A   1      32.907  23.248  24.917  1.00  0.00    -0.454 OA
BRANCH  91  92
ATOM     92  C   UNL A   1      34.122  22.652  25.251  1.00  0.00     0.214 A 
ATOM     93  C   UNL A   1      34.476  21.396  24.894  1.00  0.00     0.181 A 
ATOM     94  C   UNL A   1      35.212  23.522  25.820  1.00  0.00     0.239 A 
ATOM     95  O   UNL A   1      35.693  20.806  25.158  1.00  0.00    -0.452 OA
ATOM     96  C   UNL A   1      36.583  22.933  25.910  1.00  0.00     0.111 A 
ATOM     97  O   UNL A   1      34.960  24.667  26.178  1.00  0.00    -0.285 OA
ATOM     98  C   UNL A   1      36.728  21.588  25.577  1.00  0.00     0.146 A 
ATOM     99  C   UNL A   1      37.737  23.642  26.287  1.00  0.00     0.134 A 
ATOM    100  C   UNL A   1      37.968  20.948  25.641  1.00  0.00     0.094 A 
ATOM    101  C   UNL A   1      38.993  23.015  26.326  1.00  0.00     0.093 A 
ATOM    102  C   UNL A   1      39.094  21.667  26.004  1.00  0.00     0.123 A 
BRANCH  93 103
ATOM    103  C   UNL A   1      33.562  20.434  24.262  1.00  0.00     0.029 A 
ATOM    104  C   UNL A   1      32.765  20.892  23.195  1.00  0.00     0.062 A 
ATOM    105  C   UNL A   1      33.562  19.073  24.605  1.00  0.00     0.062 A 
ATOM    106  C   UNL A   1      32.108  19.973  22.390  1.00  0.00     0.162 A 
ATOM    107  C   UNL A   1      32.865  18.174  23.806  1.00  0.00     0.162 A 
ATOM    108  C   UNL A   1      32.180  18.616  22.678  1.00  0.00     0.200 A 
BRANCH 106 109
ATOM    109  O   UNL A   1      31.482  20.421  21.264  1.00  0.00    -0.504 OA
ATOM    110  H   UNL A   1      30.881  21.138  21.316  1.00  0.00     0.293 HD
ENDBRANCH 106 109
BRANCH 107 111
ATOM    111  O   UNL A   1      32.950  16.839  24.078  1.00  0.00    -0.504 OA
ATOM    112  H   UNL A   1      32.170  16.342  24.233  1.00  0.00     0.293 HD
ENDBRANCH 107 111
BRANCH 108 113
ATOM    113  O   UNL A   1      31.683  17.696  21.795  1.00  0.00    -0.502 OA
ATOM    114  H   UNL A   1      32.267  17.138  21.321  1.00  0.00     0.293 HD
ENDBRANCH 108 113
ENDBRANCH  93 103
BRANCH  99 115
ATOM    115  O   UNL A   1      37.672  24.963  26.634  1.00  0.00    -0.507 OA
ATOM    116  H   UNL A   1      37.142  25.553  26.136  1.00  0.00     0.293 HD
ENDBRANCH  99 115
BRANCH 102 117
ATOM    117  O   UNL A   1      40.282  21.005  26.040  1.00  0.00    -0.508 OA
ATOM    118  H   UNL A   1      41.023  21.347  25.579  1.00  0.00     0.293 HD
ENDBRANCH 102 117
ENDBRANCH  91  92
ENDBRANCH  86  91
BRANCH  87 119
ATOM    119  O   UNL A   1      32.812  24.946  20.388  1.00  0.00    -0.387 OA
ATOM    120  H   UNL A   1      31.925  25.114  20.032  1.00  0.00     0.211 HD
ENDBRANCH  87 119
BRANCH  88 121
ATOM    121  O   UNL A   1      34.530  23.808  22.454  1.00  0.00    -0.384 OA
ATOM    122  H   UNL A   1      34.598  22.863  22.663  1.00  0.00     0.211 HD
ENDBRANCH  88 121
ENDBRANCH  80  83
ENDBRANCH  78  79
ENDBRANCH  77  78
ENDBRANCH   1  77
TORSDOF 27
ENDMDL
MODEL 2
REMARK VINA RESULT:     -11.8      5.629      9.835
REMARK SMILES O=C(NCCCCCCNC(=O)[C@H]1O[C@@H](Oc2c(-c3cc(O)c(O)c(O)c3)oc3cc(O)cc(O)c3c2=O)[C@H](O)[C@@H](O)[C@@H]1O)c1ccc(-c2c3nc(c(-c4c(F)cc(S(=O)(=O)[O-])cc4F)c4ccc([nH]4)c(-c4c(F)cc(S(=O)(=O)[O-])cc4F)c4nc(c(-c5c(F)cc(S(=O)(=O)[O-])cc5F)c5ccc2[nH]5)C=C4)C=C3)cc1
REMARK SMILES IDX 7 1 6 2 5 3 4 4 3 5 1 6 2 7 45 9 46 10 110 11 47 12 109 13
REMARK SMILES IDX 48 14 49 15 50 16 103 17 51 18 108 19 102 20 104 21 52 22
REMARK SMILES IDX 107 23 101 24 100 25 53 27 87 28 66 29 86 30 67 31 70 32
REMARK SMILES IDX 85 33 105 34 68 35 69 36 84 38 106 39 71 40 54 41 55 42
REMARK SMILES IDX 64 43 56 44 57 45 63 46 65 47 58 48 59 49 60 50 61 51 62 52
REMARK SMILES IDX 88 53 89 54 98 55 90 56 91 57 97 58 99 59 92 60 93 61 94 62
REMARK SMILES IDX 95 63 96 64 72 65 73 66 82 67 74 68 75 69 81 70 83 71 76 72
REMARK SMILES IDX 77 73 78 74 79 75 80 76 8 77 9 78 10 79 11 80 12 82 13 83
REMARK SMILES IDX 14 84 43 85 15 86 41 87 39 88 44 89 16 91 17 92 18 93 37 94
REMARK SMILES IDX 28 95 36 96 38 97 29 98 34 99 30 100 33 101 31 102 19 103
REMARK SMILES IDX 20 104 27 105 21 106 25 107 23 108 22 109 26 111 24 113
REMARK SMILES IDX 35 115 32 117 42 119 40 121
REMARK H PARENT 3 8 104 26 70 37 10 81 44 90 22 110 26 112 24 114 35 116
REMARK H PARENT 32 118 42 120 40 122
REMARK Flexibility Score: inf
ROOT
ATOM      1  C   UNL A   1      34.611  29.651  27.155  1.00  0.00     0.002 C 
ENDROOT
BRANCH   1   2
ATOM      2  C   UNL A   1      34.715  30.918  28.013  1.00  0.00     0.002 C 
BRANCH   2   3
ATOM      3  C   UNL A   1      34.150  32.169  27.341  1.00  0.00     0.021 C 
BRANCH   3   4
ATOM      4  C   UNL A   1      32.907  32.706  28.032  1.00  0.00     0.116 C 
BRANCH   4   5
ATOM      5  N   UNL A   1      32.956  34.156  28.141  1.00  0.00    -0.352 N 
ATOM      6  O   UNL A   1      33.527  36.106  29.127  1.00  0.00    -0.269 OA
ATOM      7  C   UNL A   1      33.770  34.916  28.937  1.00  0.00     0.251 C 
ATOM      8  H   UNL A   1      32.327  34.652  27.568  1.00  0.00     0.163 HD
BRANCH   7   9
ATOM      9  C   UNL A   1      34.943  34.279  29.563  1.00  0.00     0.039 A 
ATOM     10  C   UNL A   1      36.214  34.483  29.015  1.00  0.00     0.014 A 
ATOM     11  C   UNL A   1      34.777  33.489  30.701  1.00  0.00     0.014 A 
ATOM     12  C   UNL A   1      37.307  33.818  29.546  1.00  0.00     0.010 A 
ATOM     13  C   UNL A   1      35.893  32.893  31.289  1.00  0.00     0.010 A 
ATOM     14  C   UNL A   1      37.164  33.053  30.715  1.00  0.00    -0.014 A 
BRANCH  14  15
ATOM     15  C   UNL A   1      38.383  32.564  31.400  1.00  0.00     0.031 A 
ATOM     16  C   UNL A   1      39.233  31.477  30.813  1.00  0.00     0.074 A 
ATOM     17  C   UNL A   1      38.705  33.133  32.580  1.00  0.00     0.049 A 
ATOM     18  N   UNL A   1      40.330  30.954  31.293  1.00  0.00    -0.248 NA
ATOM     19  C   UNL A   1      38.811  30.905  29.523  1.00  0.00     0.031 C 
ATOM     20  C   UNL A   1      37.923  34.182  33.248  1.00  0.00     0.029 A 
ATOM     21  N   UNL A   1      39.758  32.920  33.430  1.00  0.00    -0.354 N 
ATOM     22  C   UNL A   1      40.717  29.973  30.389  1.00  0.00     0.074 A 
ATOM     23  C   UNL A   1      39.739  29.977  29.321  1.00  0.00     0.031 C 
ATOM     24  C   UNL A   1      38.537  34.537  34.383  1.00  0.00     0.029 A 
ATOM     25  C   UNL A   1      39.707  33.692  34.567  1.00  0.00     0.049 A 
ATOM     26  H   UNL A   1      40.480  32.278  33.243  1.00  0.00     0.167 HD
ATOM     27  C   UNL A   1      41.787  29.146  30.460  1.00  0.00     0.037 A 
ATOM     28  C   UNL A   1      40.488  33.689  35.663  1.00  0.00     0.037 A 
ATOM     29  C   UNL A   1      42.748  29.161  31.535  1.00  0.00     0.049 A 
ATOM     30  C   UNL A   1      41.644  32.732  35.720  1.00  0.00     0.074 A 
ATOM     31  C   UNL A   1      43.908  28.413  31.656  1.00  0.00     0.029 A 
ATOM     32  N   UNL A   1      42.653  29.934  32.682  1.00  0.00    -0.354 N 
ATOM     33  N   UNL A   1      42.047  31.877  34.809  1.00  0.00    -0.248 NA
ATOM     34  C   UNL A   1      42.446  32.731  36.948  1.00  0.00     0.031 C 
ATOM     35  C   UNL A   1      44.476  28.686  32.904  1.00  0.00     0.029 A 
ATOM     36  C   UNL A   1      43.707  29.649  33.535  1.00  0.00     0.049 A 
ATOM     37  H   UNL A   1      41.942  30.591  32.863  1.00  0.00     0.167 HD
ATOM     38  C   UNL A   1      43.154  31.241  35.355  1.00  0.00     0.074 A 
ATOM     39  C   UNL A   1      43.378  31.835  36.657  1.00  0.00     0.031 C 
ATOM     40  C   UNL A   1      43.912  30.248  34.831  1.00  0.00     0.037 A 
BRANCH  27  41
ATOM     41  C   UNL A   1      41.988  28.134  29.367  1.00  0.00     0.058 A 
ATOM     42  C   UNL A   1      41.137  27.029  29.216  1.00  0.00     0.135 A 
ATOM     43  C   UNL A   1      42.969  28.345  28.382  1.00  0.00     0.135 A 
ATOM     44  F   UNL A   1      40.196  26.771  30.138  1.00  0.00    -0.206 F 
ATOM     45  C   UNL A   1      41.245  26.174  28.122  1.00  0.00     0.059 A 
ATOM     46  C   UNL A   1      43.079  27.518  27.269  1.00  0.00     0.059 A 
ATOM     47  F   UNL A   1      43.812  29.385  28.483  1.00  0.00    -0.206 F 
ATOM     48  C   UNL A   1      42.210  26.435  27.147  1.00  0.00     0.060 A 
BRANCH  48  49
ATOM     49  S   UNL A   1      42.288  25.356  25.701  1.00  0.00     0.124 S 
ATOM     50  O   UNL A   1      42.533  24.056  26.321  1.00  0.00    -0.237 OA
ATOM     51  O   UNL A   1      40.968  25.536  25.109  1.00  0.00    -0.237 OA
ATOM     52  O   UNL A   1      43.400  25.900  24.928  1.00  0.00    -0.744 OA
ENDBRANCH  48  49
ENDBRANCH  27  41
BRANCH  28  53
ATOM     53  C   UNL A   1      40.166  34.574  36.813  1.00  0.00     0.058 A 
ATOM     54  C   UNL A   1      39.333  34.140  37.855  1.00  0.00     0.135 A 
ATOM     55  C   UNL A   1      40.674  35.882  36.883  1.00  0.00     0.135 A 
ATOM     56  F   UNL A   1      38.824  32.899  37.835  1.00  0.00    -0.206 F 
ATOM     57  C   UNL A   1      38.984  34.984  38.904  1.00  0.00     0.059 A 
ATOM     58  C   UNL A   1      40.368  36.731  37.939  1.00  0.00     0.059 A 
ATOM     59  F   UNL A   1      41.493  36.339  35.922  1.00  0.00    -0.206 F 
ATOM     60  C   UNL A   1      39.502  36.280  38.933  1.00  0.00     0.060 A 
BRANCH  60  61
ATOM     61  S   UNL A   1      39.040  37.369  40.296  1.00  0.00     0.124 S 
ATOM     62  O   UNL A   1      40.347  37.809  40.771  1.00  0.00    -0.237 OA
ATOM     63  O   UNL A   1      38.232  38.380  39.620  1.00  0.00    -0.237 OA
ATOM     64  O   UNL A   1      38.304  36.486  41.195  1.00  0.00    -0.744 OA
ENDBRANCH  60  61
ENDBRANCH  28  53
BRANCH  40  65
ATOM     65  C   UNL A   1      45.059  29.748  35.664  1.00  0.00     0.058 A 
ATOM     66  C   UNL A   1      46.325  30.349  35.601  1.00  0.00     0.135 A 
ATOM     67  C   UNL A   1      44.878  28.685  36.563  1.00  0.00     0.135 A 
ATOM     68  F   UNL A   1      46.554  31.359  34.747  1.00  0.00    -0.206 F 
ATOM     69  C   UNL A   1      47.380  29.901  36.388  1.00  0.00     0.059 A 
ATOM     70  C   UNL A   1      45.910  28.241  37.383  1.00  0.00     0.059 A 
ATOM     71  F   UNL A   1      43.685  28.080  36.664  1.00  0.00    -0.206 F 
ATOM     72  C   UNL A   1      47.161  28.850  37.281  1.00  0.00     0.060 A 
BRANCH  72  73
ATOM     73  S   UNL A   1      48.528  28.308  38.327  1.00  0.00     0.124 S 
ATOM     74  O   UNL A   1      49.656  29.011  37.725  1.00  0.00    -0.237 OA
ATOM     75  O   UNL A   1      48.115  28.780  39.645  1.00  0.00    -0.237 OA
ATOM     76  O   UNL A   1      48.530  26.858  38.159  1.00  0.00    -0.744 OA
ENDBRANCH  72  73
ENDBRANCH  40  65
ENDBRANCH  14  15
ENDBRANCH   7   9
ENDBRANCH   4   5
ENDBRANCH   3   4
ENDBRANCH   2   3
ENDBRANCH   1   2
BRANCH   1  77
ATOM     77  C   UNL A   1      33.171  29.171  26.932  1.00  0.00     0.021 C 
BRANCH  77  78
ATOM     78  C   UNL A   1      32.772  29.204  25.457  1.00  0.00     0.116 C 
BRANCH  78  79
ATOM     79  N   UNL A   1      31.478  28.575  25.301  1.00  0.00    -0.354 N 
ATOM     80  C   UNL A   1      31.137  27.611  24.399  1.00  0.00     0.252 C 
ATOM     81  H   UNL A   1      30.768  28.875  25.913  1.00  0.00     0.163 HD
ATOM     82  O   UNL A   1      29.957  27.528  24.048  1.00  0.00    -0.272 OA
BRANCH  80  83
ATOM     83  C   UNL A   1      32.179  26.578  23.943  1.00  0.00     0.242 C 
ATOM     84  O   UNL A   1      32.239  25.369  24.701  1.00  0.00    -0.324 OA
ATOM     85  C   UNL A   1      31.875  26.249  22.474  1.00  0.00     0.184 C 
ATOM     86  C   UNL A   1      33.282  24.480  24.321  1.00  0.00     0.340 C 
ATOM     87  C   UNL A   1      33.068  25.472  21.923  1.00  0.00     0.181 C 
ATOM     88  C   UNL A   1      33.371  24.256  22.790  1.00  0.00     0.214 C 
BRANCH  85  89
ATOM     89  O   UNL A   1      31.638  27.404  21.665  1.00  0.00    -0.387 OA
ATOM     90  H   UNL A   1      31.512  27.132  20.743  1.00  0.00     0.211 HD
ENDBRANCH  85  89
BRANCH  86  91
ATOM     91  O   UNL A   1      33.255  23.191  24.995  1.00  0.00    -0.454 OA
BRANCH  91  92
ATOM     92  C   UNL A   1      34.447  22.531  25.288  1.00  0.00     0.214 A 
ATOM     93  C   UNL A   1      34.724  21.260  24.915  1.00  0.00     0.181 A 
ATOM     94  C   UNL A   1      35.598  23.341  25.825  1.00  0.00     0.239 A 
ATOM     95  O   UNL A   1      35.916  20.607  25.138  1.00  0.00    -0.452 OA
ATOM     96  C   UNL A   1      36.939  22.681  25.869  1.00  0.00     0.111 A 
ATOM     97  O   UNL A   1      35.417  24.495  26.196  1.00  0.00    -0.285 OA
ATOM     98  C   UNL A   1      37.004  21.332  25.526  1.00  0.00     0.146 A 
ATOM     99  C   UNL A   1      38.139  23.327  26.212  1.00  0.00     0.134 A 
ATOM    100  C   UNL A   1      38.210  20.628  25.548  1.00  0.00     0.094 A 
ATOM    101  C   UNL A   1      39.362  22.636  26.209  1.00  0.00     0.093 A 
ATOM    102  C   UNL A   1      39.383  21.287  25.879  1.00  0.00     0.123 A 
BRANCH  93 103
ATOM    103  C   UNL A   1      33.742  20.350  24.309  1.00  0.00     0.029 A 
ATOM    104  C   UNL A   1      32.927  20.858  23.278  1.00  0.00     0.062 A 
ATOM    105  C   UNL A   1      33.691  18.986  24.637  1.00  0.00     0.062 A 
ATOM    106  C   UNL A   1      32.197  19.981  22.490  1.00  0.00     0.162 A 
ATOM    107  C   UNL A   1      32.921  18.131  23.856  1.00  0.00     0.162 A 
ATOM    108  C   UNL A   1      32.215  18.618  22.761  1.00  0.00     0.200 A 
BRANCH 106 109
ATOM    109  O   UNL A   1      31.550  20.472  21.394  1.00  0.00    -0.504 OA
ATOM    110  H   UNL A   1      32.010  20.571  20.584  1.00  0.00     0.293 HD
ENDBRANCH 106 109
BRANCH 107 111
ATOM    111  O   UNL A   1      32.954  16.790  24.111  1.00  0.00    -0.504 OA
ATOM    112  H   UNL A   1      33.532  16.451  24.766  1.00  0.00     0.293 HD
ENDBRANCH 107 111
BRANCH 108 113
ATOM    113  O   UNL A   1      31.642  17.734  21.888  1.00  0.00    -0.502 OA
ATOM    114  H   UNL A   1      32.181  17.159  21.382  1.00  0.00     0.293 HD
ENDBRANCH 108 113
ENDBRANCH  93 103
BRANCH  99 115
ATOM    115  O   UNL A   1      38.154  24.648  26.566  1.00  0.00    -0.507 OA
ATOM    116  H   UNL A   1      37.878  24.906  27.423  1.00  0.00     0.293 HD
ENDBRANCH  99 115
BRANCH 102 117
ATOM    117  O   UNL A   1      40.535  20.564  25.874  1.00  0.00    -0.508 OA
ATOM    118  H   UNL A   1      41.333  20.953  26.173  1.00  0.00     0.293 HD
ENDBRANCH 102 117
ENDBRANCH  91  92
ENDBRANCH  86  91
BRANCH  87 119
ATOM    119  O   UNL A   1      32.789  25.074  20.563  1.00  0.00    -0.387 OA
ATOM    120  H   UNL A   1      32.579  25.859  20.034  1.00  0.00     0.211 HD
ENDBRANCH  87 119
BRANCH  88 121
ATOM    121  O   UNL A   1      34.617  23.687  22.367  1.00  0.00    -0.384 OA
ATOM    122  H   UNL A   1      35.295  23.856  23.040  1.00  0.00     0.211 HD
ENDBRANCH  88 121
ENDBRANCH  80  83
ENDBRANCH  78  79
ENDBRANCH  77  78
ENDBRANCH   1  77
TORSDOF 27
ENDMDL
MODEL 3
REMARK VINA RESULT:     -11.4      5.453      7.334
REMARK SMILES O=C(NCCCCCCNC(=O)[C@H]1O[C@@H](Oc2c(-c3cc(O)c(O)c(O)c3)oc3cc(O)cc(O)c3c2=O)[C@H](O)[C@@H](O)[C@@H]1O)c1ccc(-c2c3nc(c(-c4c(F)cc(S(=O)(=O)[O-])cc4F)c4ccc([nH]4)c(-c4c(F)cc(S(=O)(=O)[O-])cc4F)c4nc(c(-c5c(F)cc(S(=O)(=O)[O-])cc5F)c5ccc2[nH]5)C=C4)C=C3)cc1
REMARK SMILES IDX 7 1 6 2 5 3 4 4 3 5 1 6 2 7 45 9 46 10 110 11 47 12 109 13
REMARK SMILES IDX 48 14 49 15 50 16 103 17 51 18 108 19 102 20 104 21 52 22
REMARK SMILES IDX 107 23 101 24 100 25 53 27 87 28 66 29 86 30 67 31 70 32
REMARK SMILES IDX 85 33 105 34 68 35 69 36 84 38 106 39 71 40 54 41 55 42
REMARK SMILES IDX 64 43 56 44 57 45 63 46 65 47 58 48 59 49 60 50 61 51 62 52
REMARK SMILES IDX 88 53 89 54 98 55 90 56 91 57 97 58 99 59 92 60 93 61 94 62
REMARK SMILES IDX 95 63 96 64 72 65 73 66 82 67 74 68 75 69 81 70 83 71 76 72
REMARK SMILES IDX 77 73 78 74 79 75 80 76 8 77 9 78 10 79 11 80 12 82 13 83
REMARK SMILES IDX 14 84 43 85 15 86 41 87 39 88 44 89 16 91 17 92 18 93 37 94
REMARK SMILES IDX 28 95 36 96 38 97 29 98 34 99 30 100 33 101 31 102 19 103
REMARK SMILES IDX 20 104 27 105 21 106 25 107 23 108 22 109 26 111 24 113
REMARK SMILES IDX 35 115 32 117 42 119 40 121
REMARK H PARENT 3 8 104 26 70 37 10 81 44 90 22 110 26 112 24 114 35 116
REMARK H PARENT 32 118 42 120 40 122
REMARK Flexibility Score: inf
ROOT
ATOM      1  C   UNL A   1      33.969  29.117  26.864  1.00  0.00     0.002 C 
ENDROOT
BRANCH   1   2
ATOM      2  C   UNL A   1      34.593  30.261  27.672  1.00  0.00     0.002 C 
BRANCH   2   3
ATOM      3  C   UNL A   1      34.173  31.653  27.200  1.00  0.00     0.021 C 
BRANCH   3   4
ATOM      4  C   UNL A   1      32.908  32.155  27.879  1.00  0.00     0.116 C 
BRANCH   4   5
ATOM      5  N   UNL A   1      32.894  33.609  27.943  1.00  0.00    -0.352 N 
ATOM      6  O   UNL A   1      33.362  35.611  28.878  1.00  0.00    -0.269 OA
ATOM      7  C   UNL A   1      33.658  34.427  28.730  1.00  0.00     0.251 C 
ATOM      8  H   UNL A   1      32.255  34.060  27.344  1.00  0.00     0.163 HD
BRANCH   7   9
ATOM      9  C   UNL A   1      34.846  33.861  29.396  1.00  0.00     0.039 A 
ATOM     10  C   UNL A   1      36.123  34.221  28.953  1.00  0.00     0.014 A 
ATOM     11  C   UNL A   1      34.685  32.982  30.468  1.00  0.00     0.014 A 
ATOM     12  C   UNL A   1      37.240  33.625  29.518  1.00  0.00     0.010 A 
ATOM     13  C   UNL A   1      35.814  32.453  31.095  1.00  0.00     0.010 A 
ATOM     14  C   UNL A   1      37.097  32.771  30.623  1.00  0.00    -0.014 A 
BRANCH  14  15
ATOM     15  C   UNL A   1      38.312  32.352  31.361  1.00  0.00     0.031 A 
ATOM     16  C   UNL A   1      38.666  32.944  32.692  1.00  0.00     0.074 A 
ATOM     17  C   UNL A   1      39.096  31.416  30.788  1.00  0.00     0.049 A 
ATOM     18  N   UNL A   1      39.690  32.670  33.456  1.00  0.00    -0.248 NA
ATOM     19  C   UNL A   1      37.761  33.963  33.247  1.00  0.00     0.031 C 
ATOM     20  C   UNL A   1      38.849  30.799  29.479  1.00  0.00     0.029 A 
ATOM     21  N   UNL A   1      40.251  30.817  31.217  1.00  0.00    -0.354 N 
ATOM     22  C   UNL A   1      39.577  33.499  34.565  1.00  0.00     0.074 A 
ATOM     23  C   UNL A   1      38.375  34.284  34.380  1.00  0.00     0.031 C 
ATOM     24  C   UNL A   1      39.803  29.894  29.227  1.00  0.00     0.029 A 
ATOM     25  C   UNL A   1      40.772  29.921  30.313  1.00  0.00     0.049 A 
ATOM     26  H   UNL A   1      40.667  31.009  32.089  1.00  0.00     0.167 HD
ATOM     27  C   UNL A   1      40.411  33.593  35.627  1.00  0.00     0.037 A 
ATOM     28  C   UNL A   1      41.926  29.231  30.330  1.00  0.00     0.037 A 
ATOM     29  C   UNL A   1      41.604  32.799  35.790  1.00  0.00     0.049 A 
ATOM     30  C   UNL A   1      42.842  29.389  31.510  1.00  0.00     0.074 A 
ATOM     31  C   UNL A   1      42.471  32.768  36.870  1.00  0.00     0.029 A 
ATOM     32  N   UNL A   1      42.116  31.922  34.845  1.00  0.00    -0.354 N 
ATOM     33  N   UNL A   1      42.667  30.109  32.593  1.00  0.00    -0.248 NA
ATOM     34  C   UNL A   1      44.110  28.651  31.470  1.00  0.00     0.031 C 
ATOM     35  C   UNL A   1      43.539  31.926  36.549  1.00  0.00     0.029 A 
ATOM     36  C   UNL A   1      43.308  31.382  35.297  1.00  0.00     0.049 A 
ATOM     37  H   UNL A   1      41.693  31.714  33.980  1.00  0.00     0.167 HD
ATOM     38  C   UNL A   1      43.802  29.905  33.366  1.00  0.00     0.074 A 
ATOM     39  C   UNL A   1      44.638  28.968  32.644  1.00  0.00     0.031 C 
ATOM     40  C   UNL A   1      44.130  30.452  34.562  1.00  0.00     0.037 A 
BRANCH  27  41
ATOM     41  C   UNL A   1      40.094  34.594  36.704  1.00  0.00     0.058 A 
ATOM     42  C   UNL A   1      39.276  34.272  37.797  1.00  0.00     0.135 A 
ATOM     43  C   UNL A   1      40.724  35.851  36.705  1.00  0.00     0.135 A 
ATOM     44  F   UNL A   1      38.637  33.092  37.836  1.00  0.00    -0.206 F 
ATOM     45  C   UNL A   1      39.101  35.156  38.857  1.00  0.00     0.059 A 
ATOM     46  C   UNL A   1      40.582  36.741  37.765  1.00  0.00     0.059 A 
ATOM     47  F   UNL A   1      41.513  36.211  35.679  1.00  0.00    -0.206 F 
ATOM     48  C   UNL A   1      39.768  36.383  38.838  1.00  0.00     0.060 A 
BRANCH  48  49
ATOM     49  S   UNL A   1      39.583  37.487  40.255  1.00  0.00     0.124 S 
ATOM     50  O   UNL A   1      39.846  36.578  41.368  1.00  0.00    -0.237 OA
ATOM     51  O   UNL A   1      40.611  38.490  40.002  1.00  0.00    -0.237 OA
ATOM     52  O   UNL A   1      38.207  37.959  40.144  1.00  0.00    -0.744 OA
ENDBRANCH  48  49
ENDBRANCH  27  41
BRANCH  28  53
ATOM     53  C   UNL A   1      42.307  28.382  29.170  1.00  0.00     0.058 A 
ATOM     54  C   UNL A   1      41.710  27.132  28.956  1.00  0.00     0.135 A 
ATOM     55  C   UNL A   1      43.294  28.801  28.261  1.00  0.00     0.135 A 
ATOM     56  F   UNL A   1      40.762  26.688  29.795  1.00  0.00    -0.206 F 
ATOM     57  C   UNL A   1      42.104  26.310  27.904  1.00  0.00     0.059 A 
ATOM     58  C   UNL A   1      43.678  28.013  27.183  1.00  0.00     0.059 A 
ATOM     59  F   UNL A   1      43.881  29.998  28.409  1.00  0.00    -0.206 F 
ATOM     60  C   UNL A   1      43.093  26.758  27.027  1.00  0.00     0.060 A 
BRANCH  60  61
ATOM     61  S   UNL A   1      43.600  25.683  25.669  1.00  0.00     0.124 S 
ATOM     62  O   UNL A   1      44.736  26.421  25.126  1.00  0.00    -0.237 OA
ATOM     63  O   UNL A   1      43.918  24.440  26.364  1.00  0.00    -0.237 OA
ATOM     64  O   UNL A   1      42.414  25.634  24.820  1.00  0.00    -0.744 OA
ENDBRANCH  60  61
ENDBRANCH  28  53
BRANCH  40  65
ATOM     65  C   UNL A   1      45.443  30.042  35.167  1.00  0.00     0.058 A 
ATOM     66  C   UNL A   1      45.549  28.910  35.989  1.00  0.00     0.135 A 
ATOM     67  C   UNL A   1      46.614  30.764  34.888  1.00  0.00     0.135 A 
ATOM     68  F   UNL A   1      44.456  28.193  36.297  1.00  0.00    -0.206 F 
ATOM     69  C   UNL A   1      46.767  28.518  36.530  1.00  0.00     0.059 A 
ATOM     70  C   UNL A   1      47.849  30.372  35.393  1.00  0.00     0.059 A 
ATOM     71  F   UNL A   1      46.567  31.852  34.104  1.00  0.00    -0.206 F 
ATOM     72  C   UNL A   1      47.913  29.252  36.221  1.00  0.00     0.060 A 
BRANCH  72  73
ATOM     73  S   UNL A   1      49.495  28.706  36.896  1.00  0.00     0.124 S 
ATOM     74  O   UNL A   1      50.053  29.960  37.391  1.00  0.00    -0.237 OA
ATOM     75  O   UNL A   1      49.083  27.748  37.917  1.00  0.00    -0.237 OA
ATOM     76  O   UNL A   1      50.176  28.128  35.741  1.00  0.00    -0.744 OA
ENDBRANCH  72  73
ENDBRANCH  40  65
ENDBRANCH  14  15
ENDBRANCH   7   9
ENDBRANCH   4   5
ENDBRANCH   3   4
ENDBRANCH   2   3
ENDBRANCH   1   2
BRANCH   1  77
ATOM     77  C   UNL A   1      32.496  29.347  26.499  1.00  0.00     0.021 C 
BRANCH  77  78
ATOM     78  C   UNL A   1      32.237  29.165  25.004  1.00  0.00     0.116 C 
BRANCH  78  79
ATOM     79  N   UNL A   1      31.000  28.435  24.823  1.00  0.00    -0.354 N 
ATOM     80  C   UNL A   1      30.780  27.393  23.973  1.00  0.00     0.252 C 
ATOM     81  H   UNL A   1      30.236  28.723  25.373  1.00  0.00     0.163 HD
ATOM     82  O   UNL A   1      29.631  27.201  23.565  1.00  0.00    -0.272 OA
BRANCH  80  83
ATOM     83  C   UNL A   1      31.916  26.409  23.647  1.00  0.00     0.242 C 
ATOM     84  O   UNL A   1      32.011  25.259  24.488  1.00  0.00    -0.324 OA
ATOM     85  C   UNL A   1      31.724  25.966  22.190  1.00  0.00     0.184 C 
ATOM     86  C   UNL A   1      33.133  24.425  24.229  1.00  0.00     0.340 C 
ATOM     87  C   UNL A   1      32.998  25.243  21.761  1.00  0.00     0.181 C 
ATOM     88  C   UNL A   1      33.330  24.109  22.724  1.00  0.00     0.214 C 
BRANCH  85  89
ATOM     89  O   UNL A   1      31.459  27.046  21.292  1.00  0.00    -0.387 OA
ATOM     90  H   UNL A   1      30.716  27.571  21.629  1.00  0.00     0.211 HD
ENDBRANCH  85  89
BRANCH  86  91
ATOM     91  O   UNL A   1      33.153  23.183  24.987  1.00  0.00    -0.454 OA
BRANCH  91  92
ATOM     92  C   UNL A   1      34.368  22.577  25.303  1.00  0.00     0.214 A 
ATOM     93  C   UNL A   1      34.701  21.313  24.953  1.00  0.00     0.181 A 
ATOM     94  C   UNL A   1      35.478  23.441  25.841  1.00  0.00     0.239 A 
ATOM     95  O   UNL A   1      35.916  20.713  25.198  1.00  0.00    -0.452 OA
ATOM     96  C   UNL A   1      36.844  22.837  25.910  1.00  0.00     0.111 A 
ATOM     97  O   UNL A   1      35.245  24.592  26.192  1.00  0.00    -0.285 OA
ATOM     98  C   UNL A   1      36.969  21.488  25.588  1.00  0.00     0.146 A 
ATOM     99  C   UNL A   1      38.013  23.538  26.256  1.00  0.00     0.134 A 
ATOM    100  C   UNL A   1      38.203  20.835  25.634  1.00  0.00     0.094 A 
ATOM    101  C   UNL A   1      39.263  22.898  26.277  1.00  0.00     0.093 A 
ATOM    102  C   UNL A   1      39.343  21.546  25.967  1.00  0.00     0.123 A 
BRANCH  93 103
ATOM    103  C   UNL A   1      33.764  20.355  24.349  1.00  0.00     0.029 A 
ATOM    104  C   UNL A   1      32.886  20.833  23.357  1.00  0.00     0.062 A 
ATOM    105  C   UNL A   1      33.815  18.983  24.640  1.00  0.00     0.062 A 
ATOM    106  C   UNL A   1      32.193  19.930  22.566  1.00  0.00     0.162 A 
ATOM    107  C   UNL A   1      33.081  18.098  23.857  1.00  0.00     0.162 A 
ATOM    108  C   UNL A   1      32.311  18.565  22.797  1.00  0.00     0.200 A 
BRANCH 106 109
ATOM    109  O   UNL A   1      31.480  20.405  21.504  1.00  0.00    -0.504 OA
ATOM    110  H   UNL A   1      31.599  21.289  21.218  1.00  0.00     0.293 HD
ENDBRANCH 106 109
BRANCH 107 111
ATOM    111  O   UNL A   1      33.212  16.756  24.072  1.00  0.00    -0.504 OA
ATOM    112  H   UNL A   1      32.756  16.349  24.783  1.00  0.00     0.293 HD
ENDBRANCH 107 111
BRANCH 108 113
ATOM    113  O   UNL A   1      31.772  17.667  21.916  1.00  0.00    -0.502 OA
ATOM    114  H   UNL A   1      30.852  17.487  21.934  1.00  0.00     0.293 HD
ENDBRANCH 108 113
ENDBRANCH  93 103
BRANCH  99 115
ATOM    115  O   UNL A   1      37.969  24.863  26.590  1.00  0.00    -0.507 OA
ATOM    116  H   UNL A   1      38.517  25.191  27.275  1.00  0.00     0.293 HD
ENDBRANCH  99 115
BRANCH 102 117
ATOM    117  O   UNL A   1      40.524  20.871  25.986  1.00  0.00    -0.508 OA
ATOM    118  H   UNL A   1      41.122  20.954  25.269  1.00  0.00     0.293 HD
ENDBRANCH 102 117
ENDBRANCH  91  92
ENDBRANCH  86  91
BRANCH  87 119
ATOM    119  O   UNL A   1      32.830  24.739  20.418  1.00  0.00    -0.387 OA
ATOM    120  H   UNL A   1      33.572  25.034  19.867  1.00  0.00     0.211 HD
ENDBRANCH  87 119
BRANCH  88 121
ATOM    121  O   UNL A   1      34.635  23.605  22.411  1.00  0.00    -0.384 OA
ATOM    122  H   UNL A   1      34.850  22.872  23.009  1.00  0.00     0.211 HD
ENDBRANCH  88 121
ENDBRANCH  80  83
ENDBRANCH  78  79
ENDBRANCH  77  78
ENDBRANCH   1  77
TORSDOF 27
ENDMDL
