MODEL 1
REMARK VINA RESULT:     -12.1      0.000      0.000
REMARK SMILES CCc1ccc(S(=O)(=O)c2nnn(-c3ccc(C(=O)NCCCCCCNC(=O)c4ccc(-c5c6nc(c(-c7c(F)cc(S(=O)(=O)[O-])cc7F)c7ccc([nH]7)c(-c7c(F)cc(S(=O)(=O)[O-])cc7F)c7nc(c(-c8c(F)cc(S(=O)(=O)[O-])cc8F)c8ccc5[nH]8)C=C7)C=C6)cc4)cc3)c2C)cc1
REMARK SMILES IDX 23 1 22 2 21 3 20 4 18 5 19 6 17 8 14 9 15 10 97 11 16 12
REMARK SMILES IDX 96 13 13 14 10 15 11 16 98 17 12 18 99 19 7 20 8 21 9 22
REMARK SMILES IDX 6 23 3 24 4 25 101 26 5 27 100 28 2 29 1 30 24 31 25 32
REMARK SMILES IDX 26 33 27 34 28 35 29 37 30 38 31 39 95 40 32 41 94 42 33 43
REMARK SMILES IDX 34 44 35 45 88 46 36 47 93 48 87 49 89 50 37 51 92 52 86 53
REMARK SMILES IDX 85 54 38 56 72 57 51 58 71 59 52 60 55 61 70 62 90 63 53 64
REMARK SMILES IDX 54 65 69 67 91 68 56 69 39 70 40 71 49 72 41 73 42 74 48 75
REMARK SMILES IDX 50 76 43 77 44 78 45 79 46 80 47 81 73 82 74 83 83 84 75 85
REMARK SMILES IDX 76 86 82 87 84 88 77 89 78 90 79 91 80 92 81 93 57 94 58 95
REMARK SMILES IDX 67 96 59 97 60 98 66 99 68 100 61 101 62 102 63 103 64 104
REMARK SMILES IDX 65 105
REMARK H PARENT 20 7 27 36 89 55 55 66
REMARK Flexibility Score: inf
ROOT
ATOM      1  C   UNL A   1      33.016  28.523  27.235  1.00  0.00     0.002 C 
ENDROOT
BRANCH   1   2
ATOM      2  C   UNL A   1      31.822  29.486  27.225  1.00  0.00     0.021 C 
BRANCH   2   3
ATOM      3  C   UNL A   1      32.038  30.721  26.347  1.00  0.00     0.116 C 
BRANCH   3   4
ATOM      4  N   UNL A   1      31.004  30.818  25.332  1.00  0.00    -0.352 N 
ATOM      5  C   UNL A   1      30.718  30.078  24.211  1.00  0.00     0.251 C 
ATOM      6  O   UNL A   1      29.714  30.388  23.570  1.00  0.00    -0.269 OA
ATOM      7  H   UNL A   1      30.383  31.567  25.476  1.00  0.00     0.163 HD
BRANCH   5   8
ATOM      8  C   UNL A   1      31.498  28.875  23.802  1.00  0.00     0.039 A 
ATOM      9  C   UNL A   1      32.949  26.516  23.421  1.00  0.00     0.067 A 
ATOM     10  C   UNL A   1      31.603  26.434  23.775  1.00  0.00     0.029 A 
ATOM     11  C   UNL A   1      33.531  27.750  23.121  1.00  0.00     0.029 A 
ATOM     12  C   UNL A   1      30.894  27.619  23.998  1.00  0.00     0.016 A 
ATOM     13  C   UNL A   1      32.782  28.919  23.256  1.00  0.00     0.016 A 
BRANCH   9  14
ATOM     14  N   UNL A   1      33.748  25.357  23.429  1.00  0.00    -0.216 N 
ATOM     15  C   UNL A   1      35.015  23.682  23.989  1.00  0.00     0.205 A 
ATOM     16  N   UNL A   1      34.782  23.626  22.641  1.00  0.00    -0.117 NA
ATOM     17  C   UNL A   1      34.268  24.711  24.540  1.00  0.00     0.081 A 
ATOM     18  N   UNL A   1      33.924  24.589  22.332  1.00  0.00    -0.061 NA
ATOM     19  C   UNL A   1      33.879  25.016  25.940  1.00  0.00     0.070 C 
BRANCH  15  20
ATOM     20  S   UNL A   1      35.880  22.445  24.826  1.00  0.00     0.227 S 
ATOM     21  O   UNL A   1      36.019  22.930  26.172  1.00  0.00    -0.217 OA
ATOM     22  O   UNL A   1      37.028  22.116  23.985  1.00  0.00    -0.217 OA
BRANCH  20  23
ATOM     23  C   UNL A   1      34.834  21.013  24.874  1.00  0.00     0.073 A 
ATOM     24  C   UNL A   1      33.283  18.687  24.992  1.00  0.00    -0.048 A 
ATOM     25  C   UNL A   1      34.658  18.610  24.730  1.00  0.00     0.005 A 
ATOM     26  C   UNL A   1      32.695  19.942  25.201  1.00  0.00     0.005 A 
ATOM     27  C   UNL A   1      35.435  19.768  24.676  1.00  0.00     0.021 A 
ATOM     28  C   UNL A   1      33.463  21.105  25.132  1.00  0.00     0.021 A 
BRANCH  24  29
ATOM     29  C   UNL A   1      32.442  17.437  25.048  1.00  0.00     0.032 C 
ATOM     30  C   UNL A   1      33.216  16.202  24.614  1.00  0.00     0.009 C 
ENDBRANCH  24  29
ENDBRANCH  20  23
ENDBRANCH  15  20
ENDBRANCH   9  14
ENDBRANCH   5   8
ENDBRANCH   3   4
ENDBRANCH   2   3
ENDBRANCH   1   2
BRANCH   1  31
ATOM     31  C   UNL A   1      34.332  29.079  26.669  1.00  0.00     0.002 C 
BRANCH  31  32
ATOM     32  C   UNL A   1      35.359  29.593  27.689  1.00  0.00     0.021 C 
BRANCH  32  33
ATOM     33  C   UNL A   1      35.594  31.097  27.640  1.00  0.00     0.116 C 
BRANCH  33  34
ATOM     34  N   UNL A   1      35.171  31.762  28.874  1.00  0.00    -0.352 N 
ATOM     35  C   UNL A   1      35.642  31.582  30.160  1.00  0.00     0.251 C 
ATOM     36  H   UNL A   1      34.452  32.428  28.774  1.00  0.00     0.163 HD
ATOM     37  O   UNL A   1      34.962  31.913  31.124  1.00  0.00    -0.269 OA
BRANCH  35  38
ATOM     38  C   UNL A   1      36.972  30.978  30.350  1.00  0.00     0.039 A 
ATOM     39  C   UNL A   1      37.122  29.616  30.612  1.00  0.00     0.014 A 
ATOM     40  C   UNL A   1      38.085  31.800  30.209  1.00  0.00     0.014 A 
ATOM     41  C   UNL A   1      38.406  29.073  30.636  1.00  0.00     0.010 A 
ATOM     42  C   UNL A   1      39.329  31.238  30.065  1.00  0.00     0.010 A 
ATOM     43  C   UNL A   1      39.511  29.885  30.332  1.00  0.00    -0.014 A 
BRANCH  43  44
ATOM     44  C   UNL A   1      40.851  29.309  30.221  1.00  0.00     0.031 A 
ATOM     45  C   UNL A   1      41.582  29.110  31.506  1.00  0.00     0.074 A 
ATOM     46  C   UNL A   1      41.350  28.793  29.076  1.00  0.00     0.049 A 
ATOM     47  N   UNL A   1      42.644  29.724  31.914  1.00  0.00    -0.248 NA
ATOM     48  C   UNL A   1      41.005  28.198  32.504  1.00  0.00     0.031 C 
ATOM     49  C   UNL A   1      40.685  28.607  27.781  1.00  0.00     0.029 A 
ATOM     50  N   UNL A   1      42.563  28.211  28.870  1.00  0.00    -0.354 N 
ATOM     51  C   UNL A   1      42.997  29.131  33.125  1.00  0.00     0.074 A 
ATOM     52  C   UNL A   1      41.868  28.326  33.516  1.00  0.00     0.031 C 
ATOM     53  C   UNL A   1      41.399  27.747  27.024  1.00  0.00     0.029 A 
ATOM     54  C   UNL A   1      42.655  27.479  27.695  1.00  0.00     0.049 A 
ATOM     55  H   UNL A   1      43.312  28.303  29.502  1.00  0.00     0.167 HD
ATOM     56  C   UNL A   1      44.274  29.181  33.602  1.00  0.00     0.037 A 
ATOM     57  C   UNL A   1      43.684  26.689  27.306  1.00  0.00     0.037 A 
ATOM     58  C   UNL A   1      45.051  30.183  32.916  1.00  0.00     0.049 A 
ATOM     59  C   UNL A   1      44.885  27.148  28.051  1.00  0.00     0.074 A 
ATOM     60  C   UNL A   1      44.916  31.546  32.718  1.00  0.00     0.029 A 
ATOM     61  N   UNL A   1      45.960  29.766  31.973  1.00  0.00    -0.354 N 
ATOM     62  N   UNL A   1      45.440  28.320  27.885  1.00  0.00    -0.248 NA
ATOM     63  C   UNL A   1      45.200  26.486  29.307  1.00  0.00     0.031 C 
ATOM     64  C   UNL A   1      45.330  31.762  31.370  1.00  0.00     0.029 A 
ATOM     65  C   UNL A   1      45.756  30.536  30.856  1.00  0.00     0.049 A 
ATOM     66  H   UNL A   1      46.629  29.053  32.079  1.00  0.00     0.167 HD
ATOM     67  C   UNL A   1      45.809  28.725  29.159  1.00  0.00     0.074 A 
ATOM     68  C   UNL A   1      45.726  27.515  29.976  1.00  0.00     0.031 C 
ATOM     69  C   UNL A   1      45.880  30.046  29.498  1.00  0.00     0.037 A 
BRANCH  56  70
ATOM     70  C   UNL A   1      44.922  28.108  34.447  1.00  0.00     0.058 A 
ATOM     71  C   UNL A   1      45.002  26.787  33.953  1.00  0.00     0.135 A 
ATOM     72  C   UNL A   1      45.210  28.260  35.821  1.00  0.00     0.135 A 
ATOM     73  F   UNL A   1      44.745  26.522  32.663  1.00  0.00    -0.206 F 
ATOM     74  C   UNL A   1      45.266  25.694  34.780  1.00  0.00     0.059 A 
ATOM     75  C   UNL A   1      45.531  27.191  36.651  1.00  0.00     0.059 A 
ATOM     76  F   UNL A   1      45.093  29.436  36.449  1.00  0.00    -0.206 F 
ATOM     77  C   UNL A   1      45.510  25.906  36.133  1.00  0.00     0.060 A 
BRANCH  77  78
ATOM     78  S   UNL A   1      45.727  24.493  37.228  1.00  0.00     0.124 S 
ATOM     79  O   UNL A   1      47.064  24.042  36.855  1.00  0.00    -0.237 OA
ATOM     80  O   UNL A   1      45.603  25.107  38.545  1.00  0.00    -0.237 OA
ATOM     81  O   UNL A   1      44.632  23.605  36.850  1.00  0.00    -0.744 OA
ENDBRANCH  77  78
ENDBRANCH  56  70
BRANCH  57  82
ATOM     82  C   UNL A   1      43.605  25.390  26.591  1.00  0.00     0.058 A 
ATOM     83  C   UNL A   1      44.244  25.201  25.355  1.00  0.00     0.135 A 
ATOM     84  C   UNL A   1      43.133  24.224  27.232  1.00  0.00     0.135 A 
ATOM     85  F   UNL A   1      44.739  26.252  24.685  1.00  0.00    -0.206 F 
ATOM     86  C   UNL A   1      44.455  23.930  24.811  1.00  0.00     0.059 A 
ATOM     87  C   UNL A   1      43.319  22.948  26.703  1.00  0.00     0.059 A 
ATOM     88  F   UNL A   1      42.558  24.280  28.443  1.00  0.00    -0.206 F 
ATOM     89  C   UNL A   1      44.006  22.806  25.506  1.00  0.00     0.060 A 
BRANCH  89  90
ATOM     90  S   UNL A   1      44.442  21.157  24.906  1.00  0.00     0.124 S 
ATOM     91  O   UNL A   1      44.604  21.390  23.475  1.00  0.00    -0.237 OA
ATOM     92  O   UNL A   1      45.665  20.873  25.650  1.00  0.00    -0.237 OA
ATOM     93  O   UNL A   1      43.286  20.346  25.281  1.00  0.00    -0.744 OA
ENDBRANCH  89  90
ENDBRANCH  57  82
BRANCH  69  94
ATOM     94  C   UNL A   1      45.839  31.084  28.403  1.00  0.00     0.058 A 
ATOM     95  C   UNL A   1      44.659  31.621  27.856  1.00  0.00     0.135 A 
ATOM     96  C   UNL A   1      47.048  31.681  28.013  1.00  0.00     0.135 A 
ATOM     97  F   UNL A   1      43.455  31.186  28.249  1.00  0.00    -0.206 F 
ATOM     98  C   UNL A   1      44.684  32.674  26.939  1.00  0.00     0.059 A 
ATOM     99  C   UNL A   1      47.095  32.753  27.124  1.00  0.00     0.059 A 
ATOM    100  F   UNL A   1      48.208  31.259  28.543  1.00  0.00    -0.206 F 
ATOM    101  C   UNL A   1      45.908  33.238  26.581  1.00  0.00     0.060 A 
BRANCH 101 102
ATOM    102  S   UNL A   1      45.930  34.655  25.462  1.00  0.00     0.124 S 
ATOM    103  O   UNL A   1      44.999  34.238  24.419  1.00  0.00    -0.237 OA
ATOM    104  O   UNL A   1      45.476  35.746  26.320  1.00  0.00    -0.237 OA
ATOM    105  O   UNL A   1      47.330  34.743  25.050  1.00  0.00    -0.744 OA
ENDBRANCH 101 102
ENDBRANCH  69  94
ENDBRANCH  43  44
ENDBRANCH  35  38
ENDBRANCH  33  34
ENDBRANCH  32  33
ENDBRANCH  31  32
ENDBRANCH   1  31
TORSDOF 20
ENDMDL
MODEL 2
REMARK VINA RESULT:     -11.7      1.510      2.407
REMARK SMILES CCc1ccc(S(=O)(=O)c2nnn(-c3ccc(C(=O)NCCCCCCNC(=O)c4ccc(-c5c6nc(c(-c7c(F)cc(S(=O)(=O)[O-])cc7F)c7ccc([nH]7)c(-c7c(F)cc(S(=O)(=O)[O-])cc7F)c7nc(c(-c8c(F)cc(S(=O)(=O)[O-])cc8F)c8ccc5[nH]8)C=C7)C=C6)cc4)cc3)c2C)cc1
REMARK SMILES IDX 23 1 22 2 21 3 20 4 18 5 19 6 17 8 14 9 15 10 97 11 16 12
REMARK SMILES IDX 96 13 13 14 10 15 11 16 98 17 12 18 99 19 7 20 8 21 9 22
REMARK SMILES IDX 6 23 3 24 4 25 101 26 5 27 100 28 2 29 1 30 24 31 25 32
REMARK SMILES IDX 26 33 27 34 28 35 29 37 30 38 31 39 95 40 32 41 94 42 33 43
REMARK SMILES IDX 34 44 35 45 88 46 36 47 93 48 87 49 89 50 37 51 92 52 86 53
REMARK SMILES IDX 85 54 38 56 72 57 51 58 71 59 52 60 55 61 70 62 90 63 53 64
REMARK SMILES IDX 54 65 69 67 91 68 56 69 39 70 40 71 49 72 41 73 42 74 48 75
REMARK SMILES IDX 50 76 43 77 44 78 45 79 46 80 47 81 73 82 74 83 83 84 75 85
REMARK SMILES IDX 76 86 82 87 84 88 77 89 78 90 79 91 80 92 81 93 57 94 58 95
REMARK SMILES IDX 67 96 59 97 60 98 66 99 68 100 61 101 62 102 63 103 64 104
REMARK SMILES IDX 65 105
REMARK H PARENT 20 7 27 36 89 55 55 66
REMARK Flexibility Score: inf
ROOT
ATOM      1  C   UNL A   1      32.775  28.899  26.956  1.00  0.00     0.002 C 
ENDROOT
BRANCH   1   2
ATOM      2  C   UNL A   1      31.558  29.441  26.195  1.00  0.00     0.021 C 
BRANCH   2   3
ATOM      3  C   UNL A   1      31.857  29.800  24.737  1.00  0.00     0.116 C 
BRANCH   3   4
ATOM      4  N   UNL A   1      30.641  29.776  23.943  1.00  0.00    -0.352 N 
ATOM      5  C   UNL A   1      30.018  28.796  23.211  1.00  0.00     0.251 C 
ATOM      6  O   UNL A   1      28.942  29.082  22.684  1.00  0.00    -0.269 OA
ATOM      7  H   UNL A   1      30.169  30.640  23.924  1.00  0.00     0.163 HD
BRANCH   5   8
ATOM      8  C   UNL A   1      30.525  27.398  23.114  1.00  0.00     0.039 A 
ATOM      9  C   UNL A   1      31.559  24.809  23.320  1.00  0.00     0.067 A 
ATOM     10  C   UNL A   1      30.358  25.112  23.960  1.00  0.00     0.029 A 
ATOM     11  C   UNL A   1      32.167  25.738  22.473  1.00  0.00     0.029 A 
ATOM     12  C   UNL A   1      29.866  26.419  23.880  1.00  0.00     0.016 A 
ATOM     13  C   UNL A   1      31.612  27.009  22.328  1.00  0.00     0.016 A 
BRANCH   9  14
ATOM     14  N   UNL A   1      32.203  23.584  23.580  1.00  0.00    -0.216 N 
ATOM     15  C   UNL A   1      33.391  21.973  24.426  1.00  0.00     0.205 A 
ATOM     16  N   UNL A   1      32.791  21.522  23.282  1.00  0.00    -0.117 NA
ATOM     17  C   UNL A   1      32.937  23.252  24.708  1.00  0.00     0.081 A 
ATOM     18  N   UNL A   1      31.987  22.479  22.836  1.00  0.00    -0.061 NA
ATOM     19  C   UNL A   1      32.984  24.072  25.945  1.00  0.00     0.070 C 
BRANCH  15  20
ATOM     20  S   UNL A   1      34.317  20.936  25.450  1.00  0.00     0.227 S 
ATOM     21  O   UNL A   1      34.489  19.723  24.698  1.00  0.00    -0.217 OA
ATOM     22  O   UNL A   1      33.661  20.967  26.755  1.00  0.00    -0.217 OA
BRANCH  20  23
ATOM     23  C   UNL A   1      35.914  21.681  25.645  1.00  0.00     0.073 A 
ATOM     24  C   UNL A   1      38.389  22.922  26.054  1.00  0.00    -0.048 A 
ATOM     25  C   UNL A   1      37.199  23.584  26.391  1.00  0.00     0.005 A 
ATOM     26  C   UNL A   1      38.324  21.630  25.516  1.00  0.00     0.005 A 
ATOM     27  C   UNL A   1      35.964  22.965  26.194  1.00  0.00     0.021 A 
ATOM     28  C   UNL A   1      37.092  21.012  25.300  1.00  0.00     0.021 A 
BRANCH  24  29
ATOM     29  C   UNL A   1      39.724  23.591  26.264  1.00  0.00     0.032 C 
ATOM     30  C   UNL A   1      39.586  24.969  26.891  1.00  0.00     0.009 C 
ENDBRANCH  24  29
ENDBRANCH  20  23
ENDBRANCH  15  20
ENDBRANCH   9  14
ENDBRANCH   5   8
ENDBRANCH   3   4
ENDBRANCH   2   3
ENDBRANCH   1   2
BRANCH   1  31
ATOM     31  C   UNL A   1      33.912  29.903  27.208  1.00  0.00     0.002 C 
BRANCH  31  32
ATOM     32  C   UNL A   1      33.498  31.349  27.516  1.00  0.00     0.021 C 
BRANCH  32  33
ATOM     33  C   UNL A   1      34.634  32.236  28.009  1.00  0.00     0.116 C 
BRANCH  33  34
ATOM     34  N   UNL A   1      34.492  32.579  29.425  1.00  0.00    -0.352 N 
ATOM     35  C   UNL A   1      35.258  32.165  30.497  1.00  0.00     0.251 C 
ATOM     36  H   UNL A   1      33.748  33.186  29.644  1.00  0.00     0.163 HD
ATOM     37  O   UNL A   1      34.814  32.218  31.638  1.00  0.00    -0.269 OA
BRANCH  35  38
ATOM     38  C   UNL A   1      36.614  31.650  30.243  1.00  0.00     0.039 A 
ATOM     39  C   UNL A   1      37.728  32.491  30.263  1.00  0.00     0.014 A 
ATOM     40  C   UNL A   1      36.761  30.283  30.031  1.00  0.00     0.014 A 
ATOM     41  C   UNL A   1      38.998  31.926  30.162  1.00  0.00     0.010 A 
ATOM     42  C   UNL A   1      38.009  29.716  30.103  1.00  0.00     0.010 A 
ATOM     43  C   UNL A   1      39.138  30.529  30.111  1.00  0.00    -0.014 A 
BRANCH  43  44
ATOM     44  C   UNL A   1      40.464  29.910  30.139  1.00  0.00     0.031 A 
ATOM     45  C   UNL A   1      41.092  29.781  31.486  1.00  0.00     0.074 A 
ATOM     46  C   UNL A   1      41.028  29.304  29.073  1.00  0.00     0.049 A 
ATOM     47  N   UNL A   1      42.140  30.392  31.932  1.00  0.00    -0.248 NA
ATOM     48  C   UNL A   1      40.414  28.957  32.497  1.00  0.00     0.031 C 
ATOM     49  C   UNL A   1      40.453  29.047  27.747  1.00  0.00     0.029 A 
ATOM     50  N   UNL A   1      42.233  28.676  28.998  1.00  0.00    -0.354 N 
ATOM     51  C   UNL A   1      42.384  29.875  33.202  1.00  0.00     0.074 A 
ATOM     52  C   UNL A   1      41.204  29.130  33.560  1.00  0.00     0.031 C 
ATOM     53  C   UNL A   1      41.193  28.117  27.105  1.00  0.00     0.029 A 
ATOM     54  C   UNL A   1      42.388  27.862  27.885  1.00  0.00     0.049 A 
ATOM     55  H   UNL A   1      42.937  28.790  29.677  1.00  0.00     0.167 HD
ATOM     56  C   UNL A   1      43.623  29.923  33.770  1.00  0.00     0.037 A 
ATOM     57  C   UNL A   1      43.416  27.019  27.628  1.00  0.00     0.037 A 
ATOM     58  C   UNL A   1      44.481  30.854  33.078  1.00  0.00     0.049 A 
ATOM     59  C   UNL A   1      44.573  27.495  28.428  1.00  0.00     0.074 A 
ATOM     60  C   UNL A   1      44.405  32.202  32.780  1.00  0.00     0.029 A 
ATOM     61  N   UNL A   1      45.442  30.347  32.237  1.00  0.00    -0.354 N 
ATOM     62  N   UNL A   1      45.176  28.637  28.227  1.00  0.00    -0.248 NA
ATOM     63  C   UNL A   1      44.774  26.913  29.747  1.00  0.00     0.031 C 
ATOM     64  C   UNL A   1      44.923  32.314  31.456  1.00  0.00     0.029 A 
ATOM     65  C   UNL A   1      45.346  31.043  31.058  1.00  0.00     0.049 A 
ATOM     66  H   UNL A   1      46.079  29.625  32.440  1.00  0.00     0.167 HD
ATOM     67  C   UNL A   1      45.464  29.118  29.495  1.00  0.00     0.074 A 
ATOM     68  C   UNL A   1      45.282  27.971  30.383  1.00  0.00     0.031 C 
ATOM     69  C   UNL A   1      45.553  30.458  29.750  1.00  0.00     0.037 A 
BRANCH  56  70
ATOM     70  C   UNL A   1      44.173  28.893  34.731  1.00  0.00     0.058 A 
ATOM     71  C   UNL A   1      44.064  27.520  34.417  1.00  0.00     0.135 A 
ATOM     72  C   UNL A   1      44.543  29.183  36.062  1.00  0.00     0.135 A 
ATOM     73  F   UNL A   1      43.715  27.126  33.183  1.00  0.00    -0.206 F 
ATOM     74  C   UNL A   1      44.230  26.518  35.375  1.00  0.00     0.059 A 
ATOM     75  C   UNL A   1      44.768  28.198  37.018  1.00  0.00     0.059 A 
ATOM     76  F   UNL A   1      44.603  30.436  36.529  1.00  0.00    -0.206 F 
ATOM     77  C   UNL A   1      44.563  26.870  36.678  1.00  0.00     0.060 A 
BRANCH  77  78
ATOM     78  S   UNL A   1      44.654  25.595  37.947  1.00  0.00     0.124 S 
ATOM     79  O   UNL A   1      44.278  24.407  37.187  1.00  0.00    -0.237 OA
ATOM     80  O   UNL A   1      46.051  25.675  38.359  1.00  0.00    -0.237 OA
ATOM     81  O   UNL A   1      43.685  26.042  38.942  1.00  0.00    -0.744 OA
ENDBRANCH  77  78
ENDBRANCH  56  70
BRANCH  57  82
ATOM     82  C   UNL A   1      43.347  25.676  26.998  1.00  0.00     0.058 A 
ATOM     83  C   UNL A   1      43.691  25.488  25.649  1.00  0.00     0.135 A 
ATOM     84  C   UNL A   1      43.208  24.504  27.773  1.00  0.00     0.135 A 
ATOM     85  F   UNL A   1      43.862  26.547  24.843  1.00  0.00    -0.206 F 
ATOM     86  C   UNL A   1      43.939  24.221  25.112  1.00  0.00     0.059 A 
ATOM     87  C   UNL A   1      43.434  23.230  27.256  1.00  0.00     0.059 A 
ATOM     88  F   UNL A   1      42.937  24.567  29.085  1.00  0.00    -0.206 F 
ATOM     89  C   UNL A   1      43.828  23.097  25.932  1.00  0.00     0.060 A 
BRANCH  89  90
ATOM     90  S   UNL A   1      44.330  21.480  25.298  1.00  0.00     0.124 S 
ATOM     91  O   UNL A   1      44.220  21.675  23.856  1.00  0.00    -0.237 OA
ATOM     92  O   UNL A   1      45.684  21.351  25.824  1.00  0.00    -0.237 OA
ATOM     93  O   UNL A   1      43.347  20.570  25.883  1.00  0.00    -0.744 OA
ENDBRANCH  89  90
ENDBRANCH  57  82
BRANCH  69  94
ATOM     94  C   UNL A   1      45.626  31.418  28.587  1.00  0.00     0.058 A 
ATOM     95  C   UNL A   1      44.513  32.049  28.002  1.00  0.00     0.135 A 
ATOM     96  C   UNL A   1      46.894  31.845  28.162  1.00  0.00     0.135 A 
ATOM     97  F   UNL A   1      43.269  31.783  28.420  1.00  0.00    -0.206 F 
ATOM     98  C   UNL A   1      44.654  33.029  27.017  1.00  0.00     0.059 A 
ATOM     99  C   UNL A   1      47.059  32.843  27.204  1.00  0.00     0.059 A 
ATOM    100  F   UNL A   1      48.000  31.329  28.723  1.00  0.00    -0.206 F 
ATOM    101  C   UNL A   1      45.933  33.424  26.626  1.00  0.00     0.060 A 
BRANCH 101 102
ATOM    102  S   UNL A   1      46.112  34.752  25.415  1.00  0.00     0.124 S 
ATOM    103  O   UNL A   1      45.709  35.925  26.183  1.00  0.00    -0.237 OA
ATOM    104  O   UNL A   1      47.529  34.677  25.067  1.00  0.00    -0.237 OA
ATOM    105  O   UNL A   1      45.197  34.362  24.345  1.00  0.00    -0.744 OA
ENDBRANCH 101 102
ENDBRANCH  69  94
ENDBRANCH  43  44
ENDBRANCH  35  38
ENDBRANCH  33  34
ENDBRANCH  32  33
ENDBRANCH  31  32
ENDBRANCH   1  31
TORSDOF 20
ENDMDL
MODEL 3
REMARK VINA RESULT:     -11.0      2.718      9.607
REMARK SMILES CCc1ccc(S(=O)(=O)c2nnn(-c3ccc(C(=O)NCCCCCCNC(=O)c4ccc(-c5c6nc(c(-c7c(F)cc(S(=O)(=O)[O-])cc7F)c7ccc([nH]7)c(-c7c(F)cc(S(=O)(=O)[O-])cc7F)c7nc(c(-c8c(F)cc(S(=O)(=O)[O-])cc8F)c8ccc5[nH]8)C=C7)C=C6)cc4)cc3)c2C)cc1
REMARK SMILES IDX 23 1 22 2 21 3 20 4 18 5 19 6 17 8 14 9 15 10 97 11 16 12
REMARK SMILES IDX 96 13 13 14 10 15 11 16 98 17 12 18 99 19 7 20 8 21 9 22
REMARK SMILES IDX 6 23 3 24 4 25 101 26 5 27 100 28 2 29 1 30 24 31 25 32
REMARK SMILES IDX 26 33 27 34 28 35 29 37 30 38 31 39 95 40 32 41 94 42 33 43
REMARK SMILES IDX 34 44 35 45 88 46 36 47 93 48 87 49 89 50 37 51 92 52 86 53
REMARK SMILES IDX 85 54 38 56 72 57 51 58 71 59 52 60 55 61 70 62 90 63 53 64
REMARK SMILES IDX 54 65 69 67 91 68 56 69 39 70 40 71 49 72 41 73 42 74 48 75
REMARK SMILES IDX 50 76 43 77 44 78 45 79 46 80 47 81 73 82 74 83 83 84 75 85
REMARK SMILES IDX 76 86 82 87 84 88 77 89 78 90 79 91 80 92 81 93 57 94 58 95
REMARK SMILES IDX 67 96 59 97 60 98 66 99 68 100 61 101 62 102 63 103 64 104
REMARK SMILES IDX 65 105
REMARK H PARENT 20 7 27 36 89 55 55 66
REMARK Flexibility Score: inf
ROOT
ATOM      1  C   UNL A   1      40.528  23.103  27.437  1.00  0.00     0.002 C 
ENDROOT
BRANCH   1   2
ATOM      2  C   UNL A   1      39.066  23.562  27.373  1.00  0.00     0.021 C 
BRANCH   2   3
ATOM      3  C   UNL A   1      38.432  23.400  25.990  1.00  0.00     0.116 C 
BRANCH   3   4
ATOM      4  N   UNL A   1      38.482  22.014  25.559  1.00  0.00    -0.352 N 
ATOM      5  C   UNL A   1      37.572  21.187  24.950  1.00  0.00     0.251 C 
ATOM      6  O   UNL A   1      37.946  20.052  24.656  1.00  0.00    -0.269 OA
ATOM      7  H   UNL A   1      39.346  21.579  25.744  1.00  0.00     0.163 HD
BRANCH   5   8
ATOM      8  C   UNL A   1      36.207  21.629  24.543  1.00  0.00     0.039 A 
ATOM      9  C   UNL A   1      33.768  22.825  23.881  1.00  0.00     0.067 A 
ATOM     10  C   UNL A   1      34.894  23.107  23.108  1.00  0.00     0.029 A 
ATOM     11  C   UNL A   1      33.820  21.853  24.883  1.00  0.00     0.029 A 
ATOM     12  C   UNL A   1      36.117  22.532  23.468  1.00  0.00     0.016 A 
ATOM     13  C   UNL A   1      35.029  21.217  25.168  1.00  0.00     0.016 A 
BRANCH   9  14
ATOM     14  N   UNL A   1      32.587  23.570  23.700  1.00  0.00    -0.216 N 
ATOM     15  C   UNL A   1      31.103  25.149  23.537  1.00  0.00     0.205 A 
ATOM     16  N   UNL A   1      30.496  23.948  23.288  1.00  0.00    -0.117 NA
ATOM     17  C   UNL A   1      32.467  24.951  23.686  1.00  0.00     0.081 A 
ATOM     18  N   UNL A   1      31.432  23.007  23.286  1.00  0.00    -0.061 NA
ATOM     19  C   UNL A   1      33.618  25.888  23.641  1.00  0.00     0.070 C 
BRANCH  15  20
ATOM     20  S   UNL A   1      30.271  26.653  23.375  1.00  0.00     0.227 S 
ATOM     21  O   UNL A   1      28.928  26.387  23.814  1.00  0.00    -0.217 OA
ATOM     22  O   UNL A   1      30.578  27.142  22.034  1.00  0.00    -0.217 OA
BRANCH  20  23
ATOM     23  C   UNL A   1      31.002  27.784  24.529  1.00  0.00     0.073 A 
ATOM     24  C   UNL A   1      32.121  29.666  26.272  1.00  0.00    -0.048 A 
ATOM     25  C   UNL A   1      32.081  29.913  24.892  1.00  0.00     0.005 A 
ATOM     26  C   UNL A   1      31.587  28.468  26.769  1.00  0.00     0.005 A 
ATOM     27  C   UNL A   1      31.518  28.979  24.021  1.00  0.00     0.021 A 
ATOM     28  C   UNL A   1      31.039  27.523  25.901  1.00  0.00     0.021 A 
BRANCH  24  29
ATOM     29  C   UNL A   1      32.731  30.673  27.214  1.00  0.00     0.032 C 
ATOM     30  C   UNL A   1      31.968  31.988  27.225  1.00  0.00     0.009 C 
ENDBRANCH  24  29
ENDBRANCH  20  23
ENDBRANCH  15  20
ENDBRANCH   9  14
ENDBRANCH   5   8
ENDBRANCH   3   4
ENDBRANCH   2   3
ENDBRANCH   1   2
BRANCH   1  31
ATOM     31  C   UNL A   1      40.758  21.584  27.396  1.00  0.00     0.002 C 
BRANCH  31  32
ATOM     32  C   UNL A   1      41.398  21.019  26.119  1.00  0.00     0.021 C 
BRANCH  32  33
ATOM     33  C   UNL A   1      42.817  20.496  26.305  1.00  0.00     0.116 C 
BRANCH  33  34
ATOM     34  N   UNL A   1      43.719  20.962  25.251  1.00  0.00    -0.352 N 
ATOM     35  C   UNL A   1      43.988  22.255  24.850  1.00  0.00     0.251 C 
ATOM     36  H   UNL A   1      44.200  20.256  24.760  1.00  0.00     0.163 HD
ATOM     37  O   UNL A   1      44.456  22.479  23.740  1.00  0.00    -0.269 OA
BRANCH  35  38
ATOM     38  C   UNL A   1      43.693  23.361  25.777  1.00  0.00     0.039 A 
ATOM     39  C   UNL A   1      44.297  23.439  27.032  1.00  0.00     0.014 A 
ATOM     40  C   UNL A   1      42.828  24.360  25.343  1.00  0.00     0.014 A 
ATOM     41  C   UNL A   1      44.094  24.581  27.806  1.00  0.00     0.010 A 
ATOM     42  C   UNL A   1      42.767  25.548  26.026  1.00  0.00     0.010 A 
ATOM     43  C   UNL A   1      43.348  25.652  27.286  1.00  0.00    -0.014 A 
BRANCH  43  44
ATOM     44  C   UNL A   1      43.235  26.910  28.024  1.00  0.00     0.031 A 
ATOM     45  C   UNL A   1      44.296  27.921  27.752  1.00  0.00     0.074 A 
ATOM     46  C   UNL A   1      42.153  27.251  28.757  1.00  0.00     0.049 A 
ATOM     47  N   UNL A   1      45.212  28.344  28.560  1.00  0.00    -0.248 NA
ATOM     48  C   UNL A   1      44.425  28.449  26.385  1.00  0.00     0.031 C 
ATOM     49  C   UNL A   1      40.876  26.540  28.903  1.00  0.00     0.029 A 
ATOM     50  N   UNL A   1      41.932  28.399  29.453  1.00  0.00    -0.354 N 
ATOM     51  C   UNL A   1      45.902  29.346  27.880  1.00  0.00     0.074 A 
ATOM     52  C   UNL A   1      45.489  29.247  26.504  1.00  0.00     0.031 C 
ATOM     53  C   UNL A   1      39.949  27.376  29.419  1.00  0.00     0.029 A 
ATOM     54  C   UNL A   1      40.609  28.603  29.817  1.00  0.00     0.049 A 
ATOM     55  H   UNL A   1      42.652  29.031  29.681  1.00  0.00     0.167 HD
ATOM     56  C   UNL A   1      46.597  30.314  28.544  1.00  0.00     0.037 A 
ATOM     57  C   UNL A   1      40.082  29.714  30.388  1.00  0.00     0.037 A 
ATOM     58  C   UNL A   1      46.811  29.954  29.924  1.00  0.00     0.049 A 
ATOM     59  C   UNL A   1      41.205  30.435  31.041  1.00  0.00     0.074 A 
ATOM     60  C   UNL A   1      47.409  28.883  30.563  1.00  0.00     0.029 A 
ATOM     61  N   UNL A   1      46.037  30.565  30.881  1.00  0.00    -0.354 N 
ATOM     62  N   UNL A   1      41.875  29.966  32.061  1.00  0.00    -0.248 NA
ATOM     63  C   UNL A   1      41.883  31.472  30.278  1.00  0.00     0.031 C 
ATOM     64  C   UNL A   1      46.568  28.611  31.683  1.00  0.00     0.029 A 
ATOM     65  C   UNL A   1      45.556  29.572  31.697  1.00  0.00     0.049 A 
ATOM     66  H   UNL A   1      45.862  31.530  30.966  1.00  0.00     0.167 HD
ATOM     67  C   UNL A   1      43.193  30.324  31.818  1.00  0.00     0.074 A 
ATOM     68  C   UNL A   1      43.120  31.330  30.760  1.00  0.00     0.031 C 
ATOM     69  C   UNL A   1      44.236  29.580  32.293  1.00  0.00     0.037 A 
BRANCH  56  70
ATOM     70  C   UNL A   1      46.790  31.730  28.049  1.00  0.00     0.058 A 
ATOM     71  C   UNL A   1      48.087  32.290  28.033  1.00  0.00     0.135 A 
ATOM     72  C   UNL A   1      45.732  32.645  27.859  1.00  0.00     0.135 A 
ATOM     73  F   UNL A   1      49.169  31.516  28.208  1.00  0.00    -0.206 F 
ATOM     74  C   UNL A   1      48.307  33.664  27.919  1.00  0.00     0.059 A 
ATOM     75  C   UNL A   1      45.933  34.010  27.687  1.00  0.00     0.059 A 
ATOM     76  F   UNL A   1      44.448  32.276  27.933  1.00  0.00    -0.206 F 
ATOM     77  C   UNL A   1      47.220  34.517  27.766  1.00  0.00     0.060 A 
BRANCH  77  78
ATOM     78  S   UNL A   1      47.486  36.299  27.746  1.00  0.00     0.124 S 
ATOM     79  O   UNL A   1      48.819  36.397  28.330  1.00  0.00    -0.237 OA
ATOM     80  O   UNL A   1      47.387  36.605  26.323  1.00  0.00    -0.237 OA
ATOM     81  O   UNL A   1      46.395  36.809  28.570  1.00  0.00    -0.744 OA
ENDBRANCH  77  78
ENDBRANCH  56  70
BRANCH  57  82
ATOM     82  C   UNL A   1      38.755  30.324  30.120  1.00  0.00     0.058 A 
ATOM     83  C   UNL A   1      38.053  31.005  31.128  1.00  0.00     0.135 A 
ATOM     84  C   UNL A   1      38.273  30.491  28.804  1.00  0.00     0.135 A 
ATOM     85  F   UNL A   1      38.453  30.917  32.405  1.00  0.00    -0.206 F 
ATOM     86  C   UNL A   1      36.972  31.847  30.845  1.00  0.00     0.059 A 
ATOM     87  C   UNL A   1      37.189  31.312  28.500  1.00  0.00     0.059 A 
ATOM     88  F   UNL A   1      38.899  29.933  27.758  1.00  0.00    -0.206 F 
ATOM     89  C   UNL A   1      36.561  32.010  29.522  1.00  0.00     0.060 A 
BRANCH  89  90
ATOM     90  S   UNL A   1      35.294  33.239  29.129  1.00  0.00     0.124 S 
ATOM     91  O   UNL A   1      35.870  34.456  29.692  1.00  0.00    -0.237 OA
ATOM     92  O   UNL A   1      35.241  33.170  27.673  1.00  0.00    -0.237 OA
ATOM     93  O   UNL A   1      34.109  32.732  29.818  1.00  0.00    -0.744 OA
ENDBRANCH  89  90
ENDBRANCH  57  82
BRANCH  69  94
ATOM     94  C   UNL A   1      43.962  28.522  33.335  1.00  0.00     0.058 A 
ATOM     95  C   UNL A   1      43.834  28.773  34.713  1.00  0.00     0.135 A 
ATOM     96  C   UNL A   1      43.648  27.227  32.893  1.00  0.00     0.135 A 
ATOM     97  F   UNL A   1      44.009  30.004  35.211  1.00  0.00    -0.206 F 
ATOM     98  C   UNL A   1      43.448  27.776  35.612  1.00  0.00     0.059 A 
ATOM     99  C   UNL A   1      43.231  26.225  33.767  1.00  0.00     0.059 A 
ATOM    100  F   UNL A   1      43.689  26.935  31.583  1.00  0.00    -0.206 F 
ATOM    101  C   UNL A   1      43.143  26.503  35.129  1.00  0.00     0.060 A 
BRANCH 101 102
ATOM    102  S   UNL A   1      42.562  25.241  36.282  1.00  0.00     0.124 S 
ATOM    103  O   UNL A   1      41.915  24.284  35.390  1.00  0.00    -0.237 OA
ATOM    104  O   UNL A   1      43.801  24.787  36.909  1.00  0.00    -0.237 OA
ATOM    105  O   UNL A   1      41.661  25.976  37.167  1.00  0.00    -0.744 OA
ENDBRANCH 101 102
ENDBRANCH  69  94
ENDBRANCH  43  44
ENDBRANCH  35  38
ENDBRANCH  33  34
ENDBRANCH  32  33
ENDBRANCH  31  32
ENDBRANCH   1  31
TORSDOF 20
ENDMDL
