MODEL 1
REMARK VINA RESULT:     -12.1      0.000      0.000
REMARK SMILES O=C(NCCCCCCNC(=O)c1cn(C2C[NH+](Cc3cc(F)ccc3F)C2)nn1)c1ccc(-c2c3nc(c(-c4c(F)cc(S(=O)(=O)[O-])cc4F)c4ccc([nH]4)c(-c4c(F)cc(S(=O)(=O)[O-])cc4F)c4nc(c(-c5c(F)cc(S(=O)(=O)[O-])cc5F)c5ccc2[nH]5)C=C4)C=C3)cc1
REMARK SMILES IDX 6 1 5 2 4 3 3 4 1 5 2 6 31 8 32 9 96 10 33 11 95 12 34 13
REMARK SMILES IDX 35 14 36 15 89 16 37 17 94 18 88 19 90 20 38 21 93 22 87 23
REMARK SMILES IDX 86 24 39 26 73 27 52 28 72 29 53 30 56 31 71 32 91 33 54 34
REMARK SMILES IDX 55 35 70 37 92 38 57 39 40 40 41 41 50 42 42 43 43 44 49 45
REMARK SMILES IDX 51 46 44 47 45 48 46 49 47 50 48 51 74 52 75 53 84 54 76 55
REMARK SMILES IDX 77 56 83 57 85 58 78 59 79 60 80 61 81 62 82 63 58 64 59 65
REMARK SMILES IDX 68 66 60 67 61 68 67 69 69 70 62 71 63 72 64 73 65 74 66 75
REMARK SMILES IDX 7 76 8 77 9 78 10 79 11 80 12 82 13 83 14 84 30 85 15 86
REMARK SMILES IDX 29 87 16 88 17 89 28 90 18 91 19 93 20 94 21 95 26 96 22 97
REMARK SMILES IDX 25 98 27 99 23 100 24 101
REMARK H PARENT 3 7 90 25 56 36 10 81 18 92
REMARK Flexibility Score: inf
ROOT
ATOM      1  C   UNL A   1      40.635  20.918  26.742  1.00  0.00     0.002 C 
ENDROOT
BRANCH   1   2
ATOM      2  C   UNL A   1      40.989  19.529  26.190  1.00  0.00     0.021 C 
BRANCH   2   3
ATOM      3  C   UNL A   1      42.458  19.135  26.327  1.00  0.00     0.116 C 
BRANCH   3   4
ATOM      4  N   UNL A   1      43.308  19.638  25.269  1.00  0.00    -0.352 N 
ATOM      5  O   UNL A   1      44.730  20.796  24.055  1.00  0.00    -0.269 OA
ATOM      6  C   UNL A   1      43.955  20.816  25.015  1.00  0.00     0.251 C 
ATOM      7  H   UNL A   1      43.454  18.972  24.559  1.00  0.00     0.163 HD
BRANCH   6   8
ATOM      8  C   UNL A   1      43.755  22.103  25.745  1.00  0.00     0.039 A 
ATOM      9  C   UNL A   1      44.223  22.415  27.021  1.00  0.00     0.014 A 
ATOM     10  C   UNL A   1      42.993  23.075  25.062  1.00  0.00     0.014 A 
ATOM     11  C   UNL A   1      43.879  23.633  27.619  1.00  0.00     0.010 A 
ATOM     12  C   UNL A   1      42.646  24.289  25.654  1.00  0.00     0.010 A 
ATOM     13  C   UNL A   1      43.064  24.560  26.949  1.00  0.00    -0.014 A 
BRANCH  13  14
ATOM     14  C   UNL A   1      42.864  25.883  27.548  1.00  0.00     0.031 A 
ATOM     15  C   UNL A   1      43.916  26.864  27.156  1.00  0.00     0.074 A 
ATOM     16  C   UNL A   1      41.797  26.280  28.279  1.00  0.00     0.049 A 
ATOM     17  N   UNL A   1      44.870  27.326  27.894  1.00  0.00    -0.248 NA
ATOM     18  C   UNL A   1      44.018  27.252  25.741  1.00  0.00     0.031 C 
ATOM     19  C   UNL A   1      40.542  25.567  28.514  1.00  0.00     0.029 A 
ATOM     20  N   UNL A   1      41.587  27.470  28.922  1.00  0.00    -0.354 N 
ATOM     21  C   UNL A   1      45.554  28.247  27.104  1.00  0.00     0.074 A 
ATOM     22  C   UNL A   1      45.109  28.021  25.754  1.00  0.00     0.031 C 
ATOM     23  C   UNL A   1      39.634  26.414  29.058  1.00  0.00     0.029 A 
ATOM     24  C   UNL A   1      40.274  27.689  29.342  1.00  0.00     0.049 A 
ATOM     25  H   UNL A   1      42.308  28.123  29.078  1.00  0.00     0.167 HD
ATOM     26  C   UNL A   1      46.258  29.271  27.664  1.00  0.00     0.037 A 
ATOM     27  C   UNL A   1      39.750  28.838  29.858  1.00  0.00     0.037 A 
ATOM     28  C   UNL A   1      46.474  29.040  29.070  1.00  0.00     0.049 A 
ATOM     29  C   UNL A   1      40.882  29.646  30.375  1.00  0.00     0.074 A 
ATOM     30  C   UNL A   1      47.090  28.054  29.816  1.00  0.00     0.029 A 
ATOM     31  N   UNL A   1      45.684  29.737  29.952  1.00  0.00    -0.354 N 
ATOM     32  N   UNL A   1      41.603  29.310  31.407  1.00  0.00    -0.248 NA
ATOM     33  C   UNL A   1      41.497  30.601  29.468  1.00  0.00     0.031 C 
ATOM     34  C   UNL A   1      46.266  27.898  30.969  1.00  0.00     0.029 A 
ATOM     35  C   UNL A   1      45.249  28.849  30.900  1.00  0.00     0.049 A 
ATOM     36  H   UNL A   1      45.470  30.696  29.910  1.00  0.00     0.167 HD
ATOM     37  C   UNL A   1      42.900  29.635  31.046  1.00  0.00     0.074 A 
ATOM     38  C   UNL A   1      42.763  30.502  29.877  1.00  0.00     0.031 C 
ATOM     39  C   UNL A   1      43.964  28.947  31.553  1.00  0.00     0.037 A 
BRANCH  26  40
ATOM     40  C   UNL A   1      46.417  30.646  27.055  1.00  0.00     0.058 A 
ATOM     41  C   UNL A   1      47.702  31.229  27.004  1.00  0.00     0.135 A 
ATOM     42  C   UNL A   1      45.343  31.524  26.795  1.00  0.00     0.135 A 
ATOM     43  F   UNL A   1      48.799  30.492  27.241  1.00  0.00    -0.206 F 
ATOM     44  C   UNL A   1      47.899  32.594  26.792  1.00  0.00     0.059 A 
ATOM     45  C   UNL A   1      45.520  32.878  26.529  1.00  0.00     0.059 A 
ATOM     46  F   UNL A   1      44.066  31.137  26.882  1.00  0.00    -0.206 F 
ATOM     47  C   UNL A   1      46.797  33.412  26.566  1.00  0.00     0.060 A 
BRANCH  47  48
ATOM     48  S   UNL A   1      47.043  35.184  26.363  1.00  0.00     0.124 S 
ATOM     49  O   UNL A   1      45.677  35.646  26.145  1.00  0.00    -0.237 OA
ATOM     50  O   UNL A   1      47.646  35.550  27.641  1.00  0.00    -0.237 OA
ATOM     51  O   UNL A   1      47.933  35.269  25.210  1.00  0.00    -0.744 OA
ENDBRANCH  47  48
ENDBRANCH  26  40
BRANCH  27  52
ATOM     52  C   UNL A   1      38.397  29.444  29.664  1.00  0.00     0.058 A 
ATOM     53  C   UNL A   1      37.571  29.771  30.761  1.00  0.00     0.135 A 
ATOM     54  C   UNL A   1      38.026  30.008  28.430  1.00  0.00     0.135 A 
ATOM     55  F   UNL A   1      37.852  29.297  31.985  1.00  0.00    -0.206 F 
ATOM     56  C   UNL A   1      36.485  30.652  30.651  1.00  0.00     0.059 A 
ATOM     57  C   UNL A   1      36.945  30.883  28.295  1.00  0.00     0.059 A 
ATOM     58  F   UNL A   1      38.765  29.804  27.331  1.00  0.00    -0.206 F 
ATOM     59  C   UNL A   1      36.195  31.224  29.414  1.00  0.00     0.060 A 
BRANCH  59  60
ATOM     60  S   UNL A   1      34.923  32.509  29.297  1.00  0.00     0.124 S 
ATOM     61  O   UNL A   1      34.381  32.525  30.651  1.00  0.00    -0.237 OA
ATOM     62  O   UNL A   1      35.699  33.681  28.908  1.00  0.00    -0.237 OA
ATOM     63  O   UNL A   1      34.019  31.998  28.270  1.00  0.00    -0.744 OA
ENDBRANCH  59  60
ENDBRANCH  27  52
BRANCH  39  64
ATOM     64  C   UNL A   1      43.750  28.080  32.765  1.00  0.00     0.058 A 
ATOM     65  C   UNL A   1      43.631  26.678  32.753  1.00  0.00     0.135 A 
ATOM     66  C   UNL A   1      43.799  28.707  34.021  1.00  0.00     0.135 A 
ATOM     67  F   UNL A   1      43.683  25.989  31.604  1.00  0.00    -0.206 F 
ATOM     68  C   UNL A   1      43.514  25.942  33.935  1.00  0.00     0.059 A 
ATOM     69  C   UNL A   1      43.722  27.991  35.210  1.00  0.00     0.059 A 
ATOM     70  F   UNL A   1      43.969  30.037  34.104  1.00  0.00    -0.206 F 
ATOM     71  C   UNL A   1      43.561  26.609  35.160  1.00  0.00     0.060 A 
BRANCH  71  72
ATOM     72  S   UNL A   1      43.468  25.658  36.692  1.00  0.00     0.124 S 
ATOM     73  O   UNL A   1      42.469  24.646  36.363  1.00  0.00    -0.237 OA
ATOM     74  O   UNL A   1      44.836  25.173  36.847  1.00  0.00    -0.237 OA
ATOM     75  O   UNL A   1      43.050  26.647  37.683  1.00  0.00    -0.744 OA
ENDBRANCH  71  72
ENDBRANCH  39  64
ENDBRANCH  13  14
ENDBRANCH   6   8
ENDBRANCH   3   4
ENDBRANCH   2   3
ENDBRANCH   1   2
BRANCH   1  76
ATOM     76  C   UNL A   1      39.663  21.751  25.897  1.00  0.00     0.002 C 
BRANCH  76  77
ATOM     77  C   UNL A   1      39.125  23.018  26.567  1.00  0.00     0.021 C 
BRANCH  77  78
ATOM     78  C   UNL A   1      37.701  23.400  26.165  1.00  0.00     0.116 C 
BRANCH  78  79
ATOM     79  N   UNL A   1      36.764  22.310  26.382  1.00  0.00    -0.351 N 
ATOM     80  C   UNL A   1      35.480  22.159  25.904  1.00  0.00     0.273 C 
ATOM     81  H   UNL A   1      37.094  21.576  26.949  1.00  0.00     0.163 HD
ATOM     82  O   UNL A   1      34.764  21.290  26.380  1.00  0.00    -0.267 OA
BRANCH  80  83
ATOM     83  C   UNL A   1      35.032  23.060  24.856  1.00  0.00     0.170 A 
ATOM     84  C   UNL A   1      34.420  24.293  24.985  1.00  0.00     0.145 A 
ATOM     85  N   UNL A   1      35.172  22.766  23.525  1.00  0.00    -0.125 NA
ATOM     86  N   UNL A   1      34.106  24.633  23.705  1.00  0.00    -0.237 N 
ATOM     87  N   UNL A   1      34.588  23.730  22.829  1.00  0.00    -0.066 NA
BRANCH  86  88
ATOM     88  C   UNL A   1      33.270  25.691  23.241  1.00  0.00     0.218 C 
ATOM     89  C   UNL A   1      31.785  25.305  23.000  1.00  0.00     0.296 C 
ATOM     90  C   UNL A   1      32.682  26.623  24.325  1.00  0.00     0.296 C 
ATOM     91  N   UNL A   1      31.374  26.577  23.630  1.00  0.00    -0.327 N 
ATOM     92  H   UNL A   1      30.504  26.648  24.156  1.00  0.00     0.348 HD
BRANCH  91  93
ATOM     93  C   UNL A   1      31.121  27.687  22.675  1.00  0.00     0.302 C 
BRANCH  93  94
ATOM     94  C   UNL A   1      29.811  28.444  22.751  1.00  0.00     0.045 A 
ATOM     95  C   UNL A   1      28.706  27.927  23.450  1.00  0.00     0.051 A 
ATOM     96  C   UNL A   1      29.631  29.624  22.016  1.00  0.00     0.132 A 
ATOM     97  C   UNL A   1      27.447  28.499  23.283  1.00  0.00     0.123 A 
ATOM     98  C   UNL A   1      28.376  30.214  21.882  1.00  0.00     0.043 A 
ATOM     99  F   UNL A   1      30.670  30.179  21.376  1.00  0.00    -0.206 F 
ATOM    100  F   UNL A   1      26.382  27.916  23.849  1.00  0.00    -0.207 F 
ATOM    101  C   UNL A   1      27.270  29.626  22.491  1.00  0.00     0.042 A 
ENDBRANCH  93  94
ENDBRANCH  91  93
ENDBRANCH  86  88
ENDBRANCH  80  83
ENDBRANCH  78  79
ENDBRANCH  77  78
ENDBRANCH  76  77
ENDBRANCH   1  76
TORSDOF 19
ENDMDL
MODEL 2
REMARK VINA RESULT:     -11.9      2.694      4.491
REMARK SMILES O=C(NCCCCCCNC(=O)c1cn(C2C[NH+](Cc3cc(F)ccc3F)C2)nn1)c1ccc(-c2c3nc(c(-c4c(F)cc(S(=O)(=O)[O-])cc4F)c4ccc([nH]4)c(-c4c(F)cc(S(=O)(=O)[O-])cc4F)c4nc(c(-c5c(F)cc(S(=O)(=O)[O-])cc5F)c5ccc2[nH]5)C=C4)C=C3)cc1
REMARK SMILES IDX 6 1 5 2 4 3 3 4 1 5 2 6 31 8 32 9 96 10 33 11 95 12 34 13
REMARK SMILES IDX 35 14 36 15 89 16 37 17 94 18 88 19 90 20 38 21 93 22 87 23
REMARK SMILES IDX 86 24 39 26 73 27 52 28 72 29 53 30 56 31 71 32 91 33 54 34
REMARK SMILES IDX 55 35 70 37 92 38 57 39 40 40 41 41 50 42 42 43 43 44 49 45
REMARK SMILES IDX 51 46 44 47 45 48 46 49 47 50 48 51 74 52 75 53 84 54 76 55
REMARK SMILES IDX 77 56 83 57 85 58 78 59 79 60 80 61 81 62 82 63 58 64 59 65
REMARK SMILES IDX 68 66 60 67 61 68 67 69 69 70 62 71 63 72 64 73 65 74 66 75
REMARK SMILES IDX 7 76 8 77 9 78 10 79 11 80 12 82 13 83 14 84 30 85 15 86
REMARK SMILES IDX 29 87 16 88 17 89 28 90 18 91 19 93 20 94 21 95 26 96 22 97
REMARK SMILES IDX 25 98 27 99 23 100 24 101
REMARK H PARENT 3 7 90 25 56 36 10 81 18 92
REMARK Flexibility Score: inf
ROOT
ATOM      1  C   UNL A   1      35.496  21.354  24.628  1.00  0.00     0.002 C 
ENDROOT
BRANCH   1   2
ATOM      2  C   UNL A   1      36.565  22.259  23.998  1.00  0.00     0.021 C 
BRANCH   2   3
ATOM      3  C   UNL A   1      37.394  23.069  24.993  1.00  0.00     0.116 C 
BRANCH   3   4
ATOM      4  N   UNL A   1      38.484  22.331  25.594  1.00  0.00    -0.352 N 
ATOM      5  O   UNL A   1      40.084  21.606  26.917  1.00  0.00    -0.269 OA
ATOM      6  C   UNL A   1      39.400  22.577  26.579  1.00  0.00     0.251 C 
ATOM      7  H   UNL A   1      38.593  21.437  25.197  1.00  0.00     0.163 HD
BRANCH   6   8
ATOM      8  C   UNL A   1      39.675  23.900  27.212  1.00  0.00     0.039 A 
ATOM      9  C   UNL A   1      38.799  24.981  27.291  1.00  0.00     0.014 A 
ATOM     10  C   UNL A   1      40.967  24.052  27.761  1.00  0.00     0.014 A 
ATOM     11  C   UNL A   1      39.228  26.197  27.835  1.00  0.00     0.010 A 
ATOM     12  C   UNL A   1      41.400  25.261  28.303  1.00  0.00     0.010 A 
ATOM     13  C   UNL A   1      40.539  26.350  28.314  1.00  0.00    -0.014 A 
BRANCH  13  14
ATOM     14  C   UNL A   1      40.892  27.586  29.019  1.00  0.00     0.031 A 
ATOM     15  C   UNL A   1      42.112  28.242  28.467  1.00  0.00     0.074 A 
ATOM     16  C   UNL A   1      40.167  28.193  29.986  1.00  0.00     0.049 A 
ATOM     17  N   UNL A   1      43.284  28.296  29.007  1.00  0.00    -0.248 NA
ATOM     18  C   UNL A   1      42.067  28.754  27.089  1.00  0.00     0.031 C 
ATOM     19  C   UNL A   1      38.816  27.872  30.446  1.00  0.00     0.029 A 
ATOM     20  N   UNL A   1      40.477  29.302  30.729  1.00  0.00    -0.354 N 
ATOM     21  C   UNL A   1      44.069  29.057  28.143  1.00  0.00     0.074 A 
ATOM     22  C   UNL A   1      43.331  29.148  26.911  1.00  0.00     0.031 C 
ATOM     23  C   UNL A   1      38.349  28.880  31.222  1.00  0.00     0.029 A 
ATOM     24  C   UNL A   1      39.408  29.854  31.436  1.00  0.00     0.049 A 
ATOM     25  H   UNL A   1      41.386  29.679  30.763  1.00  0.00     0.167 HD
ATOM     26  C   UNL A   1      45.157  29.741  28.596  1.00  0.00     0.037 A 
ATOM     27  C   UNL A   1      39.389  31.034  32.120  1.00  0.00     0.037 A 
ATOM     28  C   UNL A   1      45.546  29.282  29.906  1.00  0.00     0.049 A 
ATOM     29  C   UNL A   1      40.798  31.389  32.426  1.00  0.00     0.074 A 
ATOM     30  C   UNL A   1      45.938  28.070  30.441  1.00  0.00     0.029 A 
ATOM     31  N   UNL A   1      45.203  30.069  30.977  1.00  0.00    -0.354 N 
ATOM     32  N   UNL A   1      41.551  30.724  33.256  1.00  0.00    -0.248 NA
ATOM     33  C   UNL A   1      41.507  32.218  31.466  1.00  0.00     0.031 C 
ATOM     34  C   UNL A   1      45.339  28.029  31.734  1.00  0.00     0.029 A 
ATOM     35  C   UNL A   1      44.689  29.244  31.943  1.00  0.00     0.049 A 
ATOM     36  H   UNL A   1      45.306  31.046  31.040  1.00  0.00     0.167 HD
ATOM     37  C   UNL A   1      42.791  30.682  32.642  1.00  0.00     0.074 A 
ATOM     38  C   UNL A   1      42.726  31.688  31.583  1.00  0.00     0.031 C 
ATOM     39  C   UNL A   1      43.651  29.646  32.865  1.00  0.00     0.037 A 
BRANCH  26  40
ATOM     40  C   UNL A   1      45.635  31.067  28.050  1.00  0.00     0.058 A 
ATOM     41  C   UNL A   1      44.742  32.161  28.023  1.00  0.00     0.135 A 
ATOM     42  C   UNL A   1      46.813  31.229  27.290  1.00  0.00     0.135 A 
ATOM     43  F   UNL A   1      43.585  32.117  28.703  1.00  0.00    -0.206 F 
ATOM     44  C   UNL A   1      44.965  33.292  27.239  1.00  0.00     0.059 A 
ATOM     45  C   UNL A   1      47.081  32.372  26.542  1.00  0.00     0.059 A 
ATOM     46  F   UNL A   1      47.717  30.252  27.155  1.00  0.00    -0.206 F 
ATOM     47  C   UNL A   1      46.135  33.382  26.493  1.00  0.00     0.060 A 
BRANCH  47  48
ATOM     48  S   UNL A   1      46.392  34.809  25.425  1.00  0.00     0.124 S 
ATOM     49  O   UNL A   1      45.502  34.505  24.311  1.00  0.00    -0.237 OA
ATOM     50  O   UNL A   1      45.980  35.909  26.291  1.00  0.00    -0.237 OA
ATOM     51  O   UNL A   1      47.820  34.754  25.128  1.00  0.00    -0.744 OA
ENDBRANCH  47  48
ENDBRANCH  26  40
BRANCH  27  52
ATOM     52  C   UNL A   1      38.294  32.042  32.261  1.00  0.00     0.058 A 
ATOM     53  C   UNL A   1      37.914  32.875  31.187  1.00  0.00     0.135 A 
ATOM     54  C   UNL A   1      37.392  31.985  33.339  1.00  0.00     0.135 A 
ATOM     55  F   UNL A   1      38.699  32.982  30.104  1.00  0.00    -0.206 F 
ATOM     56  C   UNL A   1      36.688  33.555  31.157  1.00  0.00     0.059 A 
ATOM     57  C   UNL A   1      36.168  32.658  33.334  1.00  0.00     0.059 A 
ATOM     58  F   UNL A   1      37.628  31.189  34.391  1.00  0.00    -0.206 F 
ATOM     59  C   UNL A   1      35.807  33.420  32.229  1.00  0.00     0.060 A 
BRANCH  59  60
ATOM     60  S   UNL A   1      34.145  34.131  32.119  1.00  0.00     0.124 S 
ATOM     61  O   UNL A   1      33.825  33.940  30.708  1.00  0.00    -0.237 OA
ATOM     62  O   UNL A   1      33.392  33.310  33.060  1.00  0.00    -0.237 OA
ATOM     63  O   UNL A   1      34.343  35.519  32.530  1.00  0.00    -0.744 OA
ENDBRANCH  59  60
ENDBRANCH  27  52
BRANCH  39  64
ATOM     64  C   UNL A   1      43.399  28.740  34.041  1.00  0.00     0.058 A 
ATOM     65  C   UNL A   1      43.773  29.008  35.370  1.00  0.00     0.135 A 
ATOM     66  C   UNL A   1      42.619  27.595  33.814  1.00  0.00     0.135 A 
ATOM     67  F   UNL A   1      44.428  30.133  35.692  1.00  0.00    -0.206 F 
ATOM     68  C   UNL A   1      43.428  28.148  36.416  1.00  0.00     0.059 A 
ATOM     69  C   UNL A   1      42.232  26.746  34.844  1.00  0.00     0.059 A 
ATOM     70  F   UNL A   1      42.180  27.313  32.576  1.00  0.00    -0.206 F 
ATOM     71  C   UNL A   1      42.656  27.018  36.142  1.00  0.00     0.060 A 
BRANCH  71  72
ATOM     72  S   UNL A   1      42.160  25.934  37.497  1.00  0.00     0.124 S 
ATOM     73  O   UNL A   1      43.129  26.276  38.534  1.00  0.00    -0.237 OA
ATOM     74  O   UNL A   1      40.784  26.353  37.750  1.00  0.00    -0.237 OA
ATOM     75  O   UNL A   1      42.299  24.594  36.932  1.00  0.00    -0.744 OA
ENDBRANCH  71  72
ENDBRANCH  39  64
ENDBRANCH  13  14
ENDBRANCH   6   8
ENDBRANCH   3   4
ENDBRANCH   2   3
ENDBRANCH   1   2
BRANCH   1  76
ATOM     76  C   UNL A   1      34.107  21.977  24.811  1.00  0.00     0.002 C 
BRANCH  76  77
ATOM     77  C   UNL A   1      32.936  21.151  24.272  1.00  0.00     0.021 C 
BRANCH  77  78
ATOM     78  C   UNL A   1      32.019  21.894  23.302  1.00  0.00     0.116 C 
BRANCH  78  79
ATOM     79  N   UNL A   1      32.739  22.373  22.134  1.00  0.00    -0.351 N 
ATOM     80  C   UNL A   1      32.916  23.667  21.691  1.00  0.00     0.273 C 
ATOM     81  H   UNL A   1      33.161  21.676  21.581  1.00  0.00     0.163 HD
ATOM     82  O   UNL A   1      33.351  23.859  20.566  1.00  0.00    -0.267 OA
BRANCH  80  83
ATOM     83  C   UNL A   1      32.556  24.750  22.591  1.00  0.00     0.170 A 
ATOM     84  C   UNL A   1      33.381  25.503  23.405  1.00  0.00     0.145 A 
ATOM     85  N   UNL A   1      31.262  25.176  22.748  1.00  0.00    -0.125 NA
ATOM     86  N   UNL A   1      32.516  26.278  24.116  1.00  0.00    -0.237 N 
ATOM     87  N   UNL A   1      31.249  26.101  23.695  1.00  0.00    -0.066 NA
BRANCH  86  88
ATOM     88  C   UNL A   1      32.776  27.089  25.258  1.00  0.00     0.218 C 
ATOM     89  C   UNL A   1      33.267  28.530  24.950  1.00  0.00     0.296 C 
ATOM     90  C   UNL A   1      31.557  27.811  25.875  1.00  0.00     0.296 C 
ATOM     91  N   UNL A   1      32.377  29.039  26.013  1.00  0.00    -0.327 N 
ATOM     92  H   UNL A   1      31.947  29.960  25.945  1.00  0.00     0.348 HD
BRANCH  91  93
ATOM     93  C   UNL A   1      33.032  29.222  27.334  1.00  0.00     0.302 C 
BRANCH  93  94
ATOM     94  C   UNL A   1      34.318  30.018  27.420  1.00  0.00     0.045 A 
ATOM     95  C   UNL A   1      35.573  29.385  27.383  1.00  0.00     0.051 A 
ATOM     96  C   UNL A   1      34.282  31.397  27.665  1.00  0.00     0.132 A 
ATOM     97  C   UNL A   1      36.720  30.095  27.730  1.00  0.00     0.123 A 
ATOM     98  C   UNL A   1      35.438  32.111  27.976  1.00  0.00     0.043 A 
ATOM     99  F   UNL A   1      33.110  32.048  27.658  1.00  0.00    -0.206 F 
ATOM    100  F   UNL A   1      37.890  29.448  27.821  1.00  0.00    -0.207 F 
ATOM    101  C   UNL A   1      36.660  31.448  28.045  1.00  0.00     0.042 A 
ENDBRANCH  93  94
ENDBRANCH  91  93
ENDBRANCH  86  88
ENDBRANCH  80  83
ENDBRANCH  78  79
ENDBRANCH  77  78
ENDBRANCH  76  77
ENDBRANCH   1  76
TORSDOF 19
ENDMDL
MODEL 3
REMARK VINA RESULT:     -11.9      2.231      3.197
REMARK SMILES O=C(NCCCCCCNC(=O)c1cn(C2C[NH+](Cc3cc(F)ccc3F)C2)nn1)c1ccc(-c2c3nc(c(-c4c(F)cc(S(=O)(=O)[O-])cc4F)c4ccc([nH]4)c(-c4c(F)cc(S(=O)(=O)[O-])cc4F)c4nc(c(-c5c(F)cc(S(=O)(=O)[O-])cc5F)c5ccc2[nH]5)C=C4)C=C3)cc1
REMARK SMILES IDX 6 1 5 2 4 3 3 4 1 5 2 6 31 8 32 9 96 10 33 11 95 12 34 13
REMARK SMILES IDX 35 14 36 15 89 16 37 17 94 18 88 19 90 20 38 21 93 22 87 23
REMARK SMILES IDX 86 24 39 26 73 27 52 28 72 29 53 30 56 31 71 32 91 33 54 34
REMARK SMILES IDX 55 35 70 37 92 38 57 39 40 40 41 41 50 42 42 43 43 44 49 45
REMARK SMILES IDX 51 46 44 47 45 48 46 49 47 50 48 51 74 52 75 53 84 54 76 55
REMARK SMILES IDX 77 56 83 57 85 58 78 59 79 60 80 61 81 62 82 63 58 64 59 65
REMARK SMILES IDX 68 66 60 67 61 68 67 69 69 70 62 71 63 72 64 73 65 74 66 75
REMARK SMILES IDX 7 76 8 77 9 78 10 79 11 80 12 82 13 83 14 84 30 85 15 86
REMARK SMILES IDX 29 87 16 88 17 89 28 90 18 91 19 93 20 94 21 95 26 96 22 97
REMARK SMILES IDX 25 98 27 99 23 100 24 101
REMARK H PARENT 3 7 90 25 56 36 10 81 18 92
REMARK Flexibility Score: inf
ROOT
ATOM      1  C   UNL A   1      35.938  20.890  25.000  1.00  0.00     0.002 C 
ENDROOT
BRANCH   1   2
ATOM      2  C   UNL A   1      37.408  21.176  24.662  1.00  0.00     0.021 C 
BRANCH   2   3
ATOM      3  C   UNL A   1      38.169  21.980  25.714  1.00  0.00     0.116 C 
BRANCH   3   4
ATOM      4  N   UNL A   1      39.600  21.769  25.700  1.00  0.00    -0.352 N 
ATOM      5  O   UNL A   1      41.758  21.811  26.121  1.00  0.00    -0.269 OA
ATOM      6  C   UNL A   1      40.685  22.411  26.230  1.00  0.00     0.251 C 
ATOM      7  H   UNL A   1      39.855  20.971  25.183  1.00  0.00     0.163 HD
BRANCH   6   8
ATOM      8  C   UNL A   1      40.685  23.768  26.852  1.00  0.00     0.039 A 
ATOM      9  C   UNL A   1      39.816  24.817  26.556  1.00  0.00     0.014 A 
ATOM     10  C   UNL A   1      41.688  23.990  27.820  1.00  0.00     0.014 A 
ATOM     11  C   UNL A   1      39.994  26.069  27.157  1.00  0.00     0.010 A 
ATOM     12  C   UNL A   1      41.870  25.236  28.420  1.00  0.00     0.010 A 
ATOM     13  C   UNL A   1      41.040  26.290  28.066  1.00  0.00    -0.014 A 
BRANCH  13  14
ATOM     14  C   UNL A   1      41.088  27.565  28.788  1.00  0.00     0.031 A 
ATOM     15  C   UNL A   1      42.189  28.456  28.321  1.00  0.00     0.074 A 
ATOM     16  C   UNL A   1      40.190  28.008  29.697  1.00  0.00     0.049 A 
ATOM     17  N   UNL A   1      43.286  28.738  28.943  1.00  0.00    -0.248 NA
ATOM     18  C   UNL A   1      42.142  28.962  26.940  1.00  0.00     0.031 C 
ATOM     19  C   UNL A   1      38.901  27.419  30.060  1.00  0.00     0.029 A 
ATOM     20  N   UNL A   1      40.219  29.149  30.454  1.00  0.00    -0.354 N 
ATOM     21  C   UNL A   1      43.962  29.648  28.134  1.00  0.00     0.074 A 
ATOM     22  C   UNL A   1      43.311  29.600  26.851  1.00  0.00     0.031 C 
ATOM     23  C   UNL A   1      38.188  28.308  30.796  1.00  0.00     0.029 A 
ATOM     24  C   UNL A   1      39.014  29.471  31.080  1.00  0.00     0.049 A 
ATOM     25  H   UNL A   1      41.030  29.700  30.551  1.00  0.00     0.167 HD
ATOM     26  C   UNL A   1      44.857  30.531  28.660  1.00  0.00     0.037 A 
ATOM     27  C   UNL A   1      38.712  30.617  31.754  1.00  0.00     0.037 A 
ATOM     28  C   UNL A   1      45.236  30.146  29.996  1.00  0.00     0.049 A 
ATOM     29  C   UNL A   1      39.995  31.243  32.158  1.00  0.00     0.074 A 
ATOM     30  C   UNL A   1      45.822  29.032  30.565  1.00  0.00     0.029 A 
ATOM     31  N   UNL A   1      44.667  30.840  31.036  1.00  0.00    -0.354 N 
ATOM     32  N   UNL A   1      40.805  30.734  33.044  1.00  0.00    -0.248 NA
ATOM     33  C   UNL A   1      40.592  32.205  31.247  1.00  0.00     0.031 C 
ATOM     34  C   UNL A   1      45.153  28.861  31.811  1.00  0.00     0.029 A 
ATOM     35  C   UNL A   1      44.261  29.921  31.967  1.00  0.00     0.049 A 
ATOM     36  H   UNL A   1      44.569  31.817  31.100  1.00  0.00     0.167 HD
ATOM     37  C   UNL A   1      42.070  30.946  32.520  1.00  0.00     0.074 A 
ATOM     38  C   UNL A   1      41.881  31.928  31.454  1.00  0.00     0.031 C 
ATOM     39  C   UNL A   1      43.101  30.099  32.810  1.00  0.00     0.037 A 
BRANCH  26  40
ATOM     40  C   UNL A   1      45.099  31.930  28.141  1.00  0.00     0.058 A 
ATOM     41  C   UNL A   1      46.413  32.317  27.799  1.00  0.00     0.135 A 
ATOM     42  C   UNL A   1      44.165  32.983  28.245  1.00  0.00     0.135 A 
ATOM     43  F   UNL A   1      47.388  31.402  27.679  1.00  0.00    -0.206 F 
ATOM     44  C   UNL A   1      46.787  33.653  27.652  1.00  0.00     0.059 A 
ATOM     45  C   UNL A   1      44.505  34.318  28.050  1.00  0.00     0.059 A 
ATOM     46  F   UNL A   1      42.902  32.783  28.636  1.00  0.00    -0.206 F 
ATOM     47  C   UNL A   1      45.825  34.647  27.790  1.00  0.00     0.060 A 
BRANCH  47  48
ATOM     48  S   UNL A   1      46.319  36.375  27.671  1.00  0.00     0.124 S 
ATOM     49  O   UNL A   1      47.710  36.312  28.103  1.00  0.00    -0.237 OA
ATOM     50  O   UNL A   1      46.100  36.652  26.255  1.00  0.00    -0.237 OA
ATOM     51  O   UNL A   1      45.402  37.050  28.584  1.00  0.00    -0.744 OA
ENDBRANCH  47  48
ENDBRANCH  26  40
BRANCH  27  52
ATOM     52  C   UNL A   1      37.430  31.386  31.811  1.00  0.00     0.058 A 
ATOM     53  C   UNL A   1      36.848  31.762  33.040  1.00  0.00     0.135 A 
ATOM     54  C   UNL A   1      36.926  32.039  30.671  1.00  0.00     0.135 A 
ATOM     55  F   UNL A   1      37.273  31.208  34.187  1.00  0.00    -0.206 F 
ATOM     56  C   UNL A   1      35.876  32.768  33.138  1.00  0.00     0.059 A 
ATOM     57  C   UNL A   1      35.954  33.040  30.743  1.00  0.00     0.059 A 
ATOM     58  F   UNL A   1      37.438  31.795  29.457  1.00  0.00    -0.206 F 
ATOM     59  C   UNL A   1      35.452  33.420  31.983  1.00  0.00     0.060 A 
BRANCH  59  60
ATOM     60  S   UNL A   1      34.346  34.849  32.114  1.00  0.00     0.124 S 
ATOM     61  O   UNL A   1      35.154  35.789  32.883  1.00  0.00    -0.237 OA
ATOM     62  O   UNL A   1      34.121  35.198  30.716  1.00  0.00    -0.237 OA
ATOM     63  O   UNL A   1      33.181  34.311  32.812  1.00  0.00    -0.744 OA
ENDBRANCH  59  60
ENDBRANCH  27  52
BRANCH  39  64
ATOM     64  C   UNL A   1      42.951  29.151  33.970  1.00  0.00     0.058 A 
ATOM     65  C   UNL A   1      43.223  29.460  35.314  1.00  0.00     0.135 A 
ATOM     66  C   UNL A   1      42.375  27.898  33.705  1.00  0.00     0.135 A 
ATOM     67  F   UNL A   1      43.674  30.672  35.669  1.00  0.00    -0.206 F 
ATOM     68  C   UNL A   1      42.979  28.544  36.341  1.00  0.00     0.059 A 
ATOM     69  C   UNL A   1      42.090  26.986  34.714  1.00  0.00     0.059 A 
ATOM     70  F   UNL A   1      42.038  27.564  32.448  1.00  0.00    -0.206 F 
ATOM     71  C   UNL A   1      42.412  27.307  36.029  1.00  0.00     0.060 A 
BRANCH  71  72
ATOM     72  S   UNL A   1      42.043  26.141  37.357  1.00  0.00     0.124 S 
ATOM     73  O   UNL A   1      43.066  26.469  38.345  1.00  0.00    -0.237 OA
ATOM     74  O   UNL A   1      40.674  26.497  37.719  1.00  0.00    -0.237 OA
ATOM     75  O   UNL A   1      42.189  24.836  36.717  1.00  0.00    -0.744 OA
ENDBRANCH  71  72
ENDBRANCH  39  64
ENDBRANCH  13  14
ENDBRANCH   6   8
ENDBRANCH   3   4
ENDBRANCH   2   3
ENDBRANCH   1   2
BRANCH   1  76
ATOM     76  C   UNL A   1      35.233  21.931  25.877  1.00  0.00     0.002 C 
BRANCH  76  77
ATOM     77  C   UNL A   1      34.049  21.412  26.697  1.00  0.00     0.021 C 
BRANCH  77  78
ATOM     78  C   UNL A   1      32.675  21.707  26.096  1.00  0.00     0.116 C 
BRANCH  78  79
ATOM     79  N   UNL A   1      32.546  21.174  24.750  1.00  0.00    -0.351 N 
ATOM     80  C   UNL A   1      32.306  21.845  23.570  1.00  0.00     0.273 C 
ATOM     81  H   UNL A   1      32.643  20.198  24.671  1.00  0.00     0.163 HD
ATOM     82  O   UNL A   1      31.999  21.208  22.573  1.00  0.00    -0.267 OA
BRANCH  80  83
ATOM     83  C   UNL A   1      32.419  23.293  23.573  1.00  0.00     0.170 A 
ATOM     84  C   UNL A   1      31.576  24.221  24.156  1.00  0.00     0.145 A 
ATOM     85  N   UNL A   1      33.446  23.952  22.948  1.00  0.00    -0.125 NA
ATOM     86  N   UNL A   1      32.078  25.418  23.746  1.00  0.00    -0.237 N 
ATOM     87  N   UNL A   1      33.218  25.253  23.048  1.00  0.00    -0.066 NA
BRANCH  86  88
ATOM     88  C   UNL A   1      31.496  26.714  23.853  1.00  0.00     0.218 C 
ATOM     89  C   UNL A   1      31.450  27.532  22.534  1.00  0.00     0.296 C 
ATOM     90  C   UNL A   1      29.955  26.782  23.758  1.00  0.00     0.296 C 
ATOM     91  N   UNL A   1      30.080  27.965  22.874  1.00  0.00    -0.327 N 
ATOM     92  H   UNL A   1      29.388  28.146  22.148  1.00  0.00     0.348 HD
BRANCH  91  93
ATOM     93  C   UNL A   1      29.998  29.282  23.558  1.00  0.00     0.302 C 
BRANCH  93  94
ATOM     94  C   UNL A   1      29.182  30.394  22.930  1.00  0.00     0.045 A 
ATOM     95  C   UNL A   1      28.544  30.221  21.690  1.00  0.00     0.051 A 
ATOM     96  C   UNL A   1      29.151  31.666  23.516  1.00  0.00     0.132 A 
ATOM     97  C   UNL A   1      28.032  31.325  21.010  1.00  0.00     0.123 A 
ATOM     98  C   UNL A   1      28.605  32.762  22.848  1.00  0.00     0.043 A 
ATOM     99  F   UNL A   1      29.704  31.863  24.721  1.00  0.00    -0.206 F 
ATOM    100  F   UNL A   1      27.547  31.166  19.772  1.00  0.00    -0.207 F 
ATOM    101  C   UNL A   1      28.075  32.596  21.571  1.00  0.00     0.042 A 
ENDBRANCH  93  94
ENDBRANCH  91  93
ENDBRANCH  86  88
ENDBRANCH  80  83
ENDBRANCH  78  79
ENDBRANCH  77  78
ENDBRANCH  76  77
ENDBRANCH   1  76
TORSDOF 19
ENDMDL
