MODEL 1
REMARK VINA RESULT:     -11.2      0.000      0.000
REMARK SMILES O=C(/C=C/C(=O)NNC(=O)CSc1ccc2ccccc2n1)NCCCCCCNC(=O)c1ccc(-c2c3nc(c(-c4c(F)cc(S(=O)(=O)[O-])cc4F)c4ccc([nH]4)c(-c4c(F)cc(S(=O)(=O)[O-])cc4F)c4nc(c(-c5c(F)cc(S(=O)(=O)[O-])cc5F)c5ccc2[nH]5)C=C4)C=C3)cc1
REMARK SMILES IDX 25 1 24 2 23 3 1 4 2 5 3 7 4 8 5 9 6 10 7 11 8 13 9 14 10 16
REMARK SMILES IDX 11 17 12 18 13 19 14 20 22 21 15 22 21 23 16 24 20 25 17 26
REMARK SMILES IDX 19 27 18 28 26 29 27 30 28 31 29 32 30 33 31 34 32 36 33 37
REMARK SMILES IDX 34 38 98 39 35 40 97 41 36 42 37 43 38 44 91 45 39 46 96 47
REMARK SMILES IDX 90 48 92 49 40 50 95 51 89 52 88 53 41 55 75 56 54 57 74 58
REMARK SMILES IDX 55 59 58 60 73 61 93 62 56 63 57 64 72 66 94 67 59 68 42 69
REMARK SMILES IDX 43 70 52 71 44 72 45 73 51 74 53 75 46 76 47 77 48 78 49 79
REMARK SMILES IDX 50 80 76 81 77 82 86 83 78 84 79 85 85 86 87 87 80 88 81 89
REMARK SMILES IDX 82 90 83 91 84 92 60 93 61 94 70 95 62 96 63 97 69 98 71 99
REMARK SMILES IDX 64 100 65 101 66 102 67 103 68 104
REMARK H PARENT 23 6 7 12 8 15 30 35 92 54 58 65
REMARK Flexibility Score: inf
ROOT
ATOM      1  C   UNL A   1      35.508  33.774  34.546  1.00  0.00     0.021 C 
ENDROOT
BRANCH   1   2
ATOM      2  C   UNL A   1      34.793  35.124  34.475  1.00  0.00     0.116 C 
BRANCH   2   3
ATOM      3  N   UNL A   1      34.305  35.414  33.140  1.00  0.00    -0.353 N 
ATOM      4  O   UNL A   1      33.657  37.585  33.562  1.00  0.00    -0.270 OA
ATOM      5  C   UNL A   1      33.763  36.627  32.809  1.00  0.00     0.244 C 
ATOM      6  H   UNL A   1      34.363  34.715  32.449  1.00  0.00     0.163 HD
BRANCH   5   7
ATOM      7  C   UNL A   1      33.327  36.771  31.402  1.00  0.00     0.077 C 
ATOM      8  C   UNL A   1      33.667  35.885  30.457  1.00  0.00     0.078 C 
BRANCH   8   9
ATOM      9  C   UNL A   1      33.209  35.940  29.051  1.00  0.00     0.262 C 
ATOM     10  O   UNL A   1      32.133  36.484  28.805  1.00  0.00    -0.268 OA
ATOM     11  N   UNL A   1      33.997  35.479  28.030  1.00  0.00    -0.264 N 
ATOM     12  H   UNL A   1      33.644  35.577  27.117  1.00  0.00     0.191 HD
BRANCH  11  13
ATOM     13  N   UNL A   1      35.249  34.886  28.157  1.00  0.00    -0.267 N 
ATOM     14  C   UNL A   1      35.467  33.530  28.210  1.00  0.00     0.248 C 
ATOM     15  H   UNL A   1      36.032  35.478  28.213  1.00  0.00     0.191 HD
ATOM     16  O   UNL A   1      36.599  33.130  28.495  1.00  0.00    -0.272 OA
BRANCH  14  17
ATOM     17  C   UNL A   1      34.377  32.544  27.831  1.00  0.00     0.178 C 
BRANCH  17  18
ATOM     18  S   UNL A   1      34.861  30.798  27.881  1.00  0.00    -0.096 SA
BRANCH  18  19
ATOM     19  C   UNL A   1      33.646  30.025  26.839  1.00  0.00     0.097 A 
ATOM     20  C   UNL A   1      32.373  30.543  26.660  1.00  0.00     0.036 A 
ATOM     21  N   UNL A   1      34.105  28.967  26.135  1.00  0.00    -0.241 NA
ATOM     22  C   UNL A   1      31.541  29.958  25.710  1.00  0.00     0.013 A 
ATOM     23  C   UNL A   1      33.312  28.416  25.198  1.00  0.00     0.072 A 
ATOM     24  C   UNL A   1      32.008  28.887  24.944  1.00  0.00     0.000 A 
ATOM     25  C   UNL A   1      33.787  27.361  24.429  1.00  0.00     0.029 A 
ATOM     26  C   UNL A   1      31.225  28.306  23.933  1.00  0.00     0.010 A 
ATOM     27  C   UNL A   1      33.014  26.784  23.415  1.00  0.00     0.002 A 
ATOM     28  C   UNL A   1      31.732  27.260  23.165  1.00  0.00     0.001 A 
ENDBRANCH  18  19
ENDBRANCH  17  18
ENDBRANCH  14  17
ENDBRANCH  11  13
ENDBRANCH   8   9
ENDBRANCH   5   7
ENDBRANCH   2   3
ENDBRANCH   1   2
BRANCH   1  29
ATOM     29  C   UNL A   1      36.927  33.827  35.123  1.00  0.00     0.002 C 
BRANCH  29  30
ATOM     30  C   UNL A   1      38.059  33.853  34.091  1.00  0.00     0.002 C 
BRANCH  30  31
ATOM     31  C   UNL A   1      37.998  32.759  33.022  1.00  0.00     0.021 C 
BRANCH  31  32
ATOM     32  C   UNL A   1      37.861  31.339  33.563  1.00  0.00     0.116 C 
BRANCH  32  33
ATOM     33  N   UNL A   1      36.908  30.545  32.803  1.00  0.00    -0.352 N 
ATOM     34  C   UNL A   1      37.078  29.888  31.606  1.00  0.00     0.251 C 
ATOM     35  H   UNL A   1      36.012  30.467  33.202  1.00  0.00     0.163 HD
ATOM     36  O   UNL A   1      36.111  29.416  31.022  1.00  0.00    -0.269 OA
BRANCH  34  37
ATOM     37  C   UNL A   1      38.432  29.778  31.016  1.00  0.00     0.039 A 
ATOM     38  C   UNL A   1      39.460  29.222  31.780  1.00  0.00     0.014 A 
ATOM     39  C   UNL A   1      38.680  30.207  29.709  1.00  0.00     0.014 A 
ATOM     40  C   UNL A   1      40.719  29.028  31.207  1.00  0.00     0.010 A 
ATOM     41  C   UNL A   1      39.912  29.945  29.117  1.00  0.00     0.010 A 
ATOM     42  C   UNL A   1      40.943  29.347  29.856  1.00  0.00    -0.014 A 
BRANCH  42  43
ATOM     43  C   UNL A   1      42.237  29.036  29.195  1.00  0.00     0.031 A 
ATOM     44  C   UNL A   1      42.499  27.660  28.645  1.00  0.00     0.074 A 
ATOM     45  C   UNL A   1      43.207  29.971  29.161  1.00  0.00     0.049 A 
ATOM     46  N   UNL A   1      43.590  27.180  28.107  1.00  0.00    -0.248 NA
ATOM     47  C   UNL A   1      41.397  26.690  28.735  1.00  0.00     0.031 C 
ATOM     48  C   UNL A   1      43.094  31.325  29.711  1.00  0.00     0.029 A 
ATOM     49  N   UNL A   1      44.484  29.923  28.662  1.00  0.00    -0.354 N 
ATOM     50  C   UNL A   1      43.312  25.852  27.803  1.00  0.00     0.074 A 
ATOM     51  C   UNL A   1      41.968  25.588  28.271  1.00  0.00     0.031 C 
ATOM     52  C   UNL A   1      44.248  31.980  29.509  1.00  0.00     0.029 A 
ATOM     53  C   UNL A   1      45.197  31.083  28.857  1.00  0.00     0.049 A 
ATOM     54  H   UNL A   1      44.856  29.133  28.206  1.00  0.00     0.167 HD
ATOM     55  C   UNL A   1      44.097  24.944  27.174  1.00  0.00     0.037 A 
ATOM     56  C   UNL A   1      46.477  31.388  28.564  1.00  0.00     0.037 A 
ATOM     57  C   UNL A   1      45.431  25.219  26.708  1.00  0.00     0.049 A 
ATOM     58  C   UNL A   1      47.337  30.361  27.878  1.00  0.00     0.074 A 
ATOM     59  C   UNL A   1      46.287  24.385  26.009  1.00  0.00     0.029 A 
ATOM     60  N   UNL A   1      46.111  26.413  26.905  1.00  0.00    -0.354 N 
ATOM     61  N   UNL A   1      47.031  29.134  27.529  1.00  0.00    -0.248 NA
ATOM     62  C   UNL A   1      48.710  30.758  27.542  1.00  0.00     0.031 C 
ATOM     63  C   UNL A   1      47.502  25.055  25.832  1.00  0.00     0.029 A 
ATOM     64  C   UNL A   1      47.386  26.327  26.367  1.00  0.00     0.049 A 
ATOM     65  H   UNL A   1      45.742  27.205  27.359  1.00  0.00     0.167 HD
ATOM     66  C   UNL A   1      48.168  28.619  26.914  1.00  0.00     0.074 A 
ATOM     67  C   UNL A   1      49.160  29.674  26.925  1.00  0.00     0.031 C 
ATOM     68  C   UNL A   1      48.368  27.385  26.387  1.00  0.00     0.037 A 
BRANCH  55  69
ATOM     69  C   UNL A   1      43.530  23.564  26.963  1.00  0.00     0.058 A 
ATOM     70  C   UNL A   1      43.442  22.633  28.012  1.00  0.00     0.135 A 
ATOM     71  C   UNL A   1      43.054  23.172  25.702  1.00  0.00     0.135 A 
ATOM     72  F   UNL A   1      43.892  22.948  29.237  1.00  0.00    -0.206 F 
ATOM     73  C   UNL A   1      42.942  21.350  27.807  1.00  0.00     0.059 A 
ATOM     74  C   UNL A   1      42.519  21.905  25.483  1.00  0.00     0.059 A 
ATOM     75  F   UNL A   1      43.108  24.020  24.664  1.00  0.00    -0.206 F 
ATOM     76  C   UNL A   1      42.487  20.994  26.537  1.00  0.00     0.060 A 
BRANCH  76  77
ATOM     77  S   UNL A   1      41.861  19.320  26.286  1.00  0.00     0.124 S 
ATOM     78  O   UNL A   1      40.427  19.562  26.163  1.00  0.00    -0.237 OA
ATOM     79  O   UNL A   1      42.543  18.913  25.062  1.00  0.00    -0.237 OA
ATOM     80  O   UNL A   1      42.276  18.616  27.495  1.00  0.00    -0.744 OA
ENDBRANCH  76  77
ENDBRANCH  55  69
BRANCH  56  81
ATOM     81  C   UNL A   1      47.014  32.729  28.918  1.00  0.00     0.058 A 
ATOM     82  C   UNL A   1      47.535  32.991  30.194  1.00  0.00     0.135 A 
ATOM     83  C   UNL A   1      47.049  33.768  27.973  1.00  0.00     0.135 A 
ATOM     84  F   UNL A   1      47.517  32.034  31.134  1.00  0.00    -0.206 F 
ATOM     85  C   UNL A   1      48.065  34.234  30.523  1.00  0.00     0.059 A 
ATOM     86  C   UNL A   1      47.599  35.011  28.270  1.00  0.00     0.059 A 
ATOM     87  F   UNL A   1      46.578  33.565  26.732  1.00  0.00    -0.206 F 
ATOM     88  C   UNL A   1      48.100  35.236  29.551  1.00  0.00     0.060 A 
BRANCH  88  89
ATOM     89  S   UNL A   1      48.854  36.824  29.969  1.00  0.00     0.124 S 
ATOM     90  O   UNL A   1      49.124  37.377  28.647  1.00  0.00    -0.237 OA
ATOM     91  O   UNL A   1      47.792  37.474  30.730  1.00  0.00    -0.237 OA
ATOM     92  O   UNL A   1      50.029  36.443  30.747  1.00  0.00    -0.744 OA
ENDBRANCH  88  89
ENDBRANCH  56  81
BRANCH  68  93
ATOM     93  C   UNL A   1      49.706  27.107  25.757  1.00  0.00     0.058 A 
ATOM     94  C   UNL A   1      49.906  27.205  24.371  1.00  0.00     0.135 A 
ATOM     95  C   UNL A   1      50.819  26.800  26.558  1.00  0.00     0.135 A 
ATOM     96  F   UNL A   1      48.875  27.486  23.558  1.00  0.00    -0.206 F 
ATOM     97  C   UNL A   1      51.157  26.990  23.800  1.00  0.00     0.059 A 
ATOM     98  C   UNL A   1      52.084  26.612  26.011  1.00  0.00     0.059 A 
ATOM     99  F   UNL A   1      50.687  26.702  27.890  1.00  0.00    -0.206 F 
ATOM    100  C   UNL A   1      52.241  26.699  24.629  1.00  0.00     0.060 A 
BRANCH 100 101
ATOM    101  S   UNL A   1      53.866  26.469  23.877  1.00  0.00     0.124 S 
ATOM    102  O   UNL A   1      53.524  26.353  22.465  1.00  0.00    -0.237 OA
ATOM    103  O   UNL A   1      54.564  27.691  24.263  1.00  0.00    -0.237 OA
ATOM    104  O   UNL A   1      54.362  25.248  24.505  1.00  0.00    -0.744 OA
ENDBRANCH 100 101
ENDBRANCH  68  93
ENDBRANCH  42  43
ENDBRANCH  34  37
ENDBRANCH  32  33
ENDBRANCH  31  32
ENDBRANCH  30  31
ENDBRANCH  29  30
ENDBRANCH   1  29
TORSDOF 21
ENDMDL
MODEL 2
REMARK VINA RESULT:     -11.1      2.547      9.149
REMARK SMILES O=C(/C=C/C(=O)NNC(=O)CSc1ccc2ccccc2n1)NCCCCCCNC(=O)c1ccc(-c2c3nc(c(-c4c(F)cc(S(=O)(=O)[O-])cc4F)c4ccc([nH]4)c(-c4c(F)cc(S(=O)(=O)[O-])cc4F)c4nc(c(-c5c(F)cc(S(=O)(=O)[O-])cc5F)c5ccc2[nH]5)C=C4)C=C3)cc1
REMARK SMILES IDX 25 1 24 2 23 3 1 4 2 5 3 7 4 8 5 9 6 10 7 11 8 13 9 14 10 16
REMARK SMILES IDX 11 17 12 18 13 19 14 20 22 21 15 22 21 23 16 24 20 25 17 26
REMARK SMILES IDX 19 27 18 28 26 29 27 30 28 31 29 32 30 33 31 34 32 36 33 37
REMARK SMILES IDX 34 38 98 39 35 40 97 41 36 42 37 43 38 44 91 45 39 46 96 47
REMARK SMILES IDX 90 48 92 49 40 50 95 51 89 52 88 53 41 55 75 56 54 57 74 58
REMARK SMILES IDX 55 59 58 60 73 61 93 62 56 63 57 64 72 66 94 67 59 68 42 69
REMARK SMILES IDX 43 70 52 71 44 72 45 73 51 74 53 75 46 76 47 77 48 78 49 79
REMARK SMILES IDX 50 80 76 81 77 82 86 83 78 84 79 85 85 86 87 87 80 88 81 89
REMARK SMILES IDX 82 90 83 91 84 92 60 93 61 94 70 95 62 96 63 97 69 98 71 99
REMARK SMILES IDX 64 100 65 101 66 102 67 103 68 104
REMARK H PARENT 23 6 7 12 8 15 30 35 92 54 58 65
REMARK Flexibility Score: inf
ROOT
ATOM      1  C   UNL A   1      35.229  30.818  28.539  1.00  0.00     0.021 C 
ENDROOT
BRANCH   1   2
ATOM      2  C   UNL A   1      34.798  29.528  27.843  1.00  0.00     0.116 C 
BRANCH   2   3
ATOM      3  N   UNL A   1      34.042  29.787  26.632  1.00  0.00    -0.353 N 
ATOM      4  O   UNL A   1      31.959  29.385  27.530  1.00  0.00    -0.270 OA
ATOM      5  C   UNL A   1      32.679  29.677  26.585  1.00  0.00     0.244 C 
ATOM      6  H   UNL A   1      34.526  30.051  25.816  1.00  0.00     0.163 HD
BRANCH   5   7
ATOM      7  C   UNL A   1      32.055  29.991  25.281  1.00  0.00     0.077 C 
ATOM      8  C   UNL A   1      31.143  29.189  24.716  1.00  0.00     0.078 C 
BRANCH   8   9
ATOM      9  C   UNL A   1      30.439  29.481  23.448  1.00  0.00     0.262 C 
ATOM     10  O   UNL A   1      29.256  29.818  23.497  1.00  0.00    -0.268 OA
ATOM     11  N   UNL A   1      31.100  29.467  22.248  1.00  0.00    -0.264 N 
ATOM     12  H   UNL A   1      30.577  29.703  21.449  1.00  0.00     0.191 HD
BRANCH  11  13
ATOM     13  N   UNL A   1      32.440  29.150  22.050  1.00  0.00    -0.267 N 
ATOM     14  C   UNL A   1      32.966  27.885  22.155  1.00  0.00     0.248 C 
ATOM     15  H   UNL A   1      33.054  29.884  21.818  1.00  0.00     0.191 HD
ATOM     16  O   UNL A   1      34.193  27.756  22.124  1.00  0.00    -0.272 OA
BRANCH  14  17
ATOM     17  C   UNL A   1      32.068  26.663  22.205  1.00  0.00     0.178 C 
BRANCH  17  18
ATOM     18  S   UNL A   1      32.587  25.276  21.160  1.00  0.00    -0.096 SA
BRANCH  18  19
ATOM     19  C   UNL A   1      33.133  24.073  22.350  1.00  0.00     0.097 A 
ATOM     20  C   UNL A   1      32.293  23.103  22.875  1.00  0.00     0.036 A 
ATOM     21  N   UNL A   1      34.460  24.097  22.602  1.00  0.00    -0.241 NA
ATOM     22  C   UNL A   1      32.841  22.111  23.683  1.00  0.00     0.013 A 
ATOM     23  C   UNL A   1      34.996  23.124  23.361  1.00  0.00     0.072 A 
ATOM     24  C   UNL A   1      34.217  22.095  23.925  1.00  0.00     0.000 A 
ATOM     25  C   UNL A   1      36.366  23.104  23.586  1.00  0.00     0.029 A 
ATOM     26  C   UNL A   1      34.820  21.077  24.683  1.00  0.00     0.010 A 
ATOM     27  C   UNL A   1      36.974  22.089  24.333  1.00  0.00     0.002 A 
ATOM     28  C   UNL A   1      36.199  21.072  24.880  1.00  0.00     0.001 A 
ENDBRANCH  18  19
ENDBRANCH  17  18
ENDBRANCH  14  17
ENDBRANCH  11  13
ENDBRANCH   8   9
ENDBRANCH   5   7
ENDBRANCH   2   3
ENDBRANCH   1   2
BRANCH   1  29
ATOM     29  C   UNL A   1      35.384  32.030  27.612  1.00  0.00     0.002 C 
BRANCH  29  30
ATOM     30  C   UNL A   1      36.403  33.081  28.065  1.00  0.00     0.002 C 
BRANCH  30  31
ATOM     31  C   UNL A   1      36.180  33.649  29.468  1.00  0.00     0.021 C 
BRANCH  31  32
ATOM     32  C   UNL A   1      37.200  33.203  30.512  1.00  0.00     0.116 C 
BRANCH  32  33
ATOM     33  N   UNL A   1      36.631  32.287  31.488  1.00  0.00    -0.352 N 
ATOM     34  C   UNL A   1      36.995  30.994  31.788  1.00  0.00     0.251 C 
ATOM     35  H   UNL A   1      35.876  32.643  32.010  1.00  0.00     0.163 HD
ATOM     36  O   UNL A   1      36.287  30.310  32.516  1.00  0.00    -0.269 OA
BRANCH  34  37
ATOM     37  C   UNL A   1      38.232  30.427  31.204  1.00  0.00     0.039 A 
ATOM     38  C   UNL A   1      38.418  30.488  29.822  1.00  0.00     0.014 A 
ATOM     39  C   UNL A   1      39.210  29.853  32.020  1.00  0.00     0.014 A 
ATOM     40  C   UNL A   1      39.618  30.040  29.265  1.00  0.00     0.010 A 
ATOM     41  C   UNL A   1      40.434  29.476  31.474  1.00  0.00     0.010 A 
ATOM     42  C   UNL A   1      40.654  29.572  30.092  1.00  0.00    -0.014 A 
BRANCH  42  43
ATOM     43  C   UNL A   1      41.981  29.206  29.532  1.00  0.00     0.031 A 
ATOM     44  C   UNL A   1      43.063  30.243  29.396  1.00  0.00     0.074 A 
ATOM     45  C   UNL A   1      42.186  27.955  29.072  1.00  0.00     0.049 A 
ATOM     46  N   UNL A   1      44.251  30.133  28.860  1.00  0.00    -0.248 NA
ATOM     47  C   UNL A   1      42.756  31.589  29.904  1.00  0.00     0.031 C 
ATOM     48  C   UNL A   1      41.197  26.874  29.097  1.00  0.00     0.029 A 
ATOM     49  N   UNL A   1      43.283  27.385  28.477  1.00  0.00    -0.354 N 
ATOM     50  C   UNL A   1      44.831  31.392  28.960  1.00  0.00     0.074 A 
ATOM     51  C   UNL A   1      43.841  32.265  29.552  1.00  0.00     0.031 C 
ATOM     52  C   UNL A   1      41.735  25.772  28.553  1.00  0.00     0.029 A 
ATOM     53  C   UNL A   1      43.089  26.076  28.100  1.00  0.00     0.049 A 
ATOM     54  H   UNL A   1      44.130  27.867  28.332  1.00  0.00     0.167 HD
ATOM     55  C   UNL A   1      46.081  31.780  28.607  1.00  0.00     0.037 A 
ATOM     56  C   UNL A   1      43.900  25.221  27.447  1.00  0.00     0.037 A 
ATOM     57  C   UNL A   1      47.061  30.901  28.022  1.00  0.00     0.049 A 
ATOM     58  C   UNL A   1      45.279  25.674  27.052  1.00  0.00     0.074 A 
ATOM     59  C   UNL A   1      48.373  31.182  27.683  1.00  0.00     0.029 A 
ATOM     60  N   UNL A   1      46.835  29.576  27.677  1.00  0.00    -0.354 N 
ATOM     61  N   UNL A   1      45.839  26.848  27.223  1.00  0.00    -0.248 NA
ATOM     62  C   UNL A   1      46.138  24.690  26.380  1.00  0.00     0.031 C 
ATOM     63  C   UNL A   1      48.922  30.044  27.081  1.00  0.00     0.029 A 
ATOM     64  C   UNL A   1      47.973  29.035  27.100  1.00  0.00     0.049 A 
ATOM     65  H   UNL A   1      45.990  29.091  27.821  1.00  0.00     0.167 HD
ATOM     66  C   UNL A   1      47.123  26.737  26.699  1.00  0.00     0.074 A 
ATOM     67  C   UNL A   1      47.261  25.377  26.220  1.00  0.00     0.031 C 
ATOM     68  C   UNL A   1      48.098  27.678  26.624  1.00  0.00     0.037 A 
BRANCH  55  69
ATOM     69  C   UNL A   1      46.453  33.221  28.840  1.00  0.00     0.058 A 
ATOM     70  C   UNL A   1      46.384  34.176  27.812  1.00  0.00     0.135 A 
ATOM     71  C   UNL A   1      46.866  33.657  30.108  1.00  0.00     0.135 A 
ATOM     72  F   UNL A   1      46.007  33.815  26.575  1.00  0.00    -0.206 F 
ATOM     73  C   UNL A   1      46.754  35.501  28.023  1.00  0.00     0.059 A 
ATOM     74  C   UNL A   1      47.209  34.985  30.350  1.00  0.00     0.059 A 
ATOM     75  F   UNL A   1      46.947  32.790  31.129  1.00  0.00    -0.206 F 
ATOM     76  C   UNL A   1      47.169  35.895  29.295  1.00  0.00     0.060 A 
BRANCH  76  77
ATOM     77  S   UNL A   1      47.663  37.613  29.545  1.00  0.00     0.124 S 
ATOM     78  O   UNL A   1      47.429  37.777  30.977  1.00  0.00    -0.237 OA
ATOM     79  O   UNL A   1      49.062  37.599  29.129  1.00  0.00    -0.237 OA
ATOM     80  O   UNL A   1      46.760  38.358  28.674  1.00  0.00    -0.744 OA
ENDBRANCH  76  77
ENDBRANCH  55  69
BRANCH  56  81
ATOM     81  C   UNL A   1      43.421  23.847  27.133  1.00  0.00     0.058 A 
ATOM     82  C   UNL A   1      42.966  23.511  25.850  1.00  0.00     0.135 A 
ATOM     83  C   UNL A   1      43.443  22.833  28.104  1.00  0.00     0.135 A 
ATOM     84  F   UNL A   1      42.918  24.446  24.889  1.00  0.00    -0.206 F 
ATOM     85  C   UNL A   1      42.545  22.222  25.541  1.00  0.00     0.059 A 
ATOM     86  C   UNL A   1      43.053  21.530  27.812  1.00  0.00     0.059 A 
ATOM     87  F   UNL A   1      43.886  23.098  29.344  1.00  0.00    -0.206 F 
ATOM     88  C   UNL A   1      42.599  21.236  26.528  1.00  0.00     0.060 A 
BRANCH  88  89
ATOM     89  S   UNL A   1      42.115  19.550  26.096  1.00  0.00     0.124 S 
ATOM     90  O   UNL A   1      40.677  19.698  25.902  1.00  0.00    -0.237 OA
ATOM     91  O   UNL A   1      42.901  19.307  24.890  1.00  0.00    -0.237 OA
ATOM     92  O   UNL A   1      42.518  18.775  27.265  1.00  0.00    -0.744 OA
ENDBRANCH  88  89
ENDBRANCH  56  81
BRANCH  68  93
ATOM     93  C   UNL A   1      49.414  27.268  26.019  1.00  0.00     0.058 A 
ATOM     94  C   UNL A   1      50.484  26.820  26.810  1.00  0.00     0.135 A 
ATOM     95  C   UNL A   1      49.585  27.266  24.624  1.00  0.00     0.135 A 
ATOM     96  F   UNL A   1      50.377  26.810  28.148  1.00  0.00    -0.206 F 
ATOM     97  C   UNL A   1      51.682  26.400  26.240  1.00  0.00     0.059 A 
ATOM     98  C   UNL A   1      50.763  26.822  24.033  1.00  0.00     0.059 A 
ATOM     99  F   UNL A   1      48.592  27.677  23.820  1.00  0.00    -0.206 F 
ATOM    100  C   UNL A   1      51.810  26.399  24.850  1.00  0.00     0.060 A 
BRANCH 100 101
ATOM    101  S   UNL A   1      53.354  25.808  24.125  1.00  0.00     0.124 S 
ATOM    102  O   UNL A   1      53.079  25.936  22.699  1.00  0.00    -0.237 OA
ATOM    103  O   UNL A   1      54.332  26.744  24.670  1.00  0.00    -0.237 OA
ATOM    104  O   UNL A   1      53.462  24.440  24.623  1.00  0.00    -0.744 OA
ENDBRANCH 100 101
ENDBRANCH  68  93
ENDBRANCH  42  43
ENDBRANCH  34  37
ENDBRANCH  32  33
ENDBRANCH  31  32
ENDBRANCH  30  31
ENDBRANCH  29  30
ENDBRANCH   1  29
TORSDOF 21
ENDMDL
MODEL 3
REMARK VINA RESULT:     -11.0      5.964     11.829
REMARK SMILES O=C(/C=C/C(=O)NNC(=O)CSc1ccc2ccccc2n1)NCCCCCCNC(=O)c1ccc(-c2c3nc(c(-c4c(F)cc(S(=O)(=O)[O-])cc4F)c4ccc([nH]4)c(-c4c(F)cc(S(=O)(=O)[O-])cc4F)c4nc(c(-c5c(F)cc(S(=O)(=O)[O-])cc5F)c5ccc2[nH]5)C=C4)C=C3)cc1
REMARK SMILES IDX 25 1 24 2 23 3 1 4 2 5 3 7 4 8 5 9 6 10 7 11 8 13 9 14 10 16
REMARK SMILES IDX 11 17 12 18 13 19 14 20 22 21 15 22 21 23 16 24 20 25 17 26
REMARK SMILES IDX 19 27 18 28 26 29 27 30 28 31 29 32 30 33 31 34 32 36 33 37
REMARK SMILES IDX 34 38 98 39 35 40 97 41 36 42 37 43 38 44 91 45 39 46 96 47
REMARK SMILES IDX 90 48 92 49 40 50 95 51 89 52 88 53 41 55 75 56 54 57 74 58
REMARK SMILES IDX 55 59 58 60 73 61 93 62 56 63 57 64 72 66 94 67 59 68 42 69
REMARK SMILES IDX 43 70 52 71 44 72 45 73 51 74 53 75 46 76 47 77 48 78 49 79
REMARK SMILES IDX 50 80 76 81 77 82 86 83 78 84 79 85 85 86 87 87 80 88 81 89
REMARK SMILES IDX 82 90 83 91 84 92 60 93 61 94 70 95 62 96 63 97 69 98 71 99
REMARK SMILES IDX 64 100 65 101 66 102 67 103 68 104
REMARK H PARENT 23 6 7 12 8 15 30 35 92 54 58 65
REMARK Flexibility Score: inf
ROOT
ATOM      1  C   UNL A   1      34.673  29.041  26.944  1.00  0.00     0.021 C 
ENDROOT
BRANCH   1   2
ATOM      2  C   UNL A   1      33.930  29.584  25.724  1.00  0.00     0.116 C 
BRANCH   2   3
ATOM      3  N   UNL A   1      32.790  28.761  25.367  1.00  0.00    -0.353 N 
ATOM      4  O   UNL A   1      33.055  28.919  23.083  1.00  0.00    -0.270 OA
ATOM      5  C   UNL A   1      32.447  28.514  24.065  1.00  0.00     0.244 C 
ATOM      6  H   UNL A   1      32.244  28.367  26.085  1.00  0.00     0.163 HD
BRANCH   5   7
ATOM      7  C   UNL A   1      31.268  27.642  23.868  1.00  0.00     0.077 C 
ATOM      8  C   UNL A   1      30.656  27.030  24.890  1.00  0.00     0.078 C 
BRANCH   8   9
ATOM      9  C   UNL A   1      29.437  26.200  24.763  1.00  0.00     0.262 C 
ATOM     10  O   UNL A   1      28.642  26.458  23.860  1.00  0.00    -0.268 OA
ATOM     11  N   UNL A   1      29.232  25.113  25.571  1.00  0.00    -0.264 N 
ATOM     12  H   UNL A   1      28.417  24.587  25.410  1.00  0.00     0.191 HD
BRANCH  11  13
ATOM     13  N   UNL A   1      30.066  24.680  26.597  1.00  0.00    -0.267 N 
ATOM     14  C   UNL A   1      30.703  23.463  26.622  1.00  0.00     0.248 C 
ATOM     15  H   UNL A   1      30.209  25.287  27.358  1.00  0.00     0.191 HD
ATOM     16  O   UNL A   1      31.277  23.123  27.660  1.00  0.00    -0.272 OA
BRANCH  14  17
ATOM     17  C   UNL A   1      30.790  22.596  25.379  1.00  0.00     0.178 C 
BRANCH  17  18
ATOM     18  S   UNL A   1      31.485  23.408  23.916  1.00  0.00    -0.096 SA
BRANCH  18  19
ATOM     19  C   UNL A   1      33.183  23.659  24.376  1.00  0.00     0.097 A 
ATOM     20  C   UNL A   1      33.641  24.841  24.936  1.00  0.00     0.036 A 
ATOM     21  N   UNL A   1      33.963  22.562  24.258  1.00  0.00    -0.241 NA
ATOM     22  C   UNL A   1      34.951  24.896  25.405  1.00  0.00     0.013 A 
ATOM     23  C   UNL A   1      35.221  22.603  24.735  1.00  0.00     0.072 A 
ATOM     24  C   UNL A   1      35.762  23.761  25.328  1.00  0.00     0.000 A 
ATOM     25  C   UNL A   1      36.019  21.468  24.670  1.00  0.00     0.029 A 
ATOM     26  C   UNL A   1      37.069  23.753  25.844  1.00  0.00     0.010 A 
ATOM     27  C   UNL A   1      37.317  21.452  25.190  1.00  0.00     0.002 A 
ATOM     28  C   UNL A   1      37.842  22.596  25.781  1.00  0.00     0.001 A 
ENDBRANCH  18  19
ENDBRANCH  17  18
ENDBRANCH  14  17
ENDBRANCH  11  13
ENDBRANCH   8   9
ENDBRANCH   5   7
ENDBRANCH   2   3
ENDBRANCH   1   2
BRANCH   1  29
ATOM     29  C   UNL A   1      35.588  30.053  27.645  1.00  0.00     0.002 C 
BRANCH  29  30
ATOM     30  C   UNL A   1      34.871  31.169  28.410  1.00  0.00     0.002 C 
BRANCH  30  31
ATOM     31  C   UNL A   1      34.416  32.359  27.562  1.00  0.00     0.021 C 
BRANCH  31  32
ATOM     32  C   UNL A   1      33.011  32.868  27.869  1.00  0.00     0.116 C 
BRANCH  32  33
ATOM     33  N   UNL A   1      32.958  34.318  27.976  1.00  0.00    -0.352 N 
ATOM     34  C   UNL A   1      33.652  35.157  28.818  1.00  0.00     0.251 C 
ATOM     35  H   UNL A   1      32.336  34.764  27.357  1.00  0.00     0.163 HD
ATOM     36  O   UNL A   1      33.348  36.341  28.892  1.00  0.00    -0.269 OA
BRANCH  34  37
ATOM     37  C   UNL A   1      34.749  34.615  29.652  1.00  0.00     0.039 A 
ATOM     38  C   UNL A   1      34.437  34.017  30.875  1.00  0.00     0.014 A 
ATOM     39  C   UNL A   1      36.076  34.683  29.221  1.00  0.00     0.014 A 
ATOM     40  C   UNL A   1      35.449  33.421  31.631  1.00  0.00     0.010 A 
ATOM     41  C   UNL A   1      37.071  34.024  29.938  1.00  0.00     0.010 A 
ATOM     42  C   UNL A   1      36.768  33.380  31.147  1.00  0.00    -0.014 A 
BRANCH  42  43
ATOM     43  C   UNL A   1      37.834  32.646  31.876  1.00  0.00     0.031 A 
ATOM     44  C   UNL A   1      38.294  33.116  33.229  1.00  0.00     0.074 A 
ATOM     45  C   UNL A   1      38.444  31.600  31.283  1.00  0.00     0.049 A 
ATOM     46  N   UNL A   1      39.261  32.654  33.979  1.00  0.00    -0.248 NA
ATOM     47  C   UNL A   1      37.591  34.275  33.801  1.00  0.00     0.031 C 
ATOM     48  C   UNL A   1      38.125  31.082  29.950  1.00  0.00     0.029 A 
ATOM     49  N   UNL A   1      39.470  30.796  31.713  1.00  0.00    -0.354 N 
ATOM     50  C   UNL A   1      39.289  33.468  35.106  1.00  0.00     0.074 A 
ATOM     51  C   UNL A   1      38.281  34.488  34.912  1.00  0.00     0.031 C 
ATOM     52  C   UNL A   1      38.931  30.044  29.677  1.00  0.00     0.029 A 
ATOM     53  C   UNL A   1      39.851  29.848  30.792  1.00  0.00     0.049 A 
ATOM     54  H   UNL A   1      39.893  30.888  32.598  1.00  0.00     0.167 HD
ATOM     55  C   UNL A   1      40.070  33.362  36.209  1.00  0.00     0.037 A 
ATOM     56  C   UNL A   1      40.842  28.935  30.831  1.00  0.00     0.037 A 
ATOM     57  C   UNL A   1      41.067  32.339  36.394  1.00  0.00     0.049 A 
ATOM     58  C   UNL A   1      41.707  28.842  32.058  1.00  0.00     0.074 A 
ATOM     59  C   UNL A   1      41.869  32.110  37.499  1.00  0.00     0.029 A 
ATOM     60  N   UNL A   1      41.409  31.382  35.448  1.00  0.00    -0.354 N 
ATOM     61  N   UNL A   1      41.668  29.571  33.148  1.00  0.00    -0.248 NA
ATOM     62  C   UNL A   1      42.744  27.802  32.066  1.00  0.00     0.031 C 
ATOM     63  C   UNL A   1      42.734  31.052  37.199  1.00  0.00     0.029 A 
ATOM     64  C   UNL A   1      42.431  30.581  35.932  1.00  0.00     0.049 A 
ATOM     65  H   UNL A   1      40.987  31.286  34.564  1.00  0.00     0.167 HD
ATOM     66  C   UNL A   1      42.663  29.066  33.979  1.00  0.00     0.074 A 
ATOM     67  C   UNL A   1      43.273  27.959  33.272  1.00  0.00     0.031 C 
ATOM     68  C   UNL A   1      43.034  29.482  35.216  1.00  0.00     0.037 A 
BRANCH  55  69
ATOM     69  C   UNL A   1      39.879  34.386  37.296  1.00  0.00     0.058 A 
ATOM     70  C   UNL A   1      40.478  35.656  37.229  1.00  0.00     0.135 A 
ATOM     71  C   UNL A   1      39.074  34.104  38.411  1.00  0.00     0.135 A 
ATOM     72  F   UNL A   1      41.268  35.978  36.193  1.00  0.00    -0.206 F 
ATOM     73  C   UNL A   1      40.321  36.590  38.249  1.00  0.00     0.059 A 
ATOM     74  C   UNL A   1      38.875  35.036  39.426  1.00  0.00     0.059 A 
ATOM     75  F   UNL A   1      38.472  32.910  38.527  1.00  0.00    -0.206 F 
ATOM     76  C   UNL A   1      39.521  36.269  39.345  1.00  0.00     0.060 A 
BRANCH  76  77
ATOM     77  S   UNL A   1      39.345  37.486  40.667  1.00  0.00     0.124 S 
ATOM     78  O   UNL A   1      40.712  37.982  40.789  1.00  0.00    -0.237 OA
ATOM     79  O   UNL A   1      38.379  38.423  40.102  1.00  0.00    -0.237 OA
ATOM     80  O   UNL A   1      38.861  36.697  41.795  1.00  0.00    -0.744 OA
ENDBRANCH  76  77
ENDBRANCH  55  69
BRANCH  56  81
ATOM     81  C   UNL A   1      41.060  28.037  29.664  1.00  0.00     0.058 A 
ATOM     82  C   UNL A   1      42.152  28.214  28.803  1.00  0.00     0.135 A 
ATOM     83  C   UNL A   1      40.197  26.958  29.410  1.00  0.00     0.135 A 
ATOM     84  F   UNL A   1      43.001  29.235  28.999  1.00  0.00    -0.206 F 
ATOM     85  C   UNL A   1      42.379  27.361  27.728  1.00  0.00     0.059 A 
ATOM     86  C   UNL A   1      40.418  26.074  28.358  1.00  0.00     0.059 A 
ATOM     87  F   UNL A   1      39.146  26.733  30.214  1.00  0.00    -0.206 F 
ATOM     88  C   UNL A   1      41.510  26.289  27.518  1.00  0.00     0.060 A 
BRANCH  88  89
ATOM     89  S   UNL A   1      41.853  25.146  26.162  1.00  0.00     0.124 S 
ATOM     90  O   UNL A   1      43.274  24.881  26.354  1.00  0.00    -0.237 OA
ATOM     91  O   UNL A   1      40.950  24.039  26.460  1.00  0.00    -0.237 OA
ATOM     92  O   UNL A   1      41.511  25.922  24.974  1.00  0.00    -0.744 OA
ENDBRANCH  88  89
ENDBRANCH  56  81
BRANCH  68  93
ATOM     93  C   UNL A   1      44.140  28.726  35.901  1.00  0.00     0.058 A 
ATOM     94  C   UNL A   1      45.485  29.114  35.782  1.00  0.00     0.135 A 
ATOM     95  C   UNL A   1      43.846  27.636  36.738  1.00  0.00     0.135 A 
ATOM     96  F   UNL A   1      45.823  30.142  34.988  1.00  0.00    -0.206 F 
ATOM     97  C   UNL A   1      46.499  28.437  36.453  1.00  0.00     0.059 A 
ATOM     98  C   UNL A   1      44.840  26.966  37.442  1.00  0.00     0.059 A 
ATOM     99  F   UNL A   1      42.577  27.228  36.894  1.00  0.00    -0.206 F 
ATOM    100  C   UNL A   1      46.165  27.368  37.286  1.00  0.00     0.060 A 
BRANCH 100 101
ATOM    101  S   UNL A   1      47.487  26.530  38.187  1.00  0.00     0.124 S 
ATOM    102  O   UNL A   1      47.482  25.213  37.561  1.00  0.00    -0.237 OA
ATOM    103  O   UNL A   1      48.644  27.369  37.894  1.00  0.00    -0.237 OA
ATOM    104  O   UNL A   1      47.030  26.567  39.573  1.00  0.00    -0.744 OA
ENDBRANCH 100 101
ENDBRANCH  68  93
ENDBRANCH  42  43
ENDBRANCH  34  37
ENDBRANCH  32  33
ENDBRANCH  31  32
ENDBRANCH  30  31
ENDBRANCH  29  30
ENDBRANCH   1  29
TORSDOF 21
ENDMDL
