MODEL 1
REMARK VINA RESULT:     -11.6      0.000      0.000
REMARK SMILES C[C@@H]1CCC[N@@H+]([C@@H]2CCC[C@]([NH3+])(C(=O)NCCCCCCNC(=O)c3ccc(-c4c5nc(c(-c6c(F)cc(S(=O)(=O)[O-])cc6F)c6ccc([nH]6)c(-c6c(F)cc(S(=O)(=O)[O-])cc6F)c6nc(c(-c7c(F)cc(S(=O)(=O)[O-])cc7F)c7ccc4[nH]7)C=C6)C=C5)cc3)C2)C1
REMARK SMILES IDX 19 1 18 2 17 3 16 4 15 5 13 6 14 7 11 9 7 10 8 11 91 12 9 13
REMARK SMILES IDX 10 14 6 15 1 16 2 17 3 18 92 19 4 20 5 21 12 23 20 27 21 28
REMARK SMILES IDX 22 29 23 30 24 32 25 33 26 34 90 35 27 36 89 37 28 38 29 39
REMARK SMILES IDX 30 40 83 41 31 42 88 43 82 44 84 45 32 46 87 47 81 48 80 49
REMARK SMILES IDX 33 51 67 52 46 53 66 54 47 55 50 56 65 57 85 58 48 59 49 60
REMARK SMILES IDX 64 62 86 63 51 64 34 65 35 66 44 67 36 68 37 69 43 70 45 71
REMARK SMILES IDX 38 72 39 73 40 74 41 75 42 76 68 77 69 78 78 79 70 80 71 81
REMARK SMILES IDX 77 82 79 83 72 84 73 85 74 86 75 87 76 88 52 89 53 90 62 91
REMARK SMILES IDX 54 92 55 93 61 94 63 95 56 96 57 97 58 98 59 99 60 100
REMARK H PARENT 15 8 6 22 12 24 12 25 12 26 22 31 84 50 50 61
REMARK Flexibility Score: inf
ROOT
ATOM      1  C   UNL A   1      38.174  23.619  26.192  1.00  0.00     0.002 C 
ENDROOT
BRANCH   1   2
ATOM      2  C   UNL A   1      37.411  23.311  24.898  1.00  0.00     0.002 C 
BRANCH   2   3
ATOM      3  C   UNL A   1      37.174  21.826  24.637  1.00  0.00     0.021 C 
BRANCH   3   4
ATOM      4  C   UNL A   1      36.268  21.171  25.669  1.00  0.00     0.116 C 
BRANCH   4   5
ATOM      5  N   UNL A   1      35.384  20.188  25.063  1.00  0.00    -0.351 N 
ATOM      6  C   UNL A   1      34.040  20.243  24.794  1.00  0.00     0.281 C 
ATOM      7  O   UNL A   1      33.519  19.256  24.272  1.00  0.00    -0.268 OA
ATOM      8  H   UNL A   1      35.820  19.346  24.804  1.00  0.00     0.163 HD
BRANCH   6   9
ATOM      9  C   UNL A   1      33.229  21.511  25.183  1.00  0.00     0.179 C 
ATOM     10  C   UNL A   1      32.953  24.054  24.894  1.00  0.00     0.190 C 
ATOM     11  C   UNL A   1      32.729  24.153  26.422  1.00  0.00     0.065 C 
ATOM     12  C   UNL A   1      33.737  22.781  24.460  1.00  0.00     0.144 C 
ATOM     13  C   UNL A   1      32.479  22.857  27.169  1.00  0.00     0.013 C 
ATOM     14  C   UNL A   1      33.424  21.782  26.690  1.00  0.00     0.079 C 
BRANCH  10  15
ATOM     15  N   UNL A   1      33.452  25.297  24.251  1.00  0.00    -0.332 N 
ATOM     16  C   UNL A   1      32.544  25.516  20.507  1.00  0.00     0.013 C 
ATOM     17  C   UNL A   1      32.284  25.530  22.012  1.00  0.00     0.041 C 
ATOM     18  C   UNL A   1      31.648  26.847  22.467  1.00  0.00     0.015 C 
ATOM     19  C   UNL A   1      33.578  25.223  22.790  1.00  0.00     0.265 C 
ATOM     20  C   UNL A   1      31.575  26.968  23.989  1.00  0.00     0.062 C 
ATOM     21  C   UNL A   1      32.888  26.581  24.667  1.00  0.00     0.262 C 
ATOM     22  H   UNL A   1      34.386  25.309  24.662  1.00  0.00     0.348 HD
ENDBRANCH  10  15
BRANCH   9  23
ATOM     23  N   UNL A   1      31.822  21.319  24.744  1.00  0.00    -0.345 N 
ATOM     24  H   UNL A   1      31.728  21.604  23.769  1.00  0.00     0.345 HD
ATOM     25  H   UNL A   1      31.204  21.887  25.325  1.00  0.00     0.345 HD
ATOM     26  H   UNL A   1      31.568  20.336  24.837  1.00  0.00     0.345 HD
ENDBRANCH   9  23
ENDBRANCH   6   9
ENDBRANCH   4   5
ENDBRANCH   3   4
ENDBRANCH   2   3
ENDBRANCH   1   2
BRANCH   1  27
ATOM     27  C   UNL A   1      39.293  22.630  26.536  1.00  0.00     0.021 C 
BRANCH  27  28
ATOM     28  C   UNL A   1      40.594  23.282  26.992  1.00  0.00     0.116 C 
BRANCH  28  29
ATOM     29  N   UNL A   1      41.178  24.111  25.951  1.00  0.00    -0.352 N 
ATOM     30  C   UNL A   1      41.473  25.451  25.968  1.00  0.00     0.251 C 
ATOM     31  H   UNL A   1      41.391  23.643  25.112  1.00  0.00     0.163 HD
ATOM     32  O   UNL A   1      41.761  26.029  24.929  1.00  0.00    -0.269 OA
BRANCH  30  33
ATOM     33  C   UNL A   1      41.415  26.191  27.246  1.00  0.00     0.039 A 
ATOM     34  C   UNL A   1      42.519  26.949  27.635  1.00  0.00     0.014 A 
ATOM     35  C   UNL A   1      40.268  26.149  28.044  1.00  0.00     0.014 A 
ATOM     36  C   UNL A   1      42.445  27.732  28.788  1.00  0.00     0.010 A 
ATOM     37  C   UNL A   1      40.170  26.981  29.155  1.00  0.00     0.010 A 
ATOM     38  C   UNL A   1      41.253  27.791  29.530  1.00  0.00    -0.014 A 
BRANCH  38  39
ATOM     39  C   UNL A   1      41.103  28.742  30.661  1.00  0.00     0.031 A 
ATOM     40  C   UNL A   1      41.956  28.610  31.891  1.00  0.00     0.074 A 
ATOM     41  C   UNL A   1      40.138  29.682  30.601  1.00  0.00     0.049 A 
ATOM     42  N   UNL A   1      41.917  29.307  32.998  1.00  0.00    -0.248 NA
ATOM     43  C   UNL A   1      42.971  27.545  31.887  1.00  0.00     0.031 C 
ATOM     44  C   UNL A   1      39.214  29.874  29.479  1.00  0.00     0.029 A 
ATOM     45  N   UNL A   1      39.761  30.643  31.505  1.00  0.00    -0.354 N 
ATOM     46  C   UNL A   1      42.892  28.762  33.824  1.00  0.00     0.074 A 
ATOM     47  C   UNL A   1      43.477  27.648  33.109  1.00  0.00     0.031 C 
ATOM     48  C   UNL A   1      38.390  30.896  29.755  1.00  0.00     0.029 A 
ATOM     49  C   UNL A   1      38.693  31.403  31.089  1.00  0.00     0.049 A 
ATOM     50  H   UNL A   1      40.211  30.775  32.370  1.00  0.00     0.167 HD
ATOM     51  C   UNL A   1      43.274  29.167  35.059  1.00  0.00     0.037 A 
ATOM     52  C   UNL A   1      38.017  32.386  31.717  1.00  0.00     0.037 A 
ATOM     53  C   UNL A   1      42.693  30.286  35.756  1.00  0.00     0.049 A 
ATOM     54  C   UNL A   1      38.449  32.801  33.097  1.00  0.00     0.074 A 
ATOM     55  C   UNL A   1      43.059  30.819  36.981  1.00  0.00     0.029 A 
ATOM     56  N   UNL A   1      41.618  31.037  35.301  1.00  0.00    -0.354 N 
ATOM     57  N   UNL A   1      39.429  32.330  33.830  1.00  0.00    -0.248 NA
ATOM     58  C   UNL A   1      37.684  33.882  33.736  1.00  0.00     0.031 C 
ATOM     59  C   UNL A   1      42.168  31.850  37.293  1.00  0.00     0.029 A 
ATOM     60  C   UNL A   1      41.283  32.002  36.237  1.00  0.00     0.049 A 
ATOM     61  H   UNL A   1      41.160  30.903  34.439  1.00  0.00     0.167 HD
ATOM     62  C   UNL A   1      39.410  33.066  35.009  1.00  0.00     0.074 A 
ATOM     63  C   UNL A   1      38.336  34.030  34.881  1.00  0.00     0.031 C 
ATOM     64  C   UNL A   1      40.206  32.952  36.100  1.00  0.00     0.037 A 
BRANCH  51  65
ATOM     65  C   UNL A   1      44.370  28.398  35.745  1.00  0.00     0.058 A 
ATOM     66  C   UNL A   1      45.725  28.713  35.557  1.00  0.00     0.135 A 
ATOM     67  C   UNL A   1      44.058  27.372  36.655  1.00  0.00     0.135 A 
ATOM     68  F   UNL A   1      46.082  29.674  34.690  1.00  0.00    -0.206 F 
ATOM     69  C   UNL A   1      46.733  28.027  36.227  1.00  0.00     0.059 A 
ATOM     70  C   UNL A   1      45.048  26.692  37.358  1.00  0.00     0.059 A 
ATOM     71  F   UNL A   1      42.780  27.028  36.872  1.00  0.00    -0.206 F 
ATOM     72  C   UNL A   1      46.384  27.020  37.130  1.00  0.00     0.060 A 
BRANCH  72  73
ATOM     73  S   UNL A   1      47.703  26.155  38.007  1.00  0.00     0.124 S 
ATOM     74  O   UNL A   1      47.542  24.793  37.508  1.00  0.00    -0.237 OA
ATOM     75  O   UNL A   1      48.896  26.860  37.547  1.00  0.00    -0.237 OA
ATOM     76  O   UNL A   1      47.364  26.352  39.413  1.00  0.00    -0.744 OA
ENDBRANCH  72  73
ENDBRANCH  51  65
BRANCH  52  77
ATOM     77  C   UNL A   1      36.858  33.036  31.049  1.00  0.00     0.058 A 
ATOM     78  C   UNL A   1      35.541  32.751  31.438  1.00  0.00     0.135 A 
ATOM     79  C   UNL A   1      37.044  33.966  30.012  1.00  0.00     0.135 A 
ATOM     80  F   UNL A   1      35.309  31.865  32.419  1.00  0.00    -0.206 F 
ATOM     81  C   UNL A   1      34.450  33.347  30.815  1.00  0.00     0.059 A 
ATOM     82  C   UNL A   1      35.971  34.598  29.394  1.00  0.00     0.059 A 
ATOM     83  F   UNL A   1      38.284  34.288  29.613  1.00  0.00    -0.206 F 
ATOM     84  C   UNL A   1      34.676  34.272  29.794  1.00  0.00     0.060 A 
BRANCH  84  85
ATOM     85  S   UNL A   1      33.255  35.074  29.022  1.00  0.00     0.124 S 
ATOM     86  O   UNL A   1      33.870  36.256  28.431  1.00  0.00    -0.237 OA
ATOM     87  O   UNL A   1      32.800  34.053  28.084  1.00  0.00    -0.237 OA
ATOM     88  O   UNL A   1      32.359  35.325  30.147  1.00  0.00    -0.744 OA
ENDBRANCH  84  85
ENDBRANCH  52  77
BRANCH  64  89
ATOM     89  C   UNL A   1      39.958  33.900  37.242  1.00  0.00     0.058 A 
ATOM     90  C   UNL A   1      40.589  35.152  37.310  1.00  0.00     0.135 A 
ATOM     91  C   UNL A   1      39.039  33.576  38.253  1.00  0.00     0.135 A 
ATOM     92  F   UNL A   1      41.483  35.510  36.374  1.00  0.00    -0.206 F 
ATOM     93  C   UNL A   1      40.333  36.040  38.349  1.00  0.00     0.059 A 
ATOM     94  C   UNL A   1      38.744  34.461  39.285  1.00  0.00     0.059 A 
ATOM     95  F   UNL A   1      38.400  32.394  38.233  1.00  0.00    -0.206 F 
ATOM     96  C   UNL A   1      39.405  35.687  39.330  1.00  0.00     0.060 A 
BRANCH  96  97
ATOM     97  S   UNL A   1      39.054  36.867  40.651  1.00  0.00     0.124 S 
ATOM     98  O   UNL A   1      38.220  37.845  39.958  1.00  0.00    -0.237 OA
ATOM     99  O   UNL A   1      38.370  36.036  41.636  1.00  0.00    -0.237 OA
ATOM    100  O   UNL A   1      40.378  37.340  41.046  1.00  0.00    -0.744 OA
ENDBRANCH  96  97
ENDBRANCH  64  89
ENDBRANCH  38  39
ENDBRANCH  30  33
ENDBRANCH  28  29
ENDBRANCH  27  28
ENDBRANCH   1  27
TORSDOF 18
ENDMDL
MODEL 2
REMARK VINA RESULT:     -11.5      1.107      8.410
REMARK SMILES C[C@@H]1CCC[N@@H+]([C@@H]2CCC[C@]([NH3+])(C(=O)NCCCCCCNC(=O)c3ccc(-c4c5nc(c(-c6c(F)cc(S(=O)(=O)[O-])cc6F)c6ccc([nH]6)c(-c6c(F)cc(S(=O)(=O)[O-])cc6F)c6nc(c(-c7c(F)cc(S(=O)(=O)[O-])cc7F)c7ccc4[nH]7)C=C6)C=C5)cc3)C2)C1
REMARK SMILES IDX 19 1 18 2 17 3 16 4 15 5 13 6 14 7 11 9 7 10 8 11 91 12 9 13
REMARK SMILES IDX 10 14 6 15 1 16 2 17 3 18 92 19 4 20 5 21 12 23 20 27 21 28
REMARK SMILES IDX 22 29 23 30 24 32 25 33 26 34 90 35 27 36 89 37 28 38 29 39
REMARK SMILES IDX 30 40 83 41 31 42 88 43 82 44 84 45 32 46 87 47 81 48 80 49
REMARK SMILES IDX 33 51 67 52 46 53 66 54 47 55 50 56 65 57 85 58 48 59 49 60
REMARK SMILES IDX 64 62 86 63 51 64 34 65 35 66 44 67 36 68 37 69 43 70 45 71
REMARK SMILES IDX 38 72 39 73 40 74 41 75 42 76 68 77 69 78 78 79 70 80 71 81
REMARK SMILES IDX 77 82 79 83 72 84 73 85 74 86 75 87 76 88 52 89 53 90 62 91
REMARK SMILES IDX 54 92 55 93 61 94 63 95 56 96 57 97 58 98 59 99 60 100
REMARK H PARENT 15 8 6 22 12 24 12 25 12 26 22 31 84 50 50 61
REMARK Flexibility Score: inf
ROOT
ATOM      1  C   UNL A   1      39.486  22.615  26.770  1.00  0.00     0.002 C 
ENDROOT
BRANCH   1   2
ATOM      2  C   UNL A   1      38.831  21.641  25.783  1.00  0.00     0.002 C 
BRANCH   2   3
ATOM      3  C   UNL A   1      37.550  22.160  25.134  1.00  0.00     0.021 C 
BRANCH   3   4
ATOM      4  C   UNL A   1      36.367  21.219  25.304  1.00  0.00     0.116 C 
BRANCH   4   5
ATOM      5  N   UNL A   1      35.607  21.519  26.506  1.00  0.00    -0.351 N 
ATOM      6  C   UNL A   1      34.469  22.264  26.679  1.00  0.00     0.281 C 
ATOM      7  O   UNL A   1      34.021  22.370  27.822  1.00  0.00    -0.268 OA
ATOM      8  H   UNL A   1      35.968  21.123  27.332  1.00  0.00     0.163 HD
BRANCH   6   9
ATOM      9  C   UNL A   1      33.816  22.966  25.455  1.00  0.00     0.179 C 
ATOM     10  C   UNL A   1      31.928  24.503  24.619  1.00  0.00     0.190 C 
ATOM     11  C   UNL A   1      31.734  23.533  23.429  1.00  0.00     0.065 C 
ATOM     12  C   UNL A   1      32.607  23.846  25.856  1.00  0.00     0.144 C 
ATOM     13  C   UNL A   1      32.818  22.499  23.196  1.00  0.00     0.013 C 
ATOM     14  C   UNL A   1      33.252  21.888  24.506  1.00  0.00     0.079 C 
BRANCH  10  15
ATOM     15  N   UNL A   1      30.734  25.315  24.968  1.00  0.00    -0.332 N 
ATOM     16  C   UNL A   1      31.645  28.781  26.400  1.00  0.00     0.013 C 
ATOM     17  C   UNL A   1      31.503  27.706  25.325  1.00  0.00     0.041 C 
ATOM     18  C   UNL A   1      30.622  28.175  24.164  1.00  0.00     0.015 C 
ATOM     19  C   UNL A   1      30.986  26.390  25.937  1.00  0.00     0.265 C 
ATOM     20  C   UNL A   1      30.293  27.049  23.184  1.00  0.00     0.062 C 
ATOM     21  C   UNL A   1      29.852  25.771  23.894  1.00  0.00     0.262 C 
ATOM     22  H   UNL A   1      30.188  24.583  25.423  1.00  0.00     0.348 HD
ENDBRANCH  10  15
BRANCH   9  23
ATOM     23  N   UNL A   1      34.817  23.887  24.855  1.00  0.00    -0.345 N 
ATOM     24  H   UNL A   1      34.573  24.066  23.881  1.00  0.00     0.345 HD
ATOM     25  H   UNL A   1      35.742  23.460  24.901  1.00  0.00     0.345 HD
ATOM     26  H   UNL A   1      34.822  24.767  25.371  1.00  0.00     0.345 HD
ENDBRANCH   9  23
ENDBRANCH   6   9
ENDBRANCH   4   5
ENDBRANCH   3   4
ENDBRANCH   2   3
ENDBRANCH   1   2
BRANCH   1  27
ATOM     27  C   UNL A   1      40.798  22.125  27.390  1.00  0.00     0.021 C 
BRANCH  27  28
ATOM     28  C   UNL A   1      41.943  23.130  27.325  1.00  0.00     0.116 C 
BRANCH  28  29
ATOM     29  N   UNL A   1      41.791  24.051  26.212  1.00  0.00    -0.352 N 
ATOM     30  C   UNL A   1      41.406  25.370  26.218  1.00  0.00     0.251 C 
ATOM     31  H   UNL A   1      41.991  23.676  25.324  1.00  0.00     0.163 HD
ATOM     32  O   UNL A   1      41.124  25.931  25.169  1.00  0.00    -0.269 OA
BRANCH  30  33
ATOM     33  C   UNL A   1      41.314  26.091  27.504  1.00  0.00     0.039 A 
ATOM     34  C   UNL A   1      42.313  27.008  27.834  1.00  0.00     0.014 A 
ATOM     35  C   UNL A   1      40.236  25.877  28.368  1.00  0.00     0.014 A 
ATOM     36  C   UNL A   1      42.190  27.770  28.996  1.00  0.00     0.010 A 
ATOM     37  C   UNL A   1      40.081  26.685  29.490  1.00  0.00     0.010 A 
ATOM     38  C   UNL A   1      41.049  27.649  29.808  1.00  0.00    -0.014 A 
BRANCH  38  39
ATOM     39  C   UNL A   1      40.826  28.566  30.954  1.00  0.00     0.031 A 
ATOM     40  C   UNL A   1      39.770  29.634  30.888  1.00  0.00     0.074 A 
ATOM     41  C   UNL A   1      41.636  28.478  32.029  1.00  0.00     0.049 A 
ATOM     42  N   UNL A   1      39.482  30.561  31.765  1.00  0.00    -0.248 NA
ATOM     43  C   UNL A   1      38.943  29.678  29.673  1.00  0.00     0.031 C 
ATOM     44  C   UNL A   1      42.731  27.515  32.185  1.00  0.00     0.029 A 
ATOM     45  N   UNL A   1      41.678  29.213  33.187  1.00  0.00    -0.354 N 
ATOM     46  C   UNL A   1      38.449  31.304  31.207  1.00  0.00     0.074 A 
ATOM     47  C   UNL A   1      38.190  30.747  29.896  1.00  0.00     0.031 C 
ATOM     48  C   UNL A   1      43.324  27.708  33.372  1.00  0.00     0.029 A 
ATOM     49  C   UNL A   1      42.686  28.836  34.043  1.00  0.00     0.049 A 
ATOM     50  H   UNL A   1      41.047  29.942  33.385  1.00  0.00     0.167 HD
ATOM     51  C   UNL A   1      37.770  32.344  31.747  1.00  0.00     0.037 A 
ATOM     52  C   UNL A   1      43.070  29.352  35.228  1.00  0.00     0.037 A 
ATOM     53  C   UNL A   1      38.028  32.881  33.058  1.00  0.00     0.049 A 
ATOM     54  C   UNL A   1      42.312  30.521  35.795  1.00  0.00     0.074 A 
ATOM     55  C   UNL A   1      37.348  33.888  33.723  1.00  0.00     0.029 A 
ATOM     56  N   UNL A   1      39.053  32.471  33.900  1.00  0.00    -0.354 N 
ATOM     57  N   UNL A   1      41.283  31.157  35.290  1.00  0.00    -0.248 NA
ATOM     58  C   UNL A   1      42.765  31.042  37.092  1.00  0.00     0.031 C 
ATOM     59  C   UNL A   1      37.998  34.126  34.938  1.00  0.00     0.029 A 
ATOM     60  C   UNL A   1      39.047  33.229  35.060  1.00  0.00     0.049 A 
ATOM     61  H   UNL A   1      39.690  31.746  33.702  1.00  0.00     0.167 HD
ATOM     62  C   UNL A   1      40.955  32.143  36.214  1.00  0.00     0.074 A 
ATOM     63  C   UNL A   1      41.880  32.003  37.319  1.00  0.00     0.031 C 
ATOM     64  C   UNL A   1      39.978  33.082  36.151  1.00  0.00     0.037 A 
BRANCH  51  65
ATOM     65  C   UNL A   1      36.681  32.978  30.924  1.00  0.00     0.058 A 
ATOM     66  C   UNL A   1      35.324  32.702  31.154  1.00  0.00     0.135 A 
ATOM     67  C   UNL A   1      36.997  33.924  29.933  1.00  0.00     0.135 A 
ATOM     68  F   UNL A   1      34.965  31.797  32.078  1.00  0.00    -0.206 F 
ATOM     69  C   UNL A   1      34.319  33.324  30.419  1.00  0.00     0.059 A 
ATOM     70  C   UNL A   1      36.007  34.580  29.206  1.00  0.00     0.059 A 
ATOM     71  F   UNL A   1      38.278  34.225  29.671  1.00  0.00    -0.206 F 
ATOM     72  C   UNL A   1      34.672  34.266  29.450  1.00  0.00     0.060 A 
BRANCH  72  73
ATOM     73  S   UNL A   1      33.354  35.078  28.522  1.00  0.00     0.124 S 
ATOM     74  O   UNL A   1      32.576  35.690  29.594  1.00  0.00    -0.237 OA
ATOM     75  O   UNL A   1      34.096  36.003  27.671  1.00  0.00    -0.237 OA
ATOM     76  O   UNL A   1      32.699  33.976  27.823  1.00  0.00    -0.744 OA
ENDBRANCH  72  73
ENDBRANCH  51  65
BRANCH  52  77
ATOM     77  C   UNL A   1      44.233  28.770  35.951  1.00  0.00     0.058 A 
ATOM     78  C   UNL A   1      45.529  29.276  35.767  1.00  0.00     0.135 A 
ATOM     79  C   UNL A   1      44.072  27.703  36.849  1.00  0.00     0.135 A 
ATOM     80  F   UNL A   1      45.738  30.291  34.914  1.00  0.00    -0.206 F 
ATOM     81  C   UNL A   1      46.625  28.735  36.430  1.00  0.00     0.059 A 
ATOM     82  C   UNL A   1      45.147  27.164  37.547  1.00  0.00     0.059 A 
ATOM     83  F   UNL A   1      42.851  27.193  37.074  1.00  0.00    -0.206 F 
ATOM     84  C   UNL A   1      46.422  27.680  37.322  1.00  0.00     0.060 A 
BRANCH  84  85
ATOM     85  S   UNL A   1      47.844  27.013  38.213  1.00  0.00     0.124 S 
ATOM     86  O   UNL A   1      48.856  28.031  37.954  1.00  0.00    -0.237 OA
ATOM     87  O   UNL A   1      47.342  26.942  39.581  1.00  0.00    -0.237 OA
ATOM     88  O   UNL A   1      48.069  25.722  37.568  1.00  0.00    -0.744 OA
ENDBRANCH  84  85
ENDBRANCH  52  77
BRANCH  64  89
ATOM     89  C   UNL A   1      39.850  34.027  37.315  1.00  0.00     0.058 A 
ATOM     90  C   UNL A   1      40.420  35.311  37.287  1.00  0.00     0.135 A 
ATOM     91  C   UNL A   1      39.104  33.667  38.449  1.00  0.00     0.135 A 
ATOM     92  F   UNL A   1      41.150  35.703  36.231  1.00  0.00    -0.206 F 
ATOM     93  C   UNL A   1      40.272  36.194  38.350  1.00  0.00     0.059 A 
ATOM     94  C   UNL A   1      38.917  34.546  39.511  1.00  0.00     0.059 A 
ATOM     95  F   UNL A   1      38.531  32.455  38.525  1.00  0.00    -0.206 F 
ATOM     96  C   UNL A   1      39.515  35.805  39.456  1.00  0.00     0.060 A 
BRANCH  96  97
ATOM     97  S   UNL A   1      39.300  36.978  40.812  1.00  0.00     0.124 S 
ATOM     98  O   UNL A   1      38.752  36.121  41.859  1.00  0.00    -0.237 OA
ATOM     99  O   UNL A   1      40.662  37.453  41.030  1.00  0.00    -0.237 OA
ATOM    100  O   UNL A   1      38.376  37.967  40.264  1.00  0.00    -0.744 OA
ENDBRANCH  96  97
ENDBRANCH  64  89
ENDBRANCH  38  39
ENDBRANCH  30  33
ENDBRANCH  28  29
ENDBRANCH  27  28
ENDBRANCH   1  27
TORSDOF 18
ENDMDL
MODEL 3
REMARK VINA RESULT:     -11.5      1.652      3.277
REMARK SMILES C[C@@H]1CCC[N@@H+]([C@@H]2CCC[C@]([NH3+])(C(=O)NCCCCCCNC(=O)c3ccc(-c4c5nc(c(-c6c(F)cc(S(=O)(=O)[O-])cc6F)c6ccc([nH]6)c(-c6c(F)cc(S(=O)(=O)[O-])cc6F)c6nc(c(-c7c(F)cc(S(=O)(=O)[O-])cc7F)c7ccc4[nH]7)C=C6)C=C5)cc3)C2)C1
REMARK SMILES IDX 19 1 18 2 17 3 16 4 15 5 13 6 14 7 11 9 7 10 8 11 91 12 9 13
REMARK SMILES IDX 10 14 6 15 1 16 2 17 3 18 92 19 4 20 5 21 12 23 20 27 21 28
REMARK SMILES IDX 22 29 23 30 24 32 25 33 26 34 90 35 27 36 89 37 28 38 29 39
REMARK SMILES IDX 30 40 83 41 31 42 88 43 82 44 84 45 32 46 87 47 81 48 80 49
REMARK SMILES IDX 33 51 67 52 46 53 66 54 47 55 50 56 65 57 85 58 48 59 49 60
REMARK SMILES IDX 64 62 86 63 51 64 34 65 35 66 44 67 36 68 37 69 43 70 45 71
REMARK SMILES IDX 38 72 39 73 40 74 41 75 42 76 68 77 69 78 78 79 70 80 71 81
REMARK SMILES IDX 77 82 79 83 72 84 73 85 74 86 75 87 76 88 52 89 53 90 62 91
REMARK SMILES IDX 54 92 55 93 61 94 63 95 56 96 57 97 58 98 59 99 60 100
REMARK H PARENT 15 8 6 22 12 24 12 25 12 26 22 31 84 50 50 61
REMARK Flexibility Score: inf
ROOT
ATOM      1  C   UNL A   1      41.491  20.732  26.135  1.00  0.00     0.002 C 
ENDROOT
BRANCH   1   2
ATOM      2  C   UNL A   1      40.030  20.402  26.464  1.00  0.00     0.002 C 
BRANCH   2   3
ATOM      3  C   UNL A   1      39.302  19.599  25.389  1.00  0.00     0.021 C 
BRANCH   3   4
ATOM      4  C   UNL A   1      37.963  20.202  24.992  1.00  0.00     0.116 C 
BRANCH   4   5
ATOM      5  N   UNL A   1      37.893  21.619  25.311  1.00  0.00    -0.351 N 
ATOM      6  C   UNL A   1      36.819  22.408  25.633  1.00  0.00     0.281 C 
ATOM      7  O   UNL A   1      37.032  23.601  25.858  1.00  0.00    -0.268 OA
ATOM      8  H   UNL A   1      38.757  22.088  25.292  1.00  0.00     0.163 HD
BRANCH   6   9
ATOM      9  C   UNL A   1      35.393  21.790  25.668  1.00  0.00     0.179 C 
ATOM     10  C   UNL A   1      33.860  19.886  24.863  1.00  0.00     0.190 C 
ATOM     11  C   UNL A   1      32.762  20.946  24.606  1.00  0.00     0.065 C 
ATOM     12  C   UNL A   1      35.303  20.470  24.866  1.00  0.00     0.144 C 
ATOM     13  C   UNL A   1      32.984  22.327  25.191  1.00  0.00     0.013 C 
ATOM     14  C   UNL A   1      34.413  22.765  24.981  1.00  0.00     0.079 C 
BRANCH  10  15
ATOM     15  N   UNL A   1      33.732  18.643  24.060  1.00  0.00    -0.332 N 
ATOM     16  C   UNL A   1      35.860  15.737  25.446  1.00  0.00     0.013 C 
ATOM     17  C   UNL A   1      34.708  16.739  25.423  1.00  0.00     0.041 C 
ATOM     18  C   UNL A   1      33.346  16.040  25.443  1.00  0.00     0.015 C 
ATOM     19  C   UNL A   1      34.841  17.694  24.220  1.00  0.00     0.265 C 
ATOM     20  C   UNL A   1      32.186  17.006  25.206  1.00  0.00     0.062 C 
ATOM     21  C   UNL A   1      32.444  17.950  24.033  1.00  0.00     0.262 C 
ATOM     22  H   UNL A   1      33.790  19.062  23.132  1.00  0.00     0.348 HD
ENDBRANCH  10  15
BRANCH   9  23
ATOM     23  N   UNL A   1      35.068  21.443  27.077  1.00  0.00    -0.345 N 
ATOM     24  H   UNL A   1      34.715  22.270  27.558  1.00  0.00     0.345 HD
ATOM     25  H   UNL A   1      35.909  21.108  27.547  1.00  0.00     0.345 HD
ATOM     26  H   UNL A   1      34.356  20.712  27.090  1.00  0.00     0.345 HD
ENDBRANCH   9  23
ENDBRANCH   6   9
ENDBRANCH   4   5
ENDBRANCH   3   4
ENDBRANCH   2   3
ENDBRANCH   1   2
BRANCH   1  27
ATOM     27  C   UNL A   1      42.170  21.706  27.103  1.00  0.00     0.021 C 
BRANCH  27  28
ATOM     28  C   UNL A   1      41.396  22.996  27.350  1.00  0.00     0.116 C 
BRANCH  28  29
ATOM     29  N   UNL A   1      41.456  23.889  26.206  1.00  0.00    -0.352 N 
ATOM     30  C   UNL A   1      41.288  25.251  26.153  1.00  0.00     0.251 C 
ATOM     31  H   UNL A   1      41.642  23.455  25.342  1.00  0.00     0.163 HD
ATOM     32  O   UNL A   1      41.159  25.812  25.073  1.00  0.00    -0.269 OA
BRANCH  30  33
ATOM     33  C   UNL A   1      41.242  26.024  27.411  1.00  0.00     0.039 A 
ATOM     34  C   UNL A   1      42.334  26.823  27.750  1.00  0.00     0.014 A 
ATOM     35  C   UNL A   1      40.116  25.975  28.239  1.00  0.00     0.014 A 
ATOM     36  C   UNL A   1      42.266  27.636  28.883  1.00  0.00     0.010 A 
ATOM     37  C   UNL A   1      40.023  26.836  29.328  1.00  0.00     0.010 A 
ATOM     38  C   UNL A   1      41.091  27.685  29.653  1.00  0.00    -0.014 A 
BRANCH  38  39
ATOM     39  C   UNL A   1      40.944  28.663  30.760  1.00  0.00     0.031 A 
ATOM     40  C   UNL A   1      41.771  28.538  32.009  1.00  0.00     0.074 A 
ATOM     41  C   UNL A   1      40.002  29.624  30.663  1.00  0.00     0.049 A 
ATOM     42  N   UNL A   1      41.729  29.260  33.099  1.00  0.00    -0.248 NA
ATOM     43  C   UNL A   1      42.761  27.451  32.046  1.00  0.00     0.031 C 
ATOM     44  C   UNL A   1      39.104  29.812  29.520  1.00  0.00     0.029 A 
ATOM     45  N   UNL A   1      39.632  30.613  31.538  1.00  0.00    -0.354 N 
ATOM     46  C   UNL A   1      42.675  28.711  33.955  1.00  0.00     0.074 A 
ATOM     47  C   UNL A   1      43.247  27.568  33.275  1.00  0.00     0.031 C 
ATOM     48  C   UNL A   1      38.299  30.859  29.758  1.00  0.00     0.029 A 
ATOM     49  C   UNL A   1      38.589  31.388  31.087  1.00  0.00     0.049 A 
ATOM     50  H   UNL A   1      40.070  30.753  32.409  1.00  0.00     0.167 HD
ATOM     51  C   UNL A   1      43.044  29.134  35.188  1.00  0.00     0.037 A 
ATOM     52  C   UNL A   1      37.926  32.399  31.681  1.00  0.00     0.037 A 
ATOM     53  C   UNL A   1      42.478  30.281  35.850  1.00  0.00     0.049 A 
ATOM     54  C   UNL A   1      38.342  32.835  33.060  1.00  0.00     0.074 A 
ATOM     55  C   UNL A   1      42.834  30.831  37.070  1.00  0.00     0.029 A 
ATOM     56  N   UNL A   1      41.429  31.046  35.359  1.00  0.00    -0.354 N 
ATOM     57  N   UNL A   1      39.298  32.357  33.820  1.00  0.00    -0.248 NA
ATOM     58  C   UNL A   1      37.592  33.946  33.661  1.00  0.00     0.031 C 
ATOM     59  C   UNL A   1      41.962  31.889  37.344  1.00  0.00     0.029 A 
ATOM     60  C   UNL A   1      41.100  32.038  36.268  1.00  0.00     0.049 A 
ATOM     61  H   UNL A   1      40.984  30.904  34.492  1.00  0.00     0.167 HD
ATOM     62  C   UNL A   1      39.275  33.119  34.983  1.00  0.00     0.074 A 
ATOM     63  C   UNL A   1      38.227  34.104  34.815  1.00  0.00     0.031 C 
ATOM     64  C   UNL A   1      40.049  33.010  36.091  1.00  0.00     0.037 A 
BRANCH  51  65
ATOM     65  C   UNL A   1      44.110  28.354  35.911  1.00  0.00     0.058 A 
ATOM     66  C   UNL A   1      45.474  28.647  35.756  1.00  0.00     0.135 A 
ATOM     67  C   UNL A   1      43.758  27.342  36.820  1.00  0.00     0.135 A 
ATOM     68  F   UNL A   1      45.869  29.595  34.890  1.00  0.00    -0.206 F 
ATOM     69  C   UNL A   1      46.453  27.952  36.460  1.00  0.00     0.059 A 
ATOM     70  C   UNL A   1      44.718  26.654  37.556  1.00  0.00     0.059 A 
ATOM     71  F   UNL A   1      42.469  27.020  37.007  1.00  0.00    -0.206 F 
ATOM     72  C   UNL A   1      46.064  26.959  37.362  1.00  0.00     0.060 A 
BRANCH  72  73
ATOM     73  S   UNL A   1      47.346  26.083  38.282  1.00  0.00     0.124 S 
ATOM     74  O   UNL A   1      48.123  25.483  37.201  1.00  0.00    -0.237 OA
ATOM     75  O   UNL A   1      48.002  27.165  39.008  1.00  0.00    -0.237 OA
ATOM     76  O   UNL A   1      46.592  25.144  39.107  1.00  0.00    -0.744 OA
ENDBRANCH  72  73
ENDBRANCH  51  65
BRANCH  52  77
ATOM     77  C   UNL A   1      36.795  33.062  30.978  1.00  0.00     0.058 A 
ATOM     78  C   UNL A   1      37.021  33.947  29.912  1.00  0.00     0.135 A 
ATOM     79  C   UNL A   1      35.463  32.816  31.350  1.00  0.00     0.135 A 
ATOM     80  F   UNL A   1      38.275  34.220  29.523  1.00  0.00    -0.206 F 
ATOM     81  C   UNL A   1      35.972  34.578  29.254  1.00  0.00     0.059 A 
ATOM     82  C   UNL A   1      34.396  33.412  30.687  1.00  0.00     0.059 A 
ATOM     83  F   UNL A   1      35.191  31.965  32.350  1.00  0.00    -0.206 F 
ATOM     84  C   UNL A   1      34.661  34.302  29.647  1.00  0.00     0.060 A 
BRANCH  84  85
ATOM     85  S   UNL A   1      33.304  35.092  28.756  1.00  0.00     0.124 S 
ATOM     86  O   UNL A   1      34.003  36.145  28.030  1.00  0.00    -0.237 OA
ATOM     87  O   UNL A   1      32.787  33.992  27.948  1.00  0.00    -0.237 OA
ATOM     88  O   UNL A   1      32.419  35.544  29.826  1.00  0.00    -0.744 OA
ENDBRANCH  84  85
ENDBRANCH  52  77
BRANCH  64  89
ATOM     89  C   UNL A   1      39.802  33.988  37.208  1.00  0.00     0.058 A 
ATOM     90  C   UNL A   1      38.959  33.676  38.286  1.00  0.00     0.135 A 
ATOM     91  C   UNL A   1      40.456  35.230  37.227  1.00  0.00     0.135 A 
ATOM     92  F   UNL A   1      38.301  32.505  38.314  1.00  0.00    -0.206 F 
ATOM     93  C   UNL A   1      38.757  34.568  39.333  1.00  0.00     0.059 A 
ATOM     94  C   UNL A   1      40.293  36.126  38.280  1.00  0.00     0.059 A 
ATOM     95  F   UNL A   1      41.279  35.577  36.225  1.00  0.00    -0.206 F 
ATOM     96  C   UNL A   1      39.433  35.789  39.323  1.00  0.00     0.060 A 
BRANCH  96  97
ATOM     97  S   UNL A   1      39.191  36.921  40.710  1.00  0.00     0.124 S 
ATOM     98  O   UNL A   1      38.532  36.056  41.684  1.00  0.00    -0.237 OA
ATOM     99  O   UNL A   1      40.560  37.311  41.034  1.00  0.00    -0.237 OA
ATOM    100  O   UNL A   1      38.359  37.979  40.146  1.00  0.00    -0.744 OA
ENDBRANCH  96  97
ENDBRANCH  64  89
ENDBRANCH  38  39
ENDBRANCH  30  33
ENDBRANCH  28  29
ENDBRANCH  27  28
ENDBRANCH   1  27
TORSDOF 18
ENDMDL
