MODEL 1
REMARK VINA RESULT:     -12.3      0.000      0.000
REMARK SMILES NS(=O)(=O)c1ccc(-n2nc(C(=O)NCCCCCCNC(=O)c3ccc(-c4c5nc(c(-c6c(F)cc(S(=O)(=O)[O-])cc6F)c6ccc([nH]6)c(-c6c(F)cc(S(=O)(=O)[O-])cc6F)c6nc(c(-c7c(F)cc(S(=O)(=O)[O-])cc7F)c7ccc4[nH]7)C=C6)C=C5)cc3)cc2-c2cc3ccccc3s2)cc1
REMARK SMILES IDX 17 1 16 2 15 3 14 4 12 5 13 6 11 8 9 9 10 10 91 11 90 12
REMARK SMILES IDX 8 13 5 14 6 15 102 16 7 17 101 18 2 19 3 20 4 21 1 22 92 25
REMARK SMILES IDX 93 26 100 27 94 28 99 29 95 30 98 31 96 32 97 33 18 34 19 35
REMARK SMILES IDX 20 36 21 37 22 38 23 40 24 41 25 42 89 43 26 44 88 45 27 46
REMARK SMILES IDX 28 47 29 48 82 49 30 50 87 51 81 52 83 53 31 54 86 55 80 56
REMARK SMILES IDX 79 57 32 59 66 60 45 61 65 62 46 63 49 64 64 65 84 66 47 67
REMARK SMILES IDX 48 68 63 70 85 71 50 72 33 73 34 74 43 75 35 76 36 77 42 78
REMARK SMILES IDX 44 79 37 80 38 81 39 82 40 83 41 84 67 85 68 86 77 87 69 88
REMARK SMILES IDX 70 89 76 90 78 91 71 92 72 93 73 94 74 95 75 96 51 97 52 98
REMARK SMILES IDX 61 99 53 100 54 101 60 102 62 103 55 104 56 105 57 106
REMARK SMILES IDX 58 107 59 108
REMARK H PARENT 14 7 1 23 1 24 21 39 83 58 49 69
REMARK Flexibility Score: inf
ROOT
ATOM      1  C   UNL A   1      40.455  21.779  27.654  1.00  0.00     0.002 C 
ENDROOT
BRANCH   1   2
ATOM      2  C   UNL A   1      40.079  22.545  26.375  1.00  0.00     0.021 C 
BRANCH   2   3
ATOM      3  C   UNL A   1      38.615  22.379  25.955  1.00  0.00     0.116 C 
BRANCH   3   4
ATOM      4  N   UNL A   1      38.313  20.998  25.599  1.00  0.00    -0.351 N 
ATOM      5  C   UNL A   1      37.183  20.378  25.091  1.00  0.00     0.271 C 
ATOM      6  O   UNL A   1      37.309  19.191  24.784  1.00  0.00    -0.267 OA
ATOM      7  H   UNL A   1      39.065  20.381  25.750  1.00  0.00     0.163 HD
BRANCH   5   8
ATOM      8  C   UNL A   1      35.935  21.133  24.857  1.00  0.00     0.151 A 
ATOM      9  N   UNL A   1      34.675  22.874  24.727  1.00  0.00    -0.231 N 
ATOM     10  N   UNL A   1      35.937  22.426  24.468  1.00  0.00    -0.162 NA
ATOM     11  C   UNL A   1      33.899  21.870  25.256  1.00  0.00     0.085 A 
ATOM     12  C   UNL A   1      34.604  20.705  25.009  1.00  0.00     0.066 A 
BRANCH   9  13
ATOM     13  C   UNL A   1      34.298  24.188  24.364  1.00  0.00     0.065 A 
ATOM     14  C   UNL A   1      33.726  26.824  23.678  1.00  0.00     0.082 A 
ATOM     15  C   UNL A   1      33.379  25.789  22.804  1.00  0.00     0.024 A 
ATOM     16  C   UNL A   1      34.347  26.552  24.899  1.00  0.00     0.024 A 
ATOM     17  C   UNL A   1      33.688  24.467  23.137  1.00  0.00     0.030 A 
ATOM     18  C   UNL A   1      34.604  25.227  25.257  1.00  0.00     0.030 A 
BRANCH  14  19
ATOM     19  S   UNL A   1      33.411  28.501  23.220  1.00  0.00     0.238 S 
ATOM     20  O   UNL A   1      32.022  28.630  22.815  1.00  0.00    -0.207 OA
ATOM     21  O   UNL A   1      34.500  28.973  22.414  1.00  0.00    -0.207 OA
BRANCH  19  22
ATOM     22  N   UNL A   1      33.510  29.326  24.681  1.00  0.00    -0.225 NA
ATOM     23  H   UNL A   1      32.900  30.143  24.653  1.00  0.00     0.137 HD
ATOM     24  H   UNL A   1      34.472  29.626  24.837  1.00  0.00     0.137 HD
ENDBRANCH  19  22
ENDBRANCH  14  19
ENDBRANCH   9  13
BRANCH  11  25
ATOM     25  C   UNL A   1      32.705  21.923  26.053  1.00  0.00     0.054 A 
ATOM     26  C   UNL A   1      32.480  22.813  27.094  1.00  0.00     0.031 A 
ATOM     27  S   UNL A   1      31.192  21.767  25.214  1.00  0.00    -0.134 S 
ATOM     28  C   UNL A   1      31.689  23.899  26.538  1.00  0.00    -0.007 A 
ATOM     29  C   UNL A   1      30.989  23.477  25.400  1.00  0.00     0.035 A 
ATOM     30  C   UNL A   1      31.641  25.268  26.878  1.00  0.00     0.009 A 
ATOM     31  C   UNL A   1      30.285  24.365  24.575  1.00  0.00     0.019 A 
ATOM     32  C   UNL A   1      30.991  26.170  26.029  1.00  0.00     0.001 A 
ATOM     33  C   UNL A   1      30.331  25.724  24.889  1.00  0.00     0.001 A 
ENDBRANCH  11  25
ENDBRANCH   5   8
ENDBRANCH   3   4
ENDBRANCH   2   3
ENDBRANCH   1   2
BRANCH   1  34
ATOM     34  C   UNL A   1      41.922  21.329  27.774  1.00  0.00     0.002 C 
BRANCH  34  35
ATOM     35  C   UNL A   1      42.259  19.925  27.256  1.00  0.00     0.021 C 
BRANCH  35  36
ATOM     36  C   UNL A   1      42.279  19.809  25.739  1.00  0.00     0.116 C 
BRANCH  36  37
ATOM     37  N   UNL A   1      43.618  19.566  25.203  1.00  0.00    -0.352 N 
ATOM     38  C   UNL A   1      44.549  20.501  24.789  1.00  0.00     0.251 C 
ATOM     39  H   UNL A   1      43.890  18.623  25.130  1.00  0.00     0.163 HD
ATOM     40  O   UNL A   1      45.457  20.183  24.029  1.00  0.00    -0.269 OA
BRANCH  38  41
ATOM     41  C   UNL A   1      44.428  21.889  25.274  1.00  0.00     0.039 A 
ATOM     42  C   UNL A   1      43.529  22.790  24.699  1.00  0.00     0.014 A 
ATOM     43  C   UNL A   1      45.225  22.280  26.348  1.00  0.00     0.014 A 
ATOM     44  C   UNL A   1      43.387  24.054  25.270  1.00  0.00     0.010 A 
ATOM     45  C   UNL A   1      44.963  23.453  27.008  1.00  0.00     0.010 A 
ATOM     46  C   UNL A   1      44.090  24.372  26.446  1.00  0.00    -0.014 A 
BRANCH  46  47
ATOM     47  C   UNL A   1      43.825  25.619  27.161  1.00  0.00     0.031 A 
ATOM     48  C   UNL A   1      44.809  26.702  26.877  1.00  0.00     0.074 A 
ATOM     49  C   UNL A   1      42.691  25.867  27.855  1.00  0.00     0.049 A 
ATOM     50  N   UNL A   1      45.685  27.203  27.682  1.00  0.00    -0.248 NA
ATOM     51  C   UNL A   1      44.944  27.174  25.487  1.00  0.00     0.031 C 
ATOM     52  C   UNL A   1      41.484  25.040  27.975  1.00  0.00     0.029 A 
ATOM     53  N   UNL A   1      42.336  26.990  28.538  1.00  0.00    -0.354 N 
ATOM     54  C   UNL A   1      46.318  28.221  26.975  1.00  0.00     0.074 A 
ATOM     55  C   UNL A   1      45.967  28.027  25.592  1.00  0.00     0.031 C 
ATOM     56  C   UNL A   1      40.467  25.783  28.466  1.00  0.00     0.029 A 
ATOM     57  C   UNL A   1      40.985  27.078  28.863  1.00  0.00     0.049 A 
ATOM     58  H   UNL A   1      42.987  27.687  28.783  1.00  0.00     0.167 HD
ATOM     59  C   UNL A   1      46.876  29.284  27.617  1.00  0.00     0.037 A 
ATOM     60  C   UNL A   1      40.345  28.149  29.401  1.00  0.00     0.037 A 
ATOM     61  C   UNL A   1      47.082  29.000  29.016  1.00  0.00     0.049 A 
ATOM     62  C   UNL A   1      41.391  28.998  30.031  1.00  0.00     0.074 A 
ATOM     63  C   UNL A   1      47.759  28.011  29.708  1.00  0.00     0.029 A 
ATOM     64  N   UNL A   1      46.206  29.546  29.925  1.00  0.00    -0.354 N 
ATOM     65  N   UNL A   1      42.091  28.636  31.072  1.00  0.00    -0.248 NA
ATOM     66  C   UNL A   1      41.989  30.039  29.207  1.00  0.00     0.031 C 
ATOM     67  C   UNL A   1      46.895  27.667  30.790  1.00  0.00     0.029 A 
ATOM     68  C   UNL A   1      45.797  28.526  30.749  1.00  0.00     0.049 A 
ATOM     69  H   UNL A   1      45.926  30.489  29.976  1.00  0.00     0.167 HD
ATOM     70  C   UNL A   1      43.379  29.070  30.801  1.00  0.00     0.074 A 
ATOM     71  C   UNL A   1      43.241  29.986  29.668  1.00  0.00     0.031 C 
ATOM     72  C   UNL A   1      44.472  28.437  31.322  1.00  0.00     0.037 A 
BRANCH  59  73
ATOM     73  C   UNL A   1      46.898  30.687  27.059  1.00  0.00     0.058 A 
ATOM     74  C   UNL A   1      48.100  31.424  27.069  1.00  0.00     0.135 A 
ATOM     75  C   UNL A   1      45.734  31.429  26.759  1.00  0.00     0.135 A 
ATOM     76  F   UNL A   1      49.265  30.827  27.367  1.00  0.00    -0.206 F 
ATOM     77  C   UNL A   1      48.133  32.802  26.847  1.00  0.00     0.059 A 
ATOM     78  C   UNL A   1      45.751  32.790  26.479  1.00  0.00     0.059 A 
ATOM     79  F   UNL A   1      44.509  30.893  26.817  1.00  0.00    -0.206 F 
ATOM     80  C   UNL A   1      46.950  33.476  26.560  1.00  0.00     0.060 A 
BRANCH  80  81
ATOM     81  S   UNL A   1      46.978  35.263  26.340  1.00  0.00     0.124 S 
ATOM     82  O   UNL A   1      45.608  35.524  25.911  1.00  0.00    -0.237 OA
ATOM     83  O   UNL A   1      47.329  35.726  27.679  1.00  0.00    -0.237 OA
ATOM     84  O   UNL A   1      48.008  35.460  25.326  1.00  0.00    -0.744 OA
ENDBRANCH  80  81
ENDBRANCH  59  73
BRANCH  60  85
ATOM     85  C   UNL A   1      38.979  28.670  29.104  1.00  0.00     0.058 A 
ATOM     86  C   UNL A   1      38.040  28.860  30.137  1.00  0.00     0.135 A 
ATOM     87  C   UNL A   1      38.673  29.283  27.873  1.00  0.00     0.135 A 
ATOM     88  F   UNL A   1      38.248  28.317  31.346  1.00  0.00    -0.206 F 
ATOM     89  C   UNL A   1      36.912  29.676  29.985  1.00  0.00     0.059 A 
ATOM     90  C   UNL A   1      37.550  30.092  27.695  1.00  0.00     0.059 A 
ATOM     91  F   UNL A   1      39.511  29.199  26.829  1.00  0.00    -0.206 F 
ATOM     92  C   UNL A   1      36.692  30.315  28.767  1.00  0.00     0.060 A 
BRANCH  92  93
ATOM     93  S   UNL A   1      35.371  31.545  28.630  1.00  0.00     0.124 S 
ATOM     94  O   UNL A   1      34.338  30.802  27.920  1.00  0.00    -0.237 OA
ATOM     95  O   UNL A   1      35.090  31.852  30.029  1.00  0.00    -0.237 OA
ATOM     96  O   UNL A   1      35.996  32.627  27.873  1.00  0.00    -0.744 OA
ENDBRANCH  92  93
ENDBRANCH  60  85
BRANCH  72  97
ATOM     97  C   UNL A   1      44.273  27.425  32.425  1.00  0.00     0.058 A 
ATOM     98  C   UNL A   1      44.047  27.736  33.779  1.00  0.00     0.135 A 
ATOM     99  C   UNL A   1      44.161  26.076  32.058  1.00  0.00     0.135 A 
ATOM    100  F   UNL A   1      44.030  29.008  34.204  1.00  0.00    -0.206 F 
ATOM    101  C   UNL A   1      43.766  26.746  34.727  1.00  0.00     0.059 A 
ATOM    102  C   UNL A   1      43.849  25.077  32.977  1.00  0.00     0.059 A 
ATOM    103  F   UNL A   1      44.307  25.714  30.772  1.00  0.00    -0.206 F 
ATOM    104  C   UNL A   1      43.669  25.418  34.314  1.00  0.00     0.060 A 
BRANCH 104 105
ATOM    105  S   UNL A   1      43.252  24.142  35.523  1.00  0.00     0.124 S 
ATOM    106  O   UNL A   1      43.522  22.916  34.781  1.00  0.00    -0.237 OA
ATOM    107  O   UNL A   1      44.169  24.433  36.621  1.00  0.00    -0.237 OA
ATOM    108  O   UNL A   1      41.843  24.396  35.816  1.00  0.00    -0.744 OA
ENDBRANCH 104 105
ENDBRANCH  72  97
ENDBRANCH  46  47
ENDBRANCH  38  41
ENDBRANCH  36  37
ENDBRANCH  35  36
ENDBRANCH  34  35
ENDBRANCH   1  34
TORSDOF 20
ENDMDL
MODEL 2
REMARK VINA RESULT:     -12.1      2.853      9.421
REMARK SMILES NS(=O)(=O)c1ccc(-n2nc(C(=O)NCCCCCCNC(=O)c3ccc(-c4c5nc(c(-c6c(F)cc(S(=O)(=O)[O-])cc6F)c6ccc([nH]6)c(-c6c(F)cc(S(=O)(=O)[O-])cc6F)c6nc(c(-c7c(F)cc(S(=O)(=O)[O-])cc7F)c7ccc4[nH]7)C=C6)C=C5)cc3)cc2-c2cc3ccccc3s2)cc1
REMARK SMILES IDX 17 1 16 2 15 3 14 4 12 5 13 6 11 8 9 9 10 10 91 11 90 12
REMARK SMILES IDX 8 13 5 14 6 15 102 16 7 17 101 18 2 19 3 20 4 21 1 22 92 25
REMARK SMILES IDX 93 26 100 27 94 28 99 29 95 30 98 31 96 32 97 33 18 34 19 35
REMARK SMILES IDX 20 36 21 37 22 38 23 40 24 41 25 42 89 43 26 44 88 45 27 46
REMARK SMILES IDX 28 47 29 48 82 49 30 50 87 51 81 52 83 53 31 54 86 55 80 56
REMARK SMILES IDX 79 57 32 59 66 60 45 61 65 62 46 63 49 64 64 65 84 66 47 67
REMARK SMILES IDX 48 68 63 70 85 71 50 72 33 73 34 74 43 75 35 76 36 77 42 78
REMARK SMILES IDX 44 79 37 80 38 81 39 82 40 83 41 84 67 85 68 86 77 87 69 88
REMARK SMILES IDX 70 89 76 90 78 91 71 92 72 93 73 94 74 95 75 96 51 97 52 98
REMARK SMILES IDX 61 99 53 100 54 101 60 102 62 103 55 104 56 105 57 106
REMARK SMILES IDX 58 107 59 108
REMARK H PARENT 14 7 1 23 1 24 21 39 83 58 49 69
REMARK Flexibility Score: inf
ROOT
ATOM      1  C   UNL A   1      31.406  28.024  27.430  1.00  0.00     0.002 C 
ENDROOT
BRANCH   1   2
ATOM      2  C   UNL A   1      31.590  26.804  26.512  1.00  0.00     0.021 C 
BRANCH   2   3
ATOM      3  C   UNL A   1      30.287  26.281  25.900  1.00  0.00     0.116 C 
BRANCH   3   4
ATOM      4  N   UNL A   1      29.695  25.228  26.716  1.00  0.00    -0.351 N 
ATOM      5  C   UNL A   1      29.779  23.846  26.683  1.00  0.00     0.271 C 
ATOM      6  O   UNL A   1      29.237  23.249  27.615  1.00  0.00    -0.267 OA
ATOM      7  H   UNL A   1      29.119  25.569  27.437  1.00  0.00     0.163 HD
BRANCH   5   8
ATOM      8  C   UNL A   1      30.549  23.150  25.632  1.00  0.00     0.151 A 
ATOM      9  N   UNL A   1      31.902  21.686  24.818  1.00  0.00    -0.231 N 
ATOM     10  N   UNL A   1      30.917  21.856  25.746  1.00  0.00    -0.162 NA
ATOM     11  C   UNL A   1      32.131  22.854  24.129  1.00  0.00     0.085 A 
ATOM     12  C   UNL A   1      31.043  23.658  24.417  1.00  0.00     0.066 A 
BRANCH   9  13
ATOM     13  C   UNL A   1      32.470  20.408  24.608  1.00  0.00     0.065 A 
ATOM     14  C   UNL A   1      33.503  17.837  24.345  1.00  0.00     0.082 A 
ATOM     15  C   UNL A   1      32.821  18.424  23.274  1.00  0.00     0.024 A 
ATOM     16  C   UNL A   1      33.682  18.530  25.545  1.00  0.00     0.024 A 
ATOM     17  C   UNL A   1      32.281  19.704  23.414  1.00  0.00     0.030 A 
ATOM     18  C   UNL A   1      33.192  19.831  25.664  1.00  0.00     0.030 A 
BRANCH  14  19
ATOM     19  S   UNL A   1      34.114  16.186  24.197  1.00  0.00     0.238 S 
ATOM     20  O   UNL A   1      35.127  15.961  25.213  1.00  0.00    -0.207 OA
ATOM     21  O   UNL A   1      34.331  15.896  22.809  1.00  0.00    -0.207 OA
BRANCH  19  22
ATOM     22  N   UNL A   1      32.806  15.246  24.680  1.00  0.00    -0.225 NA
ATOM     23  H   UNL A   1      32.417  15.623  25.544  1.00  0.00     0.137 HD
ATOM     24  H   UNL A   1      33.116  14.287  24.836  1.00  0.00     0.137 HD
ENDBRANCH  19  22
ENDBRANCH  14  19
ENDBRANCH   9  13
BRANCH  11  25
ATOM     25  C   UNL A   1      33.281  23.305  23.395  1.00  0.00     0.054 A 
ATOM     26  C   UNL A   1      33.240  23.959  22.171  1.00  0.00     0.031 A 
ATOM     27  S   UNL A   1      34.547  24.067  24.309  1.00  0.00    -0.134 S 
ATOM     28  C   UNL A   1      33.355  25.378  22.463  1.00  0.00    -0.007 A 
ATOM     29  C   UNL A   1      33.981  25.586  23.700  1.00  0.00     0.035 A 
ATOM     30  C   UNL A   1      32.831  26.501  21.787  1.00  0.00     0.009 A 
ATOM     31  C   UNL A   1      34.067  26.851  24.299  1.00  0.00     0.019 A 
ATOM     32  C   UNL A   1      32.859  27.757  22.403  1.00  0.00     0.001 A 
ATOM     33  C   UNL A   1      33.461  27.925  23.646  1.00  0.00     0.001 A 
ENDBRANCH  11  25
ENDBRANCH   5   8
ENDBRANCH   3   4
ENDBRANCH   2   3
ENDBRANCH   1   2
BRANCH   1  34
ATOM     34  C   UNL A   1      32.291  29.247  27.126  1.00  0.00     0.002 C 
BRANCH  34  35
ATOM     35  C   UNL A   1      33.807  29.049  27.254  1.00  0.00     0.021 C 
BRANCH  35  36
ATOM     36  C   UNL A   1      34.628  30.278  26.893  1.00  0.00     0.116 C 
BRANCH  36  37
ATOM     37  N   UNL A   1      34.361  31.420  27.765  1.00  0.00    -0.352 N 
ATOM     38  C   UNL A   1      34.939  31.707  28.989  1.00  0.00     0.251 C 
ATOM     39  H   UNL A   1      33.690  32.063  27.443  1.00  0.00     0.163 HD
ATOM     40  O   UNL A   1      34.383  32.461  29.780  1.00  0.00    -0.269 OA
BRANCH  38  41
ATOM     41  C   UNL A   1      36.235  31.088  29.326  1.00  0.00     0.039 A 
ATOM     42  C   UNL A   1      36.341  29.727  29.620  1.00  0.00     0.014 A 
ATOM     43  C   UNL A   1      37.368  31.897  29.325  1.00  0.00     0.014 A 
ATOM     44  C   UNL A   1      37.607  29.181  29.828  1.00  0.00     0.010 A 
ATOM     45  C   UNL A   1      38.618  31.332  29.360  1.00  0.00     0.010 A 
ATOM     46  C   UNL A   1      38.749  29.986  29.670  1.00  0.00    -0.014 A 
BRANCH  46  47
ATOM     47  C   UNL A   1      40.088  29.401  29.707  1.00  0.00     0.031 A 
ATOM     48  C   UNL A   1      40.610  29.171  31.084  1.00  0.00     0.074 A 
ATOM     49  C   UNL A   1      40.730  28.911  28.622  1.00  0.00     0.049 A 
ATOM     50  N   UNL A   1      41.585  29.782  31.670  1.00  0.00    -0.248 NA
ATOM     51  C   UNL A   1      39.860  28.265  31.972  1.00  0.00     0.031 C 
ATOM     52  C   UNL A   1      40.237  28.766  27.247  1.00  0.00     0.029 A 
ATOM     53  N   UNL A   1      41.960  28.333  28.547  1.00  0.00    -0.354 N 
ATOM     54  C   UNL A   1      41.728  29.171  32.912  1.00  0.00     0.074 A 
ATOM     55  C   UNL A   1      40.534  28.395  33.118  1.00  0.00     0.031 C 
ATOM     56  C   UNL A   1      41.049  27.934  26.556  1.00  0.00     0.029 A 
ATOM     57  C   UNL A   1      42.209  27.630  27.371  1.00  0.00     0.049 A 
ATOM     58  H   UNL A   1      42.624  28.408  29.270  1.00  0.00     0.167 HD
ATOM     59  C   UNL A   1      42.928  29.158  33.558  1.00  0.00     0.037 A 
ATOM     60  C   UNL A   1      43.283  26.842  27.105  1.00  0.00     0.037 A 
ATOM     61  C   UNL A   1      43.821  30.155  33.020  1.00  0.00     0.049 A 
ATOM     62  C   UNL A   1      44.355  27.249  28.052  1.00  0.00     0.074 A 
ATOM     63  C   UNL A   1      43.740  31.526  32.844  1.00  0.00     0.029 A 
ATOM     64  N   UNL A   1      44.830  29.739  32.184  1.00  0.00    -0.354 N 
ATOM     65  N   UNL A   1      44.945  28.414  28.023  1.00  0.00    -0.248 NA
ATOM     66  C   UNL A   1      44.423  26.546  29.324  1.00  0.00     0.031 C 
ATOM     67  C   UNL A   1      44.306  31.762  31.556  1.00  0.00     0.029 A 
ATOM     68  C   UNL A   1      44.783  30.543  31.071  1.00  0.00     0.049 A 
ATOM     69  H   UNL A   1      45.465  29.006  32.350  1.00  0.00     0.167 HD
ATOM     70  C   UNL A   1      45.072  28.779  29.354  1.00  0.00     0.074 A 
ATOM     71  C   UNL A   1      44.792  27.558  30.112  1.00  0.00     0.031 C 
ATOM     72  C   UNL A   1      45.108  30.090  29.736  1.00  0.00     0.037 A 
BRANCH  59  73
ATOM     73  C   UNL A   1      43.408  28.014  34.418  1.00  0.00     0.058 A 
ATOM     74  C   UNL A   1      43.832  28.263  35.739  1.00  0.00     0.135 A 
ATOM     75  C   UNL A   1      43.716  26.731  33.914  1.00  0.00     0.135 A 
ATOM     76  F   UNL A   1      43.616  29.458  36.312  1.00  0.00    -0.206 F 
ATOM     77  C   UNL A   1      44.551  27.326  36.483  1.00  0.00     0.059 A 
ATOM     78  C   UNL A   1      44.381  25.762  34.656  1.00  0.00     0.059 A 
ATOM     79  F   UNL A   1      43.474  26.383  32.644  1.00  0.00    -0.206 F 
ATOM     80  C   UNL A   1      44.827  26.080  35.928  1.00  0.00     0.060 A 
BRANCH  80  81
ATOM     81  S   UNL A   1      45.812  24.893  36.856  1.00  0.00     0.124 S 
ATOM     82  O   UNL A   1      47.058  24.895  36.098  1.00  0.00    -0.237 OA
ATOM     83  O   UNL A   1      45.863  25.512  38.177  1.00  0.00    -0.237 OA
ATOM     84  O   UNL A   1      45.023  23.668  36.775  1.00  0.00    -0.744 OA
ENDBRANCH  80  81
ENDBRANCH  59  73
BRANCH  60  85
ATOM     85  C   UNL A   1      43.334  25.548  26.364  1.00  0.00     0.058 A 
ATOM     86  C   UNL A   1      44.287  25.339  25.346  1.00  0.00     0.135 A 
ATOM     87  C   UNL A   1      42.678  24.396  26.839  1.00  0.00     0.135 A 
ATOM     88  F   UNL A   1      44.965  26.376  24.834  1.00  0.00    -0.206 F 
ATOM     89  C   UNL A   1      44.627  24.060  24.890  1.00  0.00     0.059 A 
ATOM     90  C   UNL A   1      42.994  23.112  26.392  1.00  0.00     0.059 A 
ATOM     91  F   UNL A   1      41.778  24.471  27.830  1.00  0.00    -0.206 F 
ATOM     92  C   UNL A   1      43.996  22.948  25.442  1.00  0.00     0.060 A 
BRANCH  92  93
ATOM     93  S   UNL A   1      44.587  21.288  25.027  1.00  0.00     0.124 S 
ATOM     94  O   UNL A   1      43.576  20.442  25.651  1.00  0.00    -0.237 OA
ATOM     95  O   UNL A   1      44.584  21.316  23.568  1.00  0.00    -0.237 OA
ATOM     96  O   UNL A   1      45.911  21.238  25.642  1.00  0.00    -0.744 OA
ENDBRANCH  92  93
ENDBRANCH  60  85
BRANCH  72  97
ATOM     97  C   UNL A   1      45.289  31.154  28.680  1.00  0.00     0.058 A 
ATOM     98  C   UNL A   1      44.249  31.739  27.933  1.00  0.00     0.135 A 
ATOM     99  C   UNL A   1      46.569  31.709  28.527  1.00  0.00     0.135 A 
ATOM    100  F   UNL A   1      42.977  31.346  28.091  1.00  0.00    -0.206 F 
ATOM    101  C   UNL A   1      44.482  32.796  27.046  1.00  0.00     0.059 A 
ATOM    102  C   UNL A   1      46.819  32.782  27.676  1.00  0.00     0.059 A 
ATOM    103  F   UNL A   1      47.597  31.237  29.252  1.00  0.00    -0.206 F 
ATOM    104  C   UNL A   1      45.772  33.311  26.925  1.00  0.00     0.060 A 
BRANCH 104 105
ATOM    105  S   UNL A   1      46.068  34.711  25.823  1.00  0.00     0.124 S 
ATOM    106  O   UNL A   1      45.377  35.795  26.511  1.00  0.00    -0.237 OA
ATOM    107  O   UNL A   1      47.525  34.798  25.805  1.00  0.00    -0.237 OA
ATOM    108  O   UNL A   1      45.463  34.287  24.562  1.00  0.00    -0.744 OA
ENDBRANCH 104 105
ENDBRANCH  72  97
ENDBRANCH  46  47
ENDBRANCH  38  41
ENDBRANCH  36  37
ENDBRANCH  35  36
ENDBRANCH  34  35
ENDBRANCH   1  34
TORSDOF 20
ENDMDL
MODEL 3
REMARK VINA RESULT:     -11.7      2.655      9.294
REMARK SMILES NS(=O)(=O)c1ccc(-n2nc(C(=O)NCCCCCCNC(=O)c3ccc(-c4c5nc(c(-c6c(F)cc(S(=O)(=O)[O-])cc6F)c6ccc([nH]6)c(-c6c(F)cc(S(=O)(=O)[O-])cc6F)c6nc(c(-c7c(F)cc(S(=O)(=O)[O-])cc7F)c7ccc4[nH]7)C=C6)C=C5)cc3)cc2-c2cc3ccccc3s2)cc1
REMARK SMILES IDX 17 1 16 2 15 3 14 4 12 5 13 6 11 8 9 9 10 10 91 11 90 12
REMARK SMILES IDX 8 13 5 14 6 15 102 16 7 17 101 18 2 19 3 20 4 21 1 22 92 25
REMARK SMILES IDX 93 26 100 27 94 28 99 29 95 30 98 31 96 32 97 33 18 34 19 35
REMARK SMILES IDX 20 36 21 37 22 38 23 40 24 41 25 42 89 43 26 44 88 45 27 46
REMARK SMILES IDX 28 47 29 48 82 49 30 50 87 51 81 52 83 53 31 54 86 55 80 56
REMARK SMILES IDX 79 57 32 59 66 60 45 61 65 62 46 63 49 64 64 65 84 66 47 67
REMARK SMILES IDX 48 68 63 70 85 71 50 72 33 73 34 74 43 75 35 76 36 77 42 78
REMARK SMILES IDX 44 79 37 80 38 81 39 82 40 83 41 84 67 85 68 86 77 87 69 88
REMARK SMILES IDX 70 89 76 90 78 91 71 92 72 93 73 94 74 95 75 96 51 97 52 98
REMARK SMILES IDX 61 99 53 100 54 101 60 102 62 103 55 104 56 105 57 106
REMARK SMILES IDX 58 107 59 108
REMARK H PARENT 14 7 1 23 1 24 21 39 83 58 49 69
REMARK Flexibility Score: inf
ROOT
ATOM      1  C   UNL A   1      32.572  28.523  24.354  1.00  0.00     0.002 C 
ENDROOT
BRANCH   1   2
ATOM      2  C   UNL A   1      32.006  28.570  22.925  1.00  0.00     0.021 C 
BRANCH   2   3
ATOM      3  C   UNL A   1      31.340  27.267  22.475  1.00  0.00     0.116 C 
BRANCH   3   4
ATOM      4  N   UNL A   1      31.963  26.734  21.270  1.00  0.00    -0.351 N 
ATOM      5  C   UNL A   1      32.840  25.687  21.042  1.00  0.00     0.271 C 
ATOM      6  O   UNL A   1      33.078  25.427  19.860  1.00  0.00    -0.267 OA
ATOM      7  H   UNL A   1      31.708  27.218  20.451  1.00  0.00     0.163 HD
BRANCH   5   8
ATOM      8  C   UNL A   1      33.381  24.884  22.158  1.00  0.00     0.151 A 
ATOM      9  N   UNL A   1      33.540  23.188  23.474  1.00  0.00    -0.231 N 
ATOM     10  N   UNL A   1      33.311  23.536  22.176  1.00  0.00    -0.162 NA
ATOM     11  C   UNL A   1      33.763  24.304  24.247  1.00  0.00     0.085 A 
ATOM     12  C   UNL A   1      33.998  25.324  23.343  1.00  0.00     0.066 A 
BRANCH   9  13
ATOM     13  C   UNL A   1      33.618  21.825  23.844  1.00  0.00     0.065 A 
ATOM     14  C   UNL A   1      33.720  19.101  24.401  1.00  0.00     0.082 A 
ATOM     15  C   UNL A   1      34.827  19.908  24.682  1.00  0.00     0.024 A 
ATOM     16  C   UNL A   1      32.557  19.646  23.854  1.00  0.00     0.024 A 
ATOM     17  C   UNL A   1      34.785  21.271  24.379  1.00  0.00     0.030 A 
ATOM     18  C   UNL A   1      32.494  21.018  23.605  1.00  0.00     0.030 A 
BRANCH  14  19
ATOM     19  S   UNL A   1      33.803  17.362  24.707  1.00  0.00     0.238 S 
ATOM     20  O   UNL A   1      35.188  16.983  24.923  1.00  0.00    -0.207 OA
ATOM     21  O   UNL A   1      32.952  16.687  23.769  1.00  0.00    -0.207 OA
BRANCH  19  22
ATOM     22  N   UNL A   1      33.072  17.199  26.212  1.00  0.00    -0.225 NA
ATOM     23  H   UNL A   1      32.063  17.110  26.092  1.00  0.00     0.137 HD
ATOM     24  H   UNL A   1      33.277  18.020  26.779  1.00  0.00     0.137 HD
ENDBRANCH  19  22
ENDBRANCH  14  19
ENDBRANCH   9  13
BRANCH  11  25
ATOM     25  C   UNL A   1      33.633  24.511  25.663  1.00  0.00     0.054 A 
ATOM     26  C   UNL A   1      33.012  25.602  26.255  1.00  0.00     0.031 A 
ATOM     27  S   UNL A   1      33.201  23.128  26.622  1.00  0.00    -0.134 S 
ATOM     28  C   UNL A   1      31.664  25.173  26.588  1.00  0.00    -0.007 A 
ATOM     29  C   UNL A   1      31.599  23.779  26.720  1.00  0.00     0.035 A 
ATOM     30  C   UNL A   1      30.457  25.903  26.654  1.00  0.00     0.009 A 
ATOM     31  C   UNL A   1      30.387  23.091  26.871  1.00  0.00     0.019 A 
ATOM     32  C   UNL A   1      29.239  25.221  26.744  1.00  0.00     0.001 A 
ATOM     33  C   UNL A   1      29.206  23.834  26.843  1.00  0.00     0.001 A 
ENDBRANCH  11  25
ENDBRANCH   5   8
ENDBRANCH   3   4
ENDBRANCH   2   3
ENDBRANCH   1   2
BRANCH   1  34
ATOM     34  C   UNL A   1      31.940  29.491  25.371  1.00  0.00     0.002 C 
BRANCH  34  35
ATOM     35  C   UNL A   1      32.289  29.264  26.848  1.00  0.00     0.021 C 
BRANCH  35  36
ATOM     36  C   UNL A   1      33.720  29.630  27.213  1.00  0.00     0.116 C 
BRANCH  36  37
ATOM     37  N   UNL A   1      33.966  31.071  27.181  1.00  0.00    -0.352 N 
ATOM     38  C   UNL A   1      34.992  31.771  27.791  1.00  0.00     0.251 C 
ATOM     39  H   UNL A   1      33.326  31.608  26.661  1.00  0.00     0.163 HD
ATOM     40  O   UNL A   1      34.885  32.974  28.004  1.00  0.00    -0.269 OA
BRANCH  38  41
ATOM     41  C   UNL A   1      36.214  31.044  28.185  1.00  0.00     0.039 A 
ATOM     42  C   UNL A   1      36.465  29.743  27.745  1.00  0.00     0.014 A 
ATOM     43  C   UNL A   1      37.134  31.702  28.998  1.00  0.00     0.014 A 
ATOM     44  C   UNL A   1      37.685  29.149  28.066  1.00  0.00     0.010 A 
ATOM     45  C   UNL A   1      38.393  31.186  29.168  1.00  0.00     0.010 A 
ATOM     46  C   UNL A   1      38.661  29.888  28.758  1.00  0.00    -0.014 A 
BRANCH  46  47
ATOM     47  C   UNL A   1      40.007  29.354  28.950  1.00  0.00     0.031 A 
ATOM     48  C   UNL A   1      40.345  29.056  30.371  1.00  0.00     0.074 A 
ATOM     49  C   UNL A   1      40.816  28.958  27.940  1.00  0.00     0.049 A 
ATOM     50  N   UNL A   1      41.199  29.666  31.123  1.00  0.00    -0.248 NA
ATOM     51  C   UNL A   1      39.522  28.067  31.091  1.00  0.00     0.031 C 
ATOM     52  C   UNL A   1      40.526  28.883  26.503  1.00  0.00     0.029 A 
ATOM     53  N   UNL A   1      42.071  28.435  28.006  1.00  0.00    -0.354 N 
ATOM     54  C   UNL A   1      41.197  28.983  32.336  1.00  0.00     0.074 A 
ATOM     55  C   UNL A   1      40.023  28.150  32.326  1.00  0.00     0.031 C 
ATOM     56  C   UNL A   1      41.463  28.128  25.886  1.00  0.00     0.029 A 
ATOM     57  C   UNL A   1      42.512  27.817  26.838  1.00  0.00     0.049 A 
ATOM     58  H   UNL A   1      42.624  28.489  28.818  1.00  0.00     0.167 HD
ATOM     59  C   UNL A   1      42.295  28.975  33.142  1.00  0.00     0.037 A 
ATOM     60  C   UNL A   1      43.649  27.089  26.681  1.00  0.00     0.037 A 
ATOM     61  C   UNL A   1      43.206  30.038  32.794  1.00  0.00     0.049 A 
ATOM     62  C   UNL A   1      44.559  27.477  27.792  1.00  0.00     0.074 A 
ATOM     63  C   UNL A   1      43.086  31.413  32.688  1.00  0.00     0.029 A 
ATOM     64  N   UNL A   1      44.340  29.715  32.086  1.00  0.00    -0.354 N 
ATOM     65  N   UNL A   1      45.092  28.662  27.913  1.00  0.00    -0.248 NA
ATOM     66  C   UNL A   1      44.483  26.697  29.018  1.00  0.00     0.031 C 
ATOM     67  C   UNL A   1      43.814  31.752  31.509  1.00  0.00     0.029 A 
ATOM     68  C   UNL A   1      44.410  30.586  31.026  1.00  0.00     0.049 A 
ATOM     69  H   UNL A   1      44.979  28.998  32.298  1.00  0.00     0.167 HD
ATOM     70  C   UNL A   1      45.016  28.947  29.268  1.00  0.00     0.074 A 
ATOM     71  C   UNL A   1      44.692  27.671  29.907  1.00  0.00     0.031 C 
ATOM     72  C   UNL A   1      44.937  30.232  29.726  1.00  0.00     0.037 A 
BRANCH  59  73
ATOM     73  C   UNL A   1      42.704  27.798  33.994  1.00  0.00     0.058 A 
ATOM     74  C   UNL A   1      42.774  27.940  35.395  1.00  0.00     0.135 A 
ATOM     75  C   UNL A   1      43.284  26.618  33.474  1.00  0.00     0.135 A 
ATOM     76  F   UNL A   1      42.279  29.033  35.996  1.00  0.00    -0.206 F 
ATOM     77  C   UNL A   1      43.415  27.005  36.210  1.00  0.00     0.059 A 
ATOM     78  C   UNL A   1      43.877  25.648  34.272  1.00  0.00     0.059 A 
ATOM     79  F   UNL A   1      43.391  26.393  32.159  1.00  0.00    -0.206 F 
ATOM     80  C   UNL A   1      43.969  25.865  35.636  1.00  0.00     0.060 A 
BRANCH  80  81
ATOM     81  S   UNL A   1      44.855  24.690  36.673  1.00  0.00     0.124 S 
ATOM     82  O   UNL A   1      44.178  24.864  37.953  1.00  0.00    -0.237 OA
ATOM     83  O   UNL A   1      44.605  23.429  35.981  1.00  0.00    -0.237 OA
ATOM     84  O   UNL A   1      46.234  25.166  36.615  1.00  0.00    -0.744 OA
ENDBRANCH  80  81
ENDBRANCH  59  73
BRANCH  60  85
ATOM     85  C   UNL A   1      43.863  25.849  25.881  1.00  0.00     0.058 A 
ATOM     86  C   UNL A   1      45.138  25.532  25.371  1.00  0.00     0.135 A 
ATOM     87  C   UNL A   1      42.918  24.805  25.868  1.00  0.00     0.135 A 
ATOM     88  F   UNL A   1      46.104  26.462  25.347  1.00  0.00    -0.206 F 
ATOM     89  C   UNL A   1      45.479  24.240  24.953  1.00  0.00     0.059 A 
ATOM     90  C   UNL A   1      43.231  23.512  25.447  1.00  0.00     0.059 A 
ATOM     91  F   UNL A   1      41.683  24.981  26.360  1.00  0.00    -0.206 F 
ATOM     92  C   UNL A   1      44.526  23.227  25.025  1.00  0.00     0.060 A 
BRANCH  92  93
ATOM     93  S   UNL A   1      45.018  21.514  24.706  1.00  0.00     0.124 S 
ATOM     94  O   UNL A   1      44.172  20.778  25.638  1.00  0.00    -0.237 OA
ATOM     95  O   UNL A   1      44.695  21.359  23.291  1.00  0.00    -0.237 OA
ATOM     96  O   UNL A   1      46.444  21.510  25.019  1.00  0.00    -0.744 OA
ENDBRANCH  92  93
ENDBRANCH  60  85
BRANCH  72  97
ATOM     97  C   UNL A   1      45.212  31.367  28.769  1.00  0.00     0.058 A 
ATOM     98  C   UNL A   1      46.491  31.834  28.412  1.00  0.00     0.135 A 
ATOM     99  C   UNL A   1      44.122  31.907  28.070  1.00  0.00     0.135 A 
ATOM    100  F   UNL A   1      47.598  31.302  28.951  1.00  0.00    -0.206 F 
ATOM    101  C   UNL A   1      46.671  32.821  27.437  1.00  0.00     0.059 A 
ATOM    102  C   UNL A   1      44.279  32.866  27.072  1.00  0.00     0.059 A 
ATOM    103  F   UNL A   1      42.878  31.466  28.319  1.00  0.00    -0.206 F 
ATOM    104  C   UNL A   1      45.556  33.331  26.772  1.00  0.00     0.060 A 
BRANCH 104 105
ATOM    105  S   UNL A   1      45.786  34.565  25.474  1.00  0.00     0.124 S 
ATOM    106  O   UNL A   1      45.298  35.781  26.116  1.00  0.00    -0.237 OA
ATOM    107  O   UNL A   1      47.225  34.509  25.234  1.00  0.00    -0.237 OA
ATOM    108  O   UNL A   1      44.961  34.066  24.377  1.00  0.00    -0.744 OA
ENDBRANCH 104 105
ENDBRANCH  72  97
ENDBRANCH  46  47
ENDBRANCH  38  41
ENDBRANCH  36  37
ENDBRANCH  35  36
ENDBRANCH  34  35
ENDBRANCH   1  34
TORSDOF 20
ENDMDL
