MODEL 1
REMARK VINA RESULT:     -11.8      0.000      0.000
REMARK SMILES O=C(C[NH+]1CCN(C(=O)c2ccc(F)c(F)c2F)CC1)NCCCCCCNC(=O)c1ccc(-c2c3nc(c(-c4c(F)cc(S(=O)(=O)[O-])cc4F)c4ccc([nH]4)c(-c4c(F)cc(S(=O)(=O)[O-])cc4F)c4nc(c(-c5c(F)cc(S(=O)(=O)[O-])cc5F)c5ccc2[nH]5)C=C4)C=C3)cc1
REMARK SMILES IDX 25 1 24 2 23 3 22 4 21 5 1 6 2 7 3 9 4 10 5 11 20 12 6 14
REMARK SMILES IDX 19 15 7 16 8 17 9 18 10 19 11 20 17 21 12 22 15 23 18 24
REMARK SMILES IDX 13 25 16 26 14 27 26 28 27 29 28 30 29 31 30 33 31 34 32 35
REMARK SMILES IDX 96 36 33 37 95 38 34 39 35 40 36 41 89 42 37 43 94 44 88 45
REMARK SMILES IDX 90 46 38 47 93 48 87 49 86 50 39 52 73 53 52 54 72 55 53 56
REMARK SMILES IDX 56 57 71 58 91 59 54 60 55 61 70 63 92 64 57 65 40 66 41 67
REMARK SMILES IDX 50 68 42 69 43 70 49 71 51 72 44 73 45 74 46 75 47 76 48 77
REMARK SMILES IDX 74 78 75 79 84 80 76 81 77 82 83 83 85 84 78 85 79 86 80 87
REMARK SMILES IDX 81 88 82 89 58 90 59 91 68 92 60 93 61 94 67 95 69 96 62 97
REMARK SMILES IDX 63 98 64 99 65 100 66 101
REMARK H PARENT 21 8 4 13 28 32 90 51 56 62
REMARK Flexibility Score: inf
ROOT
ATOM      1  C   UNL A   1      35.957  32.994  28.062  1.00  0.00     0.002 C 
ENDROOT
BRANCH   1   2
ATOM      2  C   UNL A   1      34.670  32.208  28.335  1.00  0.00     0.002 C 
BRANCH   2   3
ATOM      3  C   UNL A   1      34.575  30.842  27.644  1.00  0.00     0.021 C 
BRANCH   3   4
ATOM      4  C   UNL A   1      33.232  30.561  26.971  1.00  0.00     0.116 C 
BRANCH   4   5
ATOM      5  N   UNL A   1      33.397  29.781  25.763  1.00  0.00    -0.351 N 
ATOM      6  O   UNL A   1      31.201  29.868  25.110  1.00  0.00    -0.269 OA
ATOM      7  C   UNL A   1      32.348  29.459  24.937  1.00  0.00     0.275 C 
ATOM      8  H   UNL A   1      34.300  29.466  25.524  1.00  0.00     0.163 HD
BRANCH   7   9
ATOM      9  C   UNL A   1      32.659  28.445  23.832  1.00  0.00     0.363 C 
BRANCH   9  10
ATOM     10  N   UNL A   1      31.530  27.515  23.563  1.00  0.00    -0.324 N 
ATOM     11  C   UNL A   1      31.543  27.028  22.161  1.00  0.00     0.284 C 
ATOM     12  C   UNL A   1      31.607  26.336  24.461  1.00  0.00     0.284 C 
ATOM     13  H   UNL A   1      30.669  28.037  23.729  1.00  0.00     0.348 HD
ATOM     14  C   UNL A   1      32.702  26.072  21.806  1.00  0.00     0.181 C 
ATOM     15  C   UNL A   1      32.794  25.385  24.178  1.00  0.00     0.181 C 
ATOM     16  N   UNL A   1      32.836  24.975  22.768  1.00  0.00    -0.327 N 
ATOM     17  C   UNL A   1      33.240  23.737  22.280  1.00  0.00     0.257 C 
ATOM     18  O   UNL A   1      33.477  23.529  21.092  1.00  0.00    -0.269 OA
BRANCH  17  19
ATOM     19  C   UNL A   1      33.338  22.576  23.179  1.00  0.00     0.079 A 
ATOM     20  C   UNL A   1      32.301  21.633  23.238  1.00  0.00     0.020 A 
ATOM     21  C   UNL A   1      34.542  22.335  23.845  1.00  0.00     0.174 A 
ATOM     22  C   UNL A   1      32.468  20.467  23.990  1.00  0.00     0.043 A 
ATOM     23  C   UNL A   1      34.707  21.166  24.579  1.00  0.00     0.195 A 
ATOM     24  F   UNL A   1      35.547  23.221  23.794  1.00  0.00    -0.203 F 
ATOM     25  C   UNL A   1      33.674  20.240  24.650  1.00  0.00     0.161 A 
ATOM     26  F   UNL A   1      35.866  20.927  25.211  1.00  0.00    -0.200 F 
ATOM     27  F   UNL A   1      33.833  19.108  25.349  1.00  0.00    -0.204 F 
ENDBRANCH  17  19
ENDBRANCH   9  10
ENDBRANCH   7   9
ENDBRANCH   4   5
ENDBRANCH   3   4
ENDBRANCH   2   3
ENDBRANCH   1   2
BRANCH   1  28
ATOM     28  C   UNL A   1      36.354  33.998  29.146  1.00  0.00     0.021 C 
BRANCH  28  29
ATOM     29  C   UNL A   1      37.239  33.433  30.252  1.00  0.00     0.116 C 
BRANCH  29  30
ATOM     30  N   UNL A   1      36.541  32.456  31.075  1.00  0.00    -0.352 N 
ATOM     31  C   UNL A   1      36.817  31.125  31.269  1.00  0.00     0.251 C 
ATOM     32  H   UNL A   1      35.757  32.800  31.560  1.00  0.00     0.163 HD
ATOM     33  O   UNL A   1      36.003  30.412  31.854  1.00  0.00    -0.269 OA
BRANCH  31  34
ATOM     34  C   UNL A   1      38.077  30.544  30.756  1.00  0.00     0.039 A 
ATOM     35  C   UNL A   1      38.251  30.415  29.374  1.00  0.00     0.014 A 
ATOM     36  C   UNL A   1      39.086  30.130  31.629  1.00  0.00     0.014 A 
ATOM     37  C   UNL A   1      39.462  29.935  28.870  1.00  0.00     0.010 A 
ATOM     38  C   UNL A   1      40.319  29.724  31.123  1.00  0.00     0.010 A 
ATOM     39  C   UNL A   1      40.523  29.623  29.738  1.00  0.00    -0.014 A 
BRANCH  39  40
ATOM     40  C   UNL A   1      41.852  29.207  29.217  1.00  0.00     0.031 A 
ATOM     41  C   UNL A   1      42.969  30.209  29.097  1.00  0.00     0.074 A 
ATOM     42  C   UNL A   1      42.035  27.940  28.792  1.00  0.00     0.049 A 
ATOM     43  N   UNL A   1      44.169  30.051  28.601  1.00  0.00    -0.248 NA
ATOM     44  C   UNL A   1      42.693  31.572  29.576  1.00  0.00     0.031 C 
ATOM     45  C   UNL A   1      41.019  26.885  28.819  1.00  0.00     0.029 A 
ATOM     46  N   UNL A   1      43.134  27.325  28.247  1.00  0.00    -0.354 N 
ATOM     47  C   UNL A   1      44.787  31.293  28.700  1.00  0.00     0.074 A 
ATOM     48  C   UNL A   1      43.811  32.207  29.251  1.00  0.00     0.031 C 
ATOM     49  C   UNL A   1      41.549  25.749  28.338  1.00  0.00     0.029 A 
ATOM     50  C   UNL A   1      42.926  26.002  27.924  1.00  0.00     0.049 A 
ATOM     51  H   UNL A   1      43.991  27.785  28.100  1.00  0.00     0.167 HD
ATOM     52  C   UNL A   1      46.060  31.635  28.382  1.00  0.00     0.037 A 
ATOM     53  C   UNL A   1      43.746  25.100  27.351  1.00  0.00     0.037 A 
ATOM     54  C   UNL A   1      47.032  30.715  27.848  1.00  0.00     0.049 A 
ATOM     55  C   UNL A   1      45.145  25.511  26.982  1.00  0.00     0.074 A 
ATOM     56  C   UNL A   1      48.359  30.953  27.537  1.00  0.00     0.029 A 
ATOM     57  N   UNL A   1      46.783  29.386  27.539  1.00  0.00    -0.354 N 
ATOM     58  N   UNL A   1      45.731  26.676  27.136  1.00  0.00    -0.248 NA
ATOM     59  C   UNL A   1      45.999  24.486  26.364  1.00  0.00     0.031 C 
ATOM     60  C   UNL A   1      48.899  29.785  26.992  1.00  0.00     0.029 A 
ATOM     61  C   UNL A   1      47.926  28.799  27.018  1.00  0.00     0.049 A 
ATOM     62  H   UNL A   1      45.922  28.927  27.670  1.00  0.00     0.167 HD
ATOM     63  C   UNL A   1      47.030  26.513  26.664  1.00  0.00     0.074 A 
ATOM     64  C   UNL A   1      47.146  25.137  26.230  1.00  0.00     0.031 C 
ATOM     65  C   UNL A   1      48.033  27.423  26.598  1.00  0.00     0.037 A 
BRANCH  52  66
ATOM     66  C   UNL A   1      46.479  33.062  28.607  1.00  0.00     0.058 A 
ATOM     67  C   UNL A   1      47.036  33.485  29.825  1.00  0.00     0.135 A 
ATOM     68  C   UNL A   1      46.369  34.012  27.577  1.00  0.00     0.135 A 
ATOM     69  F   UNL A   1      47.152  32.624  30.850  1.00  0.00    -0.206 F 
ATOM     70  C   UNL A   1      47.443  34.800  30.024  1.00  0.00     0.059 A 
ATOM     71  C   UNL A   1      46.798  35.326  27.743  1.00  0.00     0.059 A 
ATOM     72  F   UNL A   1      45.844  33.665  26.392  1.00  0.00    -0.206 F 
ATOM     73  C   UNL A   1      47.321  35.713  28.976  1.00  0.00     0.060 A 
BRANCH  73  74
ATOM     74  S   UNL A   1      47.867  37.412  29.248  1.00  0.00     0.124 S 
ATOM     75  O   UNL A   1      47.305  38.088  28.082  1.00  0.00    -0.237 OA
ATOM     76  O   UNL A   1      47.246  37.737  30.528  1.00  0.00    -0.237 OA
ATOM     77  O   UNL A   1      49.322  37.305  29.270  1.00  0.00    -0.744 OA
ENDBRANCH  73  74
ENDBRANCH  52  66
BRANCH  53  78
ATOM     78  C   UNL A   1      43.270  23.711  27.107  1.00  0.00     0.058 A 
ATOM     79  C   UNL A   1      42.906  23.289  25.819  1.00  0.00     0.135 A 
ATOM     80  C   UNL A   1      43.175  22.776  28.149  1.00  0.00     0.135 A 
ATOM     81  F   UNL A   1      42.971  24.148  24.790  1.00  0.00    -0.206 F 
ATOM     82  C   UNL A   1      42.448  21.999  25.575  1.00  0.00     0.059 A 
ATOM     83  C   UNL A   1      42.749  21.470  27.925  1.00  0.00     0.059 A 
ATOM     84  F   UNL A   1      43.526  23.122  29.398  1.00  0.00    -0.206 F 
ATOM     85  C   UNL A   1      42.376  21.094  26.636  1.00  0.00     0.060 A 
BRANCH  85  86
ATOM     86  S   UNL A   1      41.825  19.408  26.298  1.00  0.00     0.124 S 
ATOM     87  O   UNL A   1      42.283  18.704  27.491  1.00  0.00    -0.237 OA
ATOM     88  O   UNL A   1      40.381  19.578  26.172  1.00  0.00    -0.237 OA
ATOM     89  O   UNL A   1      42.519  19.069  25.060  1.00  0.00    -0.744 OA
ENDBRANCH  85  86
ENDBRANCH  53  78
BRANCH  65  90
ATOM     90  C   UNL A   1      49.365  26.954  26.075  1.00  0.00     0.058 A 
ATOM     91  C   UNL A   1      49.748  27.154  24.739  1.00  0.00     0.135 A 
ATOM     92  C   UNL A   1      50.292  26.349  26.939  1.00  0.00     0.135 A 
ATOM     93  F   UNL A   1      48.896  27.720  23.869  1.00  0.00    -0.206 F 
ATOM     94  C   UNL A   1      50.995  26.750  24.273  1.00  0.00     0.059 A 
ATOM     95  C   UNL A   1      51.557  25.967  26.502  1.00  0.00     0.059 A 
ATOM     96  F   UNL A   1      49.982  26.143  28.229  1.00  0.00    -0.206 F 
ATOM     97  C   UNL A   1      51.895  26.161  25.163  1.00  0.00     0.060 A 
BRANCH  97  98
ATOM     98  S   UNL A   1      53.525  25.680  24.554  1.00  0.00     0.124 S 
ATOM     99  O   UNL A   1      54.365  26.744  25.091  1.00  0.00    -0.237 OA
ATOM    100  O   UNL A   1      53.706  24.363  25.159  1.00  0.00    -0.237 OA
ATOM    101  O   UNL A   1      53.361  25.680  23.104  1.00  0.00    -0.744 OA
ENDBRANCH  97  98
ENDBRANCH  65  90
ENDBRANCH  39  40
ENDBRANCH  31  34
ENDBRANCH  29  30
ENDBRANCH  28  29
ENDBRANCH   1  28
TORSDOF 18
ENDMDL
MODEL 2
REMARK VINA RESULT:     -11.7      1.574      2.763
REMARK SMILES O=C(C[NH+]1CCN(C(=O)c2ccc(F)c(F)c2F)CC1)NCCCCCCNC(=O)c1ccc(-c2c3nc(c(-c4c(F)cc(S(=O)(=O)[O-])cc4F)c4ccc([nH]4)c(-c4c(F)cc(S(=O)(=O)[O-])cc4F)c4nc(c(-c5c(F)cc(S(=O)(=O)[O-])cc5F)c5ccc2[nH]5)C=C4)C=C3)cc1
REMARK SMILES IDX 25 1 24 2 23 3 22 4 21 5 1 6 2 7 3 9 4 10 5 11 20 12 6 14
REMARK SMILES IDX 19 15 7 16 8 17 9 18 10 19 11 20 17 21 12 22 15 23 18 24
REMARK SMILES IDX 13 25 16 26 14 27 26 28 27 29 28 30 29 31 30 33 31 34 32 35
REMARK SMILES IDX 96 36 33 37 95 38 34 39 35 40 36 41 89 42 37 43 94 44 88 45
REMARK SMILES IDX 90 46 38 47 93 48 87 49 86 50 39 52 73 53 52 54 72 55 53 56
REMARK SMILES IDX 56 57 71 58 91 59 54 60 55 61 70 63 92 64 57 65 40 66 41 67
REMARK SMILES IDX 50 68 42 69 43 70 49 71 51 72 44 73 45 74 46 75 47 76 48 77
REMARK SMILES IDX 74 78 75 79 84 80 76 81 77 82 83 83 85 84 78 85 79 86 80 87
REMARK SMILES IDX 81 88 82 89 58 90 59 91 68 92 60 93 61 94 67 95 69 96 62 97
REMARK SMILES IDX 63 98 64 99 65 100 66 101
REMARK H PARENT 21 8 4 13 28 32 90 51 56 62
REMARK Flexibility Score: inf
ROOT
ATOM      1  C   UNL A   1      33.263  30.636  27.198  1.00  0.00     0.002 C 
ENDROOT
BRANCH   1   2
ATOM      2  C   UNL A   1      32.103  30.720  26.200  1.00  0.00     0.002 C 
BRANCH   2   3
ATOM      3  C   UNL A   1      31.498  29.374  25.782  1.00  0.00     0.021 C 
BRANCH   3   4
ATOM      4  C   UNL A   1      31.659  29.038  24.300  1.00  0.00     0.116 C 
BRANCH   4   5
ATOM      5  N   UNL A   1      32.144  27.686  24.112  1.00  0.00    -0.351 N 
ATOM      6  O   UNL A   1      34.336  28.256  23.758  1.00  0.00    -0.269 OA
ATOM      7  C   UNL A   1      33.453  27.401  23.815  1.00  0.00     0.275 C 
ATOM      8  H   UNL A   1      31.506  26.940  24.201  1.00  0.00     0.163 HD
BRANCH   7   9
ATOM      9  C   UNL A   1      33.746  25.948  23.429  1.00  0.00     0.363 C 
BRANCH   9  10
ATOM     10  N   UNL A   1      34.357  25.165  24.536  1.00  0.00    -0.324 N 
ATOM     11  C   UNL A   1      33.373  24.873  25.608  1.00  0.00     0.284 C 
ATOM     12  C   UNL A   1      34.880  23.873  24.027  1.00  0.00     0.284 C 
ATOM     13  H   UNL A   1      35.113  25.733  24.920  1.00  0.00     0.348 HD
ATOM     14  C   UNL A   1      32.257  23.877  25.226  1.00  0.00     0.181 C 
ATOM     15  C   UNL A   1      33.795  22.870  23.574  1.00  0.00     0.181 C 
ATOM     16  N   UNL A   1      32.786  22.652  24.619  1.00  0.00    -0.327 N 
ATOM     17  C   UNL A   1      32.121  21.462  24.891  1.00  0.00     0.257 C 
ATOM     18  O   UNL A   1      31.129  21.396  25.614  1.00  0.00    -0.269 OA
BRANCH  17  19
ATOM     19  C   UNL A   1      32.631  20.185  24.364  1.00  0.00     0.079 A 
ATOM     20  C   UNL A   1      33.319  19.294  25.201  1.00  0.00     0.020 A 
ATOM     21  C   UNL A   1      32.277  19.797  23.070  1.00  0.00     0.174 A 
ATOM     22  C   UNL A   1      33.674  18.030  24.725  1.00  0.00     0.043 A 
ATOM     23  C   UNL A   1      32.621  18.533  22.606  1.00  0.00     0.195 A 
ATOM     24  F   UNL A   1      31.614  20.632  22.257  1.00  0.00    -0.203 F 
ATOM     25  C   UNL A   1      33.316  17.657  23.431  1.00  0.00     0.161 A 
ATOM     26  F   UNL A   1      32.274  18.153  21.367  1.00  0.00    -0.200 F 
ATOM     27  F   UNL A   1      33.640  16.433  22.990  1.00  0.00    -0.204 F 
ENDBRANCH  17  19
ENDBRANCH   9  10
ENDBRANCH   7   9
ENDBRANCH   4   5
ENDBRANCH   3   4
ENDBRANCH   2   3
ENDBRANCH   1   2
BRANCH   1  28
ATOM     28  C   UNL A   1      34.099  29.356  27.124  1.00  0.00     0.021 C 
BRANCH  28  29
ATOM     29  C   UNL A   1      35.446  29.427  27.836  1.00  0.00     0.116 C 
BRANCH  29  30
ATOM     30  N   UNL A   1      35.355  30.088  29.130  1.00  0.00    -0.352 N 
ATOM     31  C   UNL A   1      36.340  30.332  30.055  1.00  0.00     0.251 C 
ATOM     32  H   UNL A   1      34.456  30.404  29.377  1.00  0.00     0.163 HD
ATOM     33  O   UNL A   1      36.037  30.737  31.176  1.00  0.00    -0.269 OA
BRANCH  31  34
ATOM     34  C   UNL A   1      37.758  30.085  29.714  1.00  0.00     0.039 A 
ATOM     35  C   UNL A   1      38.655  29.761  30.736  1.00  0.00     0.014 A 
ATOM     36  C   UNL A   1      38.204  30.170  28.392  1.00  0.00     0.014 A 
ATOM     37  C   UNL A   1      39.982  29.455  30.422  1.00  0.00     0.010 A 
ATOM     38  C   UNL A   1      39.507  29.791  28.073  1.00  0.00     0.010 A 
ATOM     39  C   UNL A   1      40.411  29.428  29.084  1.00  0.00    -0.014 A 
BRANCH  39  40
ATOM     40  C   UNL A   1      41.790  29.008  28.722  1.00  0.00     0.031 A 
ATOM     41  C   UNL A   1      42.909  30.014  28.692  1.00  0.00     0.074 A 
ATOM     42  C   UNL A   1      42.024  27.729  28.360  1.00  0.00     0.049 A 
ATOM     43  N   UNL A   1      44.156  29.852  28.333  1.00  0.00    -0.248 NA
ATOM     44  C   UNL A   1      42.576  31.390  29.095  1.00  0.00     0.031 C 
ATOM     45  C   UNL A   1      41.016  26.667  28.310  1.00  0.00     0.029 A 
ATOM     46  N   UNL A   1      43.179  27.107  27.956  1.00  0.00    -0.354 N 
ATOM     47  C   UNL A   1      44.754  31.101  28.459  1.00  0.00     0.074 A 
ATOM     48  C   UNL A   1      43.719  32.023  28.873  1.00  0.00     0.031 C 
ATOM     49  C   UNL A   1      41.602  25.522  27.924  1.00  0.00     0.029 A 
ATOM     50  C   UNL A   1      43.013  25.774  27.654  1.00  0.00     0.049 A 
ATOM     51  H   UNL A   1      44.045  27.569  27.887  1.00  0.00     0.167 HD
ATOM     52  C   UNL A   1      46.052  31.443  28.270  1.00  0.00     0.037 A 
ATOM     53  C   UNL A   1      43.895  24.861  27.201  1.00  0.00     0.037 A 
ATOM     54  C   UNL A   1      47.080  30.516  27.873  1.00  0.00     0.049 A 
ATOM     55  C   UNL A   1      45.324  25.273  26.972  1.00  0.00     0.074 A 
ATOM     56  C   UNL A   1      48.432  30.756  27.700  1.00  0.00     0.029 A 
ATOM     57  N   UNL A   1      46.873  29.176  27.580  1.00  0.00    -0.354 N 
ATOM     58  N   UNL A   1      45.884  26.446  27.152  1.00  0.00    -0.248 NA
ATOM     59  C   UNL A   1      46.245  24.236  26.483  1.00  0.00     0.031 C 
ATOM     60  C   UNL A   1      49.034  29.575  27.253  1.00  0.00     0.029 A 
ATOM     61  C   UNL A   1      48.068  28.583  27.205  1.00  0.00     0.049 A 
ATOM     62  H   UNL A   1      46.006  28.714  27.632  1.00  0.00     0.167 HD
ATOM     63  C   UNL A   1      47.227  26.280  26.828  1.00  0.00     0.074 A 
ATOM     64  C   UNL A   1      47.396  24.892  26.453  1.00  0.00     0.031 C 
ATOM     65  C   UNL A   1      48.227  27.195  26.842  1.00  0.00     0.037 A 
BRANCH  52  66
ATOM     66  C   UNL A   1      46.437  32.881  28.494  1.00  0.00     0.058 A 
ATOM     67  C   UNL A   1      46.399  33.826  27.456  1.00  0.00     0.135 A 
ATOM     68  C   UNL A   1      46.804  33.333  29.773  1.00  0.00     0.135 A 
ATOM     69  F   UNL A   1      46.069  33.448  26.210  1.00  0.00    -0.206 F 
ATOM     70  C   UNL A   1      46.735  35.158  27.670  1.00  0.00     0.059 A 
ATOM     71  C   UNL A   1      47.115  34.667  30.017  1.00  0.00     0.059 A 
ATOM     72  F   UNL A   1      46.859  32.474  30.803  1.00  0.00    -0.206 F 
ATOM     73  C   UNL A   1      47.090  35.570  28.955  1.00  0.00     0.060 A 
BRANCH  73  74
ATOM     74  S   UNL A   1      47.511  37.306  29.216  1.00  0.00     0.124 S 
ATOM     75  O   UNL A   1      48.207  37.246  30.499  1.00  0.00    -0.237 OA
ATOM     76  O   UNL A   1      48.344  37.603  28.056  1.00  0.00    -0.237 OA
ATOM     77  O   UNL A   1      46.213  37.973  29.239  1.00  0.00    -0.744 OA
ENDBRANCH  73  74
ENDBRANCH  52  66
BRANCH  53  78
ATOM     78  C   UNL A   1      43.455  23.461  26.951  1.00  0.00     0.058 A 
ATOM     79  C   UNL A   1      43.218  22.578  28.016  1.00  0.00     0.135 A 
ATOM     80  C   UNL A   1      43.257  22.978  25.648  1.00  0.00     0.135 A 
ATOM     81  F   UNL A   1      43.402  22.989  29.280  1.00  0.00    -0.206 F 
ATOM     82  C   UNL A   1      42.818  21.264  27.800  1.00  0.00     0.059 A 
ATOM     83  C   UNL A   1      42.828  21.677  25.407  1.00  0.00     0.059 A 
ATOM     84  F   UNL A   1      43.454  23.785  24.594  1.00  0.00    -0.206 F 
ATOM     85  C   UNL A   1      42.622  20.823  26.489  1.00  0.00     0.060 A 
BRANCH  85  86
ATOM     86  S   UNL A   1      42.058  19.128  26.223  1.00  0.00     0.124 S 
ATOM     87  O   UNL A   1      42.956  18.683  25.163  1.00  0.00    -0.237 OA
ATOM     88  O   UNL A   1      42.270  18.525  27.535  1.00  0.00    -0.237 OA
ATOM     89  O   UNL A   1      40.661  19.296  25.838  1.00  0.00    -0.744 OA
ENDBRANCH  85  86
ENDBRANCH  53  78
BRANCH  65  90
ATOM     90  C   UNL A   1      49.610  26.722  26.480  1.00  0.00     0.058 A 
ATOM     91  C   UNL A   1      50.476  26.166  27.434  1.00  0.00     0.135 A 
ATOM     92  C   UNL A   1      50.049  26.773  25.147  1.00  0.00     0.135 A 
ATOM     93  F   UNL A   1      50.109  26.101  28.724  1.00  0.00    -0.206 F 
ATOM     94  C   UNL A   1      51.739  25.698  27.083  1.00  0.00     0.059 A 
ATOM     95  C   UNL A   1      51.295  26.281  24.768  1.00  0.00     0.059 A 
ATOM     96  F   UNL A   1      49.257  27.285  24.192  1.00  0.00    -0.206 F 
ATOM     97  C   UNL A   1      52.138  25.756  25.747  1.00  0.00     0.060 A 
BRANCH  97  98
ATOM     98  S   UNL A   1      53.762  25.107  25.300  1.00  0.00     0.124 S 
ATOM     99  O   UNL A   1      53.535  23.669  25.377  1.00  0.00    -0.237 OA
ATOM    100  O   UNL A   1      53.954  25.648  23.957  1.00  0.00    -0.237 OA
ATOM    101  O   UNL A   1      54.644  25.660  26.323  1.00  0.00    -0.744 OA
ENDBRANCH  97  98
ENDBRANCH  65  90
ENDBRANCH  39  40
ENDBRANCH  31  34
ENDBRANCH  29  30
ENDBRANCH  28  29
ENDBRANCH   1  28
TORSDOF 18
ENDMDL
MODEL 3
REMARK VINA RESULT:     -11.6      0.463      8.094
REMARK SMILES O=C(C[NH+]1CCN(C(=O)c2ccc(F)c(F)c2F)CC1)NCCCCCCNC(=O)c1ccc(-c2c3nc(c(-c4c(F)cc(S(=O)(=O)[O-])cc4F)c4ccc([nH]4)c(-c4c(F)cc(S(=O)(=O)[O-])cc4F)c4nc(c(-c5c(F)cc(S(=O)(=O)[O-])cc5F)c5ccc2[nH]5)C=C4)C=C3)cc1
REMARK SMILES IDX 25 1 24 2 23 3 22 4 21 5 1 6 2 7 3 9 4 10 5 11 20 12 6 14
REMARK SMILES IDX 19 15 7 16 8 17 9 18 10 19 11 20 17 21 12 22 15 23 18 24
REMARK SMILES IDX 13 25 16 26 14 27 26 28 27 29 28 30 29 31 30 33 31 34 32 35
REMARK SMILES IDX 96 36 33 37 95 38 34 39 35 40 36 41 89 42 37 43 94 44 88 45
REMARK SMILES IDX 90 46 38 47 93 48 87 49 86 50 39 52 73 53 52 54 72 55 53 56
REMARK SMILES IDX 56 57 71 58 91 59 54 60 55 61 70 63 92 64 57 65 40 66 41 67
REMARK SMILES IDX 50 68 42 69 43 70 49 71 51 72 44 73 45 74 46 75 47 76 48 77
REMARK SMILES IDX 74 78 75 79 84 80 76 81 77 82 83 83 85 84 78 85 79 86 80 87
REMARK SMILES IDX 81 88 82 89 58 90 59 91 68 92 60 93 61 94 67 95 69 96 62 97
REMARK SMILES IDX 63 98 64 99 65 100 66 101
REMARK H PARENT 21 8 4 13 28 32 90 51 56 62
REMARK Flexibility Score: inf
ROOT
ATOM      1  C   UNL A   1      36.296  33.247  28.258  1.00  0.00     0.002 C 
ENDROOT
BRANCH   1   2
ATOM      2  C   UNL A   1      34.931  32.584  28.042  1.00  0.00     0.002 C 
BRANCH   2   3
ATOM      3  C   UNL A   1      34.976  31.093  27.686  1.00  0.00     0.021 C 
BRANCH   3   4
ATOM      4  C   UNL A   1      33.629  30.495  27.280  1.00  0.00     0.116 C 
BRANCH   4   5
ATOM      5  N   UNL A   1      33.730  29.746  26.046  1.00  0.00    -0.351 N 
ATOM      6  O   UNL A   1      31.591  30.156  25.330  1.00  0.00    -0.269 OA
ATOM      7  C   UNL A   1      32.679  29.602  25.175  1.00  0.00     0.275 C 
ATOM      8  H   UNL A   1      34.591  29.321  25.821  1.00  0.00     0.163 HD
BRANCH   7   9
ATOM      9  C   UNL A   1      32.890  28.598  24.038  1.00  0.00     0.363 C 
BRANCH   9  10
ATOM     10  N   UNL A   1      31.701  27.737  23.796  1.00  0.00    -0.324 N 
ATOM     11  C   UNL A   1      31.626  27.292  22.381  1.00  0.00     0.284 C 
ATOM     12  C   UNL A   1      31.756  26.529  24.656  1.00  0.00     0.284 C 
ATOM     13  H   UNL A   1      30.878  28.297  24.016  1.00  0.00     0.348 HD
ATOM     14  C   UNL A   1      32.715  26.288  21.947  1.00  0.00     0.181 C 
ATOM     15  C   UNL A   1      32.876  25.526  24.292  1.00  0.00     0.181 C 
ATOM     16  N   UNL A   1      32.833  25.158  22.871  1.00  0.00    -0.327 N 
ATOM     17  C   UNL A   1      33.148  23.916  22.330  1.00  0.00     0.257 C 
ATOM     18  O   UNL A   1      33.320  23.731  21.127  1.00  0.00    -0.269 OA
BRANCH  17  19
ATOM     19  C   UNL A   1      33.225  22.724  23.191  1.00  0.00     0.079 A 
ATOM     20  C   UNL A   1      32.169  21.800  23.222  1.00  0.00     0.020 A 
ATOM     21  C   UNL A   1      34.425  22.437  23.846  1.00  0.00     0.174 A 
ATOM     22  C   UNL A   1      32.314  20.608  23.935  1.00  0.00     0.043 A 
ATOM     23  C   UNL A   1      34.568  21.243  24.542  1.00  0.00     0.195 A 
ATOM     24  F   UNL A   1      35.447  23.305  23.822  1.00  0.00    -0.203 F 
ATOM     25  C   UNL A   1      33.516  20.336  24.585  1.00  0.00     0.161 A 
ATOM     26  F   UNL A   1      35.722  20.960  25.163  1.00  0.00    -0.200 F 
ATOM     27  F   UNL A   1      33.654  19.178  25.247  1.00  0.00    -0.204 F 
ENDBRANCH  17  19
ENDBRANCH   9  10
ENDBRANCH   7   9
ENDBRANCH   4   5
ENDBRANCH   3   4
ENDBRANCH   2   3
ENDBRANCH   1   2
BRANCH   1  28
ATOM     28  C   UNL A   1      36.459  33.994  29.584  1.00  0.00     0.021 C 
BRANCH  28  29
ATOM     29  C   UNL A   1      37.313  33.277  30.624  1.00  0.00     0.116 C 
BRANCH  29  30
ATOM     30  N   UNL A   1      36.606  32.174  31.256  1.00  0.00    -0.352 N 
ATOM     31  C   UNL A   1      36.885  30.829  31.228  1.00  0.00     0.251 C 
ATOM     32  H   UNL A   1      35.811  32.428  31.779  1.00  0.00     0.163 HD
ATOM     33  O   UNL A   1      36.064  30.026  31.668  1.00  0.00    -0.269 OA
BRANCH  31  34
ATOM     34  C   UNL A   1      38.157  30.347  30.646  1.00  0.00     0.039 A 
ATOM     35  C   UNL A   1      38.295  30.305  29.256  1.00  0.00     0.014 A 
ATOM     36  C   UNL A   1      39.213  29.938  31.466  1.00  0.00     0.014 A 
ATOM     37  C   UNL A   1      39.513  29.920  28.691  1.00  0.00     0.010 A 
ATOM     38  C   UNL A   1      40.449  29.627  30.903  1.00  0.00     0.010 A 
ATOM     39  C   UNL A   1      40.615  29.616  29.510  1.00  0.00    -0.014 A 
BRANCH  39  40
ATOM     40  C   UNL A   1      41.946  29.302  28.928  1.00  0.00     0.031 A 
ATOM     41  C   UNL A   1      42.260  27.909  28.453  1.00  0.00     0.074 A 
ATOM     42  C   UNL A   1      42.897  30.258  28.885  1.00  0.00     0.049 A 
ATOM     43  N   UNL A   1      43.384  27.429  27.986  1.00  0.00    -0.248 NA
ATOM     44  C   UNL A   1      41.174  26.919  28.537  1.00  0.00     0.031 C 
ATOM     45  C   UNL A   1      42.731  31.637  29.351  1.00  0.00     0.029 A 
ATOM     46  N   UNL A   1      44.194  30.216  28.438  1.00  0.00    -0.354 N 
ATOM     47  C   UNL A   1      43.144  26.083  27.728  1.00  0.00     0.074 A 
ATOM     48  C   UNL A   1      41.786  25.810  28.143  1.00  0.00     0.031 C 
ATOM     49  C   UNL A   1      43.871  32.314  29.142  1.00  0.00     0.029 A 
ATOM     50  C   UNL A   1      44.865  31.411  28.572  1.00  0.00     0.049 A 
ATOM     51  H   UNL A   1      44.607  29.408  28.058  1.00  0.00     0.167 HD
ATOM     52  C   UNL A   1      43.973  25.166  27.174  1.00  0.00     0.037 A 
ATOM     53  C   UNL A   1      46.139  31.739  28.279  1.00  0.00     0.037 A 
ATOM     54  C   UNL A   1      45.320  25.449  26.748  1.00  0.00     0.049 A 
ATOM     55  C   UNL A   1      47.048  30.695  27.690  1.00  0.00     0.074 A 
ATOM     56  C   UNL A   1      46.223  24.600  26.134  1.00  0.00     0.029 A 
ATOM     57  N   UNL A   1      45.961  26.670  26.898  1.00  0.00    -0.354 N 
ATOM     58  N   UNL A   1      46.787  29.442  27.400  1.00  0.00    -0.248 NA
ATOM     59  C   UNL A   1      48.426  31.108  27.385  1.00  0.00     0.031 C 
ATOM     60  C   UNL A   1      47.426  25.290  25.959  1.00  0.00     0.029 A 
ATOM     61  C   UNL A   1      47.255  26.589  26.409  1.00  0.00     0.049 A 
ATOM     62  H   UNL A   1      45.556  27.476  27.292  1.00  0.00     0.167 HD
ATOM     63  C   UNL A   1      47.956  28.927  26.849  1.00  0.00     0.074 A 
ATOM     64  C   UNL A   1      48.921  30.007  26.837  1.00  0.00     0.031 C 
ATOM     65  C   UNL A   1      48.205  27.675  26.393  1.00  0.00     0.037 A 
BRANCH  52  66
ATOM     66  C   UNL A   1      43.448  23.768  26.989  1.00  0.00     0.058 A 
ATOM     67  C   UNL A   1      43.329  22.876  28.068  1.00  0.00     0.135 A 
ATOM     68  C   UNL A   1      43.012  23.326  25.728  1.00  0.00     0.135 A 
ATOM     69  F   UNL A   1      43.742  23.238  29.293  1.00  0.00    -0.206 F 
ATOM     70  C   UNL A   1      42.823  21.591  27.899  1.00  0.00     0.059 A 
ATOM     71  C   UNL A   1      42.475  22.056  25.542  1.00  0.00     0.059 A 
ATOM     72  F   UNL A   1      43.103  24.135  24.661  1.00  0.00    -0.206 F 
ATOM     73  C   UNL A   1      42.397  21.191  26.633  1.00  0.00     0.060 A 
BRANCH  73  74
ATOM     74  S   UNL A   1      41.731  19.524  26.435  1.00  0.00     0.124 S 
ATOM     75  O   UNL A   1      40.316  19.802  26.204  1.00  0.00    -0.237 OA
ATOM     76  O   UNL A   1      42.476  19.026  25.284  1.00  0.00    -0.237 OA
ATOM     77  O   UNL A   1      42.043  18.879  27.707  1.00  0.00    -0.744 OA
ENDBRANCH  73  74
ENDBRANCH  52  66
BRANCH  53  78
ATOM     78  C   UNL A   1      46.626  33.125  28.521  1.00  0.00     0.058 A 
ATOM     79  C   UNL A   1      47.184  33.487  29.757  1.00  0.00     0.135 A 
ATOM     80  C   UNL A   1      46.551  34.111  27.526  1.00  0.00     0.135 A 
ATOM     81  F   UNL A   1      47.269  32.582  30.744  1.00  0.00    -0.206 F 
ATOM     82  C   UNL A   1      47.632  34.780  30.005  1.00  0.00     0.059 A 
ATOM     83  C   UNL A   1      47.021  35.404  27.739  1.00  0.00     0.059 A 
ATOM     84  F   UNL A   1      46.042  33.814  26.320  1.00  0.00    -0.206 F 
ATOM     85  C   UNL A   1      47.550  35.732  28.986  1.00  0.00     0.060 A 
BRANCH  85  86
ATOM     86  S   UNL A   1      48.179  37.395  29.304  1.00  0.00     0.124 S 
ATOM     87  O   UNL A   1      49.107  37.575  28.194  1.00  0.00    -0.237 OA
ATOM     88  O   UNL A   1      46.960  38.197  29.256  1.00  0.00    -0.237 OA
ATOM     89  O   UNL A   1      48.789  37.276  30.625  1.00  0.00    -0.744 OA
ENDBRANCH  85  86
ENDBRANCH  53  78
BRANCH  65  90
ATOM     90  C   UNL A   1      49.564  27.406  25.802  1.00  0.00     0.058 A 
ATOM     91  C   UNL A   1      50.666  27.066  26.602  1.00  0.00     0.135 A 
ATOM     92  C   UNL A   1      49.749  27.432  24.410  1.00  0.00     0.135 A 
ATOM     93  F   UNL A   1      50.547  27.034  27.940  1.00  0.00    -0.206 F 
ATOM     94  C   UNL A   1      51.909  26.783  26.044  1.00  0.00     0.059 A 
ATOM     95  C   UNL A   1      50.974  27.121  23.829  1.00  0.00     0.059 A 
ATOM     96  F   UNL A   1      48.726  27.740  23.597  1.00  0.00    -0.206 F 
ATOM     97  C   UNL A   1      52.052  26.809  24.656  1.00  0.00     0.060 A 
BRANCH  97  98
ATOM     98  S   UNL A   1      53.660  26.400  23.945  1.00  0.00     0.124 S 
ATOM     99  O   UNL A   1      54.385  27.653  24.116  1.00  0.00    -0.237 OA
ATOM    100  O   UNL A   1      54.100  25.292  24.789  1.00  0.00    -0.237 OA
ATOM    101  O   UNL A   1      53.342  26.040  22.566  1.00  0.00    -0.744 OA
ENDBRANCH  97  98
ENDBRANCH  65  90
ENDBRANCH  39  40
ENDBRANCH  31  34
ENDBRANCH  29  30
ENDBRANCH  28  29
ENDBRANCH   1  28
TORSDOF 18
ENDMDL
