MODEL 1
REMARK VINA RESULT:     -11.7      0.000      0.000
REMARK SMILES CC(C)c1ccc(C(=O)N2CCC[C@@H](C(=O)NCCCCCCNC(=O)c3ccc(-c4c5nc(c(-c6c(F)cc(S(=O)(=O)[O-])cc6F)c6ccc([nH]6)c(-c6c(F)cc(S(=O)(=O)[O-])cc6F)c6nc(c(-c7c(F)cc(S(=O)(=O)[O-])cc7F)c7ccc4[nH]7)C=C6)C=C5)cc3)C2)cc1
REMARK SMILES IDX 20 1 19 2 18 3 17 4 15 5 16 6 14 8 10 9 11 10 93 11 12 12
REMARK SMILES IDX 13 13 8 14 9 15 7 16 4 17 5 18 95 19 6 20 94 21 2 22 1 23
REMARK SMILES IDX 3 24 21 25 22 26 23 27 24 28 25 29 26 31 27 32 28 33 92 34
REMARK SMILES IDX 29 35 91 36 30 37 31 38 32 39 85 40 33 41 90 42 84 43 86 44
REMARK SMILES IDX 34 45 89 46 83 47 82 48 35 50 69 51 48 52 68 53 49 54 52 55
REMARK SMILES IDX 67 56 87 57 50 58 51 59 66 61 88 62 53 63 36 64 37 65 46 66
REMARK SMILES IDX 38 67 39 68 45 69 47 70 40 71 41 72 42 73 43 74 44 75 70 76
REMARK SMILES IDX 71 77 80 78 72 79 73 80 79 81 81 82 74 83 75 84 76 85 77 86
REMARK SMILES IDX 78 87 54 88 55 89 64 90 56 91 57 92 63 93 65 94 58 95 59 96
REMARK SMILES IDX 60 97 61 98 62 99
REMARK H PARENT 17 7 24 30 86 49 52 60
REMARK Flexibility Score: inf
ROOT
ATOM      1  C   UNL A   1      33.666  28.575  26.885  1.00  0.00     0.002 C 
ENDROOT
BRANCH   1   2
ATOM      2  C   UNL A   1      32.608  29.490  26.256  1.00  0.00     0.021 C 
BRANCH   2   3
ATOM      3  C   UNL A   1      32.573  29.421  24.730  1.00  0.00     0.116 C 
BRANCH   3   4
ATOM      4  N   UNL A   1      31.253  29.063  24.248  1.00  0.00    -0.356 N 
ATOM      5  C   UNL A   1      30.661  27.911  23.853  1.00  0.00     0.224 C 
ATOM      6  O   UNL A   1      29.508  28.038  23.417  1.00  0.00    -0.275 OA
ATOM      7  H   UNL A   1      30.646  29.836  24.195  1.00  0.00     0.163 HD
BRANCH   5   8
ATOM      8  C   UNL A   1      31.278  26.509  23.913  1.00  0.00     0.098 C 
ATOM      9  N   UNL A   1      30.965  24.358  25.173  1.00  0.00    -0.338 N 
ATOM     10  C   UNL A   1      30.983  23.569  23.959  1.00  0.00     0.120 C 
ATOM     11  C   UNL A   1      30.578  25.765  25.071  1.00  0.00     0.133 C 
ATOM     12  C   UNL A   1      31.827  24.242  22.900  1.00  0.00     0.022 C 
ATOM     13  C   UNL A   1      31.304  25.653  22.646  1.00  0.00     0.017 C 
BRANCH   9  14
ATOM     14  C   UNL A   1      31.619  23.854  26.283  1.00  0.00     0.253 C 
ATOM     15  O   UNL A   1      31.086  23.792  27.388  1.00  0.00    -0.269 OA
BRANCH  14  16
ATOM     16  C   UNL A   1      33.087  23.621  26.130  1.00  0.00     0.040 A 
ATOM     17  C   UNL A   1      35.829  23.264  25.562  1.00  0.00    -0.045 A 
ATOM     18  C   UNL A   1      35.272  24.550  25.626  1.00  0.00     0.005 A 
ATOM     19  C   UNL A   1      35.002  22.164  25.815  1.00  0.00     0.005 A 
ATOM     20  C   UNL A   1      33.915  24.728  25.912  1.00  0.00     0.014 A 
ATOM     21  C   UNL A   1      33.643  22.339  26.082  1.00  0.00     0.014 A 
BRANCH  17  22
ATOM     22  C   UNL A   1      37.308  23.103  25.258  1.00  0.00     0.013 C 
ATOM     23  C   UNL A   1      38.124  24.013  26.175  1.00  0.00     0.012 C 
ATOM     24  C   UNL A   1      37.802  21.655  25.354  1.00  0.00     0.012 C 
ENDBRANCH  17  22
ENDBRANCH  14  16
ENDBRANCH   9  14
ENDBRANCH   5   8
ENDBRANCH   3   4
ENDBRANCH   2   3
ENDBRANCH   1   2
BRANCH   1  25
ATOM     25  C   UNL A   1      34.915  29.294  27.414  1.00  0.00     0.002 C 
BRANCH  25  26
ATOM     26  C   UNL A   1      34.779  30.812  27.565  1.00  0.00     0.021 C 
BRANCH  26  27
ATOM     27  C   UNL A   1      35.865  31.458  28.421  1.00  0.00     0.116 C 
BRANCH  27  28
ATOM     28  N   UNL A   1      35.712  31.114  29.827  1.00  0.00    -0.352 N 
ATOM     29  C   UNL A   1      36.536  30.376  30.633  1.00  0.00     0.251 C 
ATOM     30  H   UNL A   1      34.900  31.463  30.260  1.00  0.00     0.163 HD
ATOM     31  O   UNL A   1      36.128  29.979  31.726  1.00  0.00    -0.269 OA
BRANCH  29  32
ATOM     32  C   UNL A   1      37.907  30.049  30.191  1.00  0.00     0.039 A 
ATOM     33  C   UNL A   1      38.886  29.783  31.151  1.00  0.00     0.014 A 
ATOM     34  C   UNL A   1      38.231  30.027  28.831  1.00  0.00     0.014 A 
ATOM     35  C   UNL A   1      40.179  29.446  30.745  1.00  0.00     0.010 A 
ATOM     36  C   UNL A   1      39.500  29.623  28.427  1.00  0.00     0.010 A 
ATOM     37  C   UNL A   1      40.489  29.336  29.379  1.00  0.00    -0.014 A 
BRANCH  37  38
ATOM     38  C   UNL A   1      41.844  28.927  28.928  1.00  0.00     0.031 A 
ATOM     39  C   UNL A   1      42.949  29.943  28.840  1.00  0.00     0.074 A 
ATOM     40  C   UNL A   1      42.058  27.655  28.540  1.00  0.00     0.049 A 
ATOM     41  N   UNL A   1      44.174  29.795  28.405  1.00  0.00    -0.248 NA
ATOM     42  C   UNL A   1      42.629  31.313  29.270  1.00  0.00     0.031 C 
ATOM     43  C   UNL A   1      41.051  26.590  28.537  1.00  0.00     0.029 A 
ATOM     44  N   UNL A   1      43.189  27.042  28.062  1.00  0.00    -0.354 N 
ATOM     45  C   UNL A   1      44.764  31.049  28.497  1.00  0.00     0.074 A 
ATOM     46  C   UNL A   1      43.749  31.960  28.978  1.00  0.00     0.031 C 
ATOM     47  C   UNL A   1      41.615  25.453  28.099  1.00  0.00     0.029 A 
ATOM     48  C   UNL A   1      43.009  25.713  27.755  1.00  0.00     0.049 A 
ATOM     49  H   UNL A   1      44.049  27.509  27.951  1.00  0.00     0.167 HD
ATOM     50  C   UNL A   1      46.043  31.406  28.227  1.00  0.00     0.037 A 
ATOM     51  C   UNL A   1      43.868  24.809  27.245  1.00  0.00     0.037 A 
ATOM     52  C   UNL A   1      47.055  30.487  27.772  1.00  0.00     0.049 A 
ATOM     53  C   UNL A   1      45.283  25.228  26.952  1.00  0.00     0.074 A 
ATOM     54  C   UNL A   1      48.394  30.736  27.526  1.00  0.00     0.029 A 
ATOM     55  N   UNL A   1      46.840  29.146  27.492  1.00  0.00    -0.354 N 
ATOM     56  N   UNL A   1      45.842  26.406  27.106  1.00  0.00    -0.248 NA
ATOM     57  C   UNL A   1      46.187  24.197  26.426  1.00  0.00     0.031 C 
ATOM     58  C   UNL A   1      48.978  29.556  27.055  1.00  0.00     0.029 A 
ATOM     59  C   UNL A   1      48.016  28.558  27.056  1.00  0.00     0.049 A 
ATOM     60  H   UNL A   1      45.978  28.679  27.591  1.00  0.00     0.167 HD
ATOM     61  C   UNL A   1      47.169  26.250  26.720  1.00  0.00     0.074 A 
ATOM     62  C   UNL A   1      47.331  24.861  26.339  1.00  0.00     0.031 C 
ATOM     63  C   UNL A   1      48.162  27.171  26.687  1.00  0.00     0.037 A 
BRANCH  50  64
ATOM     64  C   UNL A   1      46.423  32.849  28.421  1.00  0.00     0.058 A 
ATOM     65  C   UNL A   1      46.906  33.326  29.651  1.00  0.00     0.135 A 
ATOM     66  C   UNL A   1      46.336  33.761  27.355  1.00  0.00     0.135 A 
ATOM     67  F   UNL A   1      46.994  32.503  30.707  1.00  0.00    -0.206 F 
ATOM     68  C   UNL A   1      47.259  34.660  29.826  1.00  0.00     0.059 A 
ATOM     69  C   UNL A   1      46.713  35.092  27.500  1.00  0.00     0.059 A 
ATOM     70  F   UNL A   1      45.883  33.359  26.158  1.00  0.00    -0.206 F 
ATOM     71  C   UNL A   1      47.158  35.537  28.745  1.00  0.00     0.060 A 
BRANCH  71  72
ATOM     72  S   UNL A   1      47.624  37.263  28.989  1.00  0.00     0.124 S 
ATOM     73  O   UNL A   1      46.591  37.714  29.917  1.00  0.00    -0.237 OA
ATOM     74  O   UNL A   1      48.968  37.148  29.546  1.00  0.00    -0.237 OA
ATOM     75  O   UNL A   1      47.551  37.829  27.646  1.00  0.00    -0.744 OA
ENDBRANCH  71  72
ENDBRANCH  50  64
BRANCH  51  76
ATOM     76  C   UNL A   1      43.417  23.414  26.999  1.00  0.00     0.058 A 
ATOM     77  C   UNL A   1      43.170  22.954  25.697  1.00  0.00     0.135 A 
ATOM     78  C   UNL A   1      43.239  22.507  28.056  1.00  0.00     0.135 A 
ATOM     79  F   UNL A   1      43.322  23.783  24.653  1.00  0.00    -0.206 F 
ATOM     80  C   UNL A   1      42.747  21.652  25.451  1.00  0.00     0.059 A 
ATOM     81  C   UNL A   1      42.840  21.193  27.833  1.00  0.00     0.059 A 
ATOM     82  F   UNL A   1      43.478  22.892  29.319  1.00  0.00    -0.206 F 
ATOM     83  C   UNL A   1      42.587  20.778  26.527  1.00  0.00     0.060 A 
BRANCH  83  84
ATOM     84  S   UNL A   1      42.085  19.075  26.193  1.00  0.00     0.124 S 
ATOM     85  O   UNL A   1      42.322  18.440  27.484  1.00  0.00    -0.237 OA
ATOM     86  O   UNL A   1      40.686  19.238  25.809  1.00  0.00    -0.237 OA
ATOM     87  O   UNL A   1      42.980  18.669  25.114  1.00  0.00    -0.744 OA
ENDBRANCH  83  84
ENDBRANCH  51  76
BRANCH  63  88
ATOM     88  C   UNL A   1      49.526  26.705  26.255  1.00  0.00     0.058 A 
ATOM     89  C   UNL A   1      49.966  26.835  24.929  1.00  0.00     0.135 A 
ATOM     90  C   UNL A   1      50.422  26.168  27.194  1.00  0.00     0.135 A 
ATOM     91  F   UNL A   1      49.146  27.336  23.992  1.00  0.00    -0.206 F 
ATOM     92  C   UNL A   1      51.239  26.430  24.544  1.00  0.00     0.059 A 
ATOM     93  C   UNL A   1      51.709  25.782  26.837  1.00  0.00     0.059 A 
ATOM     94  F   UNL A   1      50.054  26.031  28.478  1.00  0.00    -0.206 F 
ATOM     95  C   UNL A   1      52.105  25.906  25.506  1.00  0.00     0.060 A 
BRANCH  95  96
ATOM     96  S   UNL A   1      53.767  25.416  25.000  1.00  0.00     0.124 S 
ATOM     97  O   UNL A   1      53.585  23.994  24.731  1.00  0.00    -0.237 OA
ATOM     98  O   UNL A   1      53.999  26.258  23.831  1.00  0.00    -0.237 OA
ATOM     99  O   UNL A   1      54.586  25.735  26.166  1.00  0.00    -0.744 OA
ENDBRANCH  95  96
ENDBRANCH  63  88
ENDBRANCH  37  38
ENDBRANCH  29  32
ENDBRANCH  27  28
ENDBRANCH  26  27
ENDBRANCH  25  26
ENDBRANCH   1  25
TORSDOF 19
ENDMDL
MODEL 2
REMARK VINA RESULT:     -11.4      6.301     11.866
REMARK SMILES CC(C)c1ccc(C(=O)N2CCC[C@@H](C(=O)NCCCCCCNC(=O)c3ccc(-c4c5nc(c(-c6c(F)cc(S(=O)(=O)[O-])cc6F)c6ccc([nH]6)c(-c6c(F)cc(S(=O)(=O)[O-])cc6F)c6nc(c(-c7c(F)cc(S(=O)(=O)[O-])cc7F)c7ccc4[nH]7)C=C6)C=C5)cc3)C2)cc1
REMARK SMILES IDX 20 1 19 2 18 3 17 4 15 5 16 6 14 8 10 9 11 10 93 11 12 12
REMARK SMILES IDX 13 13 8 14 9 15 7 16 4 17 5 18 95 19 6 20 94 21 2 22 1 23
REMARK SMILES IDX 3 24 21 25 22 26 23 27 24 28 25 29 26 31 27 32 28 33 92 34
REMARK SMILES IDX 29 35 91 36 30 37 31 38 32 39 85 40 33 41 90 42 84 43 86 44
REMARK SMILES IDX 34 45 89 46 83 47 82 48 35 50 69 51 48 52 68 53 49 54 52 55
REMARK SMILES IDX 67 56 87 57 50 58 51 59 66 61 88 62 53 63 36 64 37 65 46 66
REMARK SMILES IDX 38 67 39 68 45 69 47 70 40 71 41 72 42 73 43 74 44 75 70 76
REMARK SMILES IDX 71 77 80 78 72 79 73 80 79 81 81 82 74 83 75 84 76 85 77 86
REMARK SMILES IDX 78 87 54 88 55 89 64 90 56 91 57 92 63 93 65 94 58 95 59 96
REMARK SMILES IDX 60 97 61 98 62 99
REMARK H PARENT 17 7 24 30 86 49 52 60
REMARK Flexibility Score: inf
ROOT
ATOM      1  C   UNL A   1      36.757  23.486  25.433  1.00  0.00     0.002 C 
ENDROOT
BRANCH   1   2
ATOM      2  C   UNL A   1      36.705  22.021  24.979  1.00  0.00     0.021 C 
BRANCH   2   3
ATOM      3  C   UNL A   1      35.669  21.187  25.731  1.00  0.00     0.116 C 
BRANCH   3   4
ATOM      4  N   UNL A   1      34.663  20.657  24.830  1.00  0.00    -0.356 N 
ATOM      5  C   UNL A   1      33.499  21.123  24.319  1.00  0.00     0.224 C 
ATOM      6  O   UNL A   1      32.868  20.309  23.630  1.00  0.00    -0.275 OA
ATOM      7  H   UNL A   1      34.876  19.749  24.517  1.00  0.00     0.163 HD
BRANCH   5   8
ATOM      8  C   UNL A   1      32.926  22.532  24.509  1.00  0.00     0.098 C 
ATOM      9  N   UNL A   1      32.221  24.491  23.103  1.00  0.00    -0.338 N 
ATOM     10  C   UNL A   1      30.963  24.625  23.806  1.00  0.00     0.120 C 
ATOM     11  C   UNL A   1      32.874  23.181  23.109  1.00  0.00     0.133 C 
ATOM     12  C   UNL A   1      31.097  24.143  25.234  1.00  0.00     0.022 C 
ATOM     13  C   UNL A   1      31.596  22.701  25.243  1.00  0.00     0.017 C 
BRANCH   9  14
ATOM     14  C   UNL A   1      32.896  25.646  22.755  1.00  0.00     0.253 C 
ATOM     15  O   UNL A   1      33.671  25.695  21.803  1.00  0.00    -0.269 OA
BRANCH  14  16
ATOM     16  C   UNL A   1      32.830  26.767  23.741  1.00  0.00     0.040 A 
ATOM     17  C   UNL A   1      32.567  28.697  25.785  1.00  0.00    -0.045 A 
ATOM     18  C   UNL A   1      33.451  27.617  25.928  1.00  0.00     0.005 A 
ATOM     19  C   UNL A   1      31.841  28.813  24.594  1.00  0.00     0.005 A 
ATOM     20  C   UNL A   1      33.585  26.663  24.915  1.00  0.00     0.014 A 
ATOM     21  C   UNL A   1      31.960  27.851  23.589  1.00  0.00     0.014 A 
BRANCH  17  22
ATOM     22  C   UNL A   1      32.450  29.722  26.898  1.00  0.00     0.013 C 
ATOM     23  C   UNL A   1      33.844  30.091  27.407  1.00  0.00     0.012 C 
ATOM     24  C   UNL A   1      31.670  30.980  26.499  1.00  0.00     0.012 C 
ENDBRANCH  17  22
ENDBRANCH  14  16
ENDBRANCH   9  14
ENDBRANCH   5   8
ENDBRANCH   3   4
ENDBRANCH   2   3
ENDBRANCH   1   2
BRANCH   1  25
ATOM     25  C   UNL A   1      38.053  23.900  26.143  1.00  0.00     0.002 C 
BRANCH  25  26
ATOM     26  C   UNL A   1      38.996  22.748  26.505  1.00  0.00     0.021 C 
BRANCH  26  27
ATOM     27  C   UNL A   1      40.334  23.191  27.090  1.00  0.00     0.116 C 
BRANCH  27  28
ATOM     28  N   UNL A   1      41.172  23.827  26.084  1.00  0.00    -0.352 N 
ATOM     29  C   UNL A   1      41.606  25.123  26.013  1.00  0.00     0.251 C 
ATOM     30  H   UNL A   1      41.470  23.241  25.352  1.00  0.00     0.163 HD
ATOM     31  O   UNL A   1      42.101  25.546  24.966  1.00  0.00    -0.269 OA
BRANCH  29  32
ATOM     32  C   UNL A   1      41.476  26.014  27.183  1.00  0.00     0.039 A 
ATOM     33  C   UNL A   1      42.419  27.028  27.375  1.00  0.00     0.014 A 
ATOM     34  C   UNL A   1      40.438  25.837  28.103  1.00  0.00     0.014 A 
ATOM     35  C   UNL A   1      42.290  27.894  28.463  1.00  0.00     0.010 A 
ATOM     36  C   UNL A   1      40.273  26.742  29.145  1.00  0.00     0.010 A 
ATOM     37  C   UNL A   1      41.201  27.776  29.341  1.00  0.00    -0.014 A 
BRANCH  37  38
ATOM     38  C   UNL A   1      41.018  28.721  30.472  1.00  0.00     0.031 A 
ATOM     39  C   UNL A   1      41.883  28.606  31.699  1.00  0.00     0.074 A 
ATOM     40  C   UNL A   1      40.034  29.639  30.418  1.00  0.00     0.049 A 
ATOM     41  N   UNL A   1      41.829  29.290  32.812  1.00  0.00    -0.248 NA
ATOM     42  C   UNL A   1      42.927  27.569  31.682  1.00  0.00     0.031 C 
ATOM     43  C   UNL A   1      39.101  29.815  29.302  1.00  0.00     0.029 A 
ATOM     44  N   UNL A   1      39.644  30.590  31.328  1.00  0.00    -0.354 N 
ATOM     45  C   UNL A   1      42.820  28.760  33.631  1.00  0.00     0.074 A 
ATOM     46  C   UNL A   1      43.422  27.662  32.908  1.00  0.00     0.031 C 
ATOM     47  C   UNL A   1      38.262  30.824  29.584  1.00  0.00     0.029 A 
ATOM     48  C   UNL A   1      38.570  31.343  30.913  1.00  0.00     0.049 A 
ATOM     49  H   UNL A   1      40.092  30.721  32.195  1.00  0.00     0.167 HD
ATOM     50  C   UNL A   1      43.206  29.166  34.864  1.00  0.00     0.037 A 
ATOM     51  C   UNL A   1      37.904  32.333  31.538  1.00  0.00     0.037 A 
ATOM     52  C   UNL A   1      42.616  30.276  35.567  1.00  0.00     0.049 A 
ATOM     53  C   UNL A   1      38.350  32.766  32.907  1.00  0.00     0.074 A 
ATOM     54  C   UNL A   1      42.974  30.805  36.795  1.00  0.00     0.029 A 
ATOM     55  N   UNL A   1      41.545  31.028  35.107  1.00  0.00    -0.354 N 
ATOM     56  N   UNL A   1      39.331  32.294  33.642  1.00  0.00    -0.248 NA
ATOM     57  C   UNL A   1      37.608  33.870  33.531  1.00  0.00     0.031 C 
ATOM     58  C   UNL A   1      42.091  31.846  37.097  1.00  0.00     0.029 A 
ATOM     59  C   UNL A   1      41.215  32.002  36.034  1.00  0.00     0.049 A 
ATOM     60  H   UNL A   1      41.087  30.890  34.245  1.00  0.00     0.167 HD
ATOM     61  C   UNL A   1      39.340  33.061  34.802  1.00  0.00     0.074 A 
ATOM     62  C   UNL A   1      38.276  34.035  34.665  1.00  0.00     0.031 C 
ATOM     63  C   UNL A   1      40.156  32.969  35.880  1.00  0.00     0.037 A 
BRANCH  50  64
ATOM     64  C   UNL A   1      44.322  28.409  35.532  1.00  0.00     0.058 A 
ATOM     65  C   UNL A   1      45.669  28.762  35.345  1.00  0.00     0.135 A 
ATOM     66  C   UNL A   1      44.042  27.338  36.398  1.00  0.00     0.135 A 
ATOM     67  F   UNL A   1      45.995  29.767  34.517  1.00  0.00    -0.206 F 
ATOM     68  C   UNL A   1      46.698  28.062  35.966  1.00  0.00     0.059 A 
ATOM     69  C   UNL A   1      45.054  26.644  37.052  1.00  0.00     0.059 A 
ATOM     70  F   UNL A   1      42.773  26.958  36.613  1.00  0.00    -0.206 F 
ATOM     71  C   UNL A   1      46.381  27.003  36.818  1.00  0.00     0.060 A 
BRANCH  71  72
ATOM     72  S   UNL A   1      47.729  26.108  37.618  1.00  0.00     0.124 S 
ATOM     73  O   UNL A   1      47.310  26.142  39.016  1.00  0.00    -0.237 OA
ATOM     74  O   UNL A   1      47.664  24.803  36.970  1.00  0.00    -0.237 OA
ATOM     75  O   UNL A   1      48.907  26.908  37.297  1.00  0.00    -0.744 OA
ENDBRANCH  71  72
ENDBRANCH  50  64
BRANCH  51  76
ATOM     76  C   UNL A   1      36.756  32.995  30.863  1.00  0.00     0.058 A 
ATOM     77  C   UNL A   1      35.437  32.745  31.270  1.00  0.00     0.135 A 
ATOM     78  C   UNL A   1      36.953  33.901  29.809  1.00  0.00     0.135 A 
ATOM     79  F   UNL A   1      35.196  31.883  32.269  1.00  0.00    -0.206 F 
ATOM     80  C   UNL A   1      34.353  33.356  30.647  1.00  0.00     0.059 A 
ATOM     81  C   UNL A   1      35.887  34.544  29.188  1.00  0.00     0.059 A 
ATOM     82  F   UNL A   1      38.196  34.189  29.392  1.00  0.00    -0.206 F 
ATOM     83  C   UNL A   1      34.590  34.257  29.607  1.00  0.00     0.060 A 
BRANCH  83  84
ATOM     84  S   UNL A   1      33.178  35.081  28.839  1.00  0.00     0.124 S 
ATOM     85  O   UNL A   1      32.363  35.412  30.002  1.00  0.00    -0.237 OA
ATOM     86  O   UNL A   1      33.813  36.208  28.163  1.00  0.00    -0.237 OA
ATOM     87  O   UNL A   1      32.633  34.055  27.956  1.00  0.00    -0.744 OA
ENDBRANCH  83  84
ENDBRANCH  51  76
BRANCH  63  88
ATOM     88  C   UNL A   1      39.957  33.967  36.987  1.00  0.00     0.058 A 
ATOM     89  C   UNL A   1      40.506  35.257  36.927  1.00  0.00     0.135 A 
ATOM     90  C   UNL A   1      39.163  33.643  38.099  1.00  0.00     0.135 A 
ATOM     91  F   UNL A   1      41.277  35.615  35.888  1.00  0.00    -0.206 F 
ATOM     92  C   UNL A   1      40.292  36.185  37.940  1.00  0.00     0.059 A 
ATOM     93  C   UNL A   1      38.913  34.564  39.112  1.00  0.00     0.059 A 
ATOM     94  F   UNL A   1      38.606  32.426  38.202  1.00  0.00    -0.206 F 
ATOM     95  C   UNL A   1      39.492  35.830  39.029  1.00  0.00     0.060 A 
BRANCH  95  96
ATOM     96  S   UNL A   1      39.194  37.055  40.320  1.00  0.00     0.124 S 
ATOM     97  O   UNL A   1      40.546  37.295  40.815  1.00  0.00    -0.237 OA
ATOM     98  O   UNL A   1      38.588  38.154  39.575  1.00  0.00    -0.237 OA
ATOM     99  O   UNL A   1      38.300  36.364  41.245  1.00  0.00    -0.744 OA
ENDBRANCH  95  96
ENDBRANCH  63  88
ENDBRANCH  37  38
ENDBRANCH  29  32
ENDBRANCH  27  28
ENDBRANCH  26  27
ENDBRANCH  25  26
ENDBRANCH   1  25
TORSDOF 19
ENDMDL
MODEL 3
REMARK VINA RESULT:     -11.3      3.089      9.437
REMARK SMILES CC(C)c1ccc(C(=O)N2CCC[C@@H](C(=O)NCCCCCCNC(=O)c3ccc(-c4c5nc(c(-c6c(F)cc(S(=O)(=O)[O-])cc6F)c6ccc([nH]6)c(-c6c(F)cc(S(=O)(=O)[O-])cc6F)c6nc(c(-c7c(F)cc(S(=O)(=O)[O-])cc7F)c7ccc4[nH]7)C=C6)C=C5)cc3)C2)cc1
REMARK SMILES IDX 20 1 19 2 18 3 17 4 15 5 16 6 14 8 10 9 11 10 93 11 12 12
REMARK SMILES IDX 13 13 8 14 9 15 7 16 4 17 5 18 95 19 6 20 94 21 2 22 1 23
REMARK SMILES IDX 3 24 21 25 22 26 23 27 24 28 25 29 26 31 27 32 28 33 92 34
REMARK SMILES IDX 29 35 91 36 30 37 31 38 32 39 85 40 33 41 90 42 84 43 86 44
REMARK SMILES IDX 34 45 89 46 83 47 82 48 35 50 69 51 48 52 68 53 49 54 52 55
REMARK SMILES IDX 67 56 87 57 50 58 51 59 66 61 88 62 53 63 36 64 37 65 46 66
REMARK SMILES IDX 38 67 39 68 45 69 47 70 40 71 41 72 42 73 43 74 44 75 70 76
REMARK SMILES IDX 71 77 80 78 72 79 73 80 79 81 81 82 74 83 75 84 76 85 77 86
REMARK SMILES IDX 78 87 54 88 55 89 64 90 56 91 57 92 63 93 65 94 58 95 59 96
REMARK SMILES IDX 60 97 61 98 62 99
REMARK H PARENT 17 7 24 30 86 49 52 60
REMARK Flexibility Score: inf
ROOT
ATOM      1  C   UNL A   1      34.029  21.743  24.458  1.00  0.00     0.002 C 
ENDROOT
BRANCH   1   2
ATOM      2  C   UNL A   1      33.565  21.242  25.833  1.00  0.00     0.021 C 
BRANCH   2   3
ATOM      3  C   UNL A   1      33.363  22.363  26.852  1.00  0.00     0.116 C 
BRANCH   3   4
ATOM      4  N   UNL A   1      31.980  22.440  27.285  1.00  0.00    -0.356 N 
ATOM      5  C   UNL A   1      30.891  23.132  26.878  1.00  0.00     0.224 C 
ATOM      6  O   UNL A   1      29.882  22.980  27.582  1.00  0.00    -0.275 OA
ATOM      7  H   UNL A   1      31.790  21.853  28.052  1.00  0.00     0.163 HD
BRANCH   5   8
ATOM      8  C   UNL A   1      30.804  24.047  25.651  1.00  0.00     0.098 C 
ATOM      9  N   UNL A   1      31.907  26.120  24.757  1.00  0.00    -0.338 N 
ATOM     10  C   UNL A   1      32.107  25.529  23.451  1.00  0.00     0.120 C 
ATOM     11  C   UNL A   1      31.774  25.222  25.904  1.00  0.00     0.133 C 
ATOM     12  C   UNL A   1      31.031  24.505  23.160  1.00  0.00     0.022 C 
ATOM     13  C   UNL A   1      31.018  23.449  24.260  1.00  0.00     0.017 C 
BRANCH   9  14
ATOM     14  C   UNL A   1      31.524  27.448  24.816  1.00  0.00     0.253 C 
ATOM     15  O   UNL A   1      30.722  27.938  24.025  1.00  0.00    -0.269 OA
BRANCH  14  16
ATOM     16  C   UNL A   1      32.319  28.320  25.733  1.00  0.00     0.040 A 
ATOM     17  C   UNL A   1      33.824  30.166  27.250  1.00  0.00    -0.045 A 
ATOM     18  C   UNL A   1      32.473  30.408  26.961  1.00  0.00     0.005 A 
ATOM     19  C   UNL A   1      34.401  28.974  26.794  1.00  0.00     0.005 A 
ATOM     20  C   UNL A   1      31.725  29.493  26.214  1.00  0.00     0.014 A 
ATOM     21  C   UNL A   1      33.661  28.068  26.033  1.00  0.00     0.014 A 
BRANCH  17  22
ATOM     22  C   UNL A   1      34.607  31.174  28.071  1.00  0.00     0.013 C 
ATOM     23  C   UNL A   1      36.074  31.161  27.639  1.00  0.00     0.012 C 
ATOM     24  C   UNL A   1      34.038  32.596  28.008  1.00  0.00     0.012 C 
ENDBRANCH  17  22
ENDBRANCH  14  16
ENDBRANCH   9  14
ENDBRANCH   5   8
ENDBRANCH   3   4
ENDBRANCH   2   3
ENDBRANCH   1   2
BRANCH   1  25
ATOM     25  C   UNL A   1      35.546  21.920  24.311  1.00  0.00     0.002 C 
BRANCH  25  26
ATOM     26  C   UNL A   1      36.046  23.365  24.392  1.00  0.00     0.021 C 
BRANCH  26  27
ATOM     27  C   UNL A   1      36.753  23.713  25.700  1.00  0.00     0.116 C 
BRANCH  27  28
ATOM     28  N   UNL A   1      37.670  22.659  26.106  1.00  0.00    -0.352 N 
ATOM     29  C   UNL A   1      38.956  22.760  26.564  1.00  0.00     0.251 C 
ATOM     30  H   UNL A   1      37.315  21.744  26.045  1.00  0.00     0.163 HD
ATOM     31  O   UNL A   1      39.664  21.753  26.626  1.00  0.00    -0.269 OA
BRANCH  29  32
ATOM     32  C   UNL A   1      39.496  24.072  26.976  1.00  0.00     0.039 A 
ATOM     33  C   UNL A   1      39.659  24.344  28.337  1.00  0.00     0.014 A 
ATOM     34  C   UNL A   1      39.820  25.041  26.022  1.00  0.00     0.014 A 
ATOM     35  C   UNL A   1      40.195  25.570  28.737  1.00  0.00     0.010 A 
ATOM     36  C   UNL A   1      40.417  26.233  26.419  1.00  0.00     0.010 A 
ATOM     37  C   UNL A   1      40.604  26.513  27.780  1.00  0.00    -0.014 A 
BRANCH  37  38
ATOM     38  C   UNL A   1      41.225  27.800  28.185  1.00  0.00     0.031 A 
ATOM     39  C   UNL A   1      42.712  27.995  28.059  1.00  0.00     0.074 A 
ATOM     40  C   UNL A   1      40.457  28.767  28.723  1.00  0.00     0.049 A 
ATOM     41  N   UNL A   1      43.444  29.016  28.422  1.00  0.00    -0.248 NA
ATOM     42  C   UNL A   1      43.480  26.885  27.473  1.00  0.00     0.031 C 
ATOM     43  C   UNL A   1      39.010  28.677  28.940  1.00  0.00     0.029 A 
ATOM     44  N   UNL A   1      40.785  30.012  29.198  1.00  0.00    -0.354 N 
ATOM     45  C   UNL A   1      44.756  28.668  28.122  1.00  0.00     0.074 A 
ATOM     46  C   UNL A   1      44.726  27.321  27.596  1.00  0.00     0.031 C 
ATOM     47  C   UNL A   1      38.574  29.824  29.485  1.00  0.00     0.029 A 
ATOM     48  C   UNL A   1      39.710  30.716  29.692  1.00  0.00     0.049 A 
ATOM     49  H   UNL A   1      41.702  30.370  29.185  1.00  0.00     0.167 HD
ATOM     50  C   UNL A   1      45.880  29.412  28.251  1.00  0.00     0.037 A 
ATOM     51  C   UNL A   1      39.650  31.937  30.256  1.00  0.00     0.037 A 
ATOM     52  C   UNL A   1      45.897  30.763  28.752  1.00  0.00     0.049 A 
ATOM     53  C   UNL A   1      40.912  32.746  30.389  1.00  0.00     0.074 A 
ATOM     54  C   UNL A   1      46.975  31.623  28.868  1.00  0.00     0.029 A 
ATOM     55  N   UNL A   1      44.787  31.448  29.223  1.00  0.00    -0.354 N 
ATOM     56  N   UNL A   1      42.136  32.425  30.041  1.00  0.00    -0.248 NA
ATOM     57  C   UNL A   1      40.786  34.083  30.984  1.00  0.00     0.031 C 
ATOM     58  C   UNL A   1      46.525  32.812  29.450  1.00  0.00     0.029 A 
ATOM     59  C   UNL A   1      45.156  32.713  29.649  1.00  0.00     0.049 A 
ATOM     60  H   UNL A   1      43.871  31.089  29.249  1.00  0.00     0.167 HD
ATOM     61  C   UNL A   1      42.921  33.531  30.349  1.00  0.00     0.074 A 
ATOM     62  C   UNL A   1      42.030  34.533  30.900  1.00  0.00     0.031 C 
ATOM     63  C   UNL A   1      44.256  33.702  30.189  1.00  0.00     0.037 A 
BRANCH  50  64
ATOM     64  C   UNL A   1      47.185  28.786  27.839  1.00  0.00     0.058 A 
ATOM     65  C   UNL A   1      47.604  28.766  26.499  1.00  0.00     0.135 A 
ATOM     66  C   UNL A   1      48.044  28.227  28.801  1.00  0.00     0.135 A 
ATOM     67  F   UNL A   1      46.816  29.271  25.537  1.00  0.00    -0.206 F 
ATOM     68  C   UNL A   1      48.812  28.189  26.123  1.00  0.00     0.059 A 
ATOM     69  C   UNL A   1      49.271  27.672  28.450  1.00  0.00     0.059 A 
ATOM     70  F   UNL A   1      47.695  28.219  30.096  1.00  0.00    -0.206 F 
ATOM     71  C   UNL A   1      49.640  27.643  27.105  1.00  0.00     0.060 A 
BRANCH  71  72
ATOM     72  S   UNL A   1      51.205  26.901  26.599  1.00  0.00     0.124 S 
ATOM     73  O   UNL A   1      50.787  26.088  25.461  1.00  0.00    -0.237 OA
ATOM     74  O   UNL A   1      52.015  28.071  26.277  1.00  0.00    -0.237 OA
ATOM     75  O   UNL A   1      51.626  26.156  27.781  1.00  0.00    -0.744 OA
ENDBRANCH  71  72
ENDBRANCH  50  64
BRANCH  51  76
ATOM     76  C   UNL A   1      38.344  32.477  30.717  1.00  0.00     0.058 A 
ATOM     77  C   UNL A   1      37.821  32.130  31.973  1.00  0.00     0.135 A 
ATOM     78  C   UNL A   1      37.598  33.362  29.922  1.00  0.00     0.135 A 
ATOM     79  F   UNL A   1      38.494  31.284  32.767  1.00  0.00    -0.206 F 
ATOM     80  C   UNL A   1      36.600  32.626  32.418  1.00  0.00     0.059 A 
ATOM     81  C   UNL A   1      36.387  33.891  30.357  1.00  0.00     0.059 A 
ATOM     82  F   UNL A   1      38.061  33.740  28.721  1.00  0.00    -0.206 F 
ATOM     83  C   UNL A   1      35.891  33.509  31.601  1.00  0.00     0.060 A 
BRANCH  83  84
ATOM     84  S   UNL A   1      34.331  34.186  32.209  1.00  0.00     0.124 S 
ATOM     85  O   UNL A   1      34.793  35.300  33.029  1.00  0.00    -0.237 OA
ATOM     86  O   UNL A   1      33.648  34.545  30.970  1.00  0.00    -0.237 OA
ATOM     87  O   UNL A   1      33.743  33.066  32.938  1.00  0.00    -0.744 OA
ENDBRANCH  83  84
ENDBRANCH  51  76
BRANCH  63  88
ATOM     88  C   UNL A   1      44.836  35.033  30.582  1.00  0.00     0.058 A 
ATOM     89  C   UNL A   1      44.882  36.112  29.686  1.00  0.00     0.135 A 
ATOM     90  C   UNL A   1      45.305  35.245  31.888  1.00  0.00     0.135 A 
ATOM     91  F   UNL A   1      44.452  35.960  28.423  1.00  0.00    -0.206 F 
ATOM     92  C   UNL A   1      45.392  37.349  30.065  1.00  0.00     0.059 A 
ATOM     93  C   UNL A   1      45.794  36.480  32.298  1.00  0.00     0.059 A 
ATOM     94  F   UNL A   1      45.275  34.248  32.788  1.00  0.00    -0.206 F 
ATOM     95  C   UNL A   1      45.844  37.525  31.375  1.00  0.00     0.060 A 
BRANCH  95  96
ATOM     96  S   UNL A   1      46.471  39.144  31.864  1.00  0.00     0.124 S 
ATOM     97  O   UNL A   1      47.100  38.841  33.145  1.00  0.00    -0.237 OA
ATOM     98  O   UNL A   1      47.383  39.470  30.772  1.00  0.00    -0.237 OA
ATOM     99  O   UNL A   1      45.269  39.969  31.935  1.00  0.00    -0.744 OA
ENDBRANCH  95  96
ENDBRANCH  63  88
ENDBRANCH  37  38
ENDBRANCH  29  32
ENDBRANCH  27  28
ENDBRANCH  26  27
ENDBRANCH  25  26
ENDBRANCH   1  25
TORSDOF 19
ENDMDL
