MODEL 1
REMARK VINA RESULT:     -11.8      0.000      0.000
REMARK SMILES COc1cc(-c2cc(C(=O)NCCCCCCNC(=O)c3ccc(-c4c5nc(c(-c6c(F)cc(S(=O)(=O)[O-])cc6F)c6ccc([nH]6)c(-c6c(F)cc(S(=O)(=O)[O-])cc6F)c6nc(c(-c7c(F)cc(S(=O)(=O)[O-])cc7F)c7ccc4[nH]7)C=C6)C=C5)cc3)c3cc(C)ccc3n2)cc(OC)c1OC
REMARK SMILES IDX 15 1 14 2 13 3 12 4 11 5 9 6 10 7 8 9 6 10 7 11 94 12 93 13
REMARK SMILES IDX 87 14 92 15 88 16 91 17 89 18 90 19 5 20 3 21 4 22 99 23
REMARK SMILES IDX 96 24 95 25 2 26 1 27 100 28 101 29 97 30 98 31 16 32 17 33
REMARK SMILES IDX 18 34 19 35 20 37 21 38 22 39 86 40 23 41 85 42 24 43 25 44
REMARK SMILES IDX 26 45 79 46 27 47 84 48 78 49 80 50 28 51 83 52 77 53 76 54
REMARK SMILES IDX 29 56 63 57 42 58 62 59 43 60 46 61 61 62 81 63 44 64 45 65
REMARK SMILES IDX 60 67 82 68 47 69 30 70 31 71 40 72 32 73 33 74 39 75 41 76
REMARK SMILES IDX 34 77 35 78 36 79 37 80 38 81 64 82 65 83 74 84 66 85 67 86
REMARK SMILES IDX 73 87 75 88 68 89 69 90 70 91 71 92 72 93 48 94 49 95 58 96
REMARK SMILES IDX 50 97 51 98 57 99 59 100 52 101 53 102 54 103 55 104 56 105
REMARK H PARENT 11 8 18 36 80 55 46 66
REMARK Flexibility Score: inf
ROOT
ATOM      1  C   UNL A   1      40.198  21.808  26.587  1.00  0.00     0.002 C 
ENDROOT
BRANCH   1   2
ATOM      2  C   UNL A   1      39.045  22.746  26.216  1.00  0.00     0.002 C 
BRANCH   2   3
ATOM      3  C   UNL A   1      37.663  22.074  26.129  1.00  0.00     0.021 C 
BRANCH   3   4
ATOM      4  C   UNL A   1      36.503  23.064  26.007  1.00  0.00     0.116 C 
BRANCH   4   5
ATOM      5  N   UNL A   1      36.628  23.798  24.767  1.00  0.00    -0.352 N 
ATOM      6  C   UNL A   1      36.082  23.406  23.567  1.00  0.00     0.252 C 
ATOM      7  O   UNL A   1      36.807  23.271  22.589  1.00  0.00    -0.269 OA
ATOM      8  H   UNL A   1      37.141  24.638  24.782  1.00  0.00     0.163 HD
BRANCH   6   9
ATOM      9  C   UNL A   1      34.609  23.512  23.448  1.00  0.00     0.051 A 
ATOM     10  C   UNL A   1      32.614  24.577  22.836  1.00  0.00     0.072 A 
ATOM     11  C   UNL A   1      33.889  24.699  23.352  1.00  0.00     0.043 A 
ATOM     12  N   UNL A   1      32.332  23.505  22.048  1.00  0.00    -0.248 NA
ATOM     13  C   UNL A   1      32.793  22.341  22.498  1.00  0.00     0.072 A 
ATOM     14  C   UNL A   1      33.892  22.311  23.349  1.00  0.00     0.013 A 
ATOM     15  C   UNL A   1      32.022  21.205  22.336  1.00  0.00     0.029 A 
ATOM     16  C   UNL A   1      34.055  21.217  24.221  1.00  0.00     0.014 A 
ATOM     17  C   UNL A   1      32.147  20.143  23.233  1.00  0.00     0.005 A 
ATOM     18  C   UNL A   1      33.087  20.212  24.260  1.00  0.00    -0.050 A 
ATOM     19  C   UNL A   1      32.996  19.318  25.461  1.00  0.00     0.044 C 
BRANCH  10  20
ATOM     20  C   UNL A   1      31.374  24.899  23.619  1.00  0.00     0.008 A 
ATOM     21  C   UNL A   1      30.748  25.021  25.938  1.00  0.00     0.165 A 
ATOM     22  C   UNL A   1      31.130  24.257  24.831  1.00  0.00     0.061 A 
ATOM     23  C   UNL A   1      30.735  26.426  25.871  1.00  0.00     0.203 A 
ATOM     24  C   UNL A   1      30.727  27.032  24.616  1.00  0.00     0.165 A 
ATOM     25  C   UNL A   1      30.895  26.229  23.481  1.00  0.00     0.061 A 
BRANCH  21  26
ATOM     26  O   UNL A   1      30.519  24.338  27.106  1.00  0.00    -0.493 OA
ATOM     27  C   UNL A   1      30.311  22.946  26.849  1.00  0.00     0.278 C 
ENDBRANCH  21  26
BRANCH  23  28
ATOM     28  O   UNL A   1      31.078  27.098  27.018  1.00  0.00    -0.490 OA
ATOM     29  C   UNL A   1      32.349  27.718  27.026  1.00  0.00     0.278 C 
ENDBRANCH  23  28
BRANCH  24  30
ATOM     30  O   UNL A   1      30.619  28.373  24.358  1.00  0.00    -0.493 OA
ATOM     31  C   UNL A   1      29.835  28.720  23.222  1.00  0.00     0.278 C 
ENDBRANCH  24  30
ENDBRANCH  10  20
ENDBRANCH   6   9
ENDBRANCH   4   5
ENDBRANCH   3   4
ENDBRANCH   2   3
ENDBRANCH   1   2
BRANCH   1  32
ATOM     32  C   UNL A   1      40.773  22.031  27.986  1.00  0.00     0.021 C 
BRANCH  32  33
ATOM     33  C   UNL A   1      42.114  22.752  28.001  1.00  0.00     0.116 C 
BRANCH  33  34
ATOM     34  N   UNL A   1      42.425  23.344  26.710  1.00  0.00    -0.352 N 
ATOM     35  C   UNL A   1      42.298  24.655  26.318  1.00  0.00     0.251 C 
ATOM     36  H   UNL A   1      42.770  22.725  26.027  1.00  0.00     0.163 HD
ATOM     37  O   UNL A   1      42.397  24.960  25.137  1.00  0.00    -0.269 OA
BRANCH  35  38
ATOM     38  C   UNL A   1      42.021  25.686  27.342  1.00  0.00     0.039 A 
ATOM     39  C   UNL A   1      40.819  25.632  28.048  1.00  0.00     0.014 A 
ATOM     40  C   UNL A   1      42.958  26.686  27.612  1.00  0.00     0.014 A 
ATOM     41  C   UNL A   1      40.577  26.559  29.064  1.00  0.00     0.010 A 
ATOM     42  C   UNL A   1      42.751  27.556  28.677  1.00  0.00     0.010 A 
ATOM     43  C   UNL A   1      41.553  27.510  29.405  1.00  0.00    -0.014 A 
BRANCH  43  44
ATOM     44  C   UNL A   1      41.335  28.467  30.518  1.00  0.00     0.031 A 
ATOM     45  C   UNL A   1      42.128  28.340  31.790  1.00  0.00     0.074 A 
ATOM     46  C   UNL A   1      40.373  29.404  30.411  1.00  0.00     0.049 A 
ATOM     47  N   UNL A   1      42.047  29.047  32.887  1.00  0.00    -0.248 NA
ATOM     48  C   UNL A   1      43.121  27.256  31.846  1.00  0.00     0.031 C 
ATOM     49  C   UNL A   1      39.493  29.581  29.254  1.00  0.00     0.029 A 
ATOM     50  N   UNL A   1      39.962  30.372  31.292  1.00  0.00    -0.354 N 
ATOM     51  C   UNL A   1      42.959  28.481  33.770  1.00  0.00     0.074 A 
ATOM     52  C   UNL A   1      43.541  27.339  33.099  1.00  0.00     0.031 C 
ATOM     53  C   UNL A   1      38.657  30.604  29.490  1.00  0.00     0.029 A 
ATOM     54  C   UNL A   1      38.915  31.132  30.827  1.00  0.00     0.049 A 
ATOM     55  H   UNL A   1      40.378  30.510  32.173  1.00  0.00     0.167 HD
ATOM     56  C   UNL A   1      43.295  28.888  35.018  1.00  0.00     0.037 A 
ATOM     57  C   UNL A   1      38.230  32.133  31.414  1.00  0.00     0.037 A 
ATOM     58  C   UNL A   1      42.721  30.038  35.669  1.00  0.00     0.049 A 
ATOM     59  C   UNL A   1      38.631  32.585  32.789  1.00  0.00     0.074 A 
ATOM     60  C   UNL A   1      43.050  30.587  36.894  1.00  0.00     0.029 A 
ATOM     61  N   UNL A   1      41.687  30.806  35.151  1.00  0.00    -0.354 N 
ATOM     62  N   UNL A   1      39.563  32.100  33.576  1.00  0.00    -0.248 NA
ATOM     63  C   UNL A   1      37.900  33.727  33.354  1.00  0.00     0.031 C 
ATOM     64  C   UNL A   1      42.175  31.649  37.146  1.00  0.00     0.029 A 
ATOM     65  C   UNL A   1      41.341  31.803  36.049  1.00  0.00     0.049 A 
ATOM     66  H   UNL A   1      41.260  30.663  34.276  1.00  0.00     0.167 HD
ATOM     67  C   UNL A   1      39.542  32.887  34.722  1.00  0.00     0.074 A 
ATOM     68  C   UNL A   1      38.515  33.889  34.518  1.00  0.00     0.031 C 
ATOM     69  C   UNL A   1      40.308  32.790  35.839  1.00  0.00     0.037 A 
BRANCH  56  70
ATOM     70  C   UNL A   1      44.317  28.068  35.763  1.00  0.00     0.058 A 
ATOM     71  C   UNL A   1      45.698  28.281  35.613  1.00  0.00     0.135 A 
ATOM     72  C   UNL A   1      43.907  27.047  36.637  1.00  0.00     0.135 A 
ATOM     73  F   UNL A   1      46.148  29.236  34.783  1.00  0.00    -0.206 F 
ATOM     74  C   UNL A   1      46.634  27.477  36.256  1.00  0.00     0.059 A 
ATOM     75  C   UNL A   1      44.826  26.253  37.318  1.00  0.00     0.059 A 
ATOM     76  F   UNL A   1      42.601  26.801  36.825  1.00  0.00    -0.206 F 
ATOM     77  C   UNL A   1      46.187  26.460  37.100  1.00  0.00     0.060 A 
BRANCH  77  78
ATOM     78  S   UNL A   1      47.412  25.401  37.898  1.00  0.00     0.124 S 
ATOM     79  O   UNL A   1      47.767  24.497  36.808  1.00  0.00    -0.237 OA
ATOM     80  O   UNL A   1      48.444  26.356  38.291  1.00  0.00    -0.237 OA
ATOM     81  O   UNL A   1      46.672  24.794  39.000  1.00  0.00    -0.744 OA
ENDBRANCH  77  78
ENDBRANCH  56  70
BRANCH  57  82
ATOM     82  C   UNL A   1      37.109  32.774  30.677  1.00  0.00     0.058 A 
ATOM     83  C   UNL A   1      35.782  32.372  30.881  1.00  0.00     0.135 A 
ATOM     84  C   UNL A   1      37.340  33.854  29.810  1.00  0.00     0.135 A 
ATOM     85  F   UNL A   1      35.512  31.340  31.694  1.00  0.00    -0.206 F 
ATOM     86  C   UNL A   1      34.720  33.023  30.260  1.00  0.00     0.059 A 
ATOM     87  C   UNL A   1      36.295  34.537  29.196  1.00  0.00     0.059 A 
ATOM     88  F   UNL A   1      38.592  34.288  29.595  1.00  0.00    -0.206 F 
ATOM     89  C   UNL A   1      34.987  34.113  29.429  1.00  0.00     0.060 A 
BRANCH  89  90
ATOM     90  S   UNL A   1      33.595  35.015  28.711  1.00  0.00     0.124 S 
ATOM     91  O   UNL A   1      34.230  35.687  27.584  1.00  0.00    -0.237 OA
ATOM     92  O   UNL A   1      32.674  33.935  28.375  1.00  0.00    -0.237 OA
ATOM     93  O   UNL A   1      33.160  35.883  29.802  1.00  0.00    -0.744 OA
ENDBRANCH  89  90
ENDBRANCH  57  82
BRANCH  69  94
ATOM     94  C   UNL A   1      40.080  33.805  36.926  1.00  0.00     0.058 A 
ATOM     95  C   UNL A   1      40.828  34.990  36.999  1.00  0.00     0.135 A 
ATOM     96  C   UNL A   1      39.060  33.615  37.872  1.00  0.00     0.135 A 
ATOM     97  F   UNL A   1      41.819  35.221  36.124  1.00  0.00    -0.206 F 
ATOM     98  C   UNL A   1      40.586  35.941  37.986  1.00  0.00     0.059 A 
ATOM     99  C   UNL A   1      38.781  34.565  38.849  1.00  0.00     0.059 A 
ATOM    100  F   UNL A   1      38.307  32.503  37.841  1.00  0.00    -0.206 F 
ATOM    101  C   UNL A   1      39.557  35.722  38.905  1.00  0.00     0.060 A 
BRANCH 101 102
ATOM    102  S   UNL A   1      39.232  36.979  40.158  1.00  0.00     0.124 S 
ATOM    103  O   UNL A   1      40.584  37.336  40.575  1.00  0.00    -0.237 OA
ATOM    104  O   UNL A   1      38.514  37.998  39.398  1.00  0.00    -0.237 OA
ATOM    105  O   UNL A   1      38.434  36.270  41.153  1.00  0.00    -0.744 OA
ENDBRANCH 101 102
ENDBRANCH  69  94
ENDBRANCH  43  44
ENDBRANCH  35  38
ENDBRANCH  33  34
ENDBRANCH  32  33
ENDBRANCH   1  32
TORSDOF 20
ENDMDL
MODEL 2
REMARK VINA RESULT:     -11.7      0.660      7.857
REMARK SMILES COc1cc(-c2cc(C(=O)NCCCCCCNC(=O)c3ccc(-c4c5nc(c(-c6c(F)cc(S(=O)(=O)[O-])cc6F)c6ccc([nH]6)c(-c6c(F)cc(S(=O)(=O)[O-])cc6F)c6nc(c(-c7c(F)cc(S(=O)(=O)[O-])cc7F)c7ccc4[nH]7)C=C6)C=C5)cc3)c3cc(C)ccc3n2)cc(OC)c1OC
REMARK SMILES IDX 15 1 14 2 13 3 12 4 11 5 9 6 10 7 8 9 6 10 7 11 94 12 93 13
REMARK SMILES IDX 87 14 92 15 88 16 91 17 89 18 90 19 5 20 3 21 4 22 99 23
REMARK SMILES IDX 96 24 95 25 2 26 1 27 100 28 101 29 97 30 98 31 16 32 17 33
REMARK SMILES IDX 18 34 19 35 20 37 21 38 22 39 86 40 23 41 85 42 24 43 25 44
REMARK SMILES IDX 26 45 79 46 27 47 84 48 78 49 80 50 28 51 83 52 77 53 76 54
REMARK SMILES IDX 29 56 63 57 42 58 62 59 43 60 46 61 61 62 81 63 44 64 45 65
REMARK SMILES IDX 60 67 82 68 47 69 30 70 31 71 40 72 32 73 33 74 39 75 41 76
REMARK SMILES IDX 34 77 35 78 36 79 37 80 38 81 64 82 65 83 74 84 66 85 67 86
REMARK SMILES IDX 73 87 75 88 68 89 69 90 70 91 71 92 72 93 48 94 49 95 58 96
REMARK SMILES IDX 50 97 51 98 57 99 59 100 52 101 53 102 54 103 55 104 56 105
REMARK H PARENT 11 8 18 36 80 55 46 66
REMARK Flexibility Score: inf
ROOT
ATOM      1  C   UNL A   1      40.227  21.930  26.522  1.00  0.00     0.002 C 
ENDROOT
BRANCH   1   2
ATOM      2  C   UNL A   1      39.029  22.779  26.088  1.00  0.00     0.002 C 
BRANCH   2   3
ATOM      3  C   UNL A   1      37.670  22.059  26.135  1.00  0.00     0.021 C 
BRANCH   3   4
ATOM      4  C   UNL A   1      36.470  22.995  25.978  1.00  0.00     0.116 C 
BRANCH   4   5
ATOM      5  N   UNL A   1      36.594  23.730  24.738  1.00  0.00    -0.352 N 
ATOM      6  C   UNL A   1      36.057  23.333  23.536  1.00  0.00     0.252 C 
ATOM      7  O   UNL A   1      36.788  23.204  22.561  1.00  0.00    -0.269 OA
ATOM      8  H   UNL A   1      37.100  24.573  24.755  1.00  0.00     0.163 HD
BRANCH   6   9
ATOM      9  C   UNL A   1      34.584  23.427  23.411  1.00  0.00     0.051 A 
ATOM     10  C   UNL A   1      32.583  24.469  22.778  1.00  0.00     0.072 A 
ATOM     11  C   UNL A   1      33.856  24.607  23.297  1.00  0.00     0.043 A 
ATOM     12  N   UNL A   1      32.312  23.386  22.003  1.00  0.00    -0.248 NA
ATOM     13  C   UNL A   1      32.780  22.230  22.470  1.00  0.00     0.072 A 
ATOM     14  C   UNL A   1      33.876  22.220  23.325  1.00  0.00     0.013 A 
ATOM     15  C   UNL A   1      32.017  21.087  22.320  1.00  0.00     0.029 A 
ATOM     16  C   UNL A   1      34.043  21.137  24.211  1.00  0.00     0.014 A 
ATOM     17  C   UNL A   1      32.147  20.038  23.230  1.00  0.00     0.005 A 
ATOM     18  C   UNL A   1      33.083  20.126  24.260  1.00  0.00    -0.050 A 
ATOM     19  C   UNL A   1      32.994  19.247  25.472  1.00  0.00     0.044 C 
BRANCH  10  20
ATOM     20  C   UNL A   1      31.339  24.792  23.553  1.00  0.00     0.008 A 
ATOM     21  C   UNL A   1      30.716  24.992  25.868  1.00  0.00     0.165 A 
ATOM     22  C   UNL A   1      31.114  24.194  24.790  1.00  0.00     0.061 A 
ATOM     23  C   UNL A   1      30.669  26.392  25.745  1.00  0.00     0.203 A 
ATOM     24  C   UNL A   1      30.643  26.948  24.467  1.00  0.00     0.165 A 
ATOM     25  C   UNL A   1      30.827  26.104  23.364  1.00  0.00     0.061 A 
BRANCH  21  26
ATOM     26  O   UNL A   1      30.508  24.351  27.063  1.00  0.00    -0.493 OA
ATOM     27  C   UNL A   1      30.440  22.934  26.875  1.00  0.00     0.278 C 
ENDBRANCH  21  26
BRANCH  23  28
ATOM     28  O   UNL A   1      30.999  27.118  26.863  1.00  0.00    -0.490 OA
ATOM     29  C   UNL A   1      32.325  27.607  26.924  1.00  0.00     0.278 C 
ENDBRANCH  23  28
BRANCH  24  30
ATOM     30  O   UNL A   1      30.501  28.273  24.156  1.00  0.00    -0.493 OA
ATOM     31  C   UNL A   1      29.485  28.578  23.207  1.00  0.00     0.278 C 
ENDBRANCH  24  30
ENDBRANCH  10  20
ENDBRANCH   6   9
ENDBRANCH   4   5
ENDBRANCH   3   4
ENDBRANCH   2   3
ENDBRANCH   1   2
BRANCH   1  32
ATOM     32  C   UNL A   1      40.805  22.297  27.889  1.00  0.00     0.021 C 
BRANCH  32  33
ATOM     33  C   UNL A   1      42.103  23.090  27.823  1.00  0.00     0.116 C 
BRANCH  33  34
ATOM     34  N   UNL A   1      42.249  23.787  26.556  1.00  0.00    -0.352 N 
ATOM     35  C   UNL A   1      41.972  25.101  26.266  1.00  0.00     0.251 C 
ATOM     36  H   UNL A   1      42.591  23.246  25.807  1.00  0.00     0.163 HD
ATOM     37  O   UNL A   1      41.943  25.486  25.105  1.00  0.00    -0.269 OA
BRANCH  35  38
ATOM     38  C   UNL A   1      41.690  26.036  27.377  1.00  0.00     0.039 A 
ATOM     39  C   UNL A   1      40.492  25.908  28.081  1.00  0.00     0.014 A 
ATOM     40  C   UNL A   1      42.619  27.019  27.729  1.00  0.00     0.014 A 
ATOM     41  C   UNL A   1      40.246  26.741  29.174  1.00  0.00     0.010 A 
ATOM     42  C   UNL A   1      42.409  27.790  28.867  1.00  0.00     0.010 A 
ATOM     43  C   UNL A   1      41.215  27.669  29.593  1.00  0.00    -0.014 A 
BRANCH  43  44
ATOM     44  C   UNL A   1      40.992  28.524  30.786  1.00  0.00     0.031 A 
ATOM     45  C   UNL A   1      39.906  29.564  30.777  1.00  0.00     0.074 A 
ATOM     46  C   UNL A   1      41.815  28.412  31.847  1.00  0.00     0.049 A 
ATOM     47  N   UNL A   1      39.591  30.436  31.701  1.00  0.00    -0.248 NA
ATOM     48  C   UNL A   1      39.088  29.659  29.558  1.00  0.00     0.031 C 
ATOM     49  C   UNL A   1      42.945  27.487  31.943  1.00  0.00     0.029 A 
ATOM     50  N   UNL A   1      41.838  29.091  33.038  1.00  0.00    -0.354 N 
ATOM     51  C   UNL A   1      38.555  31.193  31.167  1.00  0.00     0.074 A 
ATOM     52  C   UNL A   1      38.335  30.716  29.819  1.00  0.00     0.031 C 
ATOM     53  C   UNL A   1      43.542  27.646  33.135  1.00  0.00     0.029 A 
ATOM     54  C   UNL A   1      42.862  28.708  33.871  1.00  0.00     0.049 A 
ATOM     55  H   UNL A   1      41.182  29.786  33.275  1.00  0.00     0.167 HD
ATOM     56  C   UNL A   1      37.840  32.184  31.754  1.00  0.00     0.037 A 
ATOM     57  C   UNL A   1      43.222  29.167  35.086  1.00  0.00     0.037 A 
ATOM     58  C   UNL A   1      38.058  32.639  33.103  1.00  0.00     0.049 A 
ATOM     59  C   UNL A   1      42.405  30.250  35.730  1.00  0.00     0.074 A 
ATOM     60  C   UNL A   1      37.337  33.574  33.822  1.00  0.00     0.029 A 
ATOM     61  N   UNL A   1      39.083  32.201  33.931  1.00  0.00    -0.354 N 
ATOM     62  N   UNL A   1      41.367  30.893  35.250  1.00  0.00    -0.248 NA
ATOM     63  C   UNL A   1      42.797  30.664  37.084  1.00  0.00     0.031 C 
ATOM     64  C   UNL A   1      37.962  33.747  35.062  1.00  0.00     0.029 A 
ATOM     65  C   UNL A   1      39.036  32.874  35.141  1.00  0.00     0.049 A 
ATOM     66  H   UNL A   1      39.748  31.515  33.692  1.00  0.00     0.167 HD
ATOM     67  C   UNL A   1      40.969  31.776  36.249  1.00  0.00     0.074 A 
ATOM     68  C   UNL A   1      41.871  31.572  37.365  1.00  0.00     0.031 C 
ATOM     69  C   UNL A   1      39.948  32.669  36.242  1.00  0.00     0.037 A 
BRANCH  56  70
ATOM     70  C   UNL A   1      36.771  32.851  30.927  1.00  0.00     0.058 A 
ATOM     71  C   UNL A   1      37.081  33.751  29.893  1.00  0.00     0.135 A 
ATOM     72  C   UNL A   1      35.414  32.590  31.177  1.00  0.00     0.135 A 
ATOM     73  F   UNL A   1      38.361  34.048  29.616  1.00  0.00    -0.206 F 
ATOM     74  C   UNL A   1      36.086  34.410  29.178  1.00  0.00     0.059 A 
ATOM     75  C   UNL A   1      34.402  33.211  30.449  1.00  0.00     0.059 A 
ATOM     76  F   UNL A   1      35.057  31.734  32.148  1.00  0.00    -0.206 F 
ATOM     77  C   UNL A   1      34.749  34.139  29.469  1.00  0.00     0.060 A 
BRANCH  77  78
ATOM     78  S   UNL A   1      33.470  35.029  28.559  1.00  0.00     0.124 S 
ATOM     79  O   UNL A   1      34.240  36.121  27.969  1.00  0.00    -0.237 OA
ATOM     80  O   UNL A   1      32.988  34.017  27.624  1.00  0.00    -0.237 OA
ATOM     81  O   UNL A   1      32.522  35.421  29.597  1.00  0.00    -0.744 OA
ENDBRANCH  77  78
ENDBRANCH  56  70
BRANCH  57  82
ATOM     82  C   UNL A   1      44.407  28.576  35.762  1.00  0.00     0.058 A 
ATOM     83  C   UNL A   1      45.689  29.110  35.580  1.00  0.00     0.135 A 
ATOM     84  C   UNL A   1      44.265  27.509  36.665  1.00  0.00     0.135 A 
ATOM     85  F   UNL A   1      45.877  30.125  34.722  1.00  0.00    -0.206 F 
ATOM     86  C   UNL A   1      46.790  28.617  36.274  1.00  0.00     0.059 A 
ATOM     87  C   UNL A   1      45.345  27.014  37.389  1.00  0.00     0.059 A 
ATOM     88  F   UNL A   1      43.055  26.974  36.887  1.00  0.00    -0.206 F 
ATOM     89  C   UNL A   1      46.604  27.577  37.187  1.00  0.00     0.060 A 
BRANCH  89  90
ATOM     90  S   UNL A   1      48.020  27.015  38.158  1.00  0.00     0.124 S 
ATOM     91  O   UNL A   1      48.506  28.269  38.722  1.00  0.00    -0.237 OA
ATOM     92  O   UNL A   1      47.398  26.091  39.099  1.00  0.00    -0.237 OA
ATOM     93  O   UNL A   1      48.886  26.394  37.160  1.00  0.00    -0.744 OA
ENDBRANCH  89  90
ENDBRANCH  57  82
BRANCH  69  94
ATOM     94  C   UNL A   1      39.734  33.488  37.486  1.00  0.00     0.058 A 
ATOM     95  C   UNL A   1      40.443  34.676  37.721  1.00  0.00     0.135 A 
ATOM     96  C   UNL A   1      38.764  33.108  38.428  1.00  0.00     0.135 A 
ATOM     97  F   UNL A   1      41.386  35.083  36.857  1.00  0.00    -0.206 F 
ATOM     98  C   UNL A   1      40.214  35.447  38.857  1.00  0.00     0.059 A 
ATOM     99  C   UNL A   1      38.496  33.878  39.555  1.00  0.00     0.059 A 
ATOM    100  F   UNL A   1      38.049  31.985  38.248  1.00  0.00    -0.206 F 
ATOM    101  C   UNL A   1      39.234  35.042  39.766  1.00  0.00     0.060 A 
BRANCH 101 102
ATOM    102  S   UNL A   1      38.922  36.069  41.217  1.00  0.00     0.124 S 
ATOM    103  O   UNL A   1      37.833  35.344  41.862  1.00  0.00    -0.237 OA
ATOM    104  O   UNL A   1      40.207  36.031  41.908  1.00  0.00    -0.237 OA
ATOM    105  O   UNL A   1      38.563  37.364  40.647  1.00  0.00    -0.744 OA
ENDBRANCH 101 102
ENDBRANCH  69  94
ENDBRANCH  43  44
ENDBRANCH  35  38
ENDBRANCH  33  34
ENDBRANCH  32  33
ENDBRANCH   1  32
TORSDOF 20
ENDMDL
MODEL 3
REMARK VINA RESULT:     -11.4      2.727      9.017
REMARK SMILES COc1cc(-c2cc(C(=O)NCCCCCCNC(=O)c3ccc(-c4c5nc(c(-c6c(F)cc(S(=O)(=O)[O-])cc6F)c6ccc([nH]6)c(-c6c(F)cc(S(=O)(=O)[O-])cc6F)c6nc(c(-c7c(F)cc(S(=O)(=O)[O-])cc7F)c7ccc4[nH]7)C=C6)C=C5)cc3)c3cc(C)ccc3n2)cc(OC)c1OC
REMARK SMILES IDX 15 1 14 2 13 3 12 4 11 5 9 6 10 7 8 9 6 10 7 11 94 12 93 13
REMARK SMILES IDX 87 14 92 15 88 16 91 17 89 18 90 19 5 20 3 21 4 22 99 23
REMARK SMILES IDX 96 24 95 25 2 26 1 27 100 28 101 29 97 30 98 31 16 32 17 33
REMARK SMILES IDX 18 34 19 35 20 37 21 38 22 39 86 40 23 41 85 42 24 43 25 44
REMARK SMILES IDX 26 45 79 46 27 47 84 48 78 49 80 50 28 51 83 52 77 53 76 54
REMARK SMILES IDX 29 56 63 57 42 58 62 59 43 60 46 61 61 62 81 63 44 64 45 65
REMARK SMILES IDX 60 67 82 68 47 69 30 70 31 71 40 72 32 73 33 74 39 75 41 76
REMARK SMILES IDX 34 77 35 78 36 79 37 80 38 81 64 82 65 83 74 84 66 85 67 86
REMARK SMILES IDX 73 87 75 88 68 89 69 90 70 91 71 92 72 93 48 94 49 95 58 96
REMARK SMILES IDX 50 97 51 98 57 99 59 100 52 101 53 102 54 103 55 104 56 105
REMARK H PARENT 11 8 18 36 80 55 46 66
REMARK Flexibility Score: inf
ROOT
ATOM      1  C   UNL A   1      34.823  33.653  28.449  1.00  0.00     0.002 C 
ENDROOT
BRANCH   1   2
ATOM      2  C   UNL A   1      35.029  32.390  29.290  1.00  0.00     0.002 C 
BRANCH   2   3
ATOM      3  C   UNL A   1      35.612  31.189  28.527  1.00  0.00     0.021 C 
BRANCH   3   4
ATOM      4  C   UNL A   1      34.772  30.756  27.324  1.00  0.00     0.116 C 
BRANCH   4   5
ATOM      5  N   UNL A   1      33.473  30.310  27.781  1.00  0.00    -0.352 N 
ATOM      6  C   UNL A   1      32.453  29.896  26.958  1.00  0.00     0.252 C 
ATOM      7  O   UNL A   1      31.360  30.447  27.027  1.00  0.00    -0.269 OA
ATOM      8  H   UNL A   1      33.308  30.305  28.751  1.00  0.00     0.163 HD
BRANCH   6   9
ATOM      9  C   UNL A   1      32.636  28.585  26.293  1.00  0.00     0.051 A 
ATOM     10  C   UNL A   1      33.506  26.418  26.106  1.00  0.00     0.072 A 
ATOM     11  C   UNL A   1      33.721  27.733  26.470  1.00  0.00     0.043 A 
ATOM     12  N   UNL A   1      32.229  25.952  26.081  1.00  0.00    -0.248 NA
ATOM     13  C   UNL A   1      31.344  26.769  25.515  1.00  0.00     0.072 A 
ATOM     14  C   UNL A   1      31.588  28.137  25.476  1.00  0.00     0.013 A 
ATOM     15  C   UNL A   1      30.332  26.232  24.742  1.00  0.00     0.029 A 
ATOM     16  C   UNL A   1      30.979  28.913  24.470  1.00  0.00     0.014 A 
ATOM     17  C   UNL A   1      29.768  26.984  23.711  1.00  0.00     0.005 A 
ATOM     18  C   UNL A   1      30.192  28.295  23.498  1.00  0.00    -0.050 A 
ATOM     19  C   UNL A   1      29.932  28.997  22.198  1.00  0.00     0.044 C 
BRANCH  10  20
ATOM     20  C   UNL A   1      34.256  25.737  24.999  1.00  0.00     0.008 A 
ATOM     21  C   UNL A   1      34.812  23.477  24.389  1.00  0.00     0.165 A 
ATOM     22  C   UNL A   1      34.963  24.564  25.256  1.00  0.00     0.061 A 
ATOM     23  C   UNL A   1      33.865  23.514  23.349  1.00  0.00     0.203 A 
ATOM     24  C   UNL A   1      33.363  24.751  22.950  1.00  0.00     0.165 A 
ATOM     25  C   UNL A   1      33.695  25.886  23.702  1.00  0.00     0.061 A 
BRANCH  21  26
ATOM     26  O   UNL A   1      35.532  22.348  24.688  1.00  0.00    -0.493 OA
ATOM     27  C   UNL A   1      35.484  22.071  26.091  1.00  0.00     0.278 C 
ENDBRANCH  21  26
BRANCH  23  28
ATOM     28  O   UNL A   1      33.248  22.327  23.038  1.00  0.00    -0.490 OA
ATOM     29  C   UNL A   1      32.030  22.060  23.706  1.00  0.00     0.278 C 
ENDBRANCH  23  28
BRANCH  24  30
ATOM     30  O   UNL A   1      32.515  24.988  21.901  1.00  0.00    -0.493 OA
ATOM     31  C   UNL A   1      32.542  26.310  21.374  1.00  0.00     0.278 C 
ENDBRANCH  24  30
ENDBRANCH  10  20
ENDBRANCH   6   9
ENDBRANCH   4   5
ENDBRANCH   3   4
ENDBRANCH   2   3
ENDBRANCH   1   2
BRANCH   1  32
ATOM     32  C   UNL A   1      33.536  34.418  28.756  1.00  0.00     0.021 C 
BRANCH  32  33
ATOM     33  C   UNL A   1      33.751  35.717  29.523  1.00  0.00     0.116 C 
BRANCH  33  34
ATOM     34  N   UNL A   1      32.754  35.902  30.563  1.00  0.00    -0.352 N 
ATOM     35  C   UNL A   1      32.748  35.398  31.842  1.00  0.00     0.251 C 
ATOM     36  H   UNL A   1      31.980  36.461  30.321  1.00  0.00     0.163 HD
ATOM     37  O   UNL A   1      31.738  35.465  32.530  1.00  0.00    -0.269 OA
BRANCH  35  38
ATOM     38  C   UNL A   1      33.974  34.758  32.365  1.00  0.00     0.039 A 
ATOM     39  C   UNL A   1      33.867  33.538  33.034  1.00  0.00     0.014 A 
ATOM     40  C   UNL A   1      35.223  35.355  32.174  1.00  0.00     0.014 A 
ATOM     41  C   UNL A   1      35.024  32.891  33.472  1.00  0.00     0.010 A 
ATOM     42  C   UNL A   1      36.377  34.671  32.538  1.00  0.00     0.010 A 
ATOM     43  C   UNL A   1      36.290  33.438  33.203  1.00  0.00    -0.014 A 
BRANCH  43  44
ATOM     44  C   UNL A   1      37.532  32.737  33.613  1.00  0.00     0.031 A 
ATOM     45  C   UNL A   1      38.231  33.123  34.887  1.00  0.00     0.074 A 
ATOM     46  C   UNL A   1      38.068  31.804  32.802  1.00  0.00     0.049 A 
ATOM     47  N   UNL A   1      39.349  32.663  35.387  1.00  0.00    -0.248 NA
ATOM     48  C   UNL A   1      37.610  34.190  35.687  1.00  0.00     0.031 C 
ATOM     49  C   UNL A   1      37.517  31.393  31.510  1.00  0.00     0.029 A 
ATOM     50  N   UNL A   1      39.202  31.045  32.937  1.00  0.00    -0.354 N 
ATOM     51  C   UNL A   1      39.574  33.396  36.546  1.00  0.00     0.074 A 
ATOM     52  C   UNL A   1      38.508  34.369  36.643  1.00  0.00     0.031 C 
ATOM     53  C   UNL A   1      38.305  30.447  30.977  1.00  0.00     0.029 A 
ATOM     54  C   UNL A   1      39.436  30.210  31.870  1.00  0.00     0.049 A 
ATOM     55  H   UNL A   1      39.792  31.091  33.723  1.00  0.00     0.167 HD
ATOM     56  C   UNL A   1      40.569  33.258  37.457  1.00  0.00     0.037 A 
ATOM     57  C   UNL A   1      40.452  29.358  31.630  1.00  0.00     0.037 A 
ATOM     58  C   UNL A   1      41.615  32.273  37.357  1.00  0.00     0.049 A 
ATOM     59  C   UNL A   1      41.534  29.201  32.660  1.00  0.00     0.074 A 
ATOM     60  C   UNL A   1      42.620  31.992  38.265  1.00  0.00     0.029 A 
ATOM     61  N   UNL A   1      41.799  31.419  36.278  1.00  0.00    -0.354 N 
ATOM     62  N   UNL A   1      41.683  29.836  33.799  1.00  0.00    -0.248 NA
ATOM     63  C   UNL A   1      42.579  28.207  32.382  1.00  0.00     0.031 C 
ATOM     64  C   UNL A   1      43.448  31.011  37.708  1.00  0.00     0.029 A 
ATOM     65  C   UNL A   1      42.923  30.635  36.481  1.00  0.00     0.049 A 
ATOM     66  H   UNL A   1      41.219  31.378  35.485  1.00  0.00     0.167 HD
ATOM     67  C   UNL A   1      42.829  29.307  34.383  1.00  0.00     0.074 A 
ATOM     68  C   UNL A   1      43.324  28.289  33.477  1.00  0.00     0.031 C 
ATOM     69  C   UNL A   1      43.413  29.631  35.565  1.00  0.00     0.037 A 
BRANCH  56  70
ATOM     70  C   UNL A   1      40.577  34.210  38.625  1.00  0.00     0.058 A 
ATOM     71  C   UNL A   1      41.152  35.489  38.540  1.00  0.00     0.135 A 
ATOM     72  C   UNL A   1      40.004  33.834  39.851  1.00  0.00     0.135 A 
ATOM     73  F   UNL A   1      41.724  35.900  37.397  1.00  0.00    -0.206 F 
ATOM     74  C   UNL A   1      41.211  36.336  39.643  1.00  0.00     0.059 A 
ATOM     75  C   UNL A   1      40.020  34.680  40.957  1.00  0.00     0.059 A 
ATOM     76  F   UNL A   1      39.434  32.626  39.990  1.00  0.00    -0.206 F 
ATOM     77  C   UNL A   1      40.648  35.918  40.849  1.00  0.00     0.060 A 
BRANCH  77  78
ATOM     78  S   UNL A   1      40.765  37.012  42.280  1.00  0.00     0.124 S 
ATOM     79  O   UNL A   1      40.913  38.315  41.638  1.00  0.00    -0.237 OA
ATOM     80  O   UNL A   1      39.493  36.780  42.957  1.00  0.00    -0.237 OA
ATOM     81  O   UNL A   1      41.946  36.525  42.987  1.00  0.00    -0.744 OA
ENDBRANCH  77  78
ENDBRANCH  56  70
BRANCH  57  82
ATOM     82  C   UNL A   1      40.464  28.583  30.361  1.00  0.00     0.058 A 
ATOM     83  C   UNL A   1      41.329  28.921  29.312  1.00  0.00     0.135 A 
ATOM     84  C   UNL A   1      39.662  27.440  30.206  1.00  0.00     0.135 A 
ATOM     85  F   UNL A   1      42.109  30.007  29.410  1.00  0.00    -0.206 F 
ATOM     86  C   UNL A   1      41.407  28.151  28.155  1.00  0.00     0.059 A 
ATOM     87  C   UNL A   1      39.739  26.640  29.071  1.00  0.00     0.059 A 
ATOM     88  F   UNL A   1      38.829  27.065  31.189  1.00  0.00    -0.206 F 
ATOM     89  C   UNL A   1      40.616  27.004  28.050  1.00  0.00     0.060 A 
BRANCH  89  90
ATOM     90  S   UNL A   1      40.803  25.956  26.591  1.00  0.00     0.124 S 
ATOM     91  O   UNL A   1      41.156  26.934  25.569  1.00  0.00    -0.237 OA
ATOM     92  O   UNL A   1      41.868  25.048  27.002  1.00  0.00    -0.237 OA
ATOM     93  O   UNL A   1      39.486  25.341  26.449  1.00  0.00    -0.744 OA
ENDBRANCH  89  90
ENDBRANCH  57  82
BRANCH  69  94
ATOM     94  C   UNL A   1      44.648  28.868  35.960  1.00  0.00     0.058 A 
ATOM     95  C   UNL A   1      44.574  27.635  36.627  1.00  0.00     0.135 A 
ATOM     96  C   UNL A   1      45.921  29.350  35.615  1.00  0.00     0.135 A 
ATOM     97  F   UNL A   1      43.383  27.130  36.985  1.00  0.00    -0.206 F 
ATOM     98  C   UNL A   1      45.720  26.917  36.956  1.00  0.00     0.059 A 
ATOM     99  C   UNL A   1      47.079  28.635  35.908  1.00  0.00     0.059 A 
ATOM    100  F   UNL A   1      46.050  30.520  34.968  1.00  0.00    -0.206 F 
ATOM    101  C   UNL A   1      46.968  27.424  36.589  1.00  0.00     0.060 A 
BRANCH 101 102
ATOM    102  S   UNL A   1      48.444  26.466  36.992  1.00  0.00     0.124 S 
ATOM    103  O   UNL A   1      49.427  27.043  36.081  1.00  0.00    -0.237 OA
ATOM    104  O   UNL A   1      48.636  26.770  38.407  1.00  0.00    -0.237 OA
ATOM    105  O   UNL A   1      48.048  25.092  36.700  1.00  0.00    -0.744 OA
ENDBRANCH 101 102
ENDBRANCH  69  94
ENDBRANCH  43  44
ENDBRANCH  35  38
ENDBRANCH  33  34
ENDBRANCH  32  33
ENDBRANCH   1  32
TORSDOF 20
ENDMDL
