MODEL 1
REMARK VINA RESULT:     -10.2      0.000      0.000
REMARK SMILES C[NH2+]CCCC(=O)N[C@H]1C=C[C@@H](C(=O)NCCCCCCNC(=O)c2ccc(-c3c4nc(c(-c5c(F)cc(S(=O)(=O)[O-])cc5F)c5ccc([nH]5)c(-c5c(F)cc(S(=O)(=O)[O-])cc5F)c5nc(c(-c6c(F)cc(S(=O)(=O)[O-])cc6F)c6ccc3[nH]6)C=C5)C=C4)cc2)C1
REMARK SMILES IDX 17 1 16 2 15 3 13 4 14 5 12 7 9 8 10 9 91 10 11 11 8 12 6 13
REMARK SMILES IDX 7 14 5 16 4 17 3 18 2 19 1 20 18 23 19 24 20 25 21 26 22 27
REMARK SMILES IDX 23 28 24 30 25 31 26 32 90 33 27 34 89 35 28 36 29 37 30 38
REMARK SMILES IDX 83 39 31 40 88 41 82 42 84 43 32 44 87 45 81 46 80 47 33 49
REMARK SMILES IDX 67 50 46 51 66 52 47 53 50 54 65 55 85 56 48 57 49 58 64 60
REMARK SMILES IDX 86 61 51 62 34 63 35 64 44 65 36 66 37 67 43 68 45 69 38 70
REMARK SMILES IDX 39 71 40 72 41 73 42 74 68 75 69 76 78 77 70 78 71 79 77 80
REMARK SMILES IDX 79 81 72 82 73 83 74 84 75 85 76 86 52 87 53 88 62 89 54 90
REMARK SMILES IDX 55 91 61 92 63 93 56 94 57 95 58 96 59 97 60 98
REMARK H PARENT 15 6 8 15 2 21 2 22 22 29 84 48 50 59
REMARK Flexibility Score: inf
ROOT
ATOM      1  C   UNL A   1      39.892  21.819  26.540  1.00  0.00     0.021 C 
ENDROOT
BRANCH   1   2
ATOM      2  C   UNL A   1      38.668  21.473  25.689  1.00  0.00     0.116 C 
BRANCH   2   3
ATOM      3  N   UNL A   1      37.894  22.647  25.334  1.00  0.00    -0.356 N 
ATOM      4  C   UNL A   1      36.552  22.868  25.401  1.00  0.00     0.227 C 
ATOM      5  O   UNL A   1      36.135  23.984  25.078  1.00  0.00    -0.274 OA
ATOM      6  H   UNL A   1      38.422  23.405  24.991  1.00  0.00     0.163 HD
BRANCH   4   7
ATOM      7  C   UNL A   1      35.562  21.767  25.794  1.00  0.00     0.103 C 
ATOM      8  C   UNL A   1      33.294  21.491  26.675  1.00  0.00     0.106 C 
ATOM      9  C   UNL A   1      33.389  21.097  25.230  1.00  0.00    -0.006 C 
ATOM     10  C   UNL A   1      34.609  22.234  26.881  1.00  0.00     0.047 C 
ATOM     11  C   UNL A   1      34.631  21.251  24.745  1.00  0.00    -0.016 C 
BRANCH   8  12
ATOM     12  N   UNL A   1      32.100  22.280  26.878  1.00  0.00    -0.350 N 
ATOM     13  C   UNL A   1      31.868  23.603  26.653  1.00  0.00     0.220 C 
ATOM     14  O   UNL A   1      30.885  24.116  27.192  1.00  0.00    -0.275 OA
ATOM     15  H   UNL A   1      31.331  21.780  27.238  1.00  0.00     0.164 HD
BRANCH  13  16
ATOM     16  C   UNL A   1      32.741  24.419  25.722  1.00  0.00     0.106 C 
BRANCH  16  17
ATOM     17  C   UNL A   1      32.328  24.397  24.256  1.00  0.00     0.071 C 
BRANCH  17  18
ATOM     18  C   UNL A   1      33.362  24.833  23.210  1.00  0.00     0.260 C 
BRANCH  18  19
ATOM     19  N   UNL A   1      33.047  25.876  22.240  1.00  0.00    -0.349 N 
ATOM     20  C   UNL A   1      33.091  27.250  22.700  1.00  0.00     0.330 C 
ATOM     21  H   UNL A   1      33.710  25.788  21.470  1.00  0.00     0.346 HD
ATOM     22  H   UNL A   1      32.070  25.715  21.992  1.00  0.00     0.346 HD
ENDBRANCH  18  19
ENDBRANCH  17  18
ENDBRANCH  16  17
ENDBRANCH  13  16
ENDBRANCH   8  12
ENDBRANCH   4   7
ENDBRANCH   2   3
ENDBRANCH   1   2
BRANCH   1  23
ATOM     23  C   UNL A   1      40.930  20.700  26.645  1.00  0.00     0.002 C 
BRANCH  23  24
ATOM     24  C   UNL A   1      42.356  21.169  26.946  1.00  0.00     0.002 C 
BRANCH  24  25
ATOM     25  C   UNL A   1      42.468  22.260  28.017  1.00  0.00     0.021 C 
BRANCH  25  26
ATOM     26  C   UNL A   1      43.303  23.468  27.603  1.00  0.00     0.116 C 
BRANCH  26  27
ATOM     27  N   UNL A   1      42.825  24.040  26.356  1.00  0.00    -0.352 N 
ATOM     28  C   UNL A   1      42.010  25.122  26.159  1.00  0.00     0.251 C 
ATOM     29  H   UNL A   1      43.130  23.585  25.537  1.00  0.00     0.163 HD
ATOM     30  O   UNL A   1      41.483  25.300  25.057  1.00  0.00    -0.269 OA
BRANCH  28  31
ATOM     31  C   UNL A   1      41.761  26.072  27.261  1.00  0.00     0.039 A 
ATOM     32  C   UNL A   1      40.720  25.815  28.157  1.00  0.00     0.014 A 
ATOM     33  C   UNL A   1      42.537  27.228  27.393  1.00  0.00     0.014 A 
ATOM     34  C   UNL A   1      40.487  26.699  29.213  1.00  0.00     0.010 A 
ATOM     35  C   UNL A   1      42.343  28.072  28.484  1.00  0.00     0.010 A 
ATOM     36  C   UNL A   1      41.311  27.820  29.398  1.00  0.00    -0.014 A 
BRANCH  36  37
ATOM     37  C   UNL A   1      41.105  28.739  30.545  1.00  0.00     0.031 A 
ATOM     38  C   UNL A   1      41.950  28.609  31.783  1.00  0.00     0.074 A 
ATOM     39  C   UNL A   1      40.112  29.649  30.495  1.00  0.00     0.049 A 
ATOM     40  N   UNL A   1      41.889  29.289  32.899  1.00  0.00    -0.248 NA
ATOM     41  C   UNL A   1      42.982  27.559  31.776  1.00  0.00     0.031 C 
ATOM     42  C   UNL A   1      39.185  29.825  29.374  1.00  0.00     0.029 A 
ATOM     43  N   UNL A   1      39.706  30.584  31.411  1.00  0.00    -0.354 N 
ATOM     44  C   UNL A   1      42.858  28.740  33.732  1.00  0.00     0.074 A 
ATOM     45  C   UNL A   1      43.461  27.641  33.009  1.00  0.00     0.031 C 
ATOM     46  C   UNL A   1      38.329  30.817  29.663  1.00  0.00     0.029 A 
ATOM     47  C   UNL A   1      38.625  31.329  30.998  1.00  0.00     0.049 A 
ATOM     48  H   UNL A   1      40.146  30.713  32.282  1.00  0.00     0.167 HD
ATOM     49  C   UNL A   1      43.223  29.129  34.976  1.00  0.00     0.037 A 
ATOM     50  C   UNL A   1      37.946  32.306  31.627  1.00  0.00     0.037 A 
ATOM     51  C   UNL A   1      42.636  30.242  35.677  1.00  0.00     0.049 A 
ATOM     52  C   UNL A   1      38.389  32.743  32.995  1.00  0.00     0.074 A 
ATOM     53  C   UNL A   1      42.991  30.770  36.906  1.00  0.00     0.029 A 
ATOM     54  N   UNL A   1      41.567  30.996  35.212  1.00  0.00    -0.354 N 
ATOM     55  N   UNL A   1      39.364  32.268  33.734  1.00  0.00    -0.248 NA
ATOM     56  C   UNL A   1      37.650  33.851  33.613  1.00  0.00     0.031 C 
ATOM     57  C   UNL A   1      42.109  31.816  37.203  1.00  0.00     0.029 A 
ATOM     58  C   UNL A   1      41.234  31.969  36.139  1.00  0.00     0.049 A 
ATOM     59  H   UNL A   1      41.113  30.859  34.349  1.00  0.00     0.167 HD
ATOM     60  C   UNL A   1      39.366  33.031  34.897  1.00  0.00     0.074 A 
ATOM     61  C   UNL A   1      38.306  34.010  34.754  1.00  0.00     0.031 C 
ATOM     62  C   UNL A   1      40.172  32.931  35.983  1.00  0.00     0.037 A 
BRANCH  49  63
ATOM     63  C   UNL A   1      44.310  28.346  35.660  1.00  0.00     0.058 A 
ATOM     64  C   UNL A   1      45.668  28.663  35.491  1.00  0.00     0.135 A 
ATOM     65  C   UNL A   1      43.991  27.280  36.518  1.00  0.00     0.135 A 
ATOM     66  F   UNL A   1      46.031  29.663  34.671  1.00  0.00    -0.206 F 
ATOM     67  C   UNL A   1      46.671  27.932  36.119  1.00  0.00     0.059 A 
ATOM     68  C   UNL A   1      44.978  26.552  37.178  1.00  0.00     0.059 A 
ATOM     69  F   UNL A   1      42.710  26.934  36.718  1.00  0.00    -0.206 F 
ATOM     70  C   UNL A   1      46.316  26.876  36.960  1.00  0.00     0.060 A 
BRANCH  70  71
ATOM     71  S   UNL A   1      47.629  25.937  37.767  1.00  0.00     0.124 S 
ATOM     72  O   UNL A   1      47.137  25.873  39.140  1.00  0.00    -0.237 OA
ATOM     73  O   UNL A   1      47.613  24.677  37.030  1.00  0.00    -0.237 OA
ATOM     74  O   UNL A   1      48.814  26.764  37.563  1.00  0.00    -0.744 OA
ENDBRANCH  70  71
ENDBRANCH  49  63
BRANCH  50  75
ATOM     75  C   UNL A   1      36.791  32.953  30.950  1.00  0.00     0.058 A 
ATOM     76  C   UNL A   1      35.478  32.723  31.384  1.00  0.00     0.135 A 
ATOM     77  C   UNL A   1      36.982  33.841  29.880  1.00  0.00     0.135 A 
ATOM     78  F   UNL A   1      35.246  31.879  32.400  1.00  0.00    -0.206 F 
ATOM     79  C   UNL A   1      34.391  33.343  30.775  1.00  0.00     0.059 A 
ATOM     80  C   UNL A   1      35.913  34.491  29.270  1.00  0.00     0.059 A 
ATOM     81  F   UNL A   1      38.221  34.109  29.441  1.00  0.00    -0.206 F 
ATOM     82  C   UNL A   1      34.620  34.230  29.721  1.00  0.00     0.060 A 
BRANCH  82  83
ATOM     83  S   UNL A   1      33.209  35.081  28.982  1.00  0.00     0.124 S 
ATOM     84  O   UNL A   1      32.334  35.257  30.134  1.00  0.00    -0.237 OA
ATOM     85  O   UNL A   1      33.825  36.296  28.455  1.00  0.00    -0.237 OA
ATOM     86  O   UNL A   1      32.742  34.137  27.970  1.00  0.00    -0.744 OA
ENDBRANCH  82  83
ENDBRANCH  50  75
BRANCH  62  87
ATOM     87  C   UNL A   1      39.948  33.914  37.097  1.00  0.00     0.058 A 
ATOM     88  C   UNL A   1      40.599  35.158  37.123  1.00  0.00     0.135 A 
ATOM     89  C   UNL A   1      39.040  33.627  38.129  1.00  0.00     0.135 A 
ATOM     90  F   UNL A   1      41.482  35.478  36.164  1.00  0.00    -0.206 F 
ATOM     91  C   UNL A   1      40.379  36.072  38.148  1.00  0.00     0.059 A 
ATOM     92  C   UNL A   1      38.785  34.537  39.150  1.00  0.00     0.059 A 
ATOM     93  F   UNL A   1      38.384  32.456  38.145  1.00  0.00    -0.206 F 
ATOM     94  C   UNL A   1      39.469  35.752  39.159  1.00  0.00     0.060 A 
BRANCH  94  95
ATOM     95  S   UNL A   1      39.173  36.955  40.471  1.00  0.00     0.124 S 
ATOM     96  O   UNL A   1      38.518  38.033  39.738  1.00  0.00    -0.237 OA
ATOM     97  O   UNL A   1      38.325  36.210  41.396  1.00  0.00    -0.237 OA
ATOM     98  O   UNL A   1      40.514  37.256  40.964  1.00  0.00    -0.744 OA
ENDBRANCH  94  95
ENDBRANCH  62  87
ENDBRANCH  36  37
ENDBRANCH  28  31
ENDBRANCH  26  27
ENDBRANCH  25  26
ENDBRANCH  24  25
ENDBRANCH  23  24
ENDBRANCH   1  23
TORSDOF 21
ENDMDL
MODEL 2
REMARK VINA RESULT:     -10.2      1.193      2.102
REMARK SMILES C[NH2+]CCCC(=O)N[C@H]1C=C[C@@H](C(=O)NCCCCCCNC(=O)c2ccc(-c3c4nc(c(-c5c(F)cc(S(=O)(=O)[O-])cc5F)c5ccc([nH]5)c(-c5c(F)cc(S(=O)(=O)[O-])cc5F)c5nc(c(-c6c(F)cc(S(=O)(=O)[O-])cc6F)c6ccc3[nH]6)C=C5)C=C4)cc2)C1
REMARK SMILES IDX 17 1 16 2 15 3 13 4 14 5 12 7 9 8 10 9 91 10 11 11 8 12 6 13
REMARK SMILES IDX 7 14 5 16 4 17 3 18 2 19 1 20 18 23 19 24 20 25 21 26 22 27
REMARK SMILES IDX 23 28 24 30 25 31 26 32 90 33 27 34 89 35 28 36 29 37 30 38
REMARK SMILES IDX 83 39 31 40 88 41 82 42 84 43 32 44 87 45 81 46 80 47 33 49
REMARK SMILES IDX 67 50 46 51 66 52 47 53 50 54 65 55 85 56 48 57 49 58 64 60
REMARK SMILES IDX 86 61 51 62 34 63 35 64 44 65 36 66 37 67 43 68 45 69 38 70
REMARK SMILES IDX 39 71 40 72 41 73 42 74 68 75 69 76 78 77 70 78 71 79 77 80
REMARK SMILES IDX 79 81 72 82 73 83 74 84 75 85 76 86 52 87 53 88 62 89 54 90
REMARK SMILES IDX 55 91 61 92 63 93 56 94 57 95 58 96 59 97 60 98
REMARK H PARENT 15 6 8 15 2 21 2 22 22 29 84 48 50 59
REMARK Flexibility Score: inf
ROOT
ATOM      1  C   UNL A   1      38.938  23.530  26.455  1.00  0.00     0.021 C 
ENDROOT
BRANCH   1   2
ATOM      2  C   UNL A   1      37.458  23.788  26.163  1.00  0.00     0.116 C 
BRANCH   2   3
ATOM      3  N   UNL A   1      36.669  22.572  26.196  1.00  0.00    -0.356 N 
ATOM      4  C   UNL A   1      35.320  22.401  26.270  1.00  0.00     0.227 C 
ATOM      5  O   UNL A   1      34.884  21.246  26.238  1.00  0.00    -0.274 OA
ATOM      6  H   UNL A   1      37.192  21.737  26.159  1.00  0.00     0.163 HD
BRANCH   4   7
ATOM      7  C   UNL A   1      34.358  23.577  26.457  1.00  0.00     0.103 C 
ATOM      8  C   UNL A   1      33.025  25.156  25.142  1.00  0.00     0.106 C 
ATOM      9  C   UNL A   1      32.168  24.148  25.850  1.00  0.00    -0.006 C 
ATOM     10  C   UNL A   1      34.411  24.536  25.279  1.00  0.00     0.047 C 
ATOM     11  C   UNL A   1      32.897  23.280  26.567  1.00  0.00    -0.016 C 
BRANCH   8  12
ATOM     12  N   UNL A   1      32.553  25.319  23.785  1.00  0.00    -0.350 N 
ATOM     13  C   UNL A   1      31.469  25.987  23.302  1.00  0.00     0.220 C 
ATOM     14  O   UNL A   1      31.094  25.726  22.158  1.00  0.00    -0.275 OA
ATOM     15  H   UNL A   1      33.104  24.874  23.100  1.00  0.00     0.164 HD
BRANCH  13  16
ATOM     16  C   UNL A   1      30.775  27.067  24.107  1.00  0.00     0.106 C 
BRANCH  16  17
ATOM     17  C   UNL A   1      31.310  28.478  23.903  1.00  0.00     0.071 C 
BRANCH  17  18
ATOM     18  C   UNL A   1      31.708  28.900  22.482  1.00  0.00     0.260 C 
BRANCH  18  19
ATOM     19  N   UNL A   1      30.984  29.959  21.790  1.00  0.00    -0.349 N 
ATOM     20  C   UNL A   1      29.576  30.117  22.096  1.00  0.00     0.330 C 
ATOM     21  H   UNL A   1      31.447  30.842  22.012  1.00  0.00     0.346 HD
ATOM     22  H   UNL A   1      31.009  29.692  20.805  1.00  0.00     0.346 HD
ENDBRANCH  18  19
ENDBRANCH  17  18
ENDBRANCH  16  17
ENDBRANCH  13  16
ENDBRANCH   8  12
ENDBRANCH   4   7
ENDBRANCH   2   3
ENDBRANCH   1   2
BRANCH   1  23
ATOM     23  C   UNL A   1      39.341  22.055  26.438  1.00  0.00     0.002 C 
BRANCH  23  24
ATOM     24  C   UNL A   1      40.831  21.791  26.668  1.00  0.00     0.002 C 
BRANCH  24  25
ATOM     25  C   UNL A   1      41.371  22.255  28.026  1.00  0.00     0.021 C 
BRANCH  25  26
ATOM     26  C   UNL A   1      42.573  23.190  27.942  1.00  0.00     0.116 C 
BRANCH  26  27
ATOM     27  N   UNL A   1      42.608  23.896  26.672  1.00  0.00    -0.352 N 
ATOM     28  C   UNL A   1      42.187  25.165  26.379  1.00  0.00     0.251 C 
ATOM     29  H   UNL A   1      42.986  23.390  25.916  1.00  0.00     0.163 HD
ATOM     30  O   UNL A   1      42.034  25.503  25.202  1.00  0.00    -0.269 OA
BRANCH  28  31
ATOM     31  C   UNL A   1      41.916  26.125  27.467  1.00  0.00     0.039 A 
ATOM     32  C   UNL A   1      40.794  25.936  28.277  1.00  0.00     0.014 A 
ATOM     33  C   UNL A   1      42.755  27.227  27.669  1.00  0.00     0.014 A 
ATOM     34  C   UNL A   1      40.538  26.829  29.319  1.00  0.00     0.010 A 
ATOM     35  C   UNL A   1      42.533  28.078  28.749  1.00  0.00     0.010 A 
ATOM     36  C   UNL A   1      41.418  27.892  29.578  1.00  0.00    -0.014 A 
BRANCH  36  37
ATOM     37  C   UNL A   1      41.184  28.818  30.714  1.00  0.00     0.031 A 
ATOM     38  C   UNL A   1      42.007  28.704  31.968  1.00  0.00     0.074 A 
ATOM     39  C   UNL A   1      40.186  29.720  30.638  1.00  0.00     0.049 A 
ATOM     40  N   UNL A   1      41.921  29.392  33.077  1.00  0.00    -0.248 NA
ATOM     41  C   UNL A   1      43.047  27.662  31.988  1.00  0.00     0.031 C 
ATOM     42  C   UNL A   1      39.279  29.881  29.499  1.00  0.00     0.029 A 
ATOM     43  N   UNL A   1      39.757  30.660  31.539  1.00  0.00    -0.354 N 
ATOM     44  C   UNL A   1      42.879  28.857  33.932  1.00  0.00     0.074 A 
ATOM     45  C   UNL A   1      43.503  27.757  33.229  1.00  0.00     0.031 C 
ATOM     46  C   UNL A   1      38.410  30.869  29.765  1.00  0.00     0.029 A 
ATOM     47  C   UNL A   1      38.678  31.393  31.101  1.00  0.00     0.049 A 
ATOM     48  H   UNL A   1      40.180  30.798  32.417  1.00  0.00     0.167 HD
ATOM     49  C   UNL A   1      43.219  29.258  35.179  1.00  0.00     0.037 A 
ATOM     50  C   UNL A   1      37.981  32.371  31.709  1.00  0.00     0.037 A 
ATOM     51  C   UNL A   1      42.611  30.372  35.860  1.00  0.00     0.049 A 
ATOM     52  C   UNL A   1      38.395  32.821  33.082  1.00  0.00     0.074 A 
ATOM     53  C   UNL A   1      42.939  30.913  37.091  1.00  0.00     0.029 A 
ATOM     54  N   UNL A   1      41.545  31.115  35.370  1.00  0.00    -0.354 N 
ATOM     55  N   UNL A   1      39.360  32.359  33.842  1.00  0.00    -0.248 NA
ATOM     56  C   UNL A   1      37.637  33.929  33.677  1.00  0.00     0.031 C 
ATOM     57  C   UNL A   1      42.045  31.954  37.364  1.00  0.00     0.029 A 
ATOM     58  C   UNL A   1      41.188  32.093  36.283  1.00  0.00     0.049 A 
ATOM     59  H   UNL A   1      41.108  30.967  34.501  1.00  0.00     0.167 HD
ATOM     60  C   UNL A   1      39.336  33.131  34.999  1.00  0.00     0.074 A 
ATOM     61  C   UNL A   1      38.272  34.101  34.829  1.00  0.00     0.031 C 
ATOM     62  C   UNL A   1      40.122  33.046  36.100  1.00  0.00     0.037 A 
BRANCH  49  63
ATOM     63  C   UNL A   1      44.299  28.488  35.889  1.00  0.00     0.058 A 
ATOM     64  C   UNL A   1      44.001  27.408  36.737  1.00  0.00     0.135 A 
ATOM     65  C   UNL A   1      45.652  28.817  35.701  1.00  0.00     0.135 A 
ATOM     66  F   UNL A   1      42.725  27.060  36.964  1.00  0.00    -0.206 F 
ATOM     67  C   UNL A   1      45.002  26.703  37.397  1.00  0.00     0.059 A 
ATOM     68  C   UNL A   1      46.671  28.108  36.331  1.00  0.00     0.059 A 
ATOM     69  F   UNL A   1      45.994  29.839  34.901  1.00  0.00    -0.206 F 
ATOM     70  C   UNL A   1      46.335  27.063  37.190  1.00  0.00     0.060 A 
BRANCH  70  71
ATOM     71  S   UNL A   1      47.622  26.139  38.055  1.00  0.00     0.124 S 
ATOM     72  O   UNL A   1      47.161  26.224  39.437  1.00  0.00    -0.237 OA
ATOM     73  O   UNL A   1      47.531  24.820  37.437  1.00  0.00    -0.237 OA
ATOM     74  O   UNL A   1      48.839  26.887  37.753  1.00  0.00    -0.744 OA
ENDBRANCH  70  71
ENDBRANCH  49  63
BRANCH  50  75
ATOM     75  C   UNL A   1      36.834  33.003  31.007  1.00  0.00     0.058 A 
ATOM     76  C   UNL A   1      35.512  32.693  31.355  1.00  0.00     0.135 A 
ATOM     77  C   UNL A   1      37.038  33.957  29.997  1.00  0.00     0.135 A 
ATOM     78  F   UNL A   1      35.267  31.784  32.311  1.00  0.00    -0.206 F 
ATOM     79  C   UNL A   1      34.431  33.298  30.722  1.00  0.00     0.059 A 
ATOM     80  C   UNL A   1      35.974  34.593  29.366  1.00  0.00     0.059 A 
ATOM     81  F   UNL A   1      38.285  34.303  29.641  1.00  0.00    -0.206 F 
ATOM     82  C   UNL A   1      34.672  34.252  29.732  1.00  0.00     0.060 A 
BRANCH  82  83
ATOM     83  S   UNL A   1      33.264  35.081  28.964  1.00  0.00     0.124 S 
ATOM     84  O   UNL A   1      32.799  34.066  28.027  1.00  0.00    -0.237 OA
ATOM     85  O   UNL A   1      32.396  35.338  30.110  1.00  0.00    -0.237 OA
ATOM     86  O   UNL A   1      33.863  36.270  28.364  1.00  0.00    -0.744 OA
ENDBRANCH  82  83
ENDBRANCH  50  75
BRANCH  62  87
ATOM     87  C   UNL A   1      39.870  34.036  37.202  1.00  0.00     0.058 A 
ATOM     88  C   UNL A   1      38.983  33.756  38.253  1.00  0.00     0.135 A 
ATOM     89  C   UNL A   1      40.556  35.261  37.230  1.00  0.00     0.135 A 
ATOM     90  F   UNL A   1      38.297  32.602  38.269  1.00  0.00    -0.206 F 
ATOM     91  C   UNL A   1      38.763  34.668  39.280  1.00  0.00     0.059 A 
ATOM     92  C   UNL A   1      40.371  36.176  38.261  1.00  0.00     0.059 A 
ATOM     93  F   UNL A   1      41.424  35.572  36.254  1.00  0.00    -0.206 F 
ATOM     94  C   UNL A   1      39.462  35.878  39.275  1.00  0.00     0.060 A 
BRANCH  94  95
ATOM     95  S   UNL A   1      39.187  37.043  40.625  1.00  0.00     0.124 S 
ATOM     96  O   UNL A   1      38.258  37.987  40.014  1.00  0.00    -0.237 OA
ATOM     97  O   UNL A   1      38.629  36.189  41.669  1.00  0.00    -0.237 OA
ATOM     98  O   UNL A   1      40.523  37.565  40.899  1.00  0.00    -0.744 OA
ENDBRANCH  94  95
ENDBRANCH  62  87
ENDBRANCH  36  37
ENDBRANCH  28  31
ENDBRANCH  26  27
ENDBRANCH  25  26
ENDBRANCH  24  25
ENDBRANCH  23  24
ENDBRANCH   1  23
TORSDOF 21
ENDMDL
MODEL 3
REMARK VINA RESULT:     -10.0      6.586     12.235
REMARK SMILES C[NH2+]CCCC(=O)N[C@H]1C=C[C@@H](C(=O)NCCCCCCNC(=O)c2ccc(-c3c4nc(c(-c5c(F)cc(S(=O)(=O)[O-])cc5F)c5ccc([nH]5)c(-c5c(F)cc(S(=O)(=O)[O-])cc5F)c5nc(c(-c6c(F)cc(S(=O)(=O)[O-])cc6F)c6ccc3[nH]6)C=C5)C=C4)cc2)C1
REMARK SMILES IDX 17 1 16 2 15 3 13 4 14 5 12 7 9 8 10 9 91 10 11 11 8 12 6 13
REMARK SMILES IDX 7 14 5 16 4 17 3 18 2 19 1 20 18 23 19 24 20 25 21 26 22 27
REMARK SMILES IDX 23 28 24 30 25 31 26 32 90 33 27 34 89 35 28 36 29 37 30 38
REMARK SMILES IDX 83 39 31 40 88 41 82 42 84 43 32 44 87 45 81 46 80 47 33 49
REMARK SMILES IDX 67 50 46 51 66 52 47 53 50 54 65 55 85 56 48 57 49 58 64 60
REMARK SMILES IDX 86 61 51 62 34 63 35 64 44 65 36 66 37 67 43 68 45 69 38 70
REMARK SMILES IDX 39 71 40 72 41 73 42 74 68 75 69 76 78 77 70 78 71 79 77 80
REMARK SMILES IDX 79 81 72 82 73 83 74 84 75 85 76 86 52 87 53 88 62 89 54 90
REMARK SMILES IDX 55 91 61 92 63 93 56 94 57 95 58 96 59 97 60 98
REMARK H PARENT 15 6 8 15 2 21 2 22 22 29 84 48 50 59
REMARK Flexibility Score: inf
ROOT
ATOM      1  C   UNL A   1      33.307  29.155  24.468  1.00  0.00     0.021 C 
ENDROOT
BRANCH   1   2
ATOM      2  C   UNL A   1      33.195  28.832  22.976  1.00  0.00     0.116 C 
BRANCH   2   3
ATOM      3  N   UNL A   1      31.981  29.365  22.386  1.00  0.00    -0.356 N 
ATOM      4  C   UNL A   1      30.765  28.782  22.202  1.00  0.00     0.227 C 
ATOM      5  O   UNL A   1      29.866  29.471  21.710  1.00  0.00    -0.274 OA
ATOM      6  H   UNL A   1      32.048  30.296  22.069  1.00  0.00     0.163 HD
BRANCH   4   7
ATOM      7  C   UNL A   1      30.510  27.306  22.521  1.00  0.00     0.103 C 
ATOM      8  C   UNL A   1      31.723  25.198  22.807  1.00  0.00     0.106 C 
ATOM      9  C   UNL A   1      31.193  25.725  24.109  1.00  0.00    -0.006 C 
ATOM     10  C   UNL A   1      31.565  26.409  21.895  1.00  0.00     0.047 C 
ATOM     11  C   UNL A   1      30.532  26.882  23.954  1.00  0.00    -0.016 C 
BRANCH   8  12
ATOM     12  N   UNL A   1      33.081  24.738  22.994  1.00  0.00    -0.350 N 
ATOM     13  C   UNL A   1      33.576  23.475  23.117  1.00  0.00     0.220 C 
ATOM     14  O   UNL A   1      34.710  23.343  23.580  1.00  0.00    -0.275 OA
ATOM     15  H   UNL A   1      33.757  25.453  23.039  1.00  0.00     0.164 HD
BRANCH  13  16
ATOM     16  C   UNL A   1      32.797  22.264  22.646  1.00  0.00     0.106 C 
BRANCH  16  17
ATOM     17  C   UNL A   1      32.289  21.346  23.750  1.00  0.00     0.071 C 
BRANCH  17  18
ATOM     18  C   UNL A   1      33.047  20.037  24.005  1.00  0.00     0.260 C 
BRANCH  18  19
ATOM     19  N   UNL A   1      32.337  18.833  24.422  1.00  0.00    -0.349 N 
ATOM     20  C   UNL A   1      32.733  18.226  25.676  1.00  0.00     0.330 C 
ATOM     21  H   UNL A   1      31.347  19.071  24.495  1.00  0.00     0.346 HD
ATOM     22  H   UNL A   1      32.565  18.137  23.711  1.00  0.00     0.346 HD
ENDBRANCH  18  19
ENDBRANCH  17  18
ENDBRANCH  16  17
ENDBRANCH  13  16
ENDBRANCH   8  12
ENDBRANCH   4   7
ENDBRANCH   2   3
ENDBRANCH   1   2
BRANCH   1  23
ATOM     23  C   UNL A   1      33.900  28.031  25.318  1.00  0.00     0.002 C 
BRANCH  23  24
ATOM     24  C   UNL A   1      33.689  28.183  26.827  1.00  0.00     0.002 C 
BRANCH  24  25
ATOM     25  C   UNL A   1      34.061  29.556  27.399  1.00  0.00     0.021 C 
BRANCH  25  26
ATOM     26  C   UNL A   1      35.466  29.636  27.987  1.00  0.00     0.116 C 
BRANCH  26  27
ATOM     27  N   UNL A   1      35.467  30.339  29.260  1.00  0.00    -0.352 N 
ATOM     28  C   UNL A   1      36.475  30.457  30.179  1.00  0.00     0.251 C 
ATOM     29  H   UNL A   1      34.626  30.794  29.494  1.00  0.00     0.163 HD
ATOM     30  O   UNL A   1      36.220  30.850  31.320  1.00  0.00    -0.269 OA
BRANCH  28  31
ATOM     31  C   UNL A   1      37.862  30.115  29.806  1.00  0.00     0.039 A 
ATOM     32  C   UNL A   1      38.765  29.753  30.808  1.00  0.00     0.014 A 
ATOM     33  C   UNL A   1      38.276  30.177  28.471  1.00  0.00     0.014 A 
ATOM     34  C   UNL A   1      40.075  29.412  30.464  1.00  0.00     0.010 A 
ATOM     35  C   UNL A   1      39.562  29.774  28.125  1.00  0.00     0.010 A 
ATOM     36  C   UNL A   1      40.477  29.396  29.119  1.00  0.00    -0.014 A 
BRANCH  36  37
ATOM     37  C   UNL A   1      41.851  28.986  28.736  1.00  0.00     0.031 A 
ATOM     38  C   UNL A   1      42.960  30.002  28.685  1.00  0.00     0.074 A 
ATOM     39  C   UNL A   1      42.083  27.710  28.372  1.00  0.00     0.049 A 
ATOM     40  N   UNL A   1      44.209  29.842  28.333  1.00  0.00    -0.248 NA
ATOM     41  C   UNL A   1      42.611  31.384  29.053  1.00  0.00     0.031 C 
ATOM     42  C   UNL A   1      41.073  26.651  28.319  1.00  0.00     0.029 A 
ATOM     43  N   UNL A   1      43.236  27.090  27.963  1.00  0.00    -0.354 N 
ATOM     44  C   UNL A   1      44.792  31.102  28.418  1.00  0.00     0.074 A 
ATOM     45  C   UNL A   1      43.748  32.023  28.812  1.00  0.00     0.031 C 
ATOM     46  C   UNL A   1      41.653  25.509  27.916  1.00  0.00     0.029 A 
ATOM     47  C   UNL A   1      43.067  25.760  27.654  1.00  0.00     0.049 A 
ATOM     48  H   UNL A   1      44.102  27.552  27.898  1.00  0.00     0.167 HD
ATOM     49  C   UNL A   1      46.082  31.454  28.207  1.00  0.00     0.037 A 
ATOM     50  C   UNL A   1      43.951  24.849  27.204  1.00  0.00     0.037 A 
ATOM     51  C   UNL A   1      47.120  30.525  27.844  1.00  0.00     0.049 A 
ATOM     52  C   UNL A   1      45.385  25.255  27.006  1.00  0.00     0.074 A 
ATOM     53  C   UNL A   1      48.475  30.763  27.688  1.00  0.00     0.029 A 
ATOM     54  N   UNL A   1      46.920  29.178  27.574  1.00  0.00    -0.354 N 
ATOM     55  N   UNL A   1      45.937  26.433  27.175  1.00  0.00    -0.248 NA
ATOM     56  C   UNL A   1      46.318  24.209  26.568  1.00  0.00     0.031 C 
ATOM     57  C   UNL A   1      49.085  29.571  27.283  1.00  0.00     0.029 A 
ATOM     58  C   UNL A   1      48.120  28.578  27.230  1.00  0.00     0.049 A 
ATOM     59  H   UNL A   1      46.051  28.716  27.621  1.00  0.00     0.167 HD
ATOM     60  C   UNL A   1      47.285  26.267  26.879  1.00  0.00     0.074 A 
ATOM     61  C   UNL A   1      47.468  24.870  26.540  1.00  0.00     0.031 C 
ATOM     62  C   UNL A   1      48.282  27.187  26.889  1.00  0.00     0.037 A 
BRANCH  49  63
ATOM     63  C   UNL A   1      46.444  32.905  28.366  1.00  0.00     0.058 A 
ATOM     64  C   UNL A   1      46.464  33.786  27.272  1.00  0.00     0.135 A 
ATOM     65  C   UNL A   1      46.751  33.431  29.632  1.00  0.00     0.135 A 
ATOM     66  F   UNL A   1      46.193  33.334  26.037  1.00  0.00    -0.206 F 
ATOM     67  C   UNL A   1      46.806  35.126  27.421  1.00  0.00     0.059 A 
ATOM     68  C   UNL A   1      47.069  34.774  29.809  1.00  0.00     0.059 A 
ATOM     69  F   UNL A   1      46.746  32.635  30.713  1.00  0.00    -0.206 F 
ATOM     70  C   UNL A   1      47.110  35.610  28.694  1.00  0.00     0.060 A 
BRANCH  70  71
ATOM     71  S   UNL A   1      47.553  37.351  28.871  1.00  0.00     0.124 S 
ATOM     72  O   UNL A   1      48.481  37.529  27.758  1.00  0.00    -0.237 OA
ATOM     73  O   UNL A   1      46.263  38.020  28.733  1.00  0.00    -0.237 OA
ATOM     74  O   UNL A   1      48.150  37.417  30.202  1.00  0.00    -0.744 OA
ENDBRANCH  70  71
ENDBRANCH  49  63
BRANCH  50  75
ATOM     75  C   UNL A   1      43.501  23.458  26.936  1.00  0.00     0.058 A 
ATOM     76  C   UNL A   1      43.243  22.567  27.986  1.00  0.00     0.135 A 
ATOM     77  C   UNL A   1      43.287  23.006  25.625  1.00  0.00     0.135 A 
ATOM     78  F   UNL A   1      43.437  22.953  29.256  1.00  0.00    -0.206 F 
ATOM     79  C   UNL A   1      42.796  21.271  27.748  1.00  0.00     0.059 A 
ATOM     80  C   UNL A   1      42.819  21.722  25.362  1.00  0.00     0.059 A 
ATOM     81  F   UNL A   1      43.501  23.827  24.585  1.00  0.00    -0.206 F 
ATOM     82  C   UNL A   1      42.582  20.859  26.431  1.00  0.00     0.060 A 
BRANCH  82  83
ATOM     83  S   UNL A   1      41.938  19.198  26.135  1.00  0.00     0.124 S 
ATOM     84  O   UNL A   1      42.259  18.529  27.390  1.00  0.00    -0.237 OA
ATOM     85  O   UNL A   1      40.521  19.456  25.893  1.00  0.00    -0.237 OA
ATOM     86  O   UNL A   1      42.693  18.750  24.968  1.00  0.00    -0.744 OA
ENDBRANCH  82  83
ENDBRANCH  50  75
BRANCH  62  87
ATOM     87  C   UNL A   1      49.662  26.708  26.534  1.00  0.00     0.058 A 
ATOM     88  C   UNL A   1      50.502  26.115  27.490  1.00  0.00     0.135 A 
ATOM     89  C   UNL A   1      50.134  26.807  25.216  1.00  0.00     0.135 A 
ATOM     90  F   UNL A   1      50.101  26.004  28.766  1.00  0.00    -0.206 F 
ATOM     91  C   UNL A   1      51.773  25.660  27.156  1.00  0.00     0.059 A 
ATOM     92  C   UNL A   1      51.391  26.335  24.854  1.00  0.00     0.059 A 
ATOM     93  F   UNL A   1      49.365  27.357  24.262  1.00  0.00    -0.206 F 
ATOM     94  C   UNL A   1      52.210  25.775  25.834  1.00  0.00     0.060 A 
BRANCH  94  95
ATOM     95  S   UNL A   1      53.852  25.159  25.407  1.00  0.00     0.124 S 
ATOM     96  O   UNL A   1      53.639  23.716  25.432  1.00  0.00    -0.237 OA
ATOM     97  O   UNL A   1      54.074  25.745  24.089  1.00  0.00    -0.237 OA
ATOM     98  O   UNL A   1      54.700  25.688  26.472  1.00  0.00    -0.744 OA
ENDBRANCH  94  95
ENDBRANCH  62  87
ENDBRANCH  36  37
ENDBRANCH  28  31
ENDBRANCH  26  27
ENDBRANCH  25  26
ENDBRANCH  24  25
ENDBRANCH  23  24
ENDBRANCH   1  23
TORSDOF 21
ENDMDL
