MODEL 1
REMARK VINA RESULT:     -12.9      0.000      0.000
REMARK SMILES O=C(NCCCCCCNC(=O)c1ccc2nc(-c3c[nH]nc3-c3ccc(F)cc3F)[nH]c2c1)c1ccc(-c2c3nc(c(-c4c(F)cc(S(=O)(=O)[O-])cc4F)c4ccc([nH]4)c(-c4c(F)cc(S(=O)(=O)[O-])cc4F)c4nc(c(-c5c(F)cc(S(=O)(=O)[O-])cc5F)c5ccc2[nH]5)C=C4)C=C3)cc1
REMARK SMILES IDX 6 1 5 2 4 3 3 4 1 5 2 6 35 8 36 9 100 10 37 11 99 12 38 13
REMARK SMILES IDX 39 14 40 15 93 16 41 17 98 18 92 19 94 20 42 21 97 22 91 23
REMARK SMILES IDX 90 24 43 26 77 27 56 28 76 29 57 30 60 31 75 32 95 33 58 34
REMARK SMILES IDX 59 35 74 37 96 38 61 39 44 40 45 41 54 42 46 43 47 44 53 45
REMARK SMILES IDX 55 46 48 47 49 48 50 49 51 50 52 51 78 52 79 53 88 54 80 55
REMARK SMILES IDX 81 56 87 57 89 58 82 59 83 60 84 61 85 62 86 63 62 64 63 65
REMARK SMILES IDX 72 66 64 67 65 68 71 69 73 70 66 71 67 72 68 73 69 74 70 75
REMARK SMILES IDX 7 76 8 77 9 78 10 79 11 80 12 82 13 83 14 84 34 85 15 86
REMARK SMILES IDX 33 87 16 88 32 89 17 90 18 91 19 93 20 94 23 95 21 96 22 97
REMARK SMILES IDX 24 99 25 100 30 101 26 102 29 103 31 104 27 105 28 106
REMARK H PARENT 3 7 94 25 60 36 10 81 32 92 21 98
REMARK Flexibility Score: inf
ROOT
ATOM      1  C   UNL A   1      37.894  23.663  25.757  1.00  0.00     0.002 C 
ENDROOT
BRANCH   1   2
ATOM      2  C   UNL A   1      38.891  22.781  26.509  1.00  0.00     0.021 C 
BRANCH   2   3
ATOM      3  C   UNL A   1      40.107  23.506  27.067  1.00  0.00     0.116 C 
BRANCH   3   4
ATOM      4  N   UNL A   1      40.869  24.208  26.048  1.00  0.00    -0.352 N 
ATOM      5  O   UNL A   1      41.797  25.991  25.023  1.00  0.00    -0.269 OA
ATOM      6  C   UNL A   1      41.267  25.525  26.027  1.00  0.00     0.251 C 
ATOM      7  H   UNL A   1      41.138  23.668  25.270  1.00  0.00     0.163 HD
BRANCH   6   8
ATOM      8  C   UNL A   1      41.024  26.383  27.210  1.00  0.00     0.039 A 
ATOM      9  C   UNL A   1      41.777  27.540  27.415  1.00  0.00     0.014 A 
ATOM     10  C   UNL A   1      40.036  26.019  28.132  1.00  0.00     0.014 A 
ATOM     11  C   UNL A   1      41.646  28.247  28.603  1.00  0.00     0.010 A 
ATOM     12  C   UNL A   1      39.844  26.785  29.287  1.00  0.00     0.010 A 
ATOM     13  C   UNL A   1      40.667  27.891  29.547  1.00  0.00    -0.014 A 
BRANCH  13  14
ATOM     14  C   UNL A   1      40.492  28.748  30.749  1.00  0.00     0.031 A 
ATOM     15  C   UNL A   1      41.428  28.659  31.924  1.00  0.00     0.074 A 
ATOM     16  C   UNL A   1      39.510  29.670  30.732  1.00  0.00     0.049 A 
ATOM     17  N   UNL A   1      41.457  29.399  33.004  1.00  0.00    -0.248 NA
ATOM     18  C   UNL A   1      42.457  27.609  31.893  1.00  0.00     0.031 C 
ATOM     19  C   UNL A   1      38.528  29.830  29.653  1.00  0.00     0.029 A 
ATOM     20  N   UNL A   1      39.194  30.670  31.614  1.00  0.00    -0.354 N 
ATOM     21  C   UNL A   1      42.494  28.901  33.784  1.00  0.00     0.074 A 
ATOM     22  C   UNL A   1      43.057  27.779  33.065  1.00  0.00     0.031 C 
ATOM     23  C   UNL A   1      37.774  30.911  29.900  1.00  0.00     0.029 A 
ATOM     24  C   UNL A   1      38.174  31.484  31.180  1.00  0.00     0.049 A 
ATOM     25  H   UNL A   1      39.654  30.794  32.477  1.00  0.00     0.167 HD
ATOM     26  C   UNL A   1      42.937  29.347  34.985  1.00  0.00     0.037 A 
ATOM     27  C   UNL A   1      37.619  32.573  31.745  1.00  0.00     0.037 A 
ATOM     28  C   UNL A   1      42.381  30.478  35.685  1.00  0.00     0.049 A 
ATOM     29  C   UNL A   1      38.141  33.049  33.069  1.00  0.00     0.074 A 
ATOM     30  C   UNL A   1      42.771  31.013  36.902  1.00  0.00     0.029 A 
ATOM     31  N   UNL A   1      41.324  31.253  35.232  1.00  0.00    -0.354 N 
ATOM     32  N   UNL A   1      39.126  32.564  33.786  1.00  0.00    -0.248 NA
ATOM     33  C   UNL A   1      37.471  34.212  33.664  1.00  0.00     0.031 C 
ATOM     34  C   UNL A   1      41.931  32.093  37.198  1.00  0.00     0.029 A 
ATOM     35  C   UNL A   1      41.042  32.254  36.148  1.00  0.00     0.049 A 
ATOM     36  H   UNL A   1      40.845  31.113  34.384  1.00  0.00     0.167 HD
ATOM     37  C   UNL A   1      39.191  33.360  34.921  1.00  0.00     0.074 A 
ATOM     38  C   UNL A   1      38.170  34.379  34.778  1.00  0.00     0.031 C 
ATOM     39  C   UNL A   1      40.013  33.250  35.994  1.00  0.00     0.037 A 
BRANCH  26  40
ATOM     40  C   UNL A   1      44.082  28.619  35.633  1.00  0.00     0.058 A 
ATOM     41  C   UNL A   1      45.409  28.943  35.311  1.00  0.00     0.135 A 
ATOM     42  C   UNL A   1      43.863  27.538  36.502  1.00  0.00     0.135 A 
ATOM     43  F   UNL A   1      45.673  29.968  34.486  1.00  0.00    -0.206 F 
ATOM     44  C   UNL A   1      46.484  28.210  35.812  1.00  0.00     0.059 A 
ATOM     45  C   UNL A   1      44.921  26.805  37.029  1.00  0.00     0.059 A 
ATOM     46  F   UNL A   1      42.614  27.198  36.856  1.00  0.00    -0.206 F 
ATOM     47  C   UNL A   1      46.228  27.145  36.674  1.00  0.00     0.060 A 
BRANCH  47  48
ATOM     48  S   UNL A   1      47.586  26.156  37.337  1.00  0.00     0.124 S 
ATOM     49  O   UNL A   1      47.503  24.955  36.511  1.00  0.00    -0.237 OA
ATOM     50  O   UNL A   1      48.743  27.013  37.094  1.00  0.00    -0.237 OA
ATOM     51  O   UNL A   1      47.225  25.977  38.740  1.00  0.00    -0.744 OA
ENDBRANCH  47  48
ENDBRANCH  26  40
BRANCH  27  52
ATOM     52  C   UNL A   1      36.510  33.279  31.056  1.00  0.00     0.058 A 
ATOM     53  C   UNL A   1      36.754  34.100  29.943  1.00  0.00     0.135 A 
ATOM     54  C   UNL A   1      35.188  33.168  31.512  1.00  0.00     0.135 A 
ATOM     55  F   UNL A   1      38.005  34.252  29.482  1.00  0.00    -0.206 F 
ATOM     56  C   UNL A   1      35.731  34.798  29.312  1.00  0.00     0.059 A 
ATOM     57  C   UNL A   1      34.144  33.835  30.880  1.00  0.00     0.059 A 
ATOM     58  F   UNL A   1      34.906  32.393  32.569  1.00  0.00    -0.206 F 
ATOM     59  C   UNL A   1      34.427  34.650  29.782  1.00  0.00     0.060 A 
BRANCH  59  60
ATOM     60  S   UNL A   1      33.074  35.554  28.999  1.00  0.00     0.124 S 
ATOM     61  O   UNL A   1      32.338  36.042  30.159  1.00  0.00    -0.237 OA
ATOM     62  O   UNL A   1      33.786  36.565  28.223  1.00  0.00    -0.237 OA
ATOM     63  O   UNL A   1      32.402  34.529  28.207  1.00  0.00    -0.744 OA
ENDBRANCH  59  60
ENDBRANCH  27  52
BRANCH  39  64
ATOM     64  C   UNL A   1      39.832  34.256  37.093  1.00  0.00     0.058 A 
ATOM     65  C   UNL A   1      40.524  35.477  37.068  1.00  0.00     0.135 A 
ATOM     66  C   UNL A   1      38.980  34.002  38.179  1.00  0.00     0.135 A 
ATOM     67  F   UNL A   1      41.356  35.762  36.054  1.00  0.00    -0.206 F 
ATOM     68  C   UNL A   1      40.374  36.418  38.081  1.00  0.00     0.059 A 
ATOM     69  C   UNL A   1      38.797  34.938  39.190  1.00  0.00     0.059 A 
ATOM     70  F   UNL A   1      38.290  32.852  38.242  1.00  0.00    -0.206 F 
ATOM     71  C   UNL A   1      39.496  36.146  39.129  1.00  0.00     0.060 A 
BRANCH  71  72
ATOM     72  S   UNL A   1      39.253  37.351  40.451  1.00  0.00     0.124 S 
ATOM     73  O   UNL A   1      40.573  37.967  40.533  1.00  0.00    -0.237 OA
ATOM     74  O   UNL A   1      38.190  38.196  39.913  1.00  0.00    -0.237 OA
ATOM     75  O   UNL A   1      38.871  36.528  41.595  1.00  0.00    -0.744 OA
ENDBRANCH  71  72
ENDBRANCH  39  64
ENDBRANCH  13  14
ENDBRANCH   6   8
ENDBRANCH   3   4
ENDBRANCH   2   3
ENDBRANCH   1   2
BRANCH   1  76
ATOM     76  C   UNL A   1      36.422  23.474  26.132  1.00  0.00     0.002 C 
BRANCH  76  77
ATOM     77  C   UNL A   1      35.738  22.228  25.555  1.00  0.00     0.021 C 
BRANCH  77  78
ATOM     78  C   UNL A   1      34.671  21.597  26.448  1.00  0.00     0.116 C 
BRANCH  78  79
ATOM     79  N   UNL A   1      33.919  20.578  25.738  1.00  0.00    -0.352 N 
ATOM     80  C   UNL A   1      32.613  20.611  25.334  1.00  0.00     0.251 C 
ATOM     81  H   UNL A   1      34.415  19.756  25.519  1.00  0.00     0.163 HD
ATOM     82  O   UNL A   1      32.057  19.604  24.905  1.00  0.00    -0.269 OA
BRANCH  80  83
ATOM     83  C   UNL A   1      31.864  21.878  25.415  1.00  0.00     0.042 A 
ATOM     84  C   UNL A   1      31.110  22.161  26.561  1.00  0.00     0.016 A 
ATOM     85  C   UNL A   1      31.980  22.785  24.351  1.00  0.00     0.042 A 
ATOM     86  C   UNL A   1      30.463  23.394  26.691  1.00  0.00     0.031 A 
ATOM     87  C   UNL A   1      31.299  23.993  24.503  1.00  0.00     0.067 A 
ATOM     88  C   UNL A   1      30.592  24.328  25.654  1.00  0.00     0.089 A 
ATOM     89  N   UNL A   1      31.145  25.085  23.685  1.00  0.00    -0.338 N 
ATOM     90  N   UNL A   1      30.143  25.617  25.586  1.00  0.00    -0.228 NA
ATOM     91  C   UNL A   1      30.495  26.059  24.399  1.00  0.00     0.142 A 
ATOM     92  H   UNL A   1      31.447  25.155  22.751  1.00  0.00     0.168 HD
BRANCH  91  93
ATOM     93  C   UNL A   1      30.259  27.445  23.938  1.00  0.00     0.063 A 
ATOM     94  C   UNL A   1      29.418  27.845  22.928  1.00  0.00     0.117 A 
ATOM     95  C   UNL A   1      30.868  28.634  24.430  1.00  0.00     0.106 A 
ATOM     96  N   UNL A   1      29.486  29.209  22.926  1.00  0.00    -0.284 N 
ATOM     97  N   UNL A   1      30.399  29.709  23.772  1.00  0.00    -0.175 NA
ATOM     98  H   UNL A   1      28.916  29.773  22.356  1.00  0.00     0.189 HD
BRANCH  95  99
ATOM     99  C   UNL A   1      31.970  28.739  25.379  1.00  0.00     0.039 A 
ATOM    100  C   UNL A   1      31.693  28.710  26.759  1.00  0.00     0.016 A 
ATOM    101  C   UNL A   1      33.293  28.882  24.956  1.00  0.00     0.135 A 
ATOM    102  C   UNL A   1      32.726  28.835  27.688  1.00  0.00     0.040 A 
ATOM    103  C   UNL A   1      34.328  29.003  25.881  1.00  0.00     0.079 A 
ATOM    104  F   UNL A   1      33.599  28.924  23.651  1.00  0.00    -0.206 F 
ATOM    105  C   UNL A   1      34.034  28.980  27.240  1.00  0.00     0.126 A 
ATOM    106  F   UNL A   1      35.024  29.098  28.134  1.00  0.00    -0.207 F 
ENDBRANCH  95  99
ENDBRANCH  91  93
ENDBRANCH  80  83
ENDBRANCH  78  79
ENDBRANCH  77  78
ENDBRANCH  76  77
ENDBRANCH   1  76
TORSDOF 18
ENDMDL
MODEL 2
REMARK VINA RESULT:     -12.9      0.453      1.641
REMARK SMILES O=C(NCCCCCCNC(=O)c1ccc2nc(-c3c[nH]nc3-c3ccc(F)cc3F)[nH]c2c1)c1ccc(-c2c3nc(c(-c4c(F)cc(S(=O)(=O)[O-])cc4F)c4ccc([nH]4)c(-c4c(F)cc(S(=O)(=O)[O-])cc4F)c4nc(c(-c5c(F)cc(S(=O)(=O)[O-])cc5F)c5ccc2[nH]5)C=C4)C=C3)cc1
REMARK SMILES IDX 6 1 5 2 4 3 3 4 1 5 2 6 35 8 36 9 100 10 37 11 99 12 38 13
REMARK SMILES IDX 39 14 40 15 93 16 41 17 98 18 92 19 94 20 42 21 97 22 91 23
REMARK SMILES IDX 90 24 43 26 77 27 56 28 76 29 57 30 60 31 75 32 95 33 58 34
REMARK SMILES IDX 59 35 74 37 96 38 61 39 44 40 45 41 54 42 46 43 47 44 53 45
REMARK SMILES IDX 55 46 48 47 49 48 50 49 51 50 52 51 78 52 79 53 88 54 80 55
REMARK SMILES IDX 81 56 87 57 89 58 82 59 83 60 84 61 85 62 86 63 62 64 63 65
REMARK SMILES IDX 72 66 64 67 65 68 71 69 73 70 66 71 67 72 68 73 69 74 70 75
REMARK SMILES IDX 7 76 8 77 9 78 10 79 11 80 12 82 13 83 14 84 34 85 15 86
REMARK SMILES IDX 33 87 16 88 32 89 17 90 18 91 19 93 20 94 23 95 21 96 22 97
REMARK SMILES IDX 24 99 25 100 30 101 26 102 29 103 31 104 27 105 28 106
REMARK H PARENT 3 7 94 25 60 36 10 81 32 92 21 98
REMARK Flexibility Score: inf
ROOT
ATOM      1  C   UNL A   1      37.425  23.957  26.135  1.00  0.00     0.002 C 
ENDROOT
BRANCH   1   2
ATOM      2  C   UNL A   1      38.588  22.987  26.341  1.00  0.00     0.021 C 
BRANCH   2   3
ATOM      3  C   UNL A   1      39.838  23.596  26.961  1.00  0.00     0.116 C 
BRANCH   3   4
ATOM      4  N   UNL A   1      40.682  24.277  25.993  1.00  0.00    -0.352 N 
ATOM      5  O   UNL A   1      41.752  26.028  25.055  1.00  0.00    -0.269 OA
ATOM      6  C   UNL A   1      41.155  25.569  26.024  1.00  0.00     0.251 C 
ATOM      7  H   UNL A   1      40.950  23.742  25.212  1.00  0.00     0.163 HD
BRANCH   6   8
ATOM      8  C   UNL A   1      40.913  26.409  27.219  1.00  0.00     0.039 A 
ATOM      9  C   UNL A   1      41.659  27.569  27.434  1.00  0.00     0.014 A 
ATOM     10  C   UNL A   1      39.934  26.026  28.142  1.00  0.00     0.014 A 
ATOM     11  C   UNL A   1      41.530  28.260  28.633  1.00  0.00     0.010 A 
ATOM     12  C   UNL A   1      39.743  26.776  29.309  1.00  0.00     0.010 A 
ATOM     13  C   UNL A   1      40.559  27.884  29.578  1.00  0.00    -0.014 A 
BRANCH  13  14
ATOM     14  C   UNL A   1      40.386  28.724  30.792  1.00  0.00     0.031 A 
ATOM     15  C   UNL A   1      41.308  28.601  31.975  1.00  0.00     0.074 A 
ATOM     16  C   UNL A   1      39.419  29.663  30.779  1.00  0.00     0.049 A 
ATOM     17  N   UNL A   1      41.337  29.323  33.067  1.00  0.00    -0.248 NA
ATOM     18  C   UNL A   1      42.320  27.535  31.937  1.00  0.00     0.031 C 
ATOM     19  C   UNL A   1      38.451  29.856  29.693  1.00  0.00     0.029 A 
ATOM     20  N   UNL A   1      39.110  30.653  31.675  1.00  0.00    -0.354 N 
ATOM     21  C   UNL A   1      42.358  28.796  33.849  1.00  0.00     0.074 A 
ATOM     22  C   UNL A   1      42.911  27.677  33.117  1.00  0.00     0.031 C 
ATOM     23  C   UNL A   1      37.711  30.944  29.951  1.00  0.00     0.029 A 
ATOM     24  C   UNL A   1      38.107  31.491  31.243  1.00  0.00     0.049 A 
ATOM     25  H   UNL A   1      39.562  30.756  32.544  1.00  0.00     0.167 HD
ATOM     26  C   UNL A   1      42.795  29.215  35.061  1.00  0.00     0.037 A 
ATOM     27  C   UNL A   1      37.564  32.579  31.821  1.00  0.00     0.037 A 
ATOM     28  C   UNL A   1      42.251  30.344  35.775  1.00  0.00     0.049 A 
ATOM     29  C   UNL A   1      38.080  33.025  33.157  1.00  0.00     0.074 A 
ATOM     30  C   UNL A   1      42.636  30.852  37.004  1.00  0.00     0.029 A 
ATOM     31  N   UNL A   1      41.211  31.144  35.323  1.00  0.00    -0.354 N 
ATOM     32  N   UNL A   1      39.049  32.513  33.877  1.00  0.00    -0.248 NA
ATOM     33  C   UNL A   1      37.423  34.189  33.764  1.00  0.00     0.031 C 
ATOM     34  C   UNL A   1      41.811  31.941  37.308  1.00  0.00     0.029 A 
ATOM     35  C   UNL A   1      40.935  32.134  36.252  1.00  0.00     0.049 A 
ATOM     36  H   UNL A   1      40.739  31.025  34.468  1.00  0.00     0.167 HD
ATOM     37  C   UNL A   1      39.115  33.289  35.025  1.00  0.00     0.074 A 
ATOM     38  C   UNL A   1      38.112  34.326  34.888  1.00  0.00     0.031 C 
ATOM     39  C   UNL A   1      39.924  33.148  36.104  1.00  0.00     0.037 A 
BRANCH  26  40
ATOM     40  C   UNL A   1      43.921  28.458  35.710  1.00  0.00     0.058 A 
ATOM     41  C   UNL A   1      43.655  27.415  36.611  1.00  0.00     0.135 A 
ATOM     42  C   UNL A   1      45.261  28.827  35.511  1.00  0.00     0.135 A 
ATOM     43  F   UNL A   1      42.392  27.022  36.836  1.00  0.00    -0.206 F 
ATOM     44  C   UNL A   1      44.676  26.773  37.309  1.00  0.00     0.059 A 
ATOM     45  C   UNL A   1      46.298  28.187  36.182  1.00  0.00     0.059 A 
ATOM     46  F   UNL A   1      45.571  29.806  34.647  1.00  0.00    -0.206 F 
ATOM     47  C   UNL A   1      45.995  27.165  37.084  1.00  0.00     0.060 A 
BRANCH  47  48
ATOM     48  S   UNL A   1      47.352  26.373  37.976  1.00  0.00     0.124 S 
ATOM     49  O   UNL A   1      46.661  25.270  38.638  1.00  0.00    -0.237 OA
ATOM     50  O   UNL A   1      48.256  25.996  36.895  1.00  0.00    -0.237 OA
ATOM     51  O   UNL A   1      47.840  27.427  38.861  1.00  0.00    -0.744 OA
ENDBRANCH  47  48
ENDBRANCH  26  40
BRANCH  27  52
ATOM     52  C   UNL A   1      36.474  33.314  31.132  1.00  0.00     0.058 A 
ATOM     53  C   UNL A   1      35.143  33.212  31.569  1.00  0.00     0.135 A 
ATOM     54  C   UNL A   1      36.736  34.112  30.009  1.00  0.00     0.135 A 
ATOM     55  F   UNL A   1      34.840  32.446  32.628  1.00  0.00    -0.206 F 
ATOM     56  C   UNL A   1      34.107  33.864  30.911  1.00  0.00     0.059 A 
ATOM     57  C   UNL A   1      35.719  34.796  29.351  1.00  0.00     0.059 A 
ATOM     58  F   UNL A   1      37.992  34.243  29.557  1.00  0.00    -0.206 F 
ATOM     59  C   UNL A   1      34.407  34.663  29.809  1.00  0.00     0.060 A 
BRANCH  59  60
ATOM     60  S   UNL A   1      33.085  35.512  28.918  1.00  0.00     0.124 S 
ATOM     61  O   UNL A   1      32.496  34.417  28.157  1.00  0.00    -0.237 OA
ATOM     62  O   UNL A   1      32.271  36.044  30.007  1.00  0.00    -0.237 OA
ATOM     63  O   UNL A   1      33.800  36.515  28.136  1.00  0.00    -0.744 OA
ENDBRANCH  59  60
ENDBRANCH  27  52
BRANCH  39  64
ATOM     64  C   UNL A   1      39.747  34.140  37.217  1.00  0.00     0.058 A 
ATOM     65  C   UNL A   1      39.019  33.803  38.368  1.00  0.00     0.135 A 
ATOM     66  C   UNL A   1      40.291  35.431  37.135  1.00  0.00     0.135 A 
ATOM     67  F   UNL A   1      38.473  32.582  38.490  1.00  0.00    -0.206 F 
ATOM     68  C   UNL A   1      38.838  34.711  39.406  1.00  0.00     0.059 A 
ATOM     69  C   UNL A   1      40.143  36.347  38.170  1.00  0.00     0.059 A 
ATOM     70  F   UNL A   1      41.004  35.797  36.057  1.00  0.00    -0.206 F 
ATOM     71  C   UNL A   1      39.418  35.975  39.304  1.00  0.00     0.060 A 
BRANCH  71  72
ATOM     72  S   UNL A   1      39.229  37.174  40.641  1.00  0.00     0.124 S 
ATOM     73  O   UNL A   1      38.584  36.367  41.670  1.00  0.00    -0.237 OA
ATOM     74  O   UNL A   1      40.611  37.562  40.911  1.00  0.00    -0.237 OA
ATOM     75  O   UNL A   1      38.397  38.216  40.045  1.00  0.00    -0.744 OA
ENDBRANCH  71  72
ENDBRANCH  39  64
ENDBRANCH  13  14
ENDBRANCH   6   8
ENDBRANCH   3   4
ENDBRANCH   2   3
ENDBRANCH   1   2
BRANCH   1  76
ATOM     76  C   UNL A   1      36.497  23.643  24.959  1.00  0.00     0.002 C 
BRANCH  76  77
ATOM     77  C   UNL A   1      36.255  22.155  24.675  1.00  0.00     0.021 C 
BRANCH  77  78
ATOM     78  C   UNL A   1      35.108  21.519  25.459  1.00  0.00     0.116 C 
BRANCH  78  79
ATOM     79  N   UNL A   1      34.365  20.576  24.643  1.00  0.00    -0.352 N 
ATOM     80  C   UNL A   1      33.046  20.616  24.284  1.00  0.00     0.251 C 
ATOM     81  H   UNL A   1      34.878  19.808  24.304  1.00  0.00     0.163 HD
ATOM     82  O   UNL A   1      32.507  19.656  23.742  1.00  0.00    -0.269 OA
BRANCH  80  83
ATOM     83  C   UNL A   1      32.262  21.835  24.552  1.00  0.00     0.042 A 
ATOM     84  C   UNL A   1      31.607  21.977  25.783  1.00  0.00     0.016 A 
ATOM     85  C   UNL A   1      32.245  22.841  23.574  1.00  0.00     0.042 A 
ATOM     86  C   UNL A   1      30.930  23.162  26.088  1.00  0.00     0.031 A 
ATOM     87  C   UNL A   1      31.537  23.998  23.901  1.00  0.00     0.067 A 
ATOM     88  C   UNL A   1      30.929  24.194  25.137  1.00  0.00     0.089 A 
ATOM     89  N   UNL A   1      31.269  25.153  23.209  1.00  0.00    -0.338 N 
ATOM     90  N   UNL A   1      30.428  25.461  25.234  1.00  0.00    -0.228 NA
ATOM     91  C   UNL A   1      30.652  26.027  24.068  1.00  0.00     0.142 A 
ATOM     92  H   UNL A   1      31.480  25.323  22.264  1.00  0.00     0.168 HD
BRANCH  91  93
ATOM     93  C   UNL A   1      30.324  27.437  23.765  1.00  0.00     0.063 A 
ATOM     94  C   UNL A   1      29.454  27.892  22.804  1.00  0.00     0.117 A 
ATOM     95  C   UNL A   1      30.856  28.601  24.389  1.00  0.00     0.106 A 
ATOM     96  N   UNL A   1      29.433  29.249  22.956  1.00  0.00    -0.284 N 
ATOM     97  N   UNL A   1      30.315  29.709  23.855  1.00  0.00    -0.175 NA
ATOM     98  H   UNL A   1      28.825  29.835  22.451  1.00  0.00     0.189 HD
BRANCH  95  99
ATOM     99  C   UNL A   1      31.952  28.670  25.347  1.00  0.00     0.039 A 
ATOM    100  C   UNL A   1      31.663  28.667  26.725  1.00  0.00     0.016 A 
ATOM    101  C   UNL A   1      33.284  28.754  24.936  1.00  0.00     0.135 A 
ATOM    102  C   UNL A   1      32.692  28.759  27.663  1.00  0.00     0.040 A 
ATOM    103  C   UNL A   1      34.315  28.842  25.870  1.00  0.00     0.079 A 
ATOM    104  F   UNL A   1      33.604  28.771  23.633  1.00  0.00    -0.206 F 
ATOM    105  C   UNL A   1      34.008  28.846  27.225  1.00  0.00     0.126 A 
ATOM    106  F   UNL A   1      34.994  28.933  28.127  1.00  0.00    -0.207 F 
ENDBRANCH  95  99
ENDBRANCH  91  93
ENDBRANCH  80  83
ENDBRANCH  78  79
ENDBRANCH  77  78
ENDBRANCH  76  77
ENDBRANCH   1  76
TORSDOF 18
ENDMDL
MODEL 3
REMARK VINA RESULT:     -12.5      6.367     11.862
REMARK SMILES O=C(NCCCCCCNC(=O)c1ccc2nc(-c3c[nH]nc3-c3ccc(F)cc3F)[nH]c2c1)c1ccc(-c2c3nc(c(-c4c(F)cc(S(=O)(=O)[O-])cc4F)c4ccc([nH]4)c(-c4c(F)cc(S(=O)(=O)[O-])cc4F)c4nc(c(-c5c(F)cc(S(=O)(=O)[O-])cc5F)c5ccc2[nH]5)C=C4)C=C3)cc1
REMARK SMILES IDX 6 1 5 2 4 3 3 4 1 5 2 6 35 8 36 9 100 10 37 11 99 12 38 13
REMARK SMILES IDX 39 14 40 15 93 16 41 17 98 18 92 19 94 20 42 21 97 22 91 23
REMARK SMILES IDX 90 24 43 26 77 27 56 28 76 29 57 30 60 31 75 32 95 33 58 34
REMARK SMILES IDX 59 35 74 37 96 38 61 39 44 40 45 41 54 42 46 43 47 44 53 45
REMARK SMILES IDX 55 46 48 47 49 48 50 49 51 50 52 51 78 52 79 53 88 54 80 55
REMARK SMILES IDX 81 56 87 57 89 58 82 59 83 60 84 61 85 62 86 63 62 64 63 65
REMARK SMILES IDX 72 66 64 67 65 68 71 69 73 70 66 71 67 72 68 73 69 74 70 75
REMARK SMILES IDX 7 76 8 77 9 78 10 79 11 80 12 82 13 83 14 84 34 85 15 86
REMARK SMILES IDX 33 87 16 88 32 89 17 90 18 91 19 93 20 94 23 95 21 96 22 97
REMARK SMILES IDX 24 99 25 100 30 101 26 102 29 103 31 104 27 105 28 106
REMARK H PARENT 3 7 94 25 60 36 10 81 32 92 21 98
REMARK Flexibility Score: inf
ROOT
ATOM      1  C   UNL A   1      33.232  30.488  27.180  1.00  0.00     0.002 C 
ENDROOT
BRANCH   1   2
ATOM      2  C   UNL A   1      34.307  31.427  27.725  1.00  0.00     0.021 C 
BRANCH   2   3
ATOM      3  C   UNL A   1      35.537  30.740  28.303  1.00  0.00     0.116 C 
BRANCH   3   4
ATOM      4  N   UNL A   1      35.496  30.621  29.751  1.00  0.00    -0.352 N 
ATOM      5  O   UNL A   1      36.211  29.981  31.793  1.00  0.00    -0.269 OA
ATOM      6  C   UNL A   1      36.461  30.132  30.600  1.00  0.00     0.251 C 
ATOM      7  H   UNL A   1      34.667  30.933  30.180  1.00  0.00     0.163 HD
BRANCH   6   8
ATOM      8  C   UNL A   1      37.790  29.760  30.063  1.00  0.00     0.039 A 
ATOM      9  C   UNL A   1      38.786  29.268  30.908  1.00  0.00     0.014 A 
ATOM     10  C   UNL A   1      38.047  29.917  28.696  1.00  0.00     0.014 A 
ATOM     11  C   UNL A   1      40.071  29.072  30.419  1.00  0.00     0.010 A 
ATOM     12  C   UNL A   1      39.320  29.633  28.189  1.00  0.00     0.010 A 
ATOM     13  C   UNL A   1      40.352  29.234  29.051  1.00  0.00    -0.014 A 
BRANCH  13  14
ATOM     14  C   UNL A   1      41.716  28.903  28.561  1.00  0.00     0.031 A 
ATOM     15  C   UNL A   1      42.837  29.905  28.610  1.00  0.00     0.074 A 
ATOM     16  C   UNL A   1      41.948  27.645  28.136  1.00  0.00     0.049 A 
ATOM     17  N   UNL A   1      44.099  29.737  28.302  1.00  0.00    -0.248 NA
ATOM     18  C   UNL A   1      42.509  31.269  29.053  1.00  0.00     0.031 C 
ATOM     19  C   UNL A   1      40.928  26.596  28.025  1.00  0.00     0.029 A 
ATOM     20  N   UNL A   1      43.107  27.018  27.760  1.00  0.00    -0.354 N 
ATOM     21  C   UNL A   1      44.711  30.968  28.501  1.00  0.00     0.074 A 
ATOM     22  C   UNL A   1      43.679  31.884  28.936  1.00  0.00     0.031 C 
ATOM     23  C   UNL A   1      41.519  25.441  27.685  1.00  0.00     0.029 A 
ATOM     24  C   UNL A   1      42.945  25.678  27.495  1.00  0.00     0.049 A 
ATOM     25  H   UNL A   1      43.973  27.482  27.687  1.00  0.00     0.167 HD
ATOM     26  C   UNL A   1      46.016  31.297  28.343  1.00  0.00     0.037 A 
ATOM     27  C   UNL A   1      43.842  24.740  27.139  1.00  0.00     0.037 A 
ATOM     28  C   UNL A   1      47.042  30.373  27.927  1.00  0.00     0.049 A 
ATOM     29  C   UNL A   1      45.282  25.134  26.985  1.00  0.00     0.074 A 
ATOM     30  C   UNL A   1      48.395  30.611  27.750  1.00  0.00     0.029 A 
ATOM     31  N   UNL A   1      46.833  29.034  27.631  1.00  0.00    -0.354 N 
ATOM     32  N   UNL A   1      45.839  26.304  27.183  1.00  0.00    -0.248 NA
ATOM     33  C   UNL A   1      46.212  24.084  26.550  1.00  0.00     0.031 C 
ATOM     34  C   UNL A   1      48.998  29.424  27.319  1.00  0.00     0.029 A 
ATOM     35  C   UNL A   1      48.028  28.437  27.263  1.00  0.00     0.049 A 
ATOM     36  H   UNL A   1      45.964  28.576  27.676  1.00  0.00     0.167 HD
ATOM     37  C   UNL A   1      47.186  26.134  26.892  1.00  0.00     0.074 A 
ATOM     38  C   UNL A   1      47.364  24.739  26.539  1.00  0.00     0.031 C 
ATOM     39  C   UNL A   1      48.183  27.051  26.902  1.00  0.00     0.037 A 
BRANCH  26  40
ATOM     40  C   UNL A   1      46.428  32.718  28.617  1.00  0.00     0.058 A 
ATOM     41  C   UNL A   1      46.438  33.670  27.585  1.00  0.00     0.135 A 
ATOM     42  C   UNL A   1      46.900  33.113  29.878  1.00  0.00     0.135 A 
ATOM     43  F   UNL A   1      45.996  33.345  26.361  1.00  0.00    -0.206 F 
ATOM     44  C   UNL A   1      46.920  34.962  27.787  1.00  0.00     0.059 A 
ATOM     45  C   UNL A   1      47.368  34.402  30.107  1.00  0.00     0.059 A 
ATOM     46  F   UNL A   1      46.895  32.246  30.903  1.00  0.00    -0.206 F 
ATOM     47  C   UNL A   1      47.380  35.319  29.053  1.00  0.00     0.060 A 
BRANCH  47  48
ATOM     48  S   UNL A   1      48.028  36.976  29.361  1.00  0.00     0.124 S 
ATOM     49  O   UNL A   1      48.405  37.396  28.015  1.00  0.00    -0.237 OA
ATOM     50  O   UNL A   1      46.875  37.659  29.938  1.00  0.00    -0.237 OA
ATOM     51  O   UNL A   1      49.140  36.743  30.278  1.00  0.00    -0.744 OA
ENDBRANCH  47  48
ENDBRANCH  26  40
BRANCH  27  52
ATOM     52  C   UNL A   1      43.398  23.342  26.906  1.00  0.00     0.058 A 
ATOM     53  C   UNL A   1      43.130  22.479  27.981  1.00  0.00     0.135 A 
ATOM     54  C   UNL A   1      43.257  22.835  25.607  1.00  0.00     0.135 A 
ATOM     55  F   UNL A   1      43.269  22.913  29.243  1.00  0.00    -0.206 F 
ATOM     56  C   UNL A   1      42.751  21.158  27.778  1.00  0.00     0.059 A 
ATOM     57  C   UNL A   1      42.852  21.524  25.379  1.00  0.00     0.059 A 
ATOM     58  F   UNL A   1      43.499  23.623  24.549  1.00  0.00    -0.206 F 
ATOM     59  C   UNL A   1      42.604  20.692  26.473  1.00  0.00     0.060 A 
BRANCH  59  60
ATOM     60  S   UNL A   1      42.130  18.976  26.170  1.00  0.00     0.124 S 
ATOM     61  O   UNL A   1      40.729  19.122  25.795  1.00  0.00    -0.237 OA
ATOM     62  O   UNL A   1      43.041  18.589  25.097  1.00  0.00    -0.237 OA
ATOM     63  O   UNL A   1      42.379  18.330  27.454  1.00  0.00    -0.744 OA
ENDBRANCH  59  60
ENDBRANCH  27  52
BRANCH  39  64
ATOM     64  C   UNL A   1      49.551  26.570  26.514  1.00  0.00     0.058 A 
ATOM     65  C   UNL A   1      50.000  26.680  25.189  1.00  0.00     0.135 A 
ATOM     66  C   UNL A   1      50.411  25.986  27.457  1.00  0.00     0.135 A 
ATOM     67  F   UNL A   1      49.211  27.224  24.250  1.00  0.00    -0.206 F 
ATOM     68  C   UNL A   1      51.261  26.232  24.810  1.00  0.00     0.059 A 
ATOM     69  C   UNL A   1      51.685  25.553  27.105  1.00  0.00     0.059 A 
ATOM     70  F   UNL A   1      50.029  25.867  28.738  1.00  0.00    -0.206 F 
ATOM     71  C   UNL A   1      52.102  25.685  25.778  1.00  0.00     0.060 A 
BRANCH  71  72
ATOM     72  S   UNL A   1      53.756  25.115  25.333  1.00  0.00     0.124 S 
ATOM     73  O   UNL A   1      53.568  23.669  25.297  1.00  0.00    -0.237 OA
ATOM     74  O   UNL A   1      53.973  25.760  24.041  1.00  0.00    -0.237 OA
ATOM     75  O   UNL A   1      54.591  25.614  26.423  1.00  0.00    -0.744 OA
ENDBRANCH  71  72
ENDBRANCH  39  64
ENDBRANCH  13  14
ENDBRANCH   6   8
ENDBRANCH   3   4
ENDBRANCH   2   3
ENDBRANCH   1   2
BRANCH   1  76
ATOM     76  C   UNL A   1      33.716  29.424  26.191  1.00  0.00     0.002 C 
BRANCH  76  77
ATOM     77  C   UNL A   1      32.859  29.239  24.932  1.00  0.00     0.021 C 
BRANCH  77  78
ATOM     78  C   UNL A   1      31.544  28.489  25.142  1.00  0.00     0.116 C 
BRANCH  78  79
ATOM     79  N   UNL A   1      30.602  28.759  24.071  1.00  0.00    -0.352 N 
ATOM     80  C   UNL A   1      30.449  28.094  22.886  1.00  0.00     0.251 C 
ATOM     81  H   UNL A   1      29.995  29.519  24.217  1.00  0.00     0.163 HD
ATOM     82  O   UNL A   1      29.736  28.544  21.994  1.00  0.00    -0.269 OA
BRANCH  80  83
ATOM     83  C   UNL A   1      31.152  26.816  22.679  1.00  0.00     0.042 A 
ATOM     84  C   UNL A   1      32.129  26.719  21.680  1.00  0.00     0.016 A 
ATOM     85  C   UNL A   1      30.850  25.747  23.537  1.00  0.00     0.042 A 
ATOM     86  C   UNL A   1      32.866  25.540  21.526  1.00  0.00     0.031 A 
ATOM     87  C   UNL A   1      31.585  24.578  23.337  1.00  0.00     0.067 A 
ATOM     88  C   UNL A   1      32.603  24.471  22.395  1.00  0.00     0.089 A 
ATOM     89  N   UNL A   1      31.550  23.343  23.935  1.00  0.00    -0.338 N 
ATOM     90  N   UNL A   1      33.241  23.268  22.508  1.00  0.00    -0.228 NA
ATOM     91  C   UNL A   1      32.601  22.608  23.447  1.00  0.00     0.142 A 
ATOM     92  H   UNL A   1      30.888  23.038  24.596  1.00  0.00     0.168 HD
BRANCH  91  93
ATOM     93  C   UNL A   1      33.012  21.273  23.936  1.00  0.00     0.063 A 
ATOM     94  C   UNL A   1      32.269  20.118  23.900  1.00  0.00     0.117 A 
ATOM     95  C   UNL A   1      34.244  20.923  24.556  1.00  0.00     0.106 A 
ATOM     96  N   UNL A   1      33.094  19.148  24.393  1.00  0.00    -0.284 N 
ATOM     97  N   UNL A   1      34.263  19.613  24.858  1.00  0.00    -0.175 NA
ATOM     98  H   UNL A   1      32.852  18.194  24.405  1.00  0.00     0.189 HD
BRANCH  95  99
ATOM     99  C   UNL A   1      35.305  21.823  24.993  1.00  0.00     0.039 A 
ATOM    100  C   UNL A   1      36.571  21.741  24.382  1.00  0.00     0.016 A 
ATOM    101  C   UNL A   1      35.104  22.756  26.012  1.00  0.00     0.135 A 
ATOM    102  C   UNL A   1      37.611  22.573  24.800  1.00  0.00     0.040 A 
ATOM    103  C   UNL A   1      36.138  23.591  26.428  1.00  0.00     0.079 A 
ATOM    104  F   UNL A   1      33.916  22.860  26.627  1.00  0.00    -0.206 F 
ATOM    105  C   UNL A   1      37.383  23.489  25.819  1.00  0.00     0.126 A 
ATOM    106  F   UNL A   1      38.383  24.288  26.217  1.00  0.00    -0.207 F 
ENDBRANCH  95  99
ENDBRANCH  91  93
ENDBRANCH  80  83
ENDBRANCH  78  79
ENDBRANCH  77  78
ENDBRANCH  76  77
ENDBRANCH   1  76
TORSDOF 18
ENDMDL
