MODEL 1
REMARK VINA RESULT:     -11.9      0.000      0.000
REMARK SMILES O=C(NCCCCCCNC(=O)c1cccnc1Nc1cccc(C(F)(F)F)c1)c1ccc(-c2c3nc(c(-c4c(F)cc(S(=O)(=O)[O-])cc4F)c4ccc([nH]4)c(-c4c(F)cc(S(=O)(=O)[O-])cc4F)c4nc(c(-c5c(F)cc(S(=O)(=O)[O-])cc5F)c5ccc2[nH]5)C=C4)C=C3)cc1
REMARK SMILES IDX 6 1 5 2 4 3 3 4 1 5 2 6 30 8 31 9 95 10 32 11 94 12 33 13
REMARK SMILES IDX 34 14 35 15 88 16 36 17 93 18 87 19 89 20 37 21 92 22 86 23
REMARK SMILES IDX 85 24 38 26 72 27 51 28 71 29 52 30 55 31 70 32 90 33 53 34
REMARK SMILES IDX 54 35 69 37 91 38 56 39 39 40 40 41 49 42 41 43 42 44 48 45
REMARK SMILES IDX 50 46 43 47 44 48 45 49 46 50 47 51 73 52 74 53 83 54 75 55
REMARK SMILES IDX 76 56 82 57 84 58 77 59 78 60 79 61 80 62 81 63 57 64 58 65
REMARK SMILES IDX 67 66 59 67 60 68 66 69 68 70 61 71 62 72 63 73 64 74 65 75
REMARK SMILES IDX 7 76 8 77 9 78 10 79 11 80 12 82 13 83 14 84 18 85 15 86
REMARK SMILES IDX 17 87 16 88 19 89 20 91 21 92 29 93 22 94 24 95 23 96 25 97
REMARK SMILES IDX 26 98 27 99 28 100
REMARK H PARENT 3 7 89 25 55 36 10 81 19 90
REMARK Flexibility Score: inf
ROOT
ATOM      1  C   UNL A   1      40.867  21.397  27.050  1.00  0.00     0.002 C 
ENDROOT
BRANCH   1   2
ATOM      2  C   UNL A   1      42.320  21.866  26.958  1.00  0.00     0.021 C 
BRANCH   2   3
ATOM      3  C   UNL A   1      42.542  23.330  27.316  1.00  0.00     0.116 C 
BRANCH   3   4
ATOM      4  N   UNL A   1      42.469  24.195  26.149  1.00  0.00    -0.352 N 
ATOM      5  O   UNL A   1      41.854  26.000  24.951  1.00  0.00    -0.269 OA
ATOM      6  C   UNL A   1      42.037  25.493  26.057  1.00  0.00     0.251 C 
ATOM      7  H   UNL A   1      42.773  23.790  25.306  1.00  0.00     0.163 HD
BRANCH   6   8
ATOM      8  C   UNL A   1      41.771  26.272  27.285  1.00  0.00     0.039 A 
ATOM      9  C   UNL A   1      40.650  26.001  28.077  1.00  0.00     0.014 A 
ATOM     10  C   UNL A   1      42.667  27.276  27.655  1.00  0.00     0.014 A 
ATOM     11  C   UNL A   1      40.363  26.810  29.172  1.00  0.00     0.010 A 
ATOM     12  C   UNL A   1      42.416  28.039  28.797  1.00  0.00     0.010 A 
ATOM     13  C   UNL A   1      41.249  27.829  29.551  1.00  0.00    -0.014 A 
BRANCH  13  14
ATOM     14  C   UNL A   1      40.985  28.645  30.762  1.00  0.00     0.031 A 
ATOM     15  C   UNL A   1      39.893  29.678  30.766  1.00  0.00     0.074 A 
ATOM     16  C   UNL A   1      41.764  28.479  31.848  1.00  0.00     0.049 A 
ATOM     17  N   UNL A   1      39.585  30.550  31.691  1.00  0.00    -0.248 NA
ATOM     18  C   UNL A   1      39.042  29.745  29.568  1.00  0.00     0.031 C 
ATOM     19  C   UNL A   1      42.853  27.506  31.960  1.00  0.00     0.029 A 
ATOM     20  N   UNL A   1      41.775  29.131  33.054  1.00  0.00    -0.354 N 
ATOM     21  C   UNL A   1      38.524  31.288  31.180  1.00  0.00     0.074 A 
ATOM     22  C   UNL A   1      38.258  30.775  29.852  1.00  0.00     0.031 C 
ATOM     23  C   UNL A   1      43.424  27.624  33.168  1.00  0.00     0.029 A 
ATOM     24  C   UNL A   1      42.787  28.721  33.888  1.00  0.00     0.049 A 
ATOM     25  H   UNL A   1      41.122  29.827  33.298  1.00  0.00     0.167 HD
ATOM     26  C   UNL A   1      37.837  32.299  31.767  1.00  0.00     0.037 A 
ATOM     27  C   UNL A   1      43.186  29.196  35.083  1.00  0.00     0.037 A 
ATOM     28  C   UNL A   1      38.119  32.801  33.089  1.00  0.00     0.049 A 
ATOM     29  C   UNL A   1      42.441  30.344  35.700  1.00  0.00     0.074 A 
ATOM     30  C   UNL A   1      37.464  33.799  33.788  1.00  0.00     0.029 A 
ATOM     31  N   UNL A   1      39.151  32.354  33.905  1.00  0.00    -0.354 N 
ATOM     32  N   UNL A   1      41.418  31.013  35.220  1.00  0.00    -0.248 NA
ATOM     33  C   UNL A   1      42.896  30.804  37.018  1.00  0.00     0.031 C 
ATOM     34  C   UNL A   1      38.134  33.995  35.000  1.00  0.00     0.029 A 
ATOM     35  C   UNL A   1      39.166  33.074  35.089  1.00  0.00     0.049 A 
ATOM     36  H   UNL A   1      39.780  31.632  33.675  1.00  0.00     0.167 HD
ATOM     37  C   UNL A   1      41.087  31.950  36.191  1.00  0.00     0.074 A 
ATOM     38  C   UNL A   1      42.020  31.764  37.285  1.00  0.00     0.031 C 
ATOM     39  C   UNL A   1      40.092  32.871  36.178  1.00  0.00     0.037 A 
BRANCH  26  40
ATOM     40  C   UNL A   1      36.742  32.954  30.967  1.00  0.00     0.058 A 
ATOM     41  C   UNL A   1      37.014  33.901  29.965  1.00  0.00     0.135 A 
ATOM     42  C   UNL A   1      35.396  32.625  31.203  1.00  0.00     0.135 A 
ATOM     43  F   UNL A   1      38.280  34.261  29.700  1.00  0.00    -0.206 F 
ATOM     44  C   UNL A   1      35.993  34.536  29.266  1.00  0.00     0.059 A 
ATOM     45  C   UNL A   1      34.359  33.225  30.493  1.00  0.00     0.059 A 
ATOM     46  F   UNL A   1      35.075  31.722  32.141  1.00  0.00    -0.206 F 
ATOM     47  C   UNL A   1      34.667  34.198  29.544  1.00  0.00     0.060 A 
BRANCH  47  48
ATOM     48  S   UNL A   1      33.352  35.067  28.664  1.00  0.00     0.124 S 
ATOM     49  O   UNL A   1      32.565  35.599  29.772  1.00  0.00    -0.237 OA
ATOM     50  O   UNL A   1      34.095  36.054  27.887  1.00  0.00    -0.237 OA
ATOM     51  O   UNL A   1      32.708  34.015  27.885  1.00  0.00    -0.744 OA
ENDBRANCH  47  48
ENDBRANCH  26  40
BRANCH  27  52
ATOM     52  C   UNL A   1      44.356  28.573  35.754  1.00  0.00     0.058 A 
ATOM     53  C   UNL A   1      45.656  29.045  35.527  1.00  0.00     0.135 A 
ATOM     54  C   UNL A   1      44.187  27.547  36.699  1.00  0.00     0.135 A 
ATOM     55  F   UNL A   1      45.868  30.020  34.631  1.00  0.00    -0.206 F 
ATOM     56  C   UNL A   1      46.747  28.527  36.216  1.00  0.00     0.059 A 
ATOM     57  C   UNL A   1      45.259  27.032  37.420  1.00  0.00     0.059 A 
ATOM     58  F   UNL A   1      42.960  27.074  36.965  1.00  0.00    -0.206 F 
ATOM     59  C   UNL A   1      46.537  27.530  37.170  1.00  0.00     0.060 A 
BRANCH  59  60
ATOM     60  S   UNL A   1      47.950  26.935  38.124  1.00  0.00     0.124 S 
ATOM     61  O   UNL A   1      48.219  28.074  38.993  1.00  0.00    -0.237 OA
ATOM     62  O   UNL A   1      47.400  25.749  38.774  1.00  0.00    -0.237 OA
ATOM     63  O   UNL A   1      48.958  26.668  37.101  1.00  0.00    -0.744 OA
ENDBRANCH  59  60
ENDBRANCH  27  52
BRANCH  39  64
ATOM     64  C   UNL A   1      39.908  33.720  37.405  1.00  0.00     0.058 A 
ATOM     65  C   UNL A   1      40.568  34.948  37.568  1.00  0.00     0.135 A 
ATOM     66  C   UNL A   1      38.979  33.339  38.389  1.00  0.00     0.135 A 
ATOM     67  F   UNL A   1      41.473  35.354  36.663  1.00  0.00    -0.206 F 
ATOM     68  C   UNL A   1      40.314  35.768  38.664  1.00  0.00     0.059 A 
ATOM     69  C   UNL A   1      38.691  34.155  39.478  1.00  0.00     0.059 A 
ATOM     70  F   UNL A   1      38.318  32.177  38.279  1.00  0.00    -0.206 F 
ATOM     71  C   UNL A   1      39.366  35.368  39.607  1.00  0.00     0.060 A 
BRANCH  71  72
ATOM     72  S   UNL A   1      38.990  36.476  40.982  1.00  0.00     0.124 S 
ATOM     73  O   UNL A   1      40.275  36.538  41.672  1.00  0.00    -0.237 OA
ATOM     74  O   UNL A   1      38.580  37.696  40.295  1.00  0.00    -0.237 OA
ATOM     75  O   UNL A   1      37.926  35.781  41.699  1.00  0.00    -0.744 OA
ENDBRANCH  71  72
ENDBRANCH  39  64
ENDBRANCH  13  14
ENDBRANCH   6   8
ENDBRANCH   3   4
ENDBRANCH   2   3
ENDBRANCH   1   2
BRANCH   1  76
ATOM     76  C   UNL A   1      39.814  22.493  26.857  1.00  0.00     0.002 C 
BRANCH  76  77
ATOM     77  C   UNL A   1      38.627  22.112  25.967  1.00  0.00     0.021 C 
BRANCH  77  78
ATOM     78  C   UNL A   1      37.639  23.245  25.699  1.00  0.00     0.116 C 
BRANCH  78  79
ATOM     79  N   UNL A   1      37.185  23.239  24.318  1.00  0.00    -0.352 N 
ATOM     80  C   UNL A   1      35.902  23.317  23.840  1.00  0.00     0.255 C 
ATOM     81  H   UNL A   1      37.892  23.168  23.635  1.00  0.00     0.163 HD
ATOM     82  O   UNL A   1      35.653  23.002  22.678  1.00  0.00    -0.269 OA
BRANCH  80  83
ATOM     83  C   UNL A   1      34.809  23.764  24.722  1.00  0.00     0.082 A 
ATOM     84  C   UNL A   1      34.476  25.124  24.788  1.00  0.00     0.019 A 
ATOM     85  C   UNL A   1      34.058  22.832  25.447  1.00  0.00     0.143 A 
ATOM     86  C   UNL A   1      33.468  25.537  25.646  1.00  0.00     0.021 A 
ATOM     87  N   UNL A   1      33.072  23.247  26.285  1.00  0.00    -0.238 NA
ATOM     88  C   UNL A   1      32.808  24.570  26.376  1.00  0.00     0.113 A 
BRANCH  85  89
ATOM     89  N   UNL A   1      34.378  21.457  25.412  1.00  0.00    -0.340 N 
ATOM     90  H   UNL A   1      35.092  21.155  26.019  1.00  0.00     0.168 HD
BRANCH  89  91
ATOM     91  C   UNL A   1      33.785  20.476  24.602  1.00  0.00     0.040 A 
ATOM     92  C   UNL A   1      32.721  20.819  23.763  1.00  0.00     0.026 A 
ATOM     93  C   UNL A   1      34.176  19.133  24.678  1.00  0.00     0.039 A 
ATOM     94  C   UNL A   1      32.108  19.854  22.961  1.00  0.00     0.003 A 
ATOM     95  C   UNL A   1      33.557  18.147  23.897  1.00  0.00     0.058 A 
ATOM     96  C   UNL A   1      32.527  18.524  23.024  1.00  0.00     0.013 A 
BRANCH  95  97
ATOM     97  C   UNL A   1      33.992  16.709  23.987  1.00  0.00     0.416 C 
ATOM     98  F   UNL A   1      35.049  16.538  24.833  1.00  0.00    -0.166 F 
ATOM     99  F   UNL A   1      33.009  15.890  24.457  1.00  0.00    -0.166 F 
ATOM    100  F   UNL A   1      34.387  16.171  22.798  1.00  0.00    -0.166 F 
ENDBRANCH  95  97
ENDBRANCH  89  91
ENDBRANCH  85  89
ENDBRANCH  80  83
ENDBRANCH  78  79
ENDBRANCH  77  78
ENDBRANCH  76  77
ENDBRANCH   1  76
TORSDOF 19
ENDMDL
MODEL 2
REMARK VINA RESULT:     -11.8      6.608     11.544
REMARK SMILES O=C(NCCCCCCNC(=O)c1cccnc1Nc1cccc(C(F)(F)F)c1)c1ccc(-c2c3nc(c(-c4c(F)cc(S(=O)(=O)[O-])cc4F)c4ccc([nH]4)c(-c4c(F)cc(S(=O)(=O)[O-])cc4F)c4nc(c(-c5c(F)cc(S(=O)(=O)[O-])cc5F)c5ccc2[nH]5)C=C4)C=C3)cc1
REMARK SMILES IDX 6 1 5 2 4 3 3 4 1 5 2 6 30 8 31 9 95 10 32 11 94 12 33 13
REMARK SMILES IDX 34 14 35 15 88 16 36 17 93 18 87 19 89 20 37 21 92 22 86 23
REMARK SMILES IDX 85 24 38 26 72 27 51 28 71 29 52 30 55 31 70 32 90 33 53 34
REMARK SMILES IDX 54 35 69 37 91 38 56 39 39 40 40 41 49 42 41 43 42 44 48 45
REMARK SMILES IDX 50 46 43 47 44 48 45 49 46 50 47 51 73 52 74 53 83 54 75 55
REMARK SMILES IDX 76 56 82 57 84 58 77 59 78 60 79 61 80 62 81 63 57 64 58 65
REMARK SMILES IDX 67 66 59 67 60 68 66 69 68 70 61 71 62 72 63 73 64 74 65 75
REMARK SMILES IDX 7 76 8 77 9 78 10 79 11 80 12 82 13 83 14 84 18 85 15 86
REMARK SMILES IDX 17 87 16 88 19 89 20 91 21 92 29 93 22 94 24 95 23 96 25 97
REMARK SMILES IDX 26 98 27 99 28 100
REMARK H PARENT 3 7 89 25 55 36 10 81 19 90
REMARK Flexibility Score: inf
ROOT
ATOM      1  C   UNL A   1      32.959  30.450  27.241  1.00  0.00     0.002 C 
ENDROOT
BRANCH   1   2
ATOM      2  C   UNL A   1      34.341  29.989  26.774  1.00  0.00     0.021 C 
BRANCH   2   3
ATOM      3  C   UNL A   1      35.243  29.455  27.881  1.00  0.00     0.116 C 
BRANCH   3   4
ATOM      4  N   UNL A   1      35.217  30.302  29.063  1.00  0.00    -0.352 N 
ATOM      5  O   UNL A   1      35.952  31.140  31.020  1.00  0.00    -0.269 OA
ATOM      6  C   UNL A   1      36.215  30.559  29.968  1.00  0.00     0.251 C 
ATOM      7  H   UNL A   1      34.361  30.754  29.238  1.00  0.00     0.163 HD
BRANCH   6   8
ATOM      8  C   UNL A   1      37.597  30.119  29.688  1.00  0.00     0.039 A 
ATOM      9  C   UNL A   1      38.443  29.707  30.724  1.00  0.00     0.014 A 
ATOM     10  C   UNL A   1      38.047  30.104  28.366  1.00  0.00     0.014 A 
ATOM     11  C   UNL A   1      39.771  29.392  30.452  1.00  0.00     0.010 A 
ATOM     12  C   UNL A   1      39.359  29.717  28.087  1.00  0.00     0.010 A 
ATOM     13  C   UNL A   1      40.240  29.382  29.130  1.00  0.00    -0.014 A 
BRANCH  13  14
ATOM     14  C   UNL A   1      41.634  28.975  28.830  1.00  0.00     0.031 A 
ATOM     15  C   UNL A   1      42.746  29.986  28.839  1.00  0.00     0.074 A 
ATOM     16  C   UNL A   1      41.888  27.693  28.505  1.00  0.00     0.049 A 
ATOM     17  N   UNL A   1      44.001  29.836  28.503  1.00  0.00    -0.248 NA
ATOM     18  C   UNL A   1      42.397  31.348  29.275  1.00  0.00     0.031 C 
ATOM     19  C   UNL A   1      40.889  26.623  28.463  1.00  0.00     0.029 A 
ATOM     20  N   UNL A   1      43.054  27.074  28.131  1.00  0.00    -0.354 N 
ATOM     21  C   UNL A   1      44.589  31.086  28.660  1.00  0.00     0.074 A 
ATOM     22  C   UNL A   1      43.545  31.988  29.099  1.00  0.00     0.031 C 
ATOM     23  C   UNL A   1      41.484  25.481  28.089  1.00  0.00     0.029 A 
ATOM     24  C   UNL A   1      42.888  25.751  27.801  1.00  0.00     0.049 A 
ATOM     25  H   UNL A   1      43.924  27.534  28.102  1.00  0.00     0.167 HD
ATOM     26  C   UNL A   1      45.881  31.444  28.456  1.00  0.00     0.037 A 
ATOM     27  C   UNL A   1      43.757  24.860  27.286  1.00  0.00     0.037 A 
ATOM     28  C   UNL A   1      46.907  30.533  28.014  1.00  0.00     0.049 A 
ATOM     29  C   UNL A   1      45.173  25.285  27.026  1.00  0.00     0.074 A 
ATOM     30  C   UNL A   1      48.252  30.787  27.807  1.00  0.00     0.029 A 
ATOM     31  N   UNL A   1      46.700  29.197  27.695  1.00  0.00    -0.354 N 
ATOM     32  N   UNL A   1      45.724  26.462  27.209  1.00  0.00    -0.248 NA
ATOM     33  C   UNL A   1      46.089  24.267  26.495  1.00  0.00     0.031 C 
ATOM     34  C   UNL A   1      48.844  29.623  27.309  1.00  0.00     0.029 A 
ATOM     35  C   UNL A   1      47.886  28.621  27.268  1.00  0.00     0.049 A 
ATOM     36  H   UNL A   1      45.837  28.729  27.760  1.00  0.00     0.167 HD
ATOM     37  C   UNL A   1      47.058  26.318  26.847  1.00  0.00     0.074 A 
ATOM     38  C   UNL A   1      47.230  24.940  26.431  1.00  0.00     0.031 C 
ATOM     39  C   UNL A   1      48.049  27.243  26.869  1.00  0.00     0.037 A 
BRANCH  26  40
ATOM     40  C   UNL A   1      46.245  32.889  28.672  1.00  0.00     0.058 A 
ATOM     41  C   UNL A   1      46.663  33.376  29.922  1.00  0.00     0.135 A 
ATOM     42  C   UNL A   1      46.178  33.806  27.608  1.00  0.00     0.135 A 
ATOM     43  F   UNL A   1      46.739  32.550  30.978  1.00  0.00    -0.206 F 
ATOM     44  C   UNL A   1      46.949  34.722  30.122  1.00  0.00     0.059 A 
ATOM     45  C   UNL A   1      46.490  35.151  27.778  1.00  0.00     0.059 A 
ATOM     46  F   UNL A   1      45.792  33.398  26.389  1.00  0.00    -0.206 F 
ATOM     47  C   UNL A   1      46.850  35.605  29.044  1.00  0.00     0.060 A 
BRANCH  47  48
ATOM     48  S   UNL A   1      47.176  37.357  29.332  1.00  0.00     0.124 S 
ATOM     49  O   UNL A   1      48.057  37.675  28.213  1.00  0.00    -0.237 OA
ATOM     50  O   UNL A   1      45.838  37.938  29.267  1.00  0.00    -0.237 OA
ATOM     51  O   UNL A   1      47.802  37.377  30.649  1.00  0.00    -0.744 OA
ENDBRANCH  47  48
ENDBRANCH  26  40
BRANCH  27  52
ATOM     52  C   UNL A   1      43.286  23.483  26.985  1.00  0.00     0.058 A 
ATOM     53  C   UNL A   1      43.121  23.048  25.663  1.00  0.00     0.135 A 
ATOM     54  C   UNL A   1      43.072  22.550  28.014  1.00  0.00     0.135 A 
ATOM     55  F   UNL A   1      43.311  23.903  24.647  1.00  0.00    -0.206 F 
ATOM     56  C   UNL A   1      42.767  21.736  25.369  1.00  0.00     0.059 A 
ATOM     57  C   UNL A   1      42.743  21.227  27.744  1.00  0.00     0.059 A 
ATOM     58  F   UNL A   1      43.234  22.914  29.295  1.00  0.00    -0.206 F 
ATOM     59  C   UNL A   1      42.592  20.829  26.417  1.00  0.00     0.060 A 
BRANCH  59  60
ATOM     60  S   UNL A   1      42.225  19.107  26.016  1.00  0.00     0.124 S 
ATOM     61  O   UNL A   1      42.623  18.428  27.243  1.00  0.00    -0.237 OA
ATOM     62  O   UNL A   1      40.791  19.156  25.748  1.00  0.00    -0.237 OA
ATOM     63  O   UNL A   1      43.064  18.846  24.850  1.00  0.00    -0.744 OA
ENDBRANCH  59  60
ENDBRANCH  27  52
BRANCH  39  64
ATOM     64  C   UNL A   1      49.433  26.796  26.489  1.00  0.00     0.058 A 
ATOM     65  C   UNL A   1      50.284  26.150  27.400  1.00  0.00     0.135 A 
ATOM     66  C   UNL A   1      49.875  26.932  25.162  1.00  0.00     0.135 A 
ATOM     67  F   UNL A   1      49.916  26.003  28.682  1.00  0.00    -0.206 F 
ATOM     68  C   UNL A   1      51.525  25.655  27.007  1.00  0.00     0.059 A 
ATOM     69  C   UNL A   1      51.099  26.423  24.743  1.00  0.00     0.059 A 
ATOM     70  F   UNL A   1      49.098  27.538  24.251  1.00  0.00    -0.206 F 
ATOM     71  C   UNL A   1      51.919  25.787  25.674  1.00  0.00     0.060 A 
BRANCH  71  72
ATOM     72  S   UNL A   1      53.496  25.073  25.162  1.00  0.00     0.124 S 
ATOM     73  O   UNL A   1      53.587  25.521  23.776  1.00  0.00    -0.237 OA
ATOM     74  O   UNL A   1      54.434  25.694  26.092  1.00  0.00    -0.237 OA
ATOM     75  O   UNL A   1      53.296  23.639  25.347  1.00  0.00    -0.744 OA
ENDBRANCH  71  72
ENDBRANCH  39  64
ENDBRANCH  13  14
ENDBRANCH   6   8
ENDBRANCH   3   4
ENDBRANCH   2   3
ENDBRANCH   1   2
BRANCH   1  76
ATOM     76  C   UNL A   1      31.789  29.576  26.780  1.00  0.00     0.002 C 
BRANCH  76  77
ATOM     77  C   UNL A   1      31.668  28.220  27.483  1.00  0.00     0.021 C 
BRANCH  77  78
ATOM     78  C   UNL A   1      32.126  27.024  26.651  1.00  0.00     0.116 C 
BRANCH  78  79
ATOM     79  N   UNL A   1      31.046  26.506  25.827  1.00  0.00    -0.352 N 
ATOM     80  C   UNL A   1      30.828  26.695  24.487  1.00  0.00     0.255 C 
ATOM     81  H   UNL A   1      30.384  25.945  26.293  1.00  0.00     0.163 HD
ATOM     82  O   UNL A   1      29.728  26.448  23.997  1.00  0.00    -0.269 OA
BRANCH  80  83
ATOM     83  C   UNL A   1      31.906  27.214  23.627  1.00  0.00     0.082 A 
ATOM     84  C   UNL A   1      32.176  28.589  23.597  1.00  0.00     0.019 A 
ATOM     85  C   UNL A   1      32.706  26.336  22.886  1.00  0.00     0.143 A 
ATOM     86  C   UNL A   1      33.172  29.069  22.759  1.00  0.00     0.021 A 
ATOM     87  N   UNL A   1      33.679  26.817  22.068  1.00  0.00    -0.238 NA
ATOM     88  C   UNL A   1      33.883  28.152  22.012  1.00  0.00     0.113 A 
BRANCH  85  89
ATOM     89  N   UNL A   1      32.449  24.948  22.885  1.00  0.00    -0.340 N 
ATOM     90  H   UNL A   1      31.700  24.638  22.325  1.00  0.00     0.168 HD
BRANCH  89  91
ATOM     91  C   UNL A   1      33.149  23.961  23.597  1.00  0.00     0.040 A 
ATOM     92  C   UNL A   1      32.491  23.216  24.579  1.00  0.00     0.026 A 
ATOM     93  C   UNL A   1      34.523  23.764  23.412  1.00  0.00     0.039 A 
ATOM     94  C   UNL A   1      33.173  22.241  25.310  1.00  0.00     0.003 A 
ATOM     95  C   UNL A   1      35.230  22.806  24.151  1.00  0.00     0.058 A 
ATOM     96  C   UNL A   1      34.536  22.033  25.094  1.00  0.00     0.013 A 
BRANCH  95  97
ATOM     97  C   UNL A   1      36.705  22.601  23.936  1.00  0.00     0.416 C 
ATOM     98  F   UNL A   1      37.065  21.287  24.023  1.00  0.00    -0.166 F 
ATOM     99  F   UNL A   1      37.120  23.015  22.706  1.00  0.00    -0.166 F 
ATOM    100  F   UNL A   1      37.495  23.255  24.834  1.00  0.00    -0.166 F 
ENDBRANCH  95  97
ENDBRANCH  89  91
ENDBRANCH  85  89
ENDBRANCH  80  83
ENDBRANCH  78  79
ENDBRANCH  77  78
ENDBRANCH  76  77
ENDBRANCH   1  76
TORSDOF 19
ENDMDL
MODEL 3
REMARK VINA RESULT:     -11.8      3.716      8.997
REMARK SMILES O=C(NCCCCCCNC(=O)c1cccnc1Nc1cccc(C(F)(F)F)c1)c1ccc(-c2c3nc(c(-c4c(F)cc(S(=O)(=O)[O-])cc4F)c4ccc([nH]4)c(-c4c(F)cc(S(=O)(=O)[O-])cc4F)c4nc(c(-c5c(F)cc(S(=O)(=O)[O-])cc5F)c5ccc2[nH]5)C=C4)C=C3)cc1
REMARK SMILES IDX 6 1 5 2 4 3 3 4 1 5 2 6 30 8 31 9 95 10 32 11 94 12 33 13
REMARK SMILES IDX 34 14 35 15 88 16 36 17 93 18 87 19 89 20 37 21 92 22 86 23
REMARK SMILES IDX 85 24 38 26 72 27 51 28 71 29 52 30 55 31 70 32 90 33 53 34
REMARK SMILES IDX 54 35 69 37 91 38 56 39 39 40 40 41 49 42 41 43 42 44 48 45
REMARK SMILES IDX 50 46 43 47 44 48 45 49 46 50 47 51 73 52 74 53 83 54 75 55
REMARK SMILES IDX 76 56 82 57 84 58 77 59 78 60 79 61 80 62 81 63 57 64 58 65
REMARK SMILES IDX 67 66 59 67 60 68 66 69 68 70 61 71 62 72 63 73 64 74 65 75
REMARK SMILES IDX 7 76 8 77 9 78 10 79 11 80 12 82 13 83 14 84 18 85 15 86
REMARK SMILES IDX 17 87 16 88 19 89 20 91 21 92 29 93 22 94 24 95 23 96 25 97
REMARK SMILES IDX 26 98 27 99 28 100
REMARK H PARENT 3 7 89 25 55 36 10 81 19 90
REMARK Flexibility Score: inf
ROOT
ATOM      1  C   UNL A   1      32.573  28.619  24.242  1.00  0.00     0.002 C 
ENDROOT
BRANCH   1   2
ATOM      2  C   UNL A   1      33.002  27.860  25.499  1.00  0.00     0.021 C 
BRANCH   2   3
ATOM      3  C   UNL A   1      34.120  28.523  26.295  1.00  0.00     0.116 C 
BRANCH   3   4
ATOM      4  N   UNL A   1      33.817  29.909  26.612  1.00  0.00    -0.352 N 
ATOM      5  O   UNL A   1      33.900  31.822  27.798  1.00  0.00    -0.269 OA
ATOM      6  C   UNL A   1      34.421  30.743  27.519  1.00  0.00     0.251 C 
ATOM      7  H   UNL A   1      33.074  30.305  26.104  1.00  0.00     0.163 HD
BRANCH   6   8
ATOM      8  C   UNL A   1      35.682  30.335  28.173  1.00  0.00     0.039 A 
ATOM      9  C   UNL A   1      35.668  29.634  29.383  1.00  0.00     0.014 A 
ATOM     10  C   UNL A   1      36.894  30.646  27.554  1.00  0.00     0.014 A 
ATOM     11  C   UNL A   1      36.865  29.347  30.032  1.00  0.00     0.010 A 
ATOM     12  C   UNL A   1      38.095  30.292  28.172  1.00  0.00     0.010 A 
ATOM     13  C   UNL A   1      38.091  29.662  29.429  1.00  0.00    -0.014 A 
BRANCH  13  14
ATOM     14  C   UNL A   1      39.369  29.290  30.083  1.00  0.00     0.031 A 
ATOM     15  C   UNL A   1      39.897  30.089  31.242  1.00  0.00     0.074 A 
ATOM     16  C   UNL A   1      40.076  28.251  29.599  1.00  0.00     0.049 A 
ATOM     17  N   UNL A   1      41.039  29.978  31.870  1.00  0.00    -0.248 NA
ATOM     18  C   UNL A   1      39.029  31.161  31.754  1.00  0.00     0.031 C 
ATOM     19  C   UNL A   1      39.664  27.402  28.479  1.00  0.00     0.029 A 
ATOM     20  N   UNL A   1      41.295  27.743  29.971  1.00  0.00    -0.354 N 
ATOM     21  C   UNL A   1      41.042  30.979  32.834  1.00  0.00     0.074 A 
ATOM     22  C   UNL A   1      39.796  31.703  32.691  1.00  0.00     0.031 C 
ATOM     23  C   UNL A   1      40.610  26.479  28.258  1.00  0.00     0.029 A 
ATOM     24  C   UNL A   1      41.722  26.709  29.173  1.00  0.00     0.049 A 
ATOM     25  H   UNL A   1      41.813  28.086  30.735  1.00  0.00     0.167 HD
ATOM     26  C   UNL A   1      41.998  31.264  33.753  1.00  0.00     0.037 A 
ATOM     27  C   UNL A   1      42.893  26.044  29.149  1.00  0.00     0.037 A 
ATOM     28  C   UNL A   1      43.235  30.535  33.879  1.00  0.00     0.049 A 
ATOM     29  C   UNL A   1      43.957  26.402  30.147  1.00  0.00     0.074 A 
ATOM     30  C   UNL A   1      44.255  30.722  34.795  1.00  0.00     0.029 A 
ATOM     31  N   UNL A   1      43.629  29.489  33.053  1.00  0.00    -0.354 N 
ATOM     32  N   UNL A   1      43.935  27.330  31.075  1.00  0.00    -0.248 NA
ATOM     33  C   UNL A   1      45.202  25.625  30.101  1.00  0.00     0.031 C 
ATOM     34  C   UNL A   1      45.288  29.831  34.487  1.00  0.00     0.029 A 
ATOM     35  C   UNL A   1      44.886  29.040  33.422  1.00  0.00     0.049 A 
ATOM     36  H   UNL A   1      43.093  29.123  32.313  1.00  0.00     0.167 HD
ATOM     37  C   UNL A   1      45.148  27.227  31.745  1.00  0.00     0.074 A 
ATOM     38  C   UNL A   1      45.882  26.149  31.113  1.00  0.00     0.031 C 
ATOM     39  C   UNL A   1      45.603  27.955  32.794  1.00  0.00     0.037 A 
BRANCH  26  40
ATOM     40  C   UNL A   1      41.757  32.437  34.666  1.00  0.00     0.058 A 
ATOM     41  C   UNL A   1      42.232  33.725  34.368  1.00  0.00     0.135 A 
ATOM     42  C   UNL A   1      41.034  32.272  35.861  1.00  0.00     0.135 A 
ATOM     43  F   UNL A   1      42.936  33.943  33.245  1.00  0.00    -0.206 F 
ATOM     44  C   UNL A   1      42.047  34.791  35.242  1.00  0.00     0.059 A 
ATOM     45  C   UNL A   1      40.810  33.332  36.735  1.00  0.00     0.059 A 
ATOM     46  F   UNL A   1      40.549  31.067  36.196  1.00  0.00    -0.206 F 
ATOM     47  C   UNL A   1      41.342  34.582  36.429  1.00  0.00     0.060 A 
BRANCH  47  48
ATOM     48  S   UNL A   1      41.155  35.963  37.575  1.00  0.00     0.124 S 
ATOM     49  O   UNL A   1      42.362  36.736  37.298  1.00  0.00    -0.237 OA
ATOM     50  O   UNL A   1      39.903  36.569  37.132  1.00  0.00    -0.237 OA
ATOM     51  O   UNL A   1      41.108  35.319  38.883  1.00  0.00    -0.744 OA
ENDBRANCH  47  48
ENDBRANCH  26  40
BRANCH  27  52
ATOM     52  C   UNL A   1      43.099  24.979  28.134  1.00  0.00     0.058 A 
ATOM     53  C   UNL A   1      43.585  25.284  26.856  1.00  0.00     0.135 A 
ATOM     54  C   UNL A   1      42.892  23.627  28.452  1.00  0.00     0.135 A 
ATOM     55  F   UNL A   1      43.795  26.561  26.504  1.00  0.00    -0.206 F 
ATOM     56  C   UNL A   1      43.866  24.286  25.928  1.00  0.00     0.059 A 
ATOM     57  C   UNL A   1      43.190  22.610  27.552  1.00  0.00     0.059 A 
ATOM     58  F   UNL A   1      42.445  23.283  29.670  1.00  0.00    -0.206 F 
ATOM     59  C   UNL A   1      43.676  22.951  26.291  1.00  0.00     0.060 A 
BRANCH  59  60
ATOM     60  S   UNL A   1      44.134  21.663  25.110  1.00  0.00     0.124 S 
ATOM     61  O   UNL A   1      45.501  21.362  25.517  1.00  0.00    -0.237 OA
ATOM     62  O   UNL A   1      43.141  20.629  25.389  1.00  0.00    -0.237 OA
ATOM     63  O   UNL A   1      43.991  22.325  23.817  1.00  0.00    -0.744 OA
ENDBRANCH  59  60
ENDBRANCH  27  52
BRANCH  39  64
ATOM     64  C   UNL A   1      46.937  27.582  33.379  1.00  0.00     0.058 A 
ATOM     65  C   UNL A   1      47.067  26.598  34.371  1.00  0.00     0.135 A 
ATOM     66  C   UNL A   1      48.113  28.154  32.864  1.00  0.00     0.135 A 
ATOM     67  F   UNL A   1      45.976  26.028  34.906  1.00  0.00    -0.206 F 
ATOM     68  C   UNL A   1      48.317  26.196  34.834  1.00  0.00     0.059 A 
ATOM     69  C   UNL A   1      49.372  27.748  33.292  1.00  0.00     0.059 A 
ATOM     70  F   UNL A   1      48.044  29.095  31.910  1.00  0.00    -0.206 F 
ATOM     71  C   UNL A   1      49.464  26.768  34.280  1.00  0.00     0.060 A 
BRANCH  71  72
ATOM     72  S   UNL A   1      51.080  26.182  34.834  1.00  0.00     0.124 S 
ATOM     73  O   UNL A   1      50.712  25.306  35.941  1.00  0.00    -0.237 OA
ATOM     74  O   UNL A   1      51.593  25.516  33.641  1.00  0.00    -0.237 OA
ATOM     75  O   UNL A   1      51.777  27.408  35.208  1.00  0.00    -0.744 OA
ENDBRANCH  71  72
ENDBRANCH  39  64
ENDBRANCH  13  14
ENDBRANCH   6   8
ENDBRANCH   3   4
ENDBRANCH   2   3
ENDBRANCH   1   2
BRANCH   1  76
ATOM     76  C   UNL A   1      33.670  28.809  23.189  1.00  0.00     0.002 C 
BRANCH  76  77
ATOM     77  C   UNL A   1      33.728  27.732  22.102  1.00  0.00     0.021 C 
BRANCH  77  78
ATOM     78  C   UNL A   1      32.545  26.766  22.095  1.00  0.00     0.116 C 
BRANCH  78  79
ATOM     79  N   UNL A   1      32.945  25.439  21.657  1.00  0.00    -0.352 N 
ATOM     80  C   UNL A   1      33.224  24.335  22.420  1.00  0.00     0.255 C 
ATOM     81  H   UNL A   1      33.027  25.317  20.683  1.00  0.00     0.163 HD
ATOM     82  O   UNL A   1      33.830  23.382  21.935  1.00  0.00    -0.269 OA
BRANCH  80  83
ATOM     83  C   UNL A   1      32.813  24.289  23.834  1.00  0.00     0.082 A 
ATOM     84  C   UNL A   1      31.455  24.172  24.165  1.00  0.00     0.019 A 
ATOM     85  C   UNL A   1      33.773  24.299  24.852  1.00  0.00     0.143 A 
ATOM     86  C   UNL A   1      31.077  24.163  25.499  1.00  0.00     0.021 A 
ATOM     87  N   UNL A   1      33.392  24.290  26.157  1.00  0.00    -0.238 NA
ATOM     88  C   UNL A   1      32.074  24.235  26.451  1.00  0.00     0.113 A 
BRANCH  85  89
ATOM     89  N   UNL A   1      35.147  24.431  24.552  1.00  0.00    -0.340 N 
ATOM     90  H   UNL A   1      35.422  25.262  24.103  1.00  0.00     0.168 HD
BRANCH  89  91
ATOM     91  C   UNL A   1      36.161  23.500  24.827  1.00  0.00     0.040 A 
ATOM     92  C   UNL A   1      36.067  22.201  24.320  1.00  0.00     0.026 A 
ATOM     93  C   UNL A   1      37.230  23.815  25.676  1.00  0.00     0.039 A 
ATOM     94  C   UNL A   1      37.058  21.256  24.595  1.00  0.00     0.003 A 
ATOM     95  C   UNL A   1      38.222  22.873  25.981  1.00  0.00     0.058 A 
ATOM     96  C   UNL A   1      38.133  21.591  25.418  1.00  0.00     0.013 A 
BRANCH  95  97
ATOM     97  C   UNL A   1      39.367  23.228  26.891  1.00  0.00     0.416 C 
ATOM     98  F   UNL A   1      40.339  23.938  26.247  1.00  0.00    -0.166 F 
ATOM     99  F   UNL A   1      38.982  24.003  27.943  1.00  0.00    -0.166 F 
ATOM    100  F   UNL A   1      40.002  22.151  27.434  1.00  0.00    -0.166 F 
ENDBRANCH  95  97
ENDBRANCH  89  91
ENDBRANCH  85  89
ENDBRANCH  80  83
ENDBRANCH  78  79
ENDBRANCH  77  78
ENDBRANCH  76  77
ENDBRANCH   1  76
TORSDOF 19
ENDMDL
