MODEL 1
REMARK VINA RESULT:     -14.5      0.000      0.000
REMARK SMILES Cc1ccc(C2=NN(C(=O)CCC(=O)NCCCCCCNC(=O)c3ccc(-c4c5nc(c(-c6c(F)cc(S(=O)(=O)[O-])cc6F)c6ccc([nH]6)c(-c6c(F)cc(S(=O)(=O)[O-])cc6F)c6nc(c(-c7c(F)cc(S(=O)(=O)[O-])cc7F)c7ccc4[nH]7)C=C6)C=C5)cc3)[C@H](C[C@@H]3C=c4cccc(C)c4=NC3=O)C2)cc1
REMARK SMILES IDX 17 1 16 2 15 3 13 4 14 5 12 7 11 8 9 9 10 10 8 11 6 12 7 13
REMARK SMILES IDX 105 14 91 15 5 16 1 17 2 18 3 19 107 20 4 21 106 22 92 23
REMARK SMILES IDX 93 24 94 25 103 26 95 27 102 28 104 29 96 30 101 31 97 32
REMARK SMILES IDX 99 33 98 34 100 35 18 36 19 37 20 38 21 39 22 40 23 41 24 43
REMARK SMILES IDX 25 44 26 45 90 46 27 47 89 48 28 49 29 50 30 51 83 52 31 53
REMARK SMILES IDX 88 54 82 55 84 56 32 57 87 58 81 59 80 60 33 62 67 63 46 64
REMARK SMILES IDX 66 65 47 66 50 67 65 68 85 69 48 70 49 71 64 73 86 74 51 75
REMARK SMILES IDX 34 76 35 77 44 78 36 79 37 80 43 81 45 82 38 83 39 84 40 85
REMARK SMILES IDX 41 86 42 87 68 88 69 89 78 90 70 91 71 92 77 93 79 94 72 95
REMARK SMILES IDX 73 96 74 97 75 98 76 99 52 100 53 101 62 102 54 103 55 104
REMARK SMILES IDX 61 105 63 106 56 107 57 108 58 109 59 110 60 111
REMARK H PARENT 15 6 22 42 84 61 50 72
REMARK Flexibility Score: inf
ROOT
ATOM      1  C   UNL A   1      44.085  28.183  28.391  1.00  0.00     0.021 C 
ENDROOT
BRANCH   1   2
ATOM      2  C   UNL A   1      42.117  27.365  27.765  1.00  0.00     0.116 C 
BRANCH   2   3
ATOM      3  N   UNL A   1      40.866  26.932  28.685  1.00  0.00    -0.356 N 
ATOM      4  C   UNL A   1      39.819  26.095  28.593  1.00  0.00     0.220 C 
ATOM      5  O   UNL A   1      39.002  26.135  29.519  1.00  0.00    -0.275 OA
ATOM      6  H   UNL A   1      40.872  27.409  29.545  1.00  0.00     0.163 HD
BRANCH   4   7
ATOM      7  C   UNL A   1      39.678  25.130  27.460  1.00  0.00     0.110 C 
BRANCH   7   8
ATOM      8  C   UNL A   1      38.273  24.780  26.995  1.00  0.00     0.112 C 
BRANCH   8   9
ATOM      9  C   UNL A   1      38.065  23.386  26.373  1.00  0.00     0.243 C 
ATOM     10  O   UNL A   1      39.042  22.689  26.099  1.00  0.00    -0.273 OA
BRANCH   9  11
ATOM     11  N   UNL A   1      36.700  23.046  26.011  1.00  0.00    -0.230 N 
ATOM     12  C   UNL A   1      35.714  20.861  24.540  1.00  0.00     0.070 C 
ATOM     13  N   UNL A   1      36.433  21.258  25.837  1.00  0.00    -0.174 NA
ATOM     14  C   UNL A   1      35.314  22.626  23.354  1.00  0.00     0.086 C 
ATOM     15  C   UNL A   1      35.820  24.053  24.739  1.00  0.00     0.118 C 
BRANCH  12  16
ATOM     16  C   UNL A   1      34.686  19.363  24.814  1.00  0.00    -0.002 A 
ATOM     17  C   UNL A   1      32.721  15.551  25.216  1.00  0.00     0.044 C 
ATOM     18  C   UNL A   1      33.136  16.925  24.825  1.00  0.00    -0.051 A 
ATOM     19  C   UNL A   1      32.614  18.151  25.258  1.00  0.00     0.004 A 
ATOM     20  C   UNL A   1      34.290  16.940  24.149  1.00  0.00     0.004 A 
ATOM     21  C   UNL A   1      33.349  19.393  25.187  1.00  0.00     0.010 A 
ATOM     22  C   UNL A   1      35.061  18.033  24.413  1.00  0.00     0.010 A 
ENDBRANCH  12  16
BRANCH  15  23
ATOM     23  C   UNL A   1      34.786  25.038  25.635  1.00  0.00     0.045 C 
BRANCH  23  24
ATOM     24  C   UNL A   1      33.488  25.499  24.878  1.00  0.00     0.106 C 
ATOM     25  C   UNL A   1      33.094  26.922  25.171  1.00  0.00    -0.003 C 
ATOM     26  C   UNL A   1      32.190  24.678  24.977  1.00  0.00     0.253 C 
ATOM     27  C   UNL A   1      32.069  27.477  24.528  1.00  0.00    -0.003 A 
ATOM     28  N   UNL A   1      31.034  25.234  24.423  1.00  0.00    -0.212 NA
ATOM     29  O   UNL A   1      32.216  23.526  25.405  1.00  0.00    -0.272 OA
ATOM     30  C   UNL A   1      31.992  28.874  24.185  1.00  0.00     0.010 A 
ATOM     31  C   UNL A   1      30.971  26.519  24.216  1.00  0.00     0.077 A 
ATOM     32  C   UNL A   1      30.918  29.343  23.543  1.00  0.00     0.001 A 
ATOM     33  C   UNL A   1      29.711  27.216  23.752  1.00  0.00    -0.025 A 
ATOM     34  C   UNL A   1      29.742  28.520  23.408  1.00  0.00     0.005 A 
ATOM     35  C   UNL A   1      28.423  26.475  23.894  1.00  0.00     0.047 C 
ENDBRANCH  23  24
ENDBRANCH  15  23
ENDBRANCH   9  11
ENDBRANCH   8   9
ENDBRANCH   7   8
ENDBRANCH   4   7
ENDBRANCH   2   3
ENDBRANCH   1   2
BRANCH   1  36
ATOM     36  C   UNL A   1      44.743  29.230  26.834  1.00  0.00     0.002 C 
BRANCH  36  37
ATOM     37  C   UNL A   1      46.083  28.344  25.822  1.00  0.00     0.002 C 
BRANCH  37  38
ATOM     38  C   UNL A   1      46.041  26.667  25.001  1.00  0.00     0.021 C 
BRANCH  38  39
ATOM     39  C   UNL A   1      44.884  25.357  25.030  1.00  0.00     0.116 C 
BRANCH  39  40
ATOM     40  N   UNL A   1      45.163  24.091  25.784  1.00  0.00    -0.352 N 
ATOM     41  C   UNL A   1      45.461  23.702  27.103  1.00  0.00     0.251 C 
ATOM     42  H   UNL A   1      45.127  23.310  25.186  1.00  0.00     0.163 HD
ATOM     43  O   UNL A   1      46.036  22.612  27.212  1.00  0.00    -0.269 OA
BRANCH  41  44
ATOM     44  C   UNL A   1      45.086  24.387  28.390  1.00  0.00     0.039 A 
ATOM     45  C   UNL A   1      46.105  25.055  29.131  1.00  0.00     0.014 A 
ATOM     46  C   UNL A   1      43.811  24.366  28.938  1.00  0.00     0.014 A 
ATOM     47  C   UNL A   1      45.917  25.467  30.473  1.00  0.00     0.010 A 
ATOM     48  C   UNL A   1      43.620  24.782  30.266  1.00  0.00     0.010 A 
ATOM     49  C   UNL A   1      44.684  25.244  31.073  1.00  0.00    -0.014 A 
BRANCH  49  50
ATOM     50  C   UNL A   1      44.371  25.424  32.503  1.00  0.00     0.031 A 
ATOM     51  C   UNL A   1      43.989  26.773  33.003  1.00  0.00     0.074 A 
ATOM     52  C   UNL A   1      44.128  24.344  33.289  1.00  0.00     0.049 A 
ATOM     53  N   UNL A   1      43.763  27.073  34.238  1.00  0.00    -0.248 NA
ATOM     54  C   UNL A   1      43.870  27.923  32.112  1.00  0.00     0.031 C 
ATOM     55  C   UNL A   1      43.162  24.254  34.388  1.00  0.00     0.029 A 
ATOM     56  N   UNL A   1      44.755  23.090  33.310  1.00  0.00    -0.354 N 
ATOM     57  C   UNL A   1      43.196  28.333  34.275  1.00  0.00     0.074 A 
ATOM     58  C   UNL A   1      43.365  28.848  32.936  1.00  0.00     0.031 C 
ATOM     59  C   UNL A   1      43.371  23.119  35.079  1.00  0.00     0.029 A 
ATOM     60  C   UNL A   1      44.638  22.581  34.618  1.00  0.00     0.049 A 
ATOM     61  H   UNL A   1      45.196  22.648  32.550  1.00  0.00     0.167 HD
ATOM     62  C   UNL A   1      42.520  28.736  35.391  1.00  0.00     0.037 A 
ATOM     63  C   UNL A   1      45.713  22.330  35.422  1.00  0.00     0.037 A 
ATOM     64  C   UNL A   1      42.598  27.718  36.433  1.00  0.00     0.049 A 
ATOM     65  C   UNL A   1      45.638  22.988  36.777  1.00  0.00     0.074 A 
ATOM     66  C   UNL A   1      41.748  26.678  36.770  1.00  0.00     0.029 A 
ATOM     67  N   UNL A   1      43.791  27.494  37.102  1.00  0.00    -0.354 N 
ATOM     68  N   UNL A   1      44.896  24.026  37.025  1.00  0.00    -0.248 NA
ATOM     69  C   UNL A   1      46.489  22.620  37.905  1.00  0.00     0.031 C 
ATOM     70  C   UNL A   1      42.450  25.800  37.623  1.00  0.00     0.029 A 
ATOM     71  C   UNL A   1      43.724  26.312  37.816  1.00  0.00     0.049 A 
ATOM     72  H   UNL A   1      44.573  28.090  37.073  1.00  0.00     0.167 HD
ATOM     73  C   UNL A   1      45.288  24.578  38.213  1.00  0.00     0.074 A 
ATOM     74  C   UNL A   1      46.220  23.615  38.767  1.00  0.00     0.031 C 
ATOM     75  C   UNL A   1      44.867  25.825  38.575  1.00  0.00     0.037 A 
BRANCH  62  76
ATOM     76  C   UNL A   1      41.537  29.894  35.468  1.00  0.00     0.058 A 
ATOM     77  C   UNL A   1      41.796  30.991  36.328  1.00  0.00     0.135 A 
ATOM     78  C   UNL A   1      40.318  29.984  34.769  1.00  0.00     0.135 A 
ATOM     79  F   UNL A   1      42.947  31.102  37.006  1.00  0.00    -0.206 F 
ATOM     80  C   UNL A   1      40.888  32.026  36.552  1.00  0.00     0.059 A 
ATOM     81  C   UNL A   1      39.371  30.993  35.004  1.00  0.00     0.059 A 
ATOM     82  F   UNL A   1      40.010  29.124  33.790  1.00  0.00    -0.206 F 
ATOM     83  C   UNL A   1      39.662  32.005  35.909  1.00  0.00     0.060 A 
BRANCH  83  84
ATOM     84  S   UNL A   1      38.485  33.324  36.266  1.00  0.00     0.124 S 
ATOM     85  O   UNL A   1      38.738  33.585  37.680  1.00  0.00    -0.237 OA
ATOM     86  O   UNL A   1      38.909  34.371  35.343  1.00  0.00    -0.237 OA
ATOM     87  O   UNL A   1      37.190  32.716  35.970  1.00  0.00    -0.744 OA
ENDBRANCH  83  84
ENDBRANCH  62  76
BRANCH  63  88
ATOM     88  C   UNL A   1      47.014  22.259  34.700  1.00  0.00     0.058 A 
ATOM     89  C   UNL A   1      47.854  23.373  34.573  1.00  0.00     0.135 A 
ATOM     90  C   UNL A   1      47.552  20.997  34.401  1.00  0.00     0.135 A 
ATOM     91  F   UNL A   1      47.396  24.604  34.860  1.00  0.00    -0.206 F 
ATOM     92  C   UNL A   1      49.198  23.231  34.218  1.00  0.00     0.059 A 
ATOM     93  C   UNL A   1      48.894  20.830  34.094  1.00  0.00     0.059 A 
ATOM     94  F   UNL A   1      46.795  19.896  34.485  1.00  0.00    -0.206 F 
ATOM     95  C   UNL A   1      49.722  21.946  34.036  1.00  0.00     0.060 A 
BRANCH  95  96
ATOM     96  S   UNL A   1      51.487  21.643  33.773  1.00  0.00     0.124 S 
ATOM     97  O   UNL A   1      51.683  21.974  32.364  1.00  0.00    -0.237 OA
ATOM     98  O   UNL A   1      52.092  22.563  34.731  1.00  0.00    -0.237 OA
ATOM     99  O   UNL A   1      51.621  20.230  34.100  1.00  0.00    -0.744 OA
ENDBRANCH  95  96
ENDBRANCH  63  88
BRANCH  75 100
ATOM    100  C   UNL A   1      45.442  26.653  39.697  1.00  0.00     0.058 A 
ATOM    101  C   UNL A   1      44.863  26.770  40.972  1.00  0.00     0.135 A 
ATOM    102  C   UNL A   1      46.692  27.298  39.537  1.00  0.00     0.135 A 
ATOM    103  F   UNL A   1      43.766  26.080  41.313  1.00  0.00    -0.206 F 
ATOM    104  C   UNL A   1      45.409  27.579  41.969  1.00  0.00     0.059 A 
ATOM    105  C   UNL A   1      47.289  28.055  40.539  1.00  0.00     0.059 A 
ATOM    106  F   UNL A   1      47.384  27.212  38.390  1.00  0.00    -0.206 F 
ATOM    107  C   UNL A   1      46.611  28.236  41.736  1.00  0.00     0.060 A 
BRANCH 107 108
ATOM    108  S   UNL A   1      47.289  29.324  42.997  1.00  0.00     0.124 S 
ATOM    109  O   UNL A   1      46.289  30.387  43.026  1.00  0.00    -0.237 OA
ATOM    110  O   UNL A   1      47.331  28.466  44.177  1.00  0.00    -0.237 OA
ATOM    111  O   UNL A   1      48.592  29.698  42.456  1.00  0.00    -0.744 OA
ENDBRANCH 107 108
ENDBRANCH  75 100
ENDBRANCH  49  50
ENDBRANCH  41  44
ENDBRANCH  39  40
ENDBRANCH  38  39
ENDBRANCH  37  38
ENDBRANCH  36  37
ENDBRANCH   1  36
TORSDOF 22
ENDMDL
MODEL 2
REMARK VINA RESULT:     -14.1      4.069      6.056
REMARK SMILES Cc1ccc(C2=NN(C(=O)CCC(=O)NCCCCCCNC(=O)c3ccc(-c4c5nc(c(-c6c(F)cc(S(=O)(=O)[O-])cc6F)c6ccc([nH]6)c(-c6c(F)cc(S(=O)(=O)[O-])cc6F)c6nc(c(-c7c(F)cc(S(=O)(=O)[O-])cc7F)c7ccc4[nH]7)C=C6)C=C5)cc3)[C@H](C[C@@H]3C=c4cccc(C)c4=NC3=O)C2)cc1
REMARK SMILES IDX 17 1 16 2 15 3 13 4 14 5 12 7 11 8 9 9 10 10 8 11 6 12 7 13
REMARK SMILES IDX 105 14 91 15 5 16 1 17 2 18 3 19 107 20 4 21 106 22 92 23
REMARK SMILES IDX 93 24 94 25 103 26 95 27 102 28 104 29 96 30 101 31 97 32
REMARK SMILES IDX 99 33 98 34 100 35 18 36 19 37 20 38 21 39 22 40 23 41 24 43
REMARK SMILES IDX 25 44 26 45 90 46 27 47 89 48 28 49 29 50 30 51 83 52 31 53
REMARK SMILES IDX 88 54 82 55 84 56 32 57 87 58 81 59 80 60 33 62 67 63 46 64
REMARK SMILES IDX 66 65 47 66 50 67 65 68 85 69 48 70 49 71 64 73 86 74 51 75
REMARK SMILES IDX 34 76 35 77 44 78 36 79 37 80 43 81 45 82 38 83 39 84 40 85
REMARK SMILES IDX 41 86 42 87 68 88 69 89 78 90 70 91 71 92 77 93 79 94 72 95
REMARK SMILES IDX 73 96 74 97 75 98 76 99 52 100 53 101 62 102 54 103 55 104
REMARK SMILES IDX 61 105 63 106 56 107 57 108 58 109 59 110 60 111
REMARK H PARENT 15 6 22 42 84 61 50 72
REMARK Flexibility Score: inf
ROOT
ATOM      1  C   UNL A   1      39.237  23.590  26.513  1.00  0.00     0.021 C 
ENDROOT
BRANCH   1   2
ATOM      2  C   UNL A   1      37.623  22.366  25.601  1.00  0.00     0.116 C 
BRANCH   2   3
ATOM      3  N   UNL A   1      36.242  21.864  26.263  1.00  0.00    -0.356 N 
ATOM      4  C   UNL A   1      35.161  22.424  26.832  1.00  0.00     0.220 C 
ATOM      5  O   UNL A   1      34.334  21.647  27.322  1.00  0.00    -0.275 OA
ATOM      6  H   UNL A   1      36.172  20.882  26.246  1.00  0.00     0.163 HD
BRANCH   4   7
ATOM      7  C   UNL A   1      34.945  23.903  26.826  1.00  0.00     0.110 C 
BRANCH   7   8
ATOM      8  C   UNL A   1      34.411  24.538  25.552  1.00  0.00     0.112 C 
BRANCH   8   9
ATOM      9  C   UNL A   1      34.285  23.630  24.314  1.00  0.00     0.243 C 
ATOM     10  O   UNL A   1      34.953  23.873  23.309  1.00  0.00    -0.273 OA
BRANCH   9  11
ATOM     11  N   UNL A   1      33.252  22.611  24.372  1.00  0.00    -0.230 N 
ATOM     12  C   UNL A   1      33.190  20.037  23.238  1.00  0.00     0.070 C 
ATOM     13  N   UNL A   1      33.910  20.921  24.265  1.00  0.00    -0.174 NA
ATOM     14  C   UNL A   1      31.643  21.180  22.245  1.00  0.00     0.086 C 
ATOM     15  C   UNL A   1      31.683  22.853  23.432  1.00  0.00     0.118 C 
BRANCH  12  16
ATOM     16  C   UNL A   1      33.195  18.285  23.789  1.00  0.00    -0.002 A 
ATOM     17  C   UNL A   1      32.861  14.355  25.522  1.00  0.00     0.044 C 
ATOM     18  C   UNL A   1      33.326  15.684  25.040  1.00  0.00    -0.051 A 
ATOM     19  C   UNL A   1      34.025  15.991  23.865  1.00  0.00     0.004 A 
ATOM     20  C   UNL A   1      32.797  16.697  25.735  1.00  0.00     0.004 A 
ATOM     21  C   UNL A   1      34.033  17.307  23.270  1.00  0.00     0.010 A 
ATOM     22  C   UNL A   1      32.546  17.803  24.979  1.00  0.00     0.010 A 
ENDBRANCH  12  16
BRANCH  15  23
ATOM     23  C   UNL A   1      30.565  23.315  24.607  1.00  0.00     0.045 C 
BRANCH  23  24
ATOM     24  C   UNL A   1      30.621  24.831  25.017  1.00  0.00     0.106 C 
ATOM     25  C   UNL A   1      31.268  25.711  23.981  1.00  0.00    -0.003 C 
ATOM     26  C   UNL A   1      31.232  25.256  26.365  1.00  0.00     0.253 C 
ATOM     27  C   UNL A   1      31.300  27.030  24.152  1.00  0.00    -0.003 A 
ATOM     28  N   UNL A   1      31.405  26.625  26.589  1.00  0.00    -0.212 NA
ATOM     29  O   UNL A   1      31.423  24.423  27.249  1.00  0.00    -0.272 OA
ATOM     30  C   UNL A   1      31.241  27.986  23.076  1.00  0.00     0.010 A 
ATOM     31  C   UNL A   1      31.439  27.444  25.577  1.00  0.00     0.077 A 
ATOM     32  C   UNL A   1      31.286  29.295  23.344  1.00  0.00     0.001 A 
ATOM     33  C   UNL A   1      31.761  28.915  25.723  1.00  0.00    -0.025 A 
ATOM     34  C   UNL A   1      31.635  29.747  24.668  1.00  0.00     0.005 A 
ATOM     35  C   UNL A   1      32.415  29.354  26.991  1.00  0.00     0.047 C 
ENDBRANCH  23  24
ENDBRANCH  15  23
ENDBRANCH   9  11
ENDBRANCH   8   9
ENDBRANCH   7   8
ENDBRANCH   4   7
ENDBRANCH   2   3
ENDBRANCH   1   2
BRANCH   1  36
ATOM     36  C   UNL A   1      40.717  22.316  26.891  1.00  0.00     0.002 C 
BRANCH  36  37
ATOM     37  C   UNL A   1      42.311  22.682  25.926  1.00  0.00     0.002 C 
BRANCH  37  38
ATOM     38  C   UNL A   1      43.553  24.057  26.155  1.00  0.00     0.021 C 
BRANCH  38  39
ATOM     39  C   UNL A   1      44.289  25.192  25.049  1.00  0.00     0.116 C 
BRANCH  39  40
ATOM     40  N   UNL A   1      43.690  26.547  24.813  1.00  0.00    -0.352 N 
ATOM     41  C   UNL A   1      42.849  27.452  25.487  1.00  0.00     0.251 C 
ATOM     42  H   UNL A   1      43.963  26.905  23.938  1.00  0.00     0.163 HD
ATOM     43  O   UNL A   1      42.262  28.264  24.762  1.00  0.00    -0.269 OA
BRANCH  41  44
ATOM     44  C   UNL A   1      42.652  27.622  26.970  1.00  0.00     0.039 A 
ATOM     45  C   UNL A   1      41.523  27.003  27.585  1.00  0.00     0.014 A 
ATOM     46  C   UNL A   1      43.473  28.393  27.780  1.00  0.00     0.014 A 
ATOM     47  C   UNL A   1      41.094  27.340  28.892  1.00  0.00     0.010 A 
ATOM     48  C   UNL A   1      43.054  28.723  29.080  1.00  0.00     0.010 A 
ATOM     49  C   UNL A   1      41.822  28.280  29.611  1.00  0.00    -0.014 A 
BRANCH  49  50
ATOM     50  C   UNL A   1      41.419  28.893  30.891  1.00  0.00     0.031 A 
ATOM     51  C   UNL A   1      40.595  30.133  30.879  1.00  0.00     0.074 A 
ATOM     52  C   UNL A   1      41.523  28.189  32.047  1.00  0.00     0.049 A 
ATOM     53  N   UNL A   1      40.241  30.801  31.926  1.00  0.00    -0.248 NA
ATOM     54  C   UNL A   1      40.130  30.742  29.636  1.00  0.00     0.031 C 
ATOM     55  C   UNL A   1      40.605  28.231  33.189  1.00  0.00     0.029 A 
ATOM     56  N   UNL A   1      42.529  27.313  32.477  1.00  0.00    -0.354 N 
ATOM     57  C   UNL A   1      39.287  31.724  31.540  1.00  0.00     0.074 A 
ATOM     58  C   UNL A   1      39.319  31.701  30.096  1.00  0.00     0.031 C 
ATOM     59  C   UNL A   1      41.156  27.586  34.233  1.00  0.00     0.029 A 
ATOM     60  C   UNL A   1      42.545  27.345  33.884  1.00  0.00     0.049 A 
ATOM     61  H   UNL A   1      43.117  26.775  31.900  1.00  0.00     0.167 HD
ATOM     62  C   UNL A   1      38.478  32.291  32.483  1.00  0.00     0.037 A 
ATOM     63  C   UNL A   1      43.614  27.784  34.611  1.00  0.00     0.037 A 
ATOM     64  C   UNL A   1      38.854  31.843  33.819  1.00  0.00     0.049 A 
ATOM     65  C   UNL A   1      43.279  28.856  35.617  1.00  0.00     0.074 A 
ATOM     66  C   UNL A   1      38.387  30.804  34.608  1.00  0.00     0.029 A 
ATOM     67  N   UNL A   1      40.031  32.289  34.400  1.00  0.00    -0.354 N 
ATOM     68  N   UNL A   1      42.227  29.614  35.528  1.00  0.00    -0.248 NA
ATOM     69  C   UNL A   1      44.166  29.249  36.710  1.00  0.00     0.031 C 
ATOM     70  C   UNL A   1      39.313  30.601  35.654  1.00  0.00     0.029 A 
ATOM     71  C   UNL A   1      40.336  31.524  35.510  1.00  0.00     0.049 A 
ATOM     72  H   UNL A   1      40.572  33.042  34.069  1.00  0.00     0.167 HD
ATOM     73  C   UNL A   1      42.374  30.679  36.374  1.00  0.00     0.074 A 
ATOM     74  C   UNL A   1      43.553  30.358  37.154  1.00  0.00     0.031 C 
ATOM     75  C   UNL A   1      41.551  31.763  36.277  1.00  0.00     0.037 A 
BRANCH  62  76
ATOM     76  C   UNL A   1      37.164  33.010  32.215  1.00  0.00     0.058 A 
ATOM     77  C   UNL A   1      37.021  34.379  32.550  1.00  0.00     0.135 A 
ATOM     78  C   UNL A   1      36.003  32.423  31.676  1.00  0.00     0.135 A 
ATOM     79  F   UNL A   1      38.051  35.109  33.000  1.00  0.00    -0.206 F 
ATOM     80  C   UNL A   1      35.814  35.073  32.456  1.00  0.00     0.059 A 
ATOM     81  C   UNL A   1      34.769  33.087  31.606  1.00  0.00     0.059 A 
ATOM     82  F   UNL A   1      36.024  31.194  31.146  1.00  0.00    -0.206 F 
ATOM     83  C   UNL A   1      34.682  34.413  32.011  1.00  0.00     0.060 A 
BRANCH  83  84
ATOM     84  S   UNL A   1      33.125  35.320  31.959  1.00  0.00     0.124 S 
ATOM     85  O   UNL A   1      32.295  34.556  32.886  1.00  0.00    -0.237 OA
ATOM     86  O   UNL A   1      33.528  36.646  32.415  1.00  0.00    -0.237 OA
ATOM     87  O   UNL A   1      32.727  35.235  30.556  1.00  0.00    -0.744 OA
ENDBRANCH  83  84
ENDBRANCH  62  76
BRANCH  63  88
ATOM     88  C   UNL A   1      44.888  27.855  33.843  1.00  0.00     0.058 A 
ATOM     89  C   UNL A   1      45.247  28.990  33.104  1.00  0.00     0.135 A 
ATOM     90  C   UNL A   1      45.885  26.900  34.098  1.00  0.00     0.135 A 
ATOM     91  F   UNL A   1      44.336  29.944  32.842  1.00  0.00    -0.206 F 
ATOM     92  C   UNL A   1      46.563  29.196  32.684  1.00  0.00     0.059 A 
ATOM     93  C   UNL A   1      47.206  27.108  33.733  1.00  0.00     0.059 A 
ATOM     94  F   UNL A   1      45.601  25.785  34.782  1.00  0.00    -0.206 F 
ATOM     95  C   UNL A   1      47.548  28.273  33.055  1.00  0.00     0.060 A 
BRANCH  95  96
ATOM     96  S   UNL A   1      49.309  28.548  32.736  1.00  0.00     0.124 S 
ATOM     97  O   UNL A   1      49.393  29.988  32.507  1.00  0.00    -0.237 OA
ATOM     98  O   UNL A   1      49.913  28.066  33.974  1.00  0.00    -0.237 OA
ATOM     99  O   UNL A   1      49.554  27.721  31.563  1.00  0.00    -0.744 OA
ENDBRANCH  95  96
ENDBRANCH  63  88
BRANCH  75 100
ATOM    100  C   UNL A   1      41.780  33.099  36.940  1.00  0.00     0.058 A 
ATOM    101  C   UNL A   1      42.835  33.971  36.621  1.00  0.00     0.135 A 
ATOM    102  C   UNL A   1      40.850  33.592  37.886  1.00  0.00     0.135 A 
ATOM    103  F   UNL A   1      43.694  33.702  35.628  1.00  0.00    -0.206 F 
ATOM    104  C   UNL A   1      43.033  35.180  37.288  1.00  0.00     0.059 A 
ATOM    105  C   UNL A   1      40.990  34.825  38.516  1.00  0.00     0.059 A 
ATOM    106  F   UNL A   1      39.762  32.888  38.233  1.00  0.00    -0.206 F 
ATOM    107  C   UNL A   1      42.117  35.588  38.250  1.00  0.00     0.060 A 
BRANCH 107 108
ATOM    108  S   UNL A   1      42.398  37.119  39.153  1.00  0.00     0.124 S 
ATOM    109  O   UNL A   1      43.280  36.662  40.223  1.00  0.00    -0.237 OA
ATOM    110  O   UNL A   1      43.019  37.977  38.148  1.00  0.00    -0.237 OA
ATOM    111  O   UNL A   1      41.057  37.518  39.566  1.00  0.00    -0.744 OA
ENDBRANCH 107 108
ENDBRANCH  75 100
ENDBRANCH  49  50
ENDBRANCH  41  44
ENDBRANCH  39  40
ENDBRANCH  38  39
ENDBRANCH  37  38
ENDBRANCH  36  37
ENDBRANCH   1  36
TORSDOF 22
ENDMDL
MODEL 3
REMARK VINA RESULT:     -13.6      7.014     13.614
REMARK SMILES Cc1ccc(C2=NN(C(=O)CCC(=O)NCCCCCCNC(=O)c3ccc(-c4c5nc(c(-c6c(F)cc(S(=O)(=O)[O-])cc6F)c6ccc([nH]6)c(-c6c(F)cc(S(=O)(=O)[O-])cc6F)c6nc(c(-c7c(F)cc(S(=O)(=O)[O-])cc7F)c7ccc4[nH]7)C=C6)C=C5)cc3)[C@H](C[C@@H]3C=c4cccc(C)c4=NC3=O)C2)cc1
REMARK SMILES IDX 17 1 16 2 15 3 13 4 14 5 12 7 11 8 9 9 10 10 8 11 6 12 7 13
REMARK SMILES IDX 105 14 91 15 5 16 1 17 2 18 3 19 107 20 4 21 106 22 92 23
REMARK SMILES IDX 93 24 94 25 103 26 95 27 102 28 104 29 96 30 101 31 97 32
REMARK SMILES IDX 99 33 98 34 100 35 18 36 19 37 20 38 21 39 22 40 23 41 24 43
REMARK SMILES IDX 25 44 26 45 90 46 27 47 89 48 28 49 29 50 30 51 83 52 31 53
REMARK SMILES IDX 88 54 82 55 84 56 32 57 87 58 81 59 80 60 33 62 67 63 46 64
REMARK SMILES IDX 66 65 47 66 50 67 65 68 85 69 48 70 49 71 64 73 86 74 51 75
REMARK SMILES IDX 34 76 35 77 44 78 36 79 37 80 43 81 45 82 38 83 39 84 40 85
REMARK SMILES IDX 41 86 42 87 68 88 69 89 78 90 70 91 71 92 77 93 79 94 72 95
REMARK SMILES IDX 73 96 74 97 75 98 76 99 52 100 53 101 62 102 54 103 55 104
REMARK SMILES IDX 61 105 63 106 56 107 57 108 58 109 59 110 60 111
REMARK H PARENT 15 6 22 42 84 61 50 72
REMARK Flexibility Score: inf
ROOT
ATOM      1  C   UNL A   1      44.632  32.223  38.368  1.00  0.00     0.021 C 
ENDROOT
BRANCH   1   2
ATOM      2  C   UNL A   1      43.459  31.377  36.682  1.00  0.00     0.116 C 
BRANCH   2   3
ATOM      3  N   UNL A   1      42.526  30.063  36.662  1.00  0.00    -0.356 N 
ATOM      4  C   UNL A   1      41.729  29.433  35.782  1.00  0.00     0.220 C 
ATOM      5  O   UNL A   1      41.088  28.470  36.214  1.00  0.00    -0.275 OA
ATOM      6  H   UNL A   1      42.545  29.596  37.529  1.00  0.00     0.163 HD
BRANCH   4   7
ATOM      7  C   UNL A   1      41.663  29.843  34.346  1.00  0.00     0.110 C 
BRANCH   7   8
ATOM      8  C   UNL A   1      40.569  30.815  33.934  1.00  0.00     0.112 C 
BRANCH   8   9
ATOM      9  C   UNL A   1      39.123  30.281  33.917  1.00  0.00     0.243 C 
ATOM     10  O   UNL A   1      38.520  30.123  34.978  1.00  0.00    -0.273 OA
BRANCH   9  11
ATOM     11  N   UNL A   1      38.616  29.855  32.625  1.00  0.00    -0.230 N 
ATOM     12  C   UNL A   1      40.006  29.118  30.294  1.00  0.00     0.070 C 
ATOM     13  N   UNL A   1      39.740  28.727  31.754  1.00  0.00    -0.174 NA
ATOM     14  C   UNL A   1      38.943  30.943  29.820  1.00  0.00     0.086 C 
ATOM     15  C   UNL A   1      37.800  31.087  31.519  1.00  0.00     0.118 C 
BRANCH  12  16
ATOM     16  C   UNL A   1      40.292  27.618  29.273  1.00  0.00    -0.002 A 
ATOM     17  C   UNL A   1      40.378  24.071  26.830  1.00  0.00     0.044 C 
ATOM     18  C   UNL A   1      40.466  25.063  27.935  1.00  0.00    -0.051 A 
ATOM     19  C   UNL A   1      41.595  25.742  28.411  1.00  0.00     0.004 A 
ATOM     20  C   UNL A   1      39.264  25.486  28.343  1.00  0.00     0.004 A 
ATOM     21  C   UNL A   1      41.520  26.981  29.150  1.00  0.00     0.010 A 
ATOM     22  C   UNL A   1      39.248  26.795  28.724  1.00  0.00     0.010 A 
ENDBRANCH  12  16
BRANCH  15  23
ATOM     23  C   UNL A   1      36.153  30.768  31.688  1.00  0.00     0.045 C 
BRANCH  23  24
ATOM     24  C   UNL A   1      35.203  31.953  31.283  1.00  0.00     0.106 C 
ATOM     25  C   UNL A   1      35.743  32.800  30.161  1.00  0.00    -0.003 C 
ATOM     26  C   UNL A   1      34.689  32.943  32.343  1.00  0.00     0.253 C 
ATOM     27  C   UNL A   1      35.003  33.781  29.651  1.00  0.00    -0.003 A 
ATOM     28  N   UNL A   1      33.992  34.066  31.890  1.00  0.00    -0.212 NA
ATOM     29  O   UNL A   1      34.775  32.670  33.539  1.00  0.00    -0.272 OA
ATOM     30  C   UNL A   1      35.045  34.191  28.271  1.00  0.00     0.010 A 
ATOM     31  C   UNL A   1      34.133  34.457  30.655  1.00  0.00     0.077 A 
ATOM     32  C   UNL A   1      34.268  35.193  27.849  1.00  0.00     0.001 A 
ATOM     33  C   UNL A   1      33.526  35.737  30.125  1.00  0.00    -0.025 A 
ATOM     34  C   UNL A   1      33.575  36.019  28.807  1.00  0.00     0.005 A 
ATOM     35  C   UNL A   1      33.076  36.751  31.125  1.00  0.00     0.047 C 
ENDBRANCH  23  24
ENDBRANCH  15  23
ENDBRANCH   9  11
ENDBRANCH   8   9
ENDBRANCH   7   8
ENDBRANCH   4   7
ENDBRANCH   2   3
ENDBRANCH   1   2
BRANCH   1  36
ATOM     36  C   UNL A   1      43.351  33.346  39.394  1.00  0.00     0.002 C 
BRANCH  36  37
ATOM     37  C   UNL A   1      42.493  34.681  38.351  1.00  0.00     0.002 C 
BRANCH  37  38
ATOM     38  C   UNL A   1      41.061  34.526  37.163  1.00  0.00     0.021 C 
BRANCH  38  39
ATOM     39  C   UNL A   1      40.103  33.167  36.624  1.00  0.00     0.116 C 
BRANCH  39  40
ATOM     40  N   UNL A   1      38.857  33.368  35.814  1.00  0.00    -0.352 N 
ATOM     41  C   UNL A   1      38.466  34.046  34.645  1.00  0.00     0.251 C 
ATOM     42  H   UNL A   1      38.097  32.887  36.213  1.00  0.00     0.163 HD
ATOM     43  O   UNL A   1      37.257  34.299  34.563  1.00  0.00    -0.269 OA
BRANCH  41  44
ATOM     44  C   UNL A   1      39.304  34.413  33.449  1.00  0.00     0.039 A 
ATOM     45  C   UNL A   1      38.749  34.240  32.146  1.00  0.00     0.014 A 
ATOM     46  C   UNL A   1      40.615  34.861  33.527  1.00  0.00     0.014 A 
ATOM     47  C   UNL A   1      39.543  34.274  30.975  1.00  0.00     0.010 A 
ATOM     48  C   UNL A   1      41.403  34.904  32.365  1.00  0.00     0.010 A 
ATOM     49  C   UNL A   1      40.905  34.521  31.099  1.00  0.00    -0.014 A 
BRANCH  49  50
ATOM     50  C   UNL A   1      41.909  34.401  30.026  1.00  0.00     0.031 A 
ATOM     51  C   UNL A   1      42.648  33.119  29.858  1.00  0.00     0.074 A 
ATOM     52  C   UNL A   1      41.943  35.311  29.019  1.00  0.00     0.049 A 
ATOM     53  N   UNL A   1      43.597  32.913  29.007  1.00  0.00    -0.248 NA
ATOM     54  C   UNL A   1      42.380  31.956  30.698  1.00  0.00     0.031 C 
ATOM     55  C   UNL A   1      42.255  35.053  27.609  1.00  0.00     0.029 A 
ATOM     56  N   UNL A   1      41.763  36.700  29.058  1.00  0.00    -0.354 N 
ATOM     57  C   UNL A   1      43.854  31.556  28.975  1.00  0.00     0.074 A 
ATOM     58  C   UNL A   1      43.131  31.020  30.104  1.00  0.00     0.031 C 
ATOM     59  C   UNL A   1      42.423  36.222  26.965  1.00  0.00     0.029 A 
ATOM     60  C   UNL A   1      42.490  37.252  27.986  1.00  0.00     0.049 A 
ATOM     61  H   UNL A   1      41.226  37.198  29.715  1.00  0.00     0.167 HD
ATOM     62  C   UNL A   1      44.527  31.022  27.913  1.00  0.00     0.037 A 
ATOM     63  C   UNL A   1      43.541  38.107  28.157  1.00  0.00     0.037 A 
ATOM     64  C   UNL A   1      44.943  32.071  26.989  1.00  0.00     0.049 A 
ATOM     65  C   UNL A   1      44.804  37.684  27.448  1.00  0.00     0.074 A 
ATOM     66  C   UNL A   1      44.346  32.587  25.850  1.00  0.00     0.029 A 
ATOM     67  N   UNL A   1      45.962  32.944  27.337  1.00  0.00    -0.354 N 
ATOM     68  N   UNL A   1      45.043  36.458  27.089  1.00  0.00    -0.248 NA
ATOM     69  C   UNL A   1      45.941  38.571  27.218  1.00  0.00     0.031 C 
ATOM     70  C   UNL A   1      44.990  33.801  25.532  1.00  0.00     0.029 A 
ATOM     71  C   UNL A   1      45.988  34.020  26.469  1.00  0.00     0.049 A 
ATOM     72  H   UNL A   1      46.578  32.818  28.094  1.00  0.00     0.167 HD
ATOM     73  C   UNL A   1      46.370  36.336  26.783  1.00  0.00     0.074 A 
ATOM     74  C   UNL A   1      46.867  37.698  26.790  1.00  0.00     0.031 C 
ATOM     75  C   UNL A   1      46.943  35.105  26.644  1.00  0.00     0.037 A 
BRANCH  62  76
ATOM     76  C   UNL A   1      44.564  29.550  27.530  1.00  0.00     0.058 A 
ATOM     77  C   UNL A   1      45.593  28.711  28.026  1.00  0.00     0.135 A 
ATOM     78  C   UNL A   1      43.662  28.906  26.661  1.00  0.00     0.135 A 
ATOM     79  F   UNL A   1      46.486  29.145  28.926  1.00  0.00    -0.206 F 
ATOM     80  C   UNL A   1      45.770  27.388  27.622  1.00  0.00     0.059 A 
ATOM     81  C   UNL A   1      43.840  27.589  26.209  1.00  0.00     0.059 A 
ATOM     82  F   UNL A   1      42.540  29.507  26.249  1.00  0.00    -0.206 F 
ATOM     83  C   UNL A   1      44.907  26.840  26.688  1.00  0.00     0.060 A 
BRANCH  83  84
ATOM     84  S   UNL A   1      45.200  25.148  26.139  1.00  0.00     0.124 S 
ATOM     85  O   UNL A   1      45.626  25.345  24.757  1.00  0.00    -0.237 OA
ATOM     86  O   UNL A   1      46.237  24.702  27.064  1.00  0.00    -0.237 OA
ATOM     87  O   UNL A   1      43.898  24.506  26.301  1.00  0.00    -0.744 OA
ENDBRANCH  83  84
ENDBRANCH  62  76
BRANCH  63  88
ATOM     88  C   UNL A   1      43.619  38.718  29.513  1.00  0.00     0.058 A 
ATOM     89  C   UNL A   1      44.378  38.147  30.543  1.00  0.00     0.135 A 
ATOM     90  C   UNL A   1      43.174  40.039  29.685  1.00  0.00     0.135 A 
ATOM     91  F   UNL A   1      44.842  36.891  30.426  1.00  0.00    -0.206 F 
ATOM     92  C   UNL A   1      44.732  38.883  31.677  1.00  0.00     0.059 A 
ATOM     93  C   UNL A   1      43.554  40.800  30.779  1.00  0.00     0.059 A 
ATOM     94  F   UNL A   1      42.428  40.634  28.746  1.00  0.00    -0.206 F 
ATOM     95  C   UNL A   1      44.361  40.230  31.757  1.00  0.00     0.060 A 
BRANCH  95  96
ATOM     96  S   UNL A   1      44.938  41.321  33.082  1.00  0.00     0.124 S 
ATOM     97  O   UNL A   1      43.779  41.427  33.964  1.00  0.00    -0.237 OA
ATOM     98  O   UNL A   1      46.072  40.569  33.613  1.00  0.00    -0.237 OA
ATOM     99  O   UNL A   1      45.284  42.540  32.365  1.00  0.00    -0.744 OA
ENDBRANCH  95  96
ENDBRANCH  63  88
BRANCH  75 100
ATOM    100  C   UNL A   1      48.425  34.829  26.595  1.00  0.00     0.058 A 
ATOM    101  C   UNL A   1      49.216  34.950  25.439  1.00  0.00     0.135 A 
ATOM    102  C   UNL A   1      49.129  34.513  27.781  1.00  0.00     0.135 A 
ATOM    103  F   UNL A   1      48.708  35.401  24.284  1.00  0.00    -0.206 F 
ATOM    104  C   UNL A   1      50.577  34.646  25.430  1.00  0.00     0.059 A 
ATOM    105  C   UNL A   1      50.499  34.271  27.808  1.00  0.00     0.059 A 
ATOM    106  F   UNL A   1      48.506  34.430  28.966  1.00  0.00    -0.206 F 
ATOM    107  C   UNL A   1      51.206  34.286  26.616  1.00  0.00     0.060 A 
BRANCH 107 108
ATOM    108  S   UNL A   1      52.948  33.838  26.598  1.00  0.00     0.124 S 
ATOM    109  O   UNL A   1      53.023  32.934  27.741  1.00  0.00    -0.237 OA
ATOM    110  O   UNL A   1      53.108  33.214  25.288  1.00  0.00    -0.237 OA
ATOM    111  O   UNL A   1      53.627  35.120  26.760  1.00  0.00    -0.744 OA
ENDBRANCH 107 108
ENDBRANCH  75 100
ENDBRANCH  49  50
ENDBRANCH  41  44
ENDBRANCH  39  40
ENDBRANCH  38  39
ENDBRANCH  37  38
ENDBRANCH  36  37
ENDBRANCH   1  36
TORSDOF 22
ENDMDL
