MODEL 1
REMARK VINA RESULT:     -11.1      0.000      0.000
REMARK SMILES O=C(COc1cc(-c2ccccc2)nc(NCc2ccc(Cl)cc2)n1)NCCCCCCNC(=O)c1ccc(-c2c3nc(c(-c4c(F)cc(S(=O)(=O)[O-])cc4F)c4ccc([nH]4)c(-c4c(F)cc(S(=O)(=O)[O-])cc4F)c4nc(c(-c5c(F)cc(S(=O)(=O)[O-])cc5F)c5ccc2[nH]5)C=C4)C=C3)cc1
REMARK SMILES IDX 28 1 27 2 26 3 1 4 2 5 3 7 4 8 5 9 6 10 25 11 7 12 15 13
REMARK SMILES IDX 14 14 8 15 9 16 13 17 10 18 12 19 11 20 16 21 17 23 18 24
REMARK SMILES IDX 19 25 24 26 20 27 23 28 21 29 22 30 29 31 30 32 31 33 32 34
REMARK SMILES IDX 33 35 34 36 35 38 36 39 37 40 101 41 38 42 100 43 39 44
REMARK SMILES IDX 40 45 41 46 94 47 42 48 99 49 93 50 95 51 43 52 98 53 92 54
REMARK SMILES IDX 91 55 44 57 78 58 57 59 77 60 58 61 61 62 76 63 96 64 59 65
REMARK SMILES IDX 60 66 75 68 97 69 62 70 45 71 46 72 55 73 47 74 48 75 54 76
REMARK SMILES IDX 56 77 49 78 50 79 51 80 52 81 53 82 79 83 80 84 89 85 81 86
REMARK SMILES IDX 82 87 88 88 90 89 83 90 84 91 85 92 86 93 87 94 63 95 64 96
REMARK SMILES IDX 73 97 65 98 66 99 72 100 74 101 67 102 68 103 69 104 70 105
REMARK SMILES IDX 71 106
REMARK H PARENT 26 6 16 22 33 37 95 56 61 67
REMARK Flexibility Score: inf
ROOT
ATOM      1  C   UNL A   1      35.190  31.412  28.697  1.00  0.00     0.021 C 
ENDROOT
BRANCH   1   2
ATOM      2  C   UNL A   1      35.413  30.122  27.919  1.00  0.00     0.116 C 
BRANCH   2   3
ATOM      3  N   UNL A   1      34.274  29.230  27.998  1.00  0.00    -0.353 N 
ATOM      4  O   UNL A   1      33.022  30.226  26.343  1.00  0.00    -0.271 OA
ATOM      5  C   UNL A   1      33.202  29.303  27.131  1.00  0.00     0.258 C 
ATOM      6  H   UNL A   1      34.265  28.539  28.700  1.00  0.00     0.163 HD
BRANCH   5   7
ATOM      7  C   UNL A   1      32.258  28.097  27.210  1.00  0.00     0.331 C 
BRANCH   7   8
ATOM      8  O   UNL A   1      32.684  26.950  26.475  1.00  0.00    -0.467 OA
BRANCH   8   9
ATOM      9  C   UNL A   1      31.996  26.780  25.296  1.00  0.00     0.219 A 
ATOM     10  C   UNL A   1      31.143  27.743  24.828  1.00  0.00     0.097 A 
ATOM     11  N   UNL A   1      32.340  25.699  24.583  1.00  0.00    -0.177 NA
ATOM     12  C   UNL A   1      30.610  27.540  23.579  1.00  0.00     0.080 A 
ATOM     13  C   UNL A   1      31.769  25.571  23.377  1.00  0.00     0.226 A 
ATOM     14  N   UNL A   1      30.902  26.448  22.852  1.00  0.00    -0.213 NA
BRANCH  12  15
ATOM     15  C   UNL A   1      29.706  28.536  22.991  1.00  0.00     0.000 A 
ATOM     16  C   UNL A   1      30.176  29.491  22.078  1.00  0.00     0.010 A 
ATOM     17  C   UNL A   1      28.326  28.507  23.272  1.00  0.00     0.010 A 
ATOM     18  C   UNL A   1      29.290  30.364  21.440  1.00  0.00     0.001 A 
ATOM     19  C   UNL A   1      27.442  29.383  22.639  1.00  0.00     0.001 A 
ATOM     20  C   UNL A   1      27.925  30.305  21.716  1.00  0.00     0.000 A 
ENDBRANCH  12  15
BRANCH  13  21
ATOM     21  N   UNL A   1      32.065  24.518  22.566  1.00  0.00    -0.350 N 
ATOM     22  H   UNL A   1      31.365  24.204  21.948  1.00  0.00     0.164 HD
BRANCH  21  23
ATOM     23  C   UNL A   1      33.328  23.836  22.546  1.00  0.00     0.152 C 
BRANCH  23  24
ATOM     24  C   UNL A   1      33.234  22.498  23.260  1.00  0.00    -0.029 A 
ATOM     25  C   UNL A   1      34.162  22.182  24.265  1.00  0.00     0.007 A 
ATOM     26  C   UNL A   1      32.273  21.534  22.909  1.00  0.00     0.007 A 
ATOM     27  C   UNL A   1      34.114  20.947  24.920  1.00  0.00     0.021 A 
ATOM     28  C   UNL A   1      32.219  20.303  23.568  1.00  0.00     0.021 A 
ATOM     29  C   UNL A   1      33.139  20.016  24.572  1.00  0.00     0.041 A 
ATOM     30  Cl  UNL A   1      33.077  18.497  25.380  1.00  0.00    -0.084 Cl
ENDBRANCH  23  24
ENDBRANCH  21  23
ENDBRANCH  13  21
ENDBRANCH   8   9
ENDBRANCH   7   8
ENDBRANCH   5   7
ENDBRANCH   2   3
ENDBRANCH   1   2
BRANCH   1  31
ATOM     31  C   UNL A   1      35.305  32.687  27.852  1.00  0.00     0.002 C 
BRANCH  31  32
ATOM     32  C   UNL A   1      35.107  34.003  28.613  1.00  0.00     0.002 C 
BRANCH  32  33
ATOM     33  C   UNL A   1      33.676  34.547  28.618  1.00  0.00     0.021 C 
BRANCH  33  34
ATOM     34  C   UNL A   1      33.510  35.920  29.264  1.00  0.00     0.116 C 
BRANCH  34  35
ATOM     35  N   UNL A   1      32.644  35.883  30.434  1.00  0.00    -0.352 N 
ATOM     36  C   UNL A   1      32.828  35.239  31.632  1.00  0.00     0.251 C 
ATOM     37  H   UNL A   1      31.806  36.394  30.353  1.00  0.00     0.163 HD
ATOM     38  O   UNL A   1      31.906  35.181  32.443  1.00  0.00    -0.269 OA
BRANCH  36  39
ATOM     39  C   UNL A   1      34.124  34.592  31.935  1.00  0.00     0.039 A 
ATOM     40  C   UNL A   1      35.263  35.390  32.073  1.00  0.00     0.014 A 
ATOM     41  C   UNL A   1      34.217  33.205  32.084  1.00  0.00     0.014 A 
ATOM     42  C   UNL A   1      36.481  34.802  32.426  1.00  0.00     0.010 A 
ATOM     43  C   UNL A   1      35.413  32.633  32.512  1.00  0.00     0.010 A 
ATOM     44  C   UNL A   1      36.558  33.424  32.686  1.00  0.00    -0.014 A 
BRANCH  44  45
ATOM     45  C   UNL A   1      37.826  32.796  33.146  1.00  0.00     0.031 A 
ATOM     46  C   UNL A   1      38.344  33.062  34.535  1.00  0.00     0.074 A 
ATOM     47  C   UNL A   1      38.541  32.035  32.293  1.00  0.00     0.049 A 
ATOM     48  N   UNL A   1      39.457  32.659  35.092  1.00  0.00    -0.248 NA
ATOM     49  C   UNL A   1      37.515  33.913  35.403  1.00  0.00     0.031 C 
ATOM     50  C   UNL A   1      38.169  31.740  30.907  1.00  0.00     0.029 A 
ATOM     51  N   UNL A   1      39.735  31.378  32.460  1.00  0.00    -0.354 N 
ATOM     52  C   UNL A   1      39.467  33.213  36.367  1.00  0.00     0.074 A 
ATOM     53  C   UNL A   1      38.276  34.027  36.481  1.00  0.00     0.031 C 
ATOM     54  C   UNL A   1      39.101  30.944  30.360  1.00  0.00     0.029 A 
ATOM     55  C   UNL A   1      40.160  30.708  31.337  1.00  0.00     0.049 A 
ATOM     56  H   UNL A   1      40.241  31.386  33.305  1.00  0.00     0.167 HD
ATOM     57  C   UNL A   1      40.372  33.040  37.359  1.00  0.00     0.037 A 
ATOM     58  C   UNL A   1      41.280  29.993  31.113  1.00  0.00     0.037 A 
ATOM     59  C   UNL A   1      41.546  32.213  37.244  1.00  0.00     0.049 A 
ATOM     60  C   UNL A   1      42.280  29.829  32.226  1.00  0.00     0.074 A 
ATOM     61  C   UNL A   1      42.495  31.930  38.210  1.00  0.00     0.029 A 
ATOM     62  N   UNL A   1      41.935  31.540  36.095  1.00  0.00    -0.354 N 
ATOM     63  N   UNL A   1      42.239  30.306  33.449  1.00  0.00    -0.248 NA
ATOM     64  C   UNL A   1      43.474  29.023  31.937  1.00  0.00     0.031 C 
ATOM     65  C   UNL A   1      43.486  31.133  37.630  1.00  0.00     0.029 A 
ATOM     66  C   UNL A   1      43.123  30.865  36.321  1.00  0.00     0.049 A 
ATOM     67  H   UNL A   1      41.439  31.542  35.245  1.00  0.00     0.167 HD
ATOM     68  C   UNL A   1      43.386  29.835  34.080  1.00  0.00     0.074 A 
ATOM     69  C   UNL A   1      44.092  29.024  33.110  1.00  0.00     0.031 C 
ATOM     70  C   UNL A   1      43.814  30.053  35.348  1.00  0.00     0.037 A 
BRANCH  57  71
ATOM     71  C   UNL A   1      40.131  33.757  38.662  1.00  0.00     0.058 A 
ATOM     72  C   UNL A   1      39.255  33.247  39.634  1.00  0.00     0.135 A 
ATOM     73  C   UNL A   1      40.819  34.944  38.962  1.00  0.00     0.135 A 
ATOM     74  F   UNL A   1      38.560  32.123  39.397  1.00  0.00    -0.206 F 
ATOM     75  C   UNL A   1      39.049  33.903  40.844  1.00  0.00     0.059 A 
ATOM     76  C   UNL A   1      40.652  35.600  40.178  1.00  0.00     0.059 A 
ATOM     77  F   UNL A   1      41.669  35.478  38.070  1.00  0.00    -0.206 F 
ATOM     78  C   UNL A   1      39.754  35.078  41.108  1.00  0.00     0.060 A 
BRANCH  78  79
ATOM     79  S   UNL A   1      39.481  35.908  42.688  1.00  0.00     0.124 S 
ATOM     80  O   UNL A   1      40.556  35.346  43.500  1.00  0.00    -0.237 OA
ATOM     81  O   UNL A   1      39.626  37.315  42.329  1.00  0.00    -0.237 OA
ATOM     82  O   UNL A   1      38.133  35.494  43.062  1.00  0.00    -0.744 OA
ENDBRANCH  78  79
ENDBRANCH  57  71
BRANCH  58  83
ATOM     83  C   UNL A   1      41.511  29.365  29.782  1.00  0.00     0.058 A 
ATOM     84  C   UNL A   1      42.288  30.005  28.805  1.00  0.00     0.135 A 
ATOM     85  C   UNL A   1      40.963  28.113  29.462  1.00  0.00     0.135 A 
ATOM     86  F   UNL A   1      42.827  31.207  29.059  1.00  0.00    -0.206 F 
ATOM     87  C   UNL A   1      42.496  29.439  27.551  1.00  0.00     0.059 A 
ATOM     88  C   UNL A   1      41.182  27.512  28.227  1.00  0.00     0.059 A 
ATOM     89  F   UNL A   1      40.226  27.450  30.367  1.00  0.00    -0.206 F 
ATOM     90  C   UNL A   1      41.940  28.189  27.273  1.00  0.00     0.060 A 
BRANCH  90  91
ATOM     91  S   UNL A   1      42.253  27.443  25.659  1.00  0.00     0.124 S 
ATOM     92  O   UNL A   1      42.167  28.602  24.778  1.00  0.00    -0.237 OA
ATOM     93  O   UNL A   1      43.584  26.872  25.838  1.00  0.00    -0.237 OA
ATOM     94  O   UNL A   1      41.174  26.468  25.526  1.00  0.00    -0.744 OA
ENDBRANCH  90  91
ENDBRANCH  58  83
BRANCH  70  95
ATOM     95  C   UNL A   1      45.086  29.375  35.779  1.00  0.00     0.058 A 
ATOM     96  C   UNL A   1      46.339  29.992  35.642  1.00  0.00     0.135 A 
ATOM     97  C   UNL A   1      45.043  28.110  36.388  1.00  0.00     0.135 A 
ATOM     98  F   UNL A   1      46.438  31.199  35.061  1.00  0.00    -0.206 F 
ATOM     99  C   UNL A   1      47.508  29.369  36.069  1.00  0.00     0.059 A 
ATOM    100  C   UNL A   1      46.195  27.482  36.851  1.00  0.00     0.059 A 
ATOM    101  F   UNL A   1      43.870  27.478  36.553  1.00  0.00    -0.206 F 
ATOM    102  C   UNL A   1      47.424  28.114  36.676  1.00  0.00     0.060 A 
BRANCH 102 103
ATOM    103  S   UNL A   1      48.945  27.333  37.257  1.00  0.00     0.124 S 
ATOM    104  O   UNL A   1      49.938  28.354  36.943  1.00  0.00    -0.237 OA
ATOM    105  O   UNL A   1      48.669  27.132  38.676  1.00  0.00    -0.237 OA
ATOM    106  O   UNL A   1      49.026  26.111  36.462  1.00  0.00    -0.744 OA
ENDBRANCH 102 103
ENDBRANCH  70  95
ENDBRANCH  44  45
ENDBRANCH  36  39
ENDBRANCH  34  35
ENDBRANCH  33  34
ENDBRANCH  32  33
ENDBRANCH  31  32
ENDBRANCH   1  31
TORSDOF 22
ENDMDL
MODEL 2
REMARK VINA RESULT:     -10.6      2.900      9.049
REMARK SMILES O=C(COc1cc(-c2ccccc2)nc(NCc2ccc(Cl)cc2)n1)NCCCCCCNC(=O)c1ccc(-c2c3nc(c(-c4c(F)cc(S(=O)(=O)[O-])cc4F)c4ccc([nH]4)c(-c4c(F)cc(S(=O)(=O)[O-])cc4F)c4nc(c(-c5c(F)cc(S(=O)(=O)[O-])cc5F)c5ccc2[nH]5)C=C4)C=C3)cc1
REMARK SMILES IDX 28 1 27 2 26 3 1 4 2 5 3 7 4 8 5 9 6 10 25 11 7 12 15 13
REMARK SMILES IDX 14 14 8 15 9 16 13 17 10 18 12 19 11 20 16 21 17 23 18 24
REMARK SMILES IDX 19 25 24 26 20 27 23 28 21 29 22 30 29 31 30 32 31 33 32 34
REMARK SMILES IDX 33 35 34 36 35 38 36 39 37 40 101 41 38 42 100 43 39 44
REMARK SMILES IDX 40 45 41 46 94 47 42 48 99 49 93 50 95 51 43 52 98 53 92 54
REMARK SMILES IDX 91 55 44 57 78 58 57 59 77 60 58 61 61 62 76 63 96 64 59 65
REMARK SMILES IDX 60 66 75 68 97 69 62 70 45 71 46 72 55 73 47 74 48 75 54 76
REMARK SMILES IDX 56 77 49 78 50 79 51 80 52 81 53 82 79 83 80 84 89 85 81 86
REMARK SMILES IDX 82 87 88 88 90 89 83 90 84 91 85 92 86 93 87 94 63 95 64 96
REMARK SMILES IDX 73 97 65 98 66 99 72 100 74 101 67 102 68 103 69 104 70 105
REMARK SMILES IDX 71 106
REMARK H PARENT 26 6 16 22 33 37 95 56 61 67
REMARK Flexibility Score: inf
ROOT
ATOM      1  C   UNL A   1      40.786  22.204  27.651  1.00  0.00     0.021 C 
ENDROOT
BRANCH   1   2
ATOM      2  C   UNL A   1      40.240  22.372  26.240  1.00  0.00     0.116 C 
BRANCH   2   3
ATOM      3  N   UNL A   1      38.792  22.395  26.209  1.00  0.00    -0.353 N 
ATOM      4  O   UNL A   1      38.544  24.671  26.449  1.00  0.00    -0.271 OA
ATOM      5  C   UNL A   1      38.061  23.566  26.226  1.00  0.00     0.258 C 
ATOM      6  H   UNL A   1      38.308  21.539  26.174  1.00  0.00     0.163 HD
BRANCH   5   7
ATOM      7  C   UNL A   1      36.575  23.372  25.899  1.00  0.00     0.331 C 
BRANCH   7   8
ATOM      8  O   UNL A   1      36.134  24.008  24.699  1.00  0.00    -0.467 OA
BRANCH   8   9
ATOM      9  C   UNL A   1      34.794  23.820  24.452  1.00  0.00     0.219 A 
ATOM     10  C   UNL A   1      33.948  24.883  24.285  1.00  0.00     0.097 A 
ATOM     11  N   UNL A   1      34.424  22.551  24.233  1.00  0.00    -0.177 NA
ATOM     12  C   UNL A   1      32.660  24.592  23.908  1.00  0.00     0.080 A 
ATOM     13  C   UNL A   1      33.148  22.352  23.875  1.00  0.00     0.226 A 
ATOM     14  N   UNL A   1      32.245  23.329  23.717  1.00  0.00    -0.213 NA
BRANCH  12  15
ATOM     15  C   UNL A   1      31.695  25.674  23.683  1.00  0.00     0.000 A 
ATOM     16  C   UNL A   1      31.856  26.582  22.625  1.00  0.00     0.010 A 
ATOM     17  C   UNL A   1      30.537  25.782  24.479  1.00  0.00     0.010 A 
ATOM     18  C   UNL A   1      30.876  27.540  22.352  1.00  0.00     0.001 A 
ATOM     19  C   UNL A   1      29.561  26.742  24.209  1.00  0.00     0.001 A 
ATOM     20  C   UNL A   1      29.729  27.615  23.139  1.00  0.00     0.000 A 
ENDBRANCH  12  15
BRANCH  13  21
ATOM     21  N   UNL A   1      32.677  21.101  23.612  1.00  0.00    -0.350 N 
ATOM     22  H   UNL A   1      32.739  20.774  22.685  1.00  0.00     0.164 HD
BRANCH  21  23
ATOM     23  C   UNL A   1      32.100  20.226  24.592  1.00  0.00     0.152 C 
BRANCH  23  24
ATOM     24  C   UNL A   1      32.949  18.980  24.775  1.00  0.00    -0.029 A 
ATOM     25  C   UNL A   1      34.294  18.992  24.373  1.00  0.00     0.007 A 
ATOM     26  C   UNL A   1      32.415  17.785  25.289  1.00  0.00     0.007 A 
ATOM     27  C   UNL A   1      35.091  17.851  24.506  1.00  0.00     0.021 A 
ATOM     28  C   UNL A   1      33.211  16.646  25.430  1.00  0.00     0.021 A 
ATOM     29  C   UNL A   1      34.546  16.685  25.039  1.00  0.00     0.041 A 
ATOM     30  Cl  UNL A   1      35.528  15.280  25.207  1.00  0.00    -0.084 Cl
ENDBRANCH  23  24
ENDBRANCH  21  23
ENDBRANCH  13  21
ENDBRANCH   8   9
ENDBRANCH   7   8
ENDBRANCH   5   7
ENDBRANCH   2   3
ENDBRANCH   1   2
BRANCH   1  31
ATOM     31  C   UNL A   1      42.253  21.759  27.713  1.00  0.00     0.002 C 
BRANCH  31  32
ATOM     32  C   UNL A   1      43.113  22.467  28.766  1.00  0.00     0.002 C 
BRANCH  32  33
ATOM     33  C   UNL A   1      43.242  23.983  28.595  1.00  0.00     0.021 C 
BRANCH  33  34
ATOM     34  C   UNL A   1      44.088  24.429  27.406  1.00  0.00     0.116 C 
BRANCH  34  35
ATOM     35  N   UNL A   1      43.280  24.753  26.239  1.00  0.00    -0.352 N 
ATOM     36  C   UNL A   1      42.222  25.620  26.127  1.00  0.00     0.251 C 
ATOM     37  H   UNL A   1      43.530  24.282  25.410  1.00  0.00     0.163 HD
ATOM     38  O   UNL A   1      41.550  25.636  25.097  1.00  0.00    -0.269 OA
BRANCH  36  39
ATOM     39  C   UNL A   1      41.873  26.513  27.254  1.00  0.00     0.039 A 
ATOM     40  C   UNL A   1      40.860  26.128  28.136  1.00  0.00     0.014 A 
ATOM     41  C   UNL A   1      42.543  27.726  27.443  1.00  0.00     0.014 A 
ATOM     42  C   UNL A   1      40.565  26.927  29.243  1.00  0.00     0.010 A 
ATOM     43  C   UNL A   1      42.301  28.480  28.589  1.00  0.00     0.010 A 
ATOM     44  C   UNL A   1      41.308  28.091  29.501  1.00  0.00    -0.014 A 
BRANCH  44  45
ATOM     45  C   UNL A   1      41.066  28.907  30.721  1.00  0.00     0.031 A 
ATOM     46  C   UNL A   1      39.973  29.942  30.737  1.00  0.00     0.074 A 
ATOM     47  C   UNL A   1      41.870  28.757  31.793  1.00  0.00     0.049 A 
ATOM     48  N   UNL A   1      39.654  30.790  31.680  1.00  0.00    -0.248 NA
ATOM     49  C   UNL A   1      39.147  30.056  29.525  1.00  0.00     0.031 C 
ATOM     50  C   UNL A   1      42.993  27.820  31.884  1.00  0.00     0.029 A 
ATOM     51  N   UNL A   1      41.876  29.396  33.008  1.00  0.00    -0.354 N 
ATOM     52  C   UNL A   1      38.600  31.543  31.174  1.00  0.00     0.074 A 
ATOM     53  C   UNL A   1      38.371  31.090  29.820  1.00  0.00     0.031 C 
ATOM     54  C   UNL A   1      43.561  27.929  33.096  1.00  0.00     0.029 A 
ATOM     55  C   UNL A   1      42.876  28.973  33.852  1.00  0.00     0.049 A 
ATOM     56  H   UNL A   1      41.225  30.093  33.253  1.00  0.00     0.167 HD
ATOM     57  C   UNL A   1      37.875  32.507  31.790  1.00  0.00     0.037 A 
ATOM     58  C   UNL A   1      43.213  29.385  35.090  1.00  0.00     0.037 A 
ATOM     59  C   UNL A   1      38.097  32.941  33.146  1.00  0.00     0.049 A 
ATOM     60  C   UNL A   1      42.402  30.470  35.747  1.00  0.00     0.074 A 
ATOM     61  C   UNL A   1      37.381  33.872  33.878  1.00  0.00     0.029 A 
ATOM     62  N   UNL A   1      39.112  32.479  33.972  1.00  0.00    -0.354 N 
ATOM     63  N   UNL A   1      41.365  31.124  35.277  1.00  0.00    -0.248 NA
ATOM     64  C   UNL A   1      42.797  30.868  37.105  1.00  0.00     0.031 C 
ATOM     65  C   UNL A   1      37.996  34.014  35.126  1.00  0.00     0.029 A 
ATOM     66  C   UNL A   1      39.056  33.126  35.196  1.00  0.00     0.049 A 
ATOM     67  H   UNL A   1      39.773  31.794  33.725  1.00  0.00     0.167 HD
ATOM     68  C   UNL A   1      40.970  31.990  36.292  1.00  0.00     0.074 A 
ATOM     69  C   UNL A   1      41.868  31.765  37.405  1.00  0.00     0.031 C 
ATOM     70  C   UNL A   1      39.953  32.887  36.301  1.00  0.00     0.037 A 
BRANCH  57  71
ATOM     71  C   UNL A   1      36.768  33.161  31.005  1.00  0.00     0.058 A 
ATOM     72  C   UNL A   1      35.422  32.805  31.191  1.00  0.00     0.135 A 
ATOM     73  C   UNL A   1      37.051  34.189  30.091  1.00  0.00     0.135 A 
ATOM     74  F   UNL A   1      35.093  31.819  32.041  1.00  0.00    -0.206 F 
ATOM     75  C   UNL A   1      34.401  33.423  30.477  1.00  0.00     0.059 A 
ATOM     76  C   UNL A   1      36.042  34.843  29.390  1.00  0.00     0.059 A 
ATOM     77  F   UNL A   1      38.319  34.571  29.874  1.00  0.00    -0.206 F 
ATOM     78  C   UNL A   1      34.720  34.444  29.580  1.00  0.00     0.060 A 
BRANCH  78  79
ATOM     79  S   UNL A   1      33.379  35.243  28.673  1.00  0.00     0.124 S 
ATOM     80  O   UNL A   1      34.113  35.923  27.610  1.00  0.00    -0.237 OA
ATOM     81  O   UNL A   1      32.566  34.106  28.255  1.00  0.00    -0.237 OA
ATOM     82  O   UNL A   1      32.768  36.117  29.669  1.00  0.00    -0.744 OA
ENDBRANCH  78  79
ENDBRANCH  57  71
BRANCH  58  83
ATOM     83  C   UNL A   1      44.365  28.760  35.797  1.00  0.00     0.058 A 
ATOM     84  C   UNL A   1      44.189  27.631  36.611  1.00  0.00     0.135 A 
ATOM     85  C   UNL A   1      45.664  29.277  35.671  1.00  0.00     0.135 A 
ATOM     86  F   UNL A   1      42.965  27.105  36.771  1.00  0.00    -0.206 F 
ATOM     87  C   UNL A   1      45.254  27.049  37.291  1.00  0.00     0.059 A 
ATOM     88  C   UNL A   1      46.750  28.694  36.316  1.00  0.00     0.059 A 
ATOM     89  F   UNL A   1      45.891  30.345  34.891  1.00  0.00    -0.206 F 
ATOM     90  C   UNL A   1      46.532  27.587  37.134  1.00  0.00     0.060 A 
BRANCH  90  91
ATOM     91  S   UNL A   1      47.914  26.797  37.988  1.00  0.00     0.124 S 
ATOM     92  O   UNL A   1      48.758  27.942  38.305  1.00  0.00    -0.237 OA
ATOM     93  O   UNL A   1      47.249  26.158  39.119  1.00  0.00    -0.237 OA
ATOM     94  O   UNL A   1      48.446  25.879  36.984  1.00  0.00    -0.744 OA
ENDBRANCH  90  91
ENDBRANCH  58  83
BRANCH  70  95
ATOM     95  C   UNL A   1      39.728  33.670  37.566  1.00  0.00     0.058 A 
ATOM     96  C   UNL A   1      40.421  34.860  37.836  1.00  0.00     0.135 A 
ATOM     97  C   UNL A   1      38.764  33.250  38.498  1.00  0.00     0.135 A 
ATOM     98  F   UNL A   1      41.357  35.305  36.983  1.00  0.00    -0.206 F 
ATOM     99  C   UNL A   1      40.186  35.593  38.995  1.00  0.00     0.059 A 
ATOM    100  C   UNL A   1      38.490  33.982  39.648  1.00  0.00     0.059 A 
ATOM    101  F   UNL A   1      38.065  32.123  38.285  1.00  0.00    -0.206 F 
ATOM    102  C   UNL A   1      39.215  35.147  39.894  1.00  0.00     0.060 A 
BRANCH 102 103
ATOM    103  S   UNL A   1      38.895  36.125  41.377  1.00  0.00     0.124 S 
ATOM    104  O   UNL A   1      38.639  37.444  40.809  1.00  0.00    -0.237 OA
ATOM    105  O   UNL A   1      37.739  35.448  41.955  1.00  0.00    -0.237 OA
ATOM    106  O   UNL A   1      40.133  36.000  42.142  1.00  0.00    -0.744 OA
ENDBRANCH 102 103
ENDBRANCH  70  95
ENDBRANCH  44  45
ENDBRANCH  36  39
ENDBRANCH  34  35
ENDBRANCH  33  34
ENDBRANCH  32  33
ENDBRANCH  31  32
ENDBRANCH   1  31
TORSDOF 22
ENDMDL
MODEL 3
REMARK VINA RESULT:     -10.6      1.914      8.752
REMARK SMILES O=C(COc1cc(-c2ccccc2)nc(NCc2ccc(Cl)cc2)n1)NCCCCCCNC(=O)c1ccc(-c2c3nc(c(-c4c(F)cc(S(=O)(=O)[O-])cc4F)c4ccc([nH]4)c(-c4c(F)cc(S(=O)(=O)[O-])cc4F)c4nc(c(-c5c(F)cc(S(=O)(=O)[O-])cc5F)c5ccc2[nH]5)C=C4)C=C3)cc1
REMARK SMILES IDX 28 1 27 2 26 3 1 4 2 5 3 7 4 8 5 9 6 10 25 11 7 12 15 13
REMARK SMILES IDX 14 14 8 15 9 16 13 17 10 18 12 19 11 20 16 21 17 23 18 24
REMARK SMILES IDX 19 25 24 26 20 27 23 28 21 29 22 30 29 31 30 32 31 33 32 34
REMARK SMILES IDX 33 35 34 36 35 38 36 39 37 40 101 41 38 42 100 43 39 44
REMARK SMILES IDX 40 45 41 46 94 47 42 48 99 49 93 50 95 51 43 52 98 53 92 54
REMARK SMILES IDX 91 55 44 57 78 58 57 59 77 60 58 61 61 62 76 63 96 64 59 65
REMARK SMILES IDX 60 66 75 68 97 69 62 70 45 71 46 72 55 73 47 74 48 75 54 76
REMARK SMILES IDX 56 77 49 78 50 79 51 80 52 81 53 82 79 83 80 84 89 85 81 86
REMARK SMILES IDX 82 87 88 88 90 89 83 90 84 91 85 92 86 93 87 94 63 95 64 96
REMARK SMILES IDX 73 97 65 98 66 99 72 100 74 101 67 102 68 103 69 104 70 105
REMARK SMILES IDX 71 106
REMARK H PARENT 26 6 16 22 33 37 95 56 61 67
REMARK Flexibility Score: inf
ROOT
ATOM      1  C   UNL A   1      35.856  30.678  28.738  1.00  0.00     0.021 C 
ENDROOT
BRANCH   1   2
ATOM      2  C   UNL A   1      35.530  29.811  27.530  1.00  0.00     0.116 C 
BRANCH   2   3
ATOM      3  N   UNL A   1      34.218  29.205  27.625  1.00  0.00    -0.353 N 
ATOM      4  O   UNL A   1      33.003  31.085  27.089  1.00  0.00    -0.271 OA
ATOM      5  C   UNL A   1      33.056  29.879  27.305  1.00  0.00     0.258 C 
ATOM      6  H   UNL A   1      34.151  28.272  27.931  1.00  0.00     0.163 HD
BRANCH   5   7
ATOM      7  C   UNL A   1      31.823  28.973  27.202  1.00  0.00     0.331 C 
BRANCH   7   8
ATOM      8  O   UNL A   1      32.062  27.595  27.490  1.00  0.00    -0.467 OA
BRANCH   8   9
ATOM      9  C   UNL A   1      32.154  26.817  26.359  1.00  0.00     0.219 A 
ATOM     10  C   UNL A   1      33.161  25.902  26.208  1.00  0.00     0.097 A 
ATOM     11  N   UNL A   1      31.118  26.910  25.515  1.00  0.00    -0.177 NA
ATOM     12  C   UNL A   1      33.088  25.082  25.109  1.00  0.00     0.080 A 
ATOM     13  C   UNL A   1      31.126  26.078  24.464  1.00  0.00     0.226 A 
ATOM     14  N   UNL A   1      32.084  25.173  24.221  1.00  0.00    -0.213 NA
BRANCH  12  15
ATOM     15  C   UNL A   1      34.113  24.056  24.885  1.00  0.00     0.000 A 
ATOM     16  C   UNL A   1      34.314  23.018  25.808  1.00  0.00     0.010 A 
ATOM     17  C   UNL A   1      34.869  24.043  23.696  1.00  0.00     0.010 A 
ATOM     18  C   UNL A   1      35.216  21.986  25.534  1.00  0.00     0.001 A 
ATOM     19  C   UNL A   1      35.772  23.015  23.425  1.00  0.00     0.001 A 
ATOM     20  C   UNL A   1      35.938  21.982  24.342  1.00  0.00     0.000 A 
ENDBRANCH  12  15
BRANCH  13  21
ATOM     21  N   UNL A   1      30.109  26.080  23.557  1.00  0.00    -0.350 N 
ATOM     22  H   UNL A   1      30.273  25.654  22.684  1.00  0.00     0.164 HD
BRANCH  21  23
ATOM     23  C   UNL A   1      28.815  26.655  23.786  1.00  0.00     0.152 C 
BRANCH  23  24
ATOM     24  C   UNL A   1      28.702  28.019  23.127  1.00  0.00    -0.029 A 
ATOM     25  C   UNL A   1      29.845  28.619  22.574  1.00  0.00     0.007 A 
ATOM     26  C   UNL A   1      27.492  28.734  23.099  1.00  0.00     0.007 A 
ATOM     27  C   UNL A   1      29.775  29.885  21.986  1.00  0.00     0.021 A 
ATOM     28  C   UNL A   1      27.419  29.996  22.504  1.00  0.00     0.021 A 
ATOM     29  C   UNL A   1      28.561  30.565  21.949  1.00  0.00     0.041 A 
ATOM     30  Cl  UNL A   1      28.472  32.123  21.221  1.00  0.00    -0.084 Cl
ENDBRANCH  23  24
ENDBRANCH  21  23
ENDBRANCH  13  21
ENDBRANCH   8   9
ENDBRANCH   7   8
ENDBRANCH   5   7
ENDBRANCH   2   3
ENDBRANCH   1   2
BRANCH   1  31
ATOM     31  C   UNL A   1      36.218  32.128  28.395  1.00  0.00     0.002 C 
BRANCH  31  32
ATOM     32  C   UNL A   1      35.673  33.189  29.358  1.00  0.00     0.002 C 
BRANCH  32  33
ATOM     33  C   UNL A   1      34.210  33.581  29.141  1.00  0.00     0.021 C 
BRANCH  33  34
ATOM     34  C   UNL A   1      33.900  35.061  29.348  1.00  0.00     0.116 C 
BRANCH  34  35
ATOM     35  N   UNL A   1      32.863  35.278  30.346  1.00  0.00    -0.352 N 
ATOM     36  C   UNL A   1      32.874  34.990  31.688  1.00  0.00     0.251 C 
ATOM     37  H   UNL A   1      32.035  35.692  30.010  1.00  0.00     0.163 HD
ATOM     38  O   UNL A   1      31.839  35.088  32.344  1.00  0.00    -0.269 OA
BRANCH  36  39
ATOM     39  C   UNL A   1      34.124  34.536  32.339  1.00  0.00     0.039 A 
ATOM     40  C   UNL A   1      34.223  33.208  32.763  1.00  0.00     0.014 A 
ATOM     41  C   UNL A   1      35.195  35.414  32.528  1.00  0.00     0.014 A 
ATOM     42  C   UNL A   1      35.419  32.746  33.316  1.00  0.00     0.010 A 
ATOM     43  C   UNL A   1      36.410  34.931  33.008  1.00  0.00     0.010 A 
ATOM     44  C   UNL A   1      36.536  33.592  33.409  1.00  0.00    -0.014 A 
BRANCH  44  45
ATOM     45  C   UNL A   1      37.843  33.093  33.915  1.00  0.00     0.031 A 
ATOM     46  C   UNL A   1      38.730  32.258  33.032  1.00  0.00     0.074 A 
ATOM     47  C   UNL A   1      38.202  33.341  35.191  1.00  0.00     0.049 A 
ATOM     48  N   UNL A   1      39.869  31.681  33.315  1.00  0.00    -0.248 NA
ATOM     49  C   UNL A   1      38.264  32.019  31.657  1.00  0.00     0.031 C 
ATOM     50  C   UNL A   1      37.407  34.099  36.162  1.00  0.00     0.029 A 
ATOM     51  N   UNL A   1      39.321  32.975  35.898  1.00  0.00    -0.354 N 
ATOM     52  C   UNL A   1      40.251  31.005  32.161  1.00  0.00     0.074 A 
ATOM     53  C   UNL A   1      39.194  31.196  31.193  1.00  0.00     0.031 C 
ATOM     54  C   UNL A   1      38.074  34.160  37.325  1.00  0.00     0.029 A 
ATOM     55  C   UNL A   1      39.320  33.410  37.202  1.00  0.00     0.049 A 
ATOM     56  H   UNL A   1      40.056  32.449  35.506  1.00  0.00     0.167 HD
ATOM     57  C   UNL A   1      41.388  30.309  31.924  1.00  0.00     0.037 A 
ATOM     58  C   UNL A   1      40.215  33.219  38.192  1.00  0.00     0.037 A 
ATOM     59  C   UNL A   1      42.445  30.139  32.888  1.00  0.00     0.049 A 
ATOM     60  C   UNL A   1      41.463  32.428  37.908  1.00  0.00     0.074 A 
ATOM     61  C   UNL A   1      43.660  29.497  32.726  1.00  0.00     0.029 A 
ATOM     62  N   UNL A   1      42.413  30.606  34.194  1.00  0.00    -0.354 N 
ATOM     63  N   UNL A   1      41.838  31.851  36.789  1.00  0.00    -0.248 NA
ATOM     64  C   UNL A   1      42.416  32.266  39.015  1.00  0.00     0.031 C 
ATOM     65  C   UNL A   1      44.339  29.528  33.948  1.00  0.00     0.029 A 
ATOM     66  C   UNL A   1      43.575  30.243  34.855  1.00  0.00     0.049 A 
ATOM     67  H   UNL A   1      41.674  31.118  34.591  1.00  0.00     0.167 HD
ATOM     68  C   UNL A   1      43.081  31.285  37.051  1.00  0.00     0.074 A 
ATOM     69  C   UNL A   1      43.401  31.600  38.429  1.00  0.00     0.031 C 
ATOM     70  C   UNL A   1      43.885  30.570  36.226  1.00  0.00     0.037 A 
BRANCH  57  71
ATOM     71  C   UNL A   1      41.554  29.679  30.566  1.00  0.00     0.058 A 
ATOM     72  C   UNL A   1      40.964  28.444  30.248  1.00  0.00     0.135 A 
ATOM     73  C   UNL A   1      42.271  30.339  29.554  1.00  0.00     0.135 A 
ATOM     74  F   UNL A   1      40.279  27.762  31.179  1.00  0.00    -0.206 F 
ATOM     75  C   UNL A   1      41.104  27.874  28.987  1.00  0.00     0.059 A 
ATOM     76  C   UNL A   1      42.397  29.801  28.277  1.00  0.00     0.059 A 
ATOM     77  F   UNL A   1      42.856  31.522  29.801  1.00  0.00    -0.206 F 
ATOM     78  C   UNL A   1      41.821  28.562  28.006  1.00  0.00     0.060 A 
BRANCH  78  79
ATOM     79  S   UNL A   1      41.981  27.810  26.372  1.00  0.00     0.124 S 
ATOM     80  O   UNL A   1      40.697  27.128  26.240  1.00  0.00    -0.237 OA
ATOM     81  O   UNL A   1      42.173  28.974  25.513  1.00  0.00    -0.237 OA
ATOM     82  O   UNL A   1      43.142  26.937  26.511  1.00  0.00    -0.744 OA
ENDBRANCH  78  79
ENDBRANCH  57  71
BRANCH  58  83
ATOM     83  C   UNL A   1      39.970  33.799  39.541  1.00  0.00     0.058 A 
ATOM     84  C   UNL A   1      39.143  33.148  40.469  1.00  0.00     0.135 A 
ATOM     85  C   UNL A   1      40.558  35.012  39.930  1.00  0.00     0.135 A 
ATOM     86  F   UNL A   1      38.551  31.989  40.142  1.00  0.00    -0.206 F 
ATOM     87  C   UNL A   1      38.891  33.687  41.726  1.00  0.00     0.059 A 
ATOM     88  C   UNL A   1      40.346  35.557  41.193  1.00  0.00     0.059 A 
ATOM     89  F   UNL A   1      41.370  35.668  39.088  1.00  0.00    -0.206 F 
ATOM     90  C   UNL A   1      39.500  34.893  42.080  1.00  0.00     0.060 A 
BRANCH  90  91
ATOM     91  S   UNL A   1      39.200  35.562  43.730  1.00  0.00     0.124 S 
ATOM     92  O   UNL A   1      37.754  35.421  43.847  1.00  0.00    -0.237 OA
ATOM     93  O   UNL A   1      39.999  34.675  44.569  1.00  0.00    -0.237 OA
ATOM     94  O   UNL A   1      39.695  36.932  43.630  1.00  0.00    -0.744 OA
ENDBRANCH  90  91
ENDBRANCH  58  83
BRANCH  70  95
ATOM     95  C   UNL A   1      45.210  30.109  36.773  1.00  0.00     0.058 A 
ATOM     96  C   UNL A   1      46.354  30.920  36.726  1.00  0.00     0.135 A 
ATOM     97  C   UNL A   1      45.320  28.858  37.402  1.00  0.00     0.135 A 
ATOM     98  F   UNL A   1      46.307  32.123  36.131  1.00  0.00    -0.206 F 
ATOM     99  C   UNL A   1      47.568  30.497  37.259  1.00  0.00     0.059 A 
ATOM    100  C   UNL A   1      46.514  28.428  37.970  1.00  0.00     0.059 A 
ATOM    101  F   UNL A   1      44.254  28.046  37.483  1.00  0.00    -0.206 F 
ATOM    102  C   UNL A   1      47.637  29.250  37.883  1.00  0.00     0.060 A 
BRANCH 102 103
ATOM    103  S   UNL A   1      49.209  28.729  38.602  1.00  0.00     0.124 S 
ATOM    104  O   UNL A   1      48.959  27.314  38.861  1.00  0.00    -0.237 OA
ATOM    105  O   UNL A   1      50.154  29.019  37.528  1.00  0.00    -0.237 OA
ATOM    106  O   UNL A   1      49.337  29.571  39.787  1.00  0.00    -0.744 OA
ENDBRANCH 102 103
ENDBRANCH  70  95
ENDBRANCH  44  45
ENDBRANCH  36  39
ENDBRANCH  34  35
ENDBRANCH  33  34
ENDBRANCH  32  33
ENDBRANCH  31  32
ENDBRANCH   1  31
TORSDOF 22
ENDMDL
