MODEL 1
REMARK VINA RESULT:     -12.8      0.000      0.000
REMARK SMILES C[C@@H]1CC(C)(C)C[C@@](CC(=O)Nc2cccc(C(F)(F)F)c2)(C(=O)NCCCCCCNC(=O)c2ccc(-c3c4nc(c(-c5c(F)cc(S(=O)(=O)[O-])cc5F)c5ccc([nH]5)c(-c5c(F)cc(S(=O)(=O)[O-])cc5F)c5nc(c(-c6c(F)cc(S(=O)(=O)[O-])cc6F)c6ccc3[nH]6)C=C5)C=C4)cc2)C1
REMARK SMILES IDX 28 1 27 2 26 3 25 4 23 5 24 6 8 8 1 9 2 10 3 11 101 12 4 13
REMARK SMILES IDX 5 14 6 15 7 16 9 17 10 18 11 19 12 20 13 22 14 23 22 24
REMARK SMILES IDX 15 25 17 26 16 27 18 28 19 29 20 30 21 31 29 32 30 33 31 34
REMARK SMILES IDX 32 35 33 36 34 38 35 39 36 40 100 41 37 42 99 43 38 44 39 45
REMARK SMILES IDX 40 46 93 47 41 48 98 49 92 50 94 51 42 52 97 53 91 54 90 55
REMARK SMILES IDX 43 57 77 58 56 59 76 60 57 61 60 62 75 63 95 64 58 65 59 66
REMARK SMILES IDX 74 68 96 69 61 70 44 71 45 72 54 73 46 74 47 75 53 76 55 77
REMARK SMILES IDX 48 78 49 79 50 80 51 81 52 82 78 83 79 84 88 85 80 86 81 87
REMARK SMILES IDX 87 88 89 89 82 90 83 91 84 92 85 93 86 94 62 95 63 96 72 97
REMARK SMILES IDX 64 98 65 99 71 100 73 101 66 102 67 103 68 104 69 105 70 106
REMARK H PARENT 25 7 12 21 32 37 94 56 60 67
REMARK Flexibility Score: inf
ROOT
ATOM      1  C   UNL A   1      38.719  20.109  25.314  1.00  0.00     0.002 C 
ENDROOT
BRANCH   1   2
ATOM      2  C   UNL A   1      37.239  19.954  24.923  1.00  0.00     0.021 C 
BRANCH   2   3
ATOM      3  C   UNL A   1      36.372  21.224  25.009  1.00  0.00     0.116 C 
BRANCH   3   4
ATOM      4  N   UNL A   1      35.540  21.285  26.217  1.00  0.00    -0.356 N 
ATOM      5  C   UNL A   1      34.390  21.957  26.557  1.00  0.00     0.226 C 
ATOM      6  O   UNL A   1      33.983  21.746  27.705  1.00  0.00    -0.274 OA
ATOM      7  H   UNL A   1      35.883  20.720  26.947  1.00  0.00     0.163 HD
BRANCH   5   8
ATOM      8  C   UNL A   1      33.613  22.933  25.583  1.00  0.00     0.059 C 
ATOM      9  C   UNL A   1      33.338  25.625  23.496  1.00  0.00     0.008 C 
ATOM     10  C   UNL A   1      34.122  24.326  23.366  1.00  0.00    -0.013 C 
ATOM     11  C   UNL A   1      33.410  23.303  22.508  1.00  0.00     0.009 C 
ATOM     12  C   UNL A   1      34.620  23.647  24.645  1.00  0.00     0.020 C 
ATOM     13  C   UNL A   1      32.341  22.457  23.232  1.00  0.00    -0.034 C 
ATOM     14  C   UNL A   1      30.992  23.189  23.314  1.00  0.00     0.011 C 
ATOM     15  C   UNL A   1      32.128  21.227  22.309  1.00  0.00     0.011 C 
ATOM     16  C   UNL A   1      32.761  21.981  24.665  1.00  0.00     0.024 C 
BRANCH   8  17
ATOM     17  C   UNL A   1      32.874  23.870  26.570  1.00  0.00     0.117 C 
BRANCH  17  18
ATOM     18  C   UNL A   1      31.398  23.983  26.849  1.00  0.00     0.225 C 
ATOM     19  O   UNL A   1      30.851  23.027  27.424  1.00  0.00    -0.275 OA
ATOM     20  N   UNL A   1      30.586  25.044  26.642  1.00  0.00    -0.326 N 
ATOM     21  H   UNL A   1      29.738  24.920  27.127  1.00  0.00     0.169 HD
BRANCH  20  22
ATOM     22  C   UNL A   1      30.570  26.270  25.953  1.00  0.00     0.041 A 
ATOM     23  C   UNL A   1      29.823  26.239  24.761  1.00  0.00     0.026 A 
ATOM     24  C   UNL A   1      31.308  27.418  26.235  1.00  0.00     0.039 A 
ATOM     25  C   UNL A   1      29.917  27.251  23.809  1.00  0.00     0.003 A 
ATOM     26  C   UNL A   1      31.499  28.401  25.232  1.00  0.00     0.058 A 
ATOM     27  C   UNL A   1      30.781  28.313  24.029  1.00  0.00     0.013 A 
BRANCH  26  28
ATOM     28  C   UNL A   1      32.528  29.503  25.383  1.00  0.00     0.416 C 
ATOM     29  F   UNL A   1      31.960  30.710  25.685  1.00  0.00    -0.166 F 
ATOM     30  F   UNL A   1      33.422  29.261  26.377  1.00  0.00    -0.166 F 
ATOM     31  F   UNL A   1      33.250  29.726  24.255  1.00  0.00    -0.166 F 
ENDBRANCH  26  28
ENDBRANCH  20  22
ENDBRANCH  17  18
ENDBRANCH   8  17
ENDBRANCH   5   8
ENDBRANCH   3   4
ENDBRANCH   2   3
ENDBRANCH   1   2
BRANCH   1  32
ATOM     32  C   UNL A   1      39.153  21.453  25.916  1.00  0.00     0.002 C 
BRANCH  32  33
ATOM     33  C   UNL A   1      40.317  21.426  26.912  1.00  0.00     0.021 C 
BRANCH  33  34
ATOM     34  C   UNL A   1      40.940  22.773  27.278  1.00  0.00     0.116 C 
BRANCH  34  35
ATOM     35  N   UNL A   1      41.084  23.677  26.145  1.00  0.00    -0.352 N 
ATOM     36  C   UNL A   1      41.120  25.053  26.118  1.00  0.00     0.251 C 
ATOM     37  H   UNL A   1      41.167  23.238  25.268  1.00  0.00     0.163 HD
ATOM     38  O   UNL A   1      41.147  25.639  25.033  1.00  0.00    -0.269 OA
BRANCH  36  39
ATOM     39  C   UNL A   1      41.088  25.838  27.373  1.00  0.00     0.039 A 
ATOM     40  C   UNL A   1      42.198  26.622  27.709  1.00  0.00     0.014 A 
ATOM     41  C   UNL A   1      39.974  25.817  28.216  1.00  0.00     0.014 A 
ATOM     42  C   UNL A   1      42.152  27.454  28.832  1.00  0.00     0.010 A 
ATOM     43  C   UNL A   1      39.906  26.693  29.301  1.00  0.00     0.010 A 
ATOM     44  C   UNL A   1      40.985  27.537  29.609  1.00  0.00    -0.014 A 
BRANCH  44  45
ATOM     45  C   UNL A   1      40.850  28.540  30.701  1.00  0.00     0.031 A 
ATOM     46  C   UNL A   1      41.657  28.417  31.964  1.00  0.00     0.074 A 
ATOM     47  C   UNL A   1      39.927  29.519  30.586  1.00  0.00     0.049 A 
ATOM     48  N   UNL A   1      41.601  29.141  33.052  1.00  0.00    -0.248 NA
ATOM     49  C   UNL A   1      42.640  27.324  32.019  1.00  0.00     0.031 C 
ATOM     50  C   UNL A   1      39.045  29.717  29.433  1.00  0.00     0.029 A 
ATOM     51  N   UNL A   1      39.560  30.517  31.455  1.00  0.00    -0.354 N 
ATOM     52  C   UNL A   1      42.528  28.585  33.927  1.00  0.00     0.074 A 
ATOM     53  C   UNL A   1      43.103  27.439  33.257  1.00  0.00     0.031 C 
ATOM     54  C   UNL A   1      38.249  30.773  29.661  1.00  0.00     0.029 A 
ATOM     55  C   UNL A   1      38.527  31.302  30.992  1.00  0.00     0.049 A 
ATOM     56  H   UNL A   1      39.993  30.657  32.327  1.00  0.00     0.167 HD
ATOM     57  C   UNL A   1      42.875  29.003  35.169  1.00  0.00     0.037 A 
ATOM     58  C   UNL A   1      37.862  32.316  31.579  1.00  0.00     0.037 A 
ATOM     59  C   UNL A   1      42.313  30.159  35.821  1.00  0.00     0.049 A 
ATOM     60  C   UNL A   1      38.256  32.750  32.965  1.00  0.00     0.074 A 
ATOM     61  C   UNL A   1      42.661  30.708  37.043  1.00  0.00     0.029 A 
ATOM     62  N   UNL A   1      41.280  30.933  35.315  1.00  0.00    -0.354 N 
ATOM     63  N   UNL A   1      39.195  32.266  33.742  1.00  0.00    -0.248 NA
ATOM     64  C   UNL A   1      37.501  33.864  33.556  1.00  0.00     0.031 C 
ATOM     65  C   UNL A   1      41.800  31.779  37.302  1.00  0.00     0.029 A 
ATOM     66  C   UNL A   1      40.950  31.932  36.218  1.00  0.00     0.049 A 
ATOM     67  H   UNL A   1      40.844  30.794  34.444  1.00  0.00     0.167 HD
ATOM     68  C   UNL A   1      39.152  33.024  34.907  1.00  0.00     0.074 A 
ATOM     69  C   UNL A   1      38.109  34.013  34.724  1.00  0.00     0.031 C 
ATOM     70  C   UNL A   1      39.907  32.909  36.027  1.00  0.00     0.037 A 
BRANCH  57  71
ATOM     71  C   UNL A   1      43.914  28.209  35.913  1.00  0.00     0.058 A 
ATOM     72  C   UNL A   1      45.285  28.492  35.796  1.00  0.00     0.135 A 
ATOM     73  C   UNL A   1      43.532  27.190  36.802  1.00  0.00     0.135 A 
ATOM     74  F   UNL A   1      45.708  29.448  34.954  1.00  0.00    -0.206 F 
ATOM     75  C   UNL A   1      46.239  27.777  36.512  1.00  0.00     0.059 A 
ATOM     76  C   UNL A   1      44.468  26.481  37.550  1.00  0.00     0.059 A 
ATOM     77  F   UNL A   1      42.235  26.879  36.955  1.00  0.00    -0.206 F 
ATOM     78  C   UNL A   1      45.820  26.774  37.389  1.00  0.00     0.060 A 
BRANCH  78  79
ATOM     79  S   UNL A   1      47.073  25.866  38.320  1.00  0.00     0.124 S 
ATOM     80  O   UNL A   1      46.489  25.858  39.659  1.00  0.00    -0.237 OA
ATOM     81  O   UNL A   1      47.098  24.577  37.634  1.00  0.00    -0.237 OA
ATOM     82  O   UNL A   1      48.273  26.681  38.164  1.00  0.00    -0.744 OA
ENDBRANCH  78  79
ENDBRANCH  57  71
BRANCH  58  83
ATOM     83  C   UNL A   1      36.748  32.988  30.857  1.00  0.00     0.058 A 
ATOM     84  C   UNL A   1      35.412  32.640  31.103  1.00  0.00     0.135 A 
ATOM     85  C   UNL A   1      36.995  33.999  29.914  1.00  0.00     0.135 A 
ATOM     86  F   UNL A   1      35.123  31.673  31.988  1.00  0.00    -0.206 F 
ATOM     87  C   UNL A   1      34.361  33.258  30.431  1.00  0.00     0.059 A 
ATOM     88  C   UNL A   1      35.960  34.651  29.249  1.00  0.00     0.059 A 
ATOM     89  F   UNL A   1      38.256  34.380  29.652  1.00  0.00    -0.206 F 
ATOM     90  C   UNL A   1      34.646  34.266  29.508  1.00  0.00     0.060 A 
BRANCH  90  91
ATOM     91  S   UNL A   1      33.273  35.094  28.677  1.00  0.00     0.124 S 
ATOM     92  O   UNL A   1      32.506  35.600  29.810  1.00  0.00    -0.237 OA
ATOM     93  O   UNL A   1      33.965  36.101  27.875  1.00  0.00    -0.237 OA
ATOM     94  O   UNL A   1      32.645  34.021  27.915  1.00  0.00    -0.744 OA
ENDBRANCH  90  91
ENDBRANCH  58  83
BRANCH  70  95
ATOM     95  C   UNL A   1      39.643  33.878  37.148  1.00  0.00     0.058 A 
ATOM     96  C   UNL A   1      38.906  33.503  38.282  1.00  0.00     0.135 A 
ATOM     97  C   UNL A   1      40.189  35.171  37.119  1.00  0.00     0.135 A 
ATOM     98  F   UNL A   1      38.353  32.283  38.356  1.00  0.00    -0.206 F 
ATOM     99  C   UNL A   1      38.712  34.380  39.344  1.00  0.00     0.059 A 
ATOM    100  C   UNL A   1      40.031  36.055  38.181  1.00  0.00     0.059 A 
ATOM    101  F   UNL A   1      40.908  35.577  36.060  1.00  0.00    -0.206 F 
ATOM    102  C   UNL A   1      39.284  35.652  39.288  1.00  0.00     0.060 A 
BRANCH 102 103
ATOM    103  S   UNL A   1      39.072  36.758  40.699  1.00  0.00     0.124 S 
ATOM    104  O   UNL A   1      38.154  35.993  41.537  1.00  0.00    -0.237 OA
ATOM    105  O   UNL A   1      40.435  36.883  41.205  1.00  0.00    -0.237 OA
ATOM    106  O   UNL A   1      38.517  37.969  40.102  1.00  0.00    -0.744 OA
ENDBRANCH 102 103
ENDBRANCH  70  95
ENDBRANCH  44  45
ENDBRANCH  36  39
ENDBRANCH  34  35
ENDBRANCH  33  34
ENDBRANCH  32  33
ENDBRANCH   1  32
TORSDOF 20
ENDMDL
MODEL 2
REMARK VINA RESULT:     -12.8      0.983      8.020
REMARK SMILES C[C@@H]1CC(C)(C)C[C@@](CC(=O)Nc2cccc(C(F)(F)F)c2)(C(=O)NCCCCCCNC(=O)c2ccc(-c3c4nc(c(-c5c(F)cc(S(=O)(=O)[O-])cc5F)c5ccc([nH]5)c(-c5c(F)cc(S(=O)(=O)[O-])cc5F)c5nc(c(-c6c(F)cc(S(=O)(=O)[O-])cc6F)c6ccc3[nH]6)C=C5)C=C4)cc2)C1
REMARK SMILES IDX 28 1 27 2 26 3 25 4 23 5 24 6 8 8 1 9 2 10 3 11 101 12 4 13
REMARK SMILES IDX 5 14 6 15 7 16 9 17 10 18 11 19 12 20 13 22 14 23 22 24
REMARK SMILES IDX 15 25 17 26 16 27 18 28 19 29 20 30 21 31 29 32 30 33 31 34
REMARK SMILES IDX 32 35 33 36 34 38 35 39 36 40 100 41 37 42 99 43 38 44 39 45
REMARK SMILES IDX 40 46 93 47 41 48 98 49 92 50 94 51 42 52 97 53 91 54 90 55
REMARK SMILES IDX 43 57 77 58 56 59 76 60 57 61 60 62 75 63 95 64 58 65 59 66
REMARK SMILES IDX 74 68 96 69 61 70 44 71 45 72 54 73 46 74 47 75 53 76 55 77
REMARK SMILES IDX 48 78 49 79 50 80 51 81 52 82 78 83 79 84 88 85 80 86 81 87
REMARK SMILES IDX 87 88 89 89 82 90 83 91 84 92 85 93 86 94 62 95 63 96 72 97
REMARK SMILES IDX 64 98 65 99 71 100 73 101 66 102 67 103 68 104 69 105 70 106
REMARK H PARENT 25 7 12 21 32 37 94 56 60 67
REMARK Flexibility Score: inf
ROOT
ATOM      1  C   UNL A   1      37.985  21.527  25.498  1.00  0.00     0.002 C 
ENDROOT
BRANCH   1   2
ATOM      2  C   UNL A   1      37.165  20.482  24.722  1.00  0.00     0.021 C 
BRANCH   2   3
ATOM      3  C   UNL A   1      35.644  20.495  24.954  1.00  0.00     0.116 C 
BRANCH   3   4
ATOM      4  N   UNL A   1      35.251  21.093  26.236  1.00  0.00    -0.356 N 
ATOM      5  C   UNL A   1      34.485  22.177  26.595  1.00  0.00     0.226 C 
ATOM      6  O   UNL A   1      34.387  22.366  27.812  1.00  0.00    -0.274 OA
ATOM      7  H   UNL A   1      35.618  20.611  27.012  1.00  0.00     0.163 HD
BRANCH   5   8
ATOM      8  C   UNL A   1      33.764  23.134  25.561  1.00  0.00     0.059 C 
ATOM      9  C   UNL A   1      33.653  25.664  23.266  1.00  0.00     0.008 C 
ATOM     10  C   UNL A   1      34.324  24.297  23.227  1.00  0.00    -0.013 C 
ATOM     11  C   UNL A   1      33.506  23.272  22.470  1.00  0.00     0.009 C 
ATOM     12  C   UNL A   1      34.800  23.683  24.546  1.00  0.00     0.020 C 
ATOM     13  C   UNL A   1      32.392  22.579  23.284  1.00  0.00    -0.034 C 
ATOM     14  C   UNL A   1      31.111  23.427  23.334  1.00  0.00     0.011 C 
ATOM     15  C   UNL A   1      32.053  21.303  22.470  1.00  0.00     0.011 C 
ATOM     16  C   UNL A   1      32.811  22.186  24.741  1.00  0.00     0.024 C 
BRANCH   8  17
ATOM     17  C   UNL A   1      33.132  24.206  26.483  1.00  0.00     0.117 C 
BRANCH  17  18
ATOM     18  C   UNL A   1      31.678  24.535  26.700  1.00  0.00     0.225 C 
ATOM     19  O   UNL A   1      30.975  23.673  27.253  1.00  0.00    -0.275 OA
ATOM     20  N   UNL A   1      31.040  25.702  26.460  1.00  0.00    -0.326 N 
ATOM     21  H   UNL A   1      30.164  25.706  26.910  1.00  0.00     0.169 HD
BRANCH  20  22
ATOM     22  C   UNL A   1      31.231  26.913  25.770  1.00  0.00     0.041 A 
ATOM     23  C   UNL A   1      31.993  27.856  26.485  1.00  0.00     0.026 A 
ATOM     24  C   UNL A   1      30.646  27.315  24.571  1.00  0.00     0.039 A 
ATOM     25  C   UNL A   1      32.052  29.193  26.101  1.00  0.00     0.003 A 
ATOM     26  C   UNL A   1      30.606  28.690  24.229  1.00  0.00     0.058 A 
ATOM     27  C   UNL A   1      31.331  29.616  24.995  1.00  0.00     0.013 A 
BRANCH  26  28
ATOM     28  C   UNL A   1      29.728  29.205  23.107  1.00  0.00     0.416 C 
ATOM     29  F   UNL A   1      30.297  29.027  21.875  1.00  0.00    -0.166 F 
ATOM     30  F   UNL A   1      28.523  28.581  23.046  1.00  0.00    -0.166 F 
ATOM     31  F   UNL A   1      29.475  30.537  23.188  1.00  0.00    -0.166 F 
ENDBRANCH  26  28
ENDBRANCH  20  22
ENDBRANCH  17  18
ENDBRANCH   8  17
ENDBRANCH   5   8
ENDBRANCH   3   4
ENDBRANCH   2   3
ENDBRANCH   1   2
BRANCH   1  32
ATOM     32  C   UNL A   1      39.349  21.087  26.048  1.00  0.00     0.002 C 
BRANCH  32  33
ATOM     33  C   UNL A   1      40.065  22.057  26.993  1.00  0.00     0.021 C 
BRANCH  33  34
ATOM     34  C   UNL A   1      39.579  23.507  26.986  1.00  0.00     0.116 C 
BRANCH  34  35
ATOM     35  N   UNL A   1      40.267  24.349  26.018  1.00  0.00    -0.352 N 
ATOM     36  C   UNL A   1      40.783  25.617  26.166  1.00  0.00     0.251 C 
ATOM     37  H   UNL A   1      40.380  23.953  25.124  1.00  0.00     0.163 HD
ATOM     38  O   UNL A   1      41.245  26.204  25.184  1.00  0.00    -0.269 OA
BRANCH  36  39
ATOM     39  C   UNL A   1      40.757  26.298  27.480  1.00  0.00     0.039 A 
ATOM     40  C   UNL A   1      41.757  27.230  27.779  1.00  0.00     0.014 A 
ATOM     41  C   UNL A   1      39.753  26.036  28.416  1.00  0.00     0.014 A 
ATOM     42  C   UNL A   1      41.696  27.965  28.968  1.00  0.00     0.010 A 
ATOM     43  C   UNL A   1      39.658  26.812  29.572  1.00  0.00     0.010 A 
ATOM     44  C   UNL A   1      40.616  27.800  29.851  1.00  0.00    -0.014 A 
BRANCH  44  45
ATOM     45  C   UNL A   1      40.437  28.690  31.031  1.00  0.00     0.031 A 
ATOM     46  C   UNL A   1      39.410  29.790  31.017  1.00  0.00     0.074 A 
ATOM     47  C   UNL A   1      41.269  28.561  32.087  1.00  0.00     0.049 A 
ATOM     48  N   UNL A   1      39.181  30.715  31.913  1.00  0.00    -0.248 NA
ATOM     49  C   UNL A   1      38.542  29.873  29.832  1.00  0.00     0.031 C 
ATOM     50  C   UNL A   1      42.339  27.567  32.201  1.00  0.00     0.029 A 
ATOM     51  N   UNL A   1      41.361  29.279  33.254  1.00  0.00    -0.354 N 
ATOM     52  C   UNL A   1      38.156  31.499  31.398  1.00  0.00     0.074 A 
ATOM     53  C   UNL A   1      37.834  30.964  30.092  1.00  0.00     0.031 C 
ATOM     54  C   UNL A   1      42.972  27.731  33.373  1.00  0.00     0.029 A 
ATOM     55  C   UNL A   1      42.387  28.868  34.076  1.00  0.00     0.049 A 
ATOM     56  H   UNL A   1      40.752  30.017  33.481  1.00  0.00     0.167 HD
ATOM     57  C   UNL A   1      37.531  32.558  31.968  1.00  0.00     0.037 A 
ATOM     58  C   UNL A   1      42.824  29.364  35.251  1.00  0.00     0.037 A 
ATOM     59  C   UNL A   1      37.842  33.072  33.278  1.00  0.00     0.049 A 
ATOM     60  C   UNL A   1      42.125  30.551  35.855  1.00  0.00     0.074 A 
ATOM     61  C   UNL A   1      37.208  34.086  33.975  1.00  0.00     0.029 A 
ATOM     62  N   UNL A   1      38.878  32.622  34.084  1.00  0.00    -0.354 N 
ATOM     63  N   UNL A   1      41.100  31.224  35.391  1.00  0.00    -0.248 NA
ATOM     64  C   UNL A   1      42.640  31.048  37.139  1.00  0.00     0.031 C 
ATOM     65  C   UNL A   1      37.897  34.289  35.175  1.00  0.00     0.029 A 
ATOM     66  C   UNL A   1      38.927  33.365  35.253  1.00  0.00     0.049 A 
ATOM     67  H   UNL A   1      39.489  31.884  33.858  1.00  0.00     0.167 HD
ATOM     68  C   UNL A   1      40.839  32.215  36.332  1.00  0.00     0.074 A 
ATOM     69  C   UNL A   1      41.800  32.039  37.402  1.00  0.00     0.031 C 
ATOM     70  C   UNL A   1      39.891  33.184  36.309  1.00  0.00     0.037 A 
BRANCH  57  71
ATOM     71  C   UNL A   1      36.444  33.240  31.183  1.00  0.00     0.058 A 
ATOM     72  C   UNL A   1      35.089  33.118  31.535  1.00  0.00     0.135 A 
ATOM     73  C   UNL A   1      36.763  34.076  30.100  1.00  0.00     0.135 A 
ATOM     74  F   UNL A   1      34.726  32.324  32.554  1.00  0.00    -0.206 F 
ATOM     75  C   UNL A   1      34.091  33.778  30.827  1.00  0.00     0.059 A 
ATOM     76  C   UNL A   1      35.783  34.769  29.394  1.00  0.00     0.059 A 
ATOM     77  F   UNL A   1      38.042  34.232  29.721  1.00  0.00    -0.206 F 
ATOM     78  C   UNL A   1      34.448  34.603  29.758  1.00  0.00     0.060 A 
BRANCH  78  79
ATOM     79  S   UNL A   1      33.140  35.463  28.859  1.00  0.00     0.124 S 
ATOM     80  O   UNL A   1      32.536  34.366  28.107  1.00  0.00    -0.237 OA
ATOM     81  O   UNL A   1      32.326  36.011  29.940  1.00  0.00    -0.237 OA
ATOM     82  O   UNL A   1      33.863  36.447  28.060  1.00  0.00    -0.744 OA
ENDBRANCH  78  79
ENDBRANCH  57  71
BRANCH  58  83
ATOM     83  C   UNL A   1      43.992  28.739  35.930  1.00  0.00     0.058 A 
ATOM     84  C   UNL A   1      45.292  29.226  35.729  1.00  0.00     0.135 A 
ATOM     85  C   UNL A   1      43.832  27.649  36.801  1.00  0.00     0.135 A 
ATOM     86  F   UNL A   1      45.500  30.260  34.899  1.00  0.00    -0.206 F 
ATOM     87  C   UNL A   1      46.392  28.648  36.355  1.00  0.00     0.059 A 
ATOM     88  C   UNL A   1      44.913  27.072  37.460  1.00  0.00     0.059 A 
ATOM     89  F   UNL A   1      42.606  27.154  37.039  1.00  0.00    -0.206 F 
ATOM     90  C   UNL A   1      46.192  27.573  37.222  1.00  0.00     0.060 A 
BRANCH  90  91
ATOM     91  S   UNL A   1      47.620  26.860  38.066  1.00  0.00     0.124 S 
ATOM     92  O   UNL A   1      48.593  26.784  36.981  1.00  0.00    -0.237 OA
ATOM     93  O   UNL A   1      47.893  27.857  39.099  1.00  0.00    -0.237 OA
ATOM     94  O   UNL A   1      47.118  25.582  38.556  1.00  0.00    -0.744 OA
ENDBRANCH  90  91
ENDBRANCH  58  83
BRANCH  70  95
ATOM     95  C   UNL A   1      39.836  34.132  37.476  1.00  0.00     0.058 A 
ATOM     96  C   UNL A   1      40.512  35.361  37.454  1.00  0.00     0.135 A 
ATOM     97  C   UNL A   1      39.044  33.839  38.598  1.00  0.00     0.135 A 
ATOM     98  F   UNL A   1      41.291  35.686  36.411  1.00  0.00    -0.206 F 
ATOM     99  C   UNL A   1      40.414  36.263  38.509  1.00  0.00     0.059 A 
ATOM    100  C   UNL A   1      38.908  34.737  39.652  1.00  0.00     0.059 A 
ATOM    101  F   UNL A   1      38.371  32.679  38.666  1.00  0.00    -0.206 F 
ATOM    102  C   UNL A   1      39.603  35.945  39.601  1.00  0.00     0.060 A 
BRANCH 102 103
ATOM    103  S   UNL A   1      39.440  37.151  40.935  1.00  0.00     0.124 S 
ATOM    104  O   UNL A   1      40.819  37.602  41.094  1.00  0.00    -0.237 OA
ATOM    105  O   UNL A   1      38.517  38.126  40.362  1.00  0.00    -0.237 OA
ATOM    106  O   UNL A   1      38.905  36.364  42.041  1.00  0.00    -0.744 OA
ENDBRANCH 102 103
ENDBRANCH  70  95
ENDBRANCH  44  45
ENDBRANCH  36  39
ENDBRANCH  34  35
ENDBRANCH  33  34
ENDBRANCH  32  33
ENDBRANCH   1  32
TORSDOF 20
ENDMDL
MODEL 3
REMARK VINA RESULT:     -12.6      2.122      3.579
REMARK SMILES C[C@@H]1CC(C)(C)C[C@@](CC(=O)Nc2cccc(C(F)(F)F)c2)(C(=O)NCCCCCCNC(=O)c2ccc(-c3c4nc(c(-c5c(F)cc(S(=O)(=O)[O-])cc5F)c5ccc([nH]5)c(-c5c(F)cc(S(=O)(=O)[O-])cc5F)c5nc(c(-c6c(F)cc(S(=O)(=O)[O-])cc6F)c6ccc3[nH]6)C=C5)C=C4)cc2)C1
REMARK SMILES IDX 28 1 27 2 26 3 25 4 23 5 24 6 8 8 1 9 2 10 3 11 101 12 4 13
REMARK SMILES IDX 5 14 6 15 7 16 9 17 10 18 11 19 12 20 13 22 14 23 22 24
REMARK SMILES IDX 15 25 17 26 16 27 18 28 19 29 20 30 21 31 29 32 30 33 31 34
REMARK SMILES IDX 32 35 33 36 34 38 35 39 36 40 100 41 37 42 99 43 38 44 39 45
REMARK SMILES IDX 40 46 93 47 41 48 98 49 92 50 94 51 42 52 97 53 91 54 90 55
REMARK SMILES IDX 43 57 77 58 56 59 76 60 57 61 60 62 75 63 95 64 58 65 59 66
REMARK SMILES IDX 74 68 96 69 61 70 44 71 45 72 54 73 46 74 47 75 53 76 55 77
REMARK SMILES IDX 48 78 49 79 50 80 51 81 52 82 78 83 79 84 88 85 80 86 81 87
REMARK SMILES IDX 87 88 89 89 82 90 83 91 84 92 85 93 86 94 62 95 63 96 72 97
REMARK SMILES IDX 64 98 65 99 71 100 73 101 66 102 67 103 68 104 69 105 70 106
REMARK H PARENT 25 7 12 21 32 37 94 56 60 67
REMARK Flexibility Score: inf
ROOT
ATOM      1  C   UNL A   1      35.886  22.696  23.704  1.00  0.00     0.002 C 
ENDROOT
BRANCH   1   2
ATOM      2  C   UNL A   1      34.571  23.486  23.826  1.00  0.00     0.021 C 
BRANCH   2   3
ATOM      3  C   UNL A   1      33.786  23.713  22.521  1.00  0.00     0.116 C 
BRANCH   3   4
ATOM      4  N   UNL A   1      32.332  23.775  22.716  1.00  0.00    -0.356 N 
ATOM      5  C   UNL A   1      31.467  24.733  23.190  1.00  0.00     0.226 C 
ATOM      6  O   UNL A   1      30.277  24.401  23.203  1.00  0.00    -0.274 OA
ATOM      7  H   UNL A   1      31.874  22.946  22.447  1.00  0.00     0.163 HD
BRANCH   5   8
ATOM      8  C   UNL A   1      31.919  26.166  23.688  1.00  0.00     0.059 C 
ATOM      9  C   UNL A   1      34.147  28.726  24.091  1.00  0.00     0.008 C 
ATOM     10  C   UNL A   1      33.497  28.143  22.843  1.00  0.00    -0.013 C 
ATOM     11  C   UNL A   1      32.307  28.953  22.377  1.00  0.00     0.009 C 
ATOM     12  C   UNL A   1      33.123  26.659  22.845  1.00  0.00     0.020 C 
ATOM     13  C   UNL A   1      30.971  28.638  23.084  1.00  0.00    -0.034 C 
ATOM     14  C   UNL A   1      30.842  29.389  24.419  1.00  0.00     0.011 C 
ATOM     15  C   UNL A   1      29.885  29.215  22.138  1.00  0.00     0.011 C 
ATOM     16  C   UNL A   1      30.714  27.111  23.322  1.00  0.00     0.024 C 
BRANCH   8  17
ATOM     17  C   UNL A   1      32.236  25.914  25.183  1.00  0.00     0.117 C 
BRANCH  17  18
ATOM     18  C   UNL A   1      31.340  25.377  26.268  1.00  0.00     0.225 C 
ATOM     19  O   UNL A   1      30.509  26.158  26.760  1.00  0.00    -0.275 OA
ATOM     20  N   UNL A   1      31.245  24.107  26.722  1.00  0.00    -0.326 N 
ATOM     21  H   UNL A   1      30.425  24.001  27.257  1.00  0.00     0.169 HD
BRANCH  20  22
ATOM     22  C   UNL A   1      31.948  22.890  26.673  1.00  0.00     0.041 A 
ATOM     23  C   UNL A   1      33.009  22.812  27.593  1.00  0.00     0.026 A 
ATOM     24  C   UNL A   1      31.806  21.859  25.746  1.00  0.00     0.039 A 
ATOM     25  C   UNL A   1      33.984  21.822  27.507  1.00  0.00     0.003 A 
ATOM     26  C   UNL A   1      32.847  20.911  25.577  1.00  0.00     0.058 A 
ATOM     27  C   UNL A   1      33.922  20.894  26.478  1.00  0.00     0.013 A 
BRANCH  26  28
ATOM     28  C   UNL A   1      32.878  19.967  24.392  1.00  0.00     0.416 C 
ATOM     29  F   UNL A   1      32.149  18.830  24.611  1.00  0.00    -0.166 F 
ATOM     30  F   UNL A   1      32.364  20.518  23.261  1.00  0.00    -0.166 F 
ATOM     31  F   UNL A   1      34.125  19.531  24.082  1.00  0.00    -0.166 F 
ENDBRANCH  26  28
ENDBRANCH  20  22
ENDBRANCH  17  18
ENDBRANCH   8  17
ENDBRANCH   5   8
ENDBRANCH   3   4
ENDBRANCH   2   3
ENDBRANCH   1   2
BRANCH   1  32
ATOM     32  C   UNL A   1      37.036  23.092  24.641  1.00  0.00     0.002 C 
BRANCH  32  33
ATOM     33  C   UNL A   1      36.658  23.799  25.947  1.00  0.00     0.021 C 
BRANCH  33  34
ATOM     34  C   UNL A   1      37.805  24.398  26.761  1.00  0.00     0.116 C 
BRANCH  34  35
ATOM     35  N   UNL A   1      39.111  24.239  26.136  1.00  0.00    -0.352 N 
ATOM     36  C   UNL A   1      40.318  24.812  26.466  1.00  0.00     0.251 C 
ATOM     37  H   UNL A   1      39.133  23.631  25.362  1.00  0.00     0.163 HD
ATOM     38  O   UNL A   1      41.298  24.624  25.741  1.00  0.00    -0.269 OA
BRANCH  36  39
ATOM     39  C   UNL A   1      40.446  25.681  27.658  1.00  0.00     0.039 A 
ATOM     40  C   UNL A   1      41.500  26.599  27.716  1.00  0.00     0.014 A 
ATOM     41  C   UNL A   1      39.533  25.607  28.713  1.00  0.00     0.014 A 
ATOM     42  C   UNL A   1      41.582  27.504  28.780  1.00  0.00     0.010 A 
ATOM     43  C   UNL A   1      39.580  26.550  29.742  1.00  0.00     0.010 A 
ATOM     44  C   UNL A   1      40.593  27.522  29.776  1.00  0.00    -0.014 A 
BRANCH  44  45
ATOM     45  C   UNL A   1      40.562  28.584  30.819  1.00  0.00     0.031 A 
ATOM     46  C   UNL A   1      41.453  28.503  32.028  1.00  0.00     0.074 A 
ATOM     47  C   UNL A   1      39.659  29.583  30.716  1.00  0.00     0.049 A 
ATOM     48  N   UNL A   1      41.493  29.283  33.077  1.00  0.00    -0.248 NA
ATOM     49  C   UNL A   1      42.408  27.385  32.074  1.00  0.00     0.031 C 
ATOM     50  C   UNL A   1      38.703  29.747  29.617  1.00  0.00     0.029 A 
ATOM     51  N   UNL A   1      39.380  30.635  31.553  1.00  0.00    -0.354 N 
ATOM     52  C   UNL A   1      42.464  28.747  33.914  1.00  0.00     0.074 A 
ATOM     53  C   UNL A   1      42.961  27.551  33.269  1.00  0.00     0.031 C 
ATOM     54  C   UNL A   1      37.953  30.837  29.843  1.00  0.00     0.029 A 
ATOM     55  C   UNL A   1      38.339  31.425  31.121  1.00  0.00     0.049 A 
ATOM     56  H   UNL A   1      39.878  30.808  32.384  1.00  0.00     0.167 HD
ATOM     57  C   UNL A   1      42.910  29.218  35.104  1.00  0.00     0.037 A 
ATOM     58  C   UNL A   1      37.744  32.489  31.697  1.00  0.00     0.037 A 
ATOM     59  C   UNL A   1      42.426  30.422  35.731  1.00  0.00     0.049 A 
ATOM     60  C   UNL A   1      38.246  32.982  33.027  1.00  0.00     0.074 A 
ATOM     61  C   UNL A   1      42.874  31.024  36.894  1.00  0.00     0.029 A 
ATOM     62  N   UNL A   1      41.380  31.200  35.257  1.00  0.00    -0.354 N 
ATOM     63  N   UNL A   1      39.225  32.511  33.762  1.00  0.00    -0.248 NA
ATOM     64  C   UNL A   1      37.564  34.147  33.608  1.00  0.00     0.031 C 
ATOM     65  C   UNL A   1      42.061  32.132  37.154  1.00  0.00     0.029 A 
ATOM     66  C   UNL A   1      41.141  32.254  36.125  1.00  0.00     0.049 A 
ATOM     67  H   UNL A   1      40.880  31.028  34.426  1.00  0.00     0.167 HD
ATOM     68  C   UNL A   1      39.284  33.330  34.884  1.00  0.00     0.074 A 
ATOM     69  C   UNL A   1      38.258  34.339  34.721  1.00  0.00     0.031 C 
ATOM     70  C   UNL A   1      40.113  33.251  35.954  1.00  0.00     0.037 A 
BRANCH  57  71
ATOM     71  C   UNL A   1      43.978  28.433  35.817  1.00  0.00     0.058 A 
ATOM     72  C   UNL A   1      45.344  28.691  35.616  1.00  0.00     0.135 A 
ATOM     73  C   UNL A   1      43.632  27.449  36.758  1.00  0.00     0.135 A 
ATOM     74  F   UNL A   1      45.732  29.613  34.720  1.00  0.00    -0.206 F 
ATOM     75  C   UNL A   1      46.326  27.986  36.302  1.00  0.00     0.059 A 
ATOM     76  C   UNL A   1      44.598  26.750  37.477  1.00  0.00     0.059 A 
ATOM     77  F   UNL A   1      42.341  27.162  36.992  1.00  0.00    -0.206 F 
ATOM     78  C   UNL A   1      45.943  27.018  37.233  1.00  0.00     0.060 A 
BRANCH  78  79
ATOM     79  S   UNL A   1      47.233  26.122  38.124  1.00  0.00     0.124 S 
ATOM     80  O   UNL A   1      47.472  27.009  39.258  1.00  0.00    -0.237 OA
ATOM     81  O   UNL A   1      46.573  24.857  38.438  1.00  0.00    -0.237 OA
ATOM     82  O   UNL A   1      48.320  26.035  37.155  1.00  0.00    -0.744 OA
ENDBRANCH  78  79
ENDBRANCH  57  71
BRANCH  58  83
ATOM     83  C   UNL A   1      36.599  33.156  31.019  1.00  0.00     0.058 A 
ATOM     84  C   UNL A   1      35.288  33.000  31.491  1.00  0.00     0.135 A 
ATOM     85  C   UNL A   1      36.793  33.969  29.891  1.00  0.00     0.135 A 
ATOM     86  F   UNL A   1      35.048  32.225  32.560  1.00  0.00    -0.206 F 
ATOM     87  C   UNL A   1      34.208  33.615  30.863  1.00  0.00     0.059 A 
ATOM     88  C   UNL A   1      35.734  34.616  29.262  1.00  0.00     0.059 A 
ATOM     89  F   UNL A   1      38.031  34.162  29.406  1.00  0.00    -0.206 F 
ATOM     90  C   UNL A   1      34.443  34.425  29.750  1.00  0.00     0.060 A 
BRANCH  90  91
ATOM     91  S   UNL A   1      33.041  35.256  28.971  1.00  0.00     0.124 S 
ATOM     92  O   UNL A   1      32.585  34.240  28.029  1.00  0.00    -0.237 OA
ATOM     93  O   UNL A   1      32.164  35.508  30.112  1.00  0.00    -0.237 OA
ATOM     94  O   UNL A   1      33.643  36.444  28.378  1.00  0.00    -0.744 OA
ENDBRANCH  90  91
ENDBRANCH  58  83
BRANCH  70  95
ATOM     95  C   UNL A   1      39.954  34.284  37.036  1.00  0.00     0.058 A 
ATOM     96  C   UNL A   1      40.652  35.500  36.995  1.00  0.00     0.135 A 
ATOM     97  C   UNL A   1      39.045  34.084  38.087  1.00  0.00     0.135 A 
ATOM     98  F   UNL A   1      41.542  35.738  36.019  1.00  0.00    -0.206 F 
ATOM     99  C   UNL A   1      40.461  36.480  37.965  1.00  0.00     0.059 A 
ATOM    100  C   UNL A   1      38.817  35.060  39.052  1.00  0.00     0.059 A 
ATOM    101  F   UNL A   1      38.347  32.940  38.169  1.00  0.00    -0.206 F 
ATOM    102  C   UNL A   1      39.535  36.254  38.986  1.00  0.00     0.060 A 
BRANCH 102 103
ATOM    103  S   UNL A   1      39.256  37.557  40.203  1.00  0.00     0.124 S 
ATOM    104  O   UNL A   1      38.917  36.782  41.392  1.00  0.00    -0.237 OA
ATOM    105  O   UNL A   1      40.549  38.234  40.237  1.00  0.00    -0.237 OA
ATOM    106  O   UNL A   1      38.164  38.333  39.627  1.00  0.00    -0.744 OA
ENDBRANCH 102 103
ENDBRANCH  70  95
ENDBRANCH  44  45
ENDBRANCH  36  39
ENDBRANCH  34  35
ENDBRANCH  33  34
ENDBRANCH  32  33
ENDBRANCH   1  32
TORSDOF 20
ENDMDL
