MODEL 1
REMARK VINA RESULT:     -11.7      0.000      0.000
REMARK SMILES [NH3+]Cc1c(-c2ccccc2)c(C(=O)NCCCCCCNC(=O)c2ccc(-c3c4nc(c(-c5c(F)cc(S(=O)(=O)[O-])cc5F)c5ccc([nH]5)c(-c5c(F)cc(S(=O)(=O)[O-])cc5F)c5nc(c(-c6c(F)cc(S(=O)(=O)[O-])cc6F)c6ccc3[nH]6)C=C5)C=C4)cc2)c2ccccn12
REMARK SMILES IDX 18 1 17 2 16 3 15 4 14 5 12 6 13 7 11 9 3 10 4 11 95 12
REMARK SMILES IDX 90 13 94 14 91 15 93 16 92 17 2 18 1 19 5 23 6 24 10 25 7 26
REMARK SMILES IDX 9 27 8 28 19 29 20 30 21 31 22 32 23 34 24 35 25 36 89 37
REMARK SMILES IDX 26 38 88 39 27 40 28 41 29 42 82 43 30 44 87 45 81 46 83 47
REMARK SMILES IDX 31 48 86 49 80 50 79 51 32 53 66 54 45 55 65 56 46 57 49 58
REMARK SMILES IDX 64 59 84 60 47 61 48 62 63 64 85 65 50 66 33 67 34 68 43 69
REMARK SMILES IDX 35 70 36 71 42 72 44 73 37 74 38 75 39 76 40 77 41 78 67 79
REMARK SMILES IDX 68 80 77 81 69 82 70 83 76 84 78 85 71 86 72 87 73 88 74 89
REMARK SMILES IDX 75 90 51 91 52 92 61 93 53 94 54 95 60 96 62 97 55 98 56 99
REMARK SMILES IDX 57 100 58 101 59 102
REMARK H PARENT 14 8 1 20 1 21 1 22 21 33 83 52 49 63
REMARK Flexibility Score: inf
ROOT
ATOM      1  C   UNL A   1      40.525  22.502  27.915  1.00  0.00     0.002 C 
ENDROOT
BRANCH   1   2
ATOM      2  C   UNL A   1      39.645  22.547  26.663  1.00  0.00     0.002 C 
BRANCH   2   3
ATOM      3  C   UNL A   1      38.706  23.747  26.510  1.00  0.00     0.021 C 
BRANCH   3   4
ATOM      4  C   UNL A   1      37.328  23.472  25.920  1.00  0.00     0.116 C 
BRANCH   4   5
ATOM      5  N   UNL A   1      37.284  23.355  24.482  1.00  0.00    -0.352 N 
ATOM      6  C   UNL A   1      36.233  23.093  23.632  1.00  0.00     0.254 C 
ATOM      7  O   UNL A   1      36.490  23.159  22.428  1.00  0.00    -0.269 OA
ATOM      8  H   UNL A   1      38.151  23.484  24.034  1.00  0.00     0.163 HD
BRANCH   6   9
ATOM      9  C   UNL A   1      34.905  22.678  24.112  1.00  0.00     0.073 A 
ATOM     10  C   UNL A   1      32.696  22.851  24.761  1.00  0.00     0.086 A 
ATOM     11  C   UNL A   1      33.808  23.585  24.364  1.00  0.00     0.022 A 
ATOM     12  N   UNL A   1      33.060  21.517  24.732  1.00  0.00    -0.314 N 
ATOM     13  C   UNL A   1      34.439  21.431  24.524  1.00  0.00     0.059 A 
ATOM     14  C   UNL A   1      32.251  20.384  24.905  1.00  0.00     0.092 A 
ATOM     15  C   UNL A   1      35.024  20.142  24.743  1.00  0.00     0.027 A 
ATOM     16  C   UNL A   1      32.804  19.162  24.932  1.00  0.00     0.018 A 
ATOM     17  C   UNL A   1      34.245  19.055  24.890  1.00  0.00     0.004 A 
BRANCH  10  18
ATOM     18  C   UNL A   1      31.325  23.299  25.147  1.00  0.00     0.315 C 
BRANCH  18  19
ATOM     19  N   UNL A   1      30.539  23.594  23.954  1.00  0.00    -0.353 N 
ATOM     20  H   UNL A   1      29.578  23.804  24.224  1.00  0.00     0.344 HD
ATOM     21  H   UNL A   1      30.548  22.786  23.331  1.00  0.00     0.344 HD
ATOM     22  H   UNL A   1      30.940  24.398  23.472  1.00  0.00     0.344 HD
ENDBRANCH  18  19
ENDBRANCH  10  18
BRANCH  11  23
ATOM     23  C   UNL A   1      33.791  25.039  24.259  1.00  0.00    -0.016 A 
ATOM     24  C   UNL A   1      33.629  25.661  23.017  1.00  0.00     0.009 A 
ATOM     25  C   UNL A   1      33.979  25.827  25.402  1.00  0.00     0.009 A 
ATOM     26  C   UNL A   1      33.660  27.055  22.921  1.00  0.00     0.001 A 
ATOM     27  C   UNL A   1      33.998  27.219  25.307  1.00  0.00     0.001 A 
ATOM     28  C   UNL A   1      33.842  27.833  24.065  1.00  0.00     0.000 A 
ENDBRANCH  11  23
ENDBRANCH   6   9
ENDBRANCH   4   5
ENDBRANCH   3   4
ENDBRANCH   2   3
ENDBRANCH   1   2
BRANCH   1  29
ATOM     29  C   UNL A   1      42.005  22.173  27.711  1.00  0.00     0.021 C 
BRANCH  29  30
ATOM     30  C   UNL A   1      42.949  23.366  27.599  1.00  0.00     0.116 C 
BRANCH  30  31
ATOM     31  N   UNL A   1      42.872  24.032  26.310  1.00  0.00    -0.352 N 
ATOM     32  C   UNL A   1      42.429  25.296  26.001  1.00  0.00     0.251 C 
ATOM     33  H   UNL A   1      43.181  23.497  25.544  1.00  0.00     0.163 HD
ATOM     34  O   UNL A   1      42.304  25.626  24.826  1.00  0.00    -0.269 OA
BRANCH  32  35
ATOM     35  C   UNL A   1      42.079  26.247  27.080  1.00  0.00     0.039 A 
ATOM     36  C   UNL A   1      41.033  25.923  27.948  1.00  0.00     0.014 A 
ATOM     37  C   UNL A   1      42.767  27.454  27.234  1.00  0.00     0.014 A 
ATOM     38  C   UNL A   1      40.721  26.777  29.009  1.00  0.00     0.010 A 
ATOM     39  C   UNL A   1      42.505  28.266  28.335  1.00  0.00     0.010 A 
ATOM     40  C   UNL A   1      41.480  27.938  29.235  1.00  0.00    -0.014 A 
BRANCH  40  41
ATOM     41  C   UNL A   1      41.223  28.809  30.412  1.00  0.00     0.031 A 
ATOM     42  C   UNL A   1      42.043  28.658  31.665  1.00  0.00     0.074 A 
ATOM     43  C   UNL A   1      40.208  29.695  30.373  1.00  0.00     0.049 A 
ATOM     44  N   UNL A   1      41.926  29.281  32.809  1.00  0.00    -0.248 NA
ATOM     45  C   UNL A   1      43.119  27.655  31.636  1.00  0.00     0.031 C 
ATOM     46  C   UNL A   1      39.313  29.905  29.232  1.00  0.00     0.029 A 
ATOM     47  N   UNL A   1      39.748  30.578  31.319  1.00  0.00    -0.354 N 
ATOM     48  C   UNL A   1      42.903  28.743  33.637  1.00  0.00     0.074 A 
ATOM     49  C   UNL A   1      43.566  27.701  32.883  1.00  0.00     0.031 C 
ATOM     50  C   UNL A   1      38.431  30.871  29.535  1.00  0.00     0.029 A 
ATOM     51  C   UNL A   1      38.666  31.319  30.905  1.00  0.00     0.049 A 
ATOM     52  H   UNL A   1      40.156  30.672  32.210  1.00  0.00     0.167 HD
ATOM     53  C   UNL A   1      43.233  29.099  34.902  1.00  0.00     0.037 A 
ATOM     54  C   UNL A   1      37.936  32.246  31.557  1.00  0.00     0.037 A 
ATOM     55  C   UNL A   1      42.577  30.146  35.641  1.00  0.00     0.049 A 
ATOM     56  C   UNL A   1      38.307  32.610  32.968  1.00  0.00     0.074 A 
ATOM     57  C   UNL A   1      42.870  30.621  36.908  1.00  0.00     0.029 A 
ATOM     58  N   UNL A   1      41.488  30.877  35.186  1.00  0.00    -0.354 N 
ATOM     59  N   UNL A   1      39.277  32.136  33.714  1.00  0.00    -0.248 NA
ATOM     60  C   UNL A   1      37.490  33.638  33.627  1.00  0.00     0.031 C 
ATOM     61  C   UNL A   1      41.925  31.596  37.241  1.00  0.00     0.029 A 
ATOM     62  C   UNL A   1      41.079  31.776  36.158  1.00  0.00     0.049 A 
ATOM     63  H   UNL A   1      41.067  30.772  34.302  1.00  0.00     0.167 HD
ATOM     64  C   UNL A   1      39.203  32.827  34.919  1.00  0.00     0.074 A 
ATOM     65  C   UNL A   1      38.102  33.759  34.797  1.00  0.00     0.031 C 
ATOM     66  C   UNL A   1      39.980  32.702  36.023  1.00  0.00     0.037 A 
BRANCH  53  67
ATOM     67  C   UNL A   1      44.354  28.344  35.570  1.00  0.00     0.058 A 
ATOM     68  C   UNL A   1      44.112  27.213  36.367  1.00  0.00     0.135 A 
ATOM     69  C   UNL A   1      45.689  28.741  35.391  1.00  0.00     0.135 A 
ATOM     70  F   UNL A   1      42.855  26.794  36.584  1.00  0.00    -0.206 F 
ATOM     71  C   UNL A   1      45.148  26.528  36.994  1.00  0.00     0.059 A 
ATOM     72  C   UNL A   1      46.744  28.051  35.982  1.00  0.00     0.059 A 
ATOM     73  F   UNL A   1      45.980  29.813  34.637  1.00  0.00    -0.206 F 
ATOM     74  C   UNL A   1      46.461  26.957  36.797  1.00  0.00     0.060 A 
BRANCH  74  75
ATOM     75  S   UNL A   1      47.792  26.063  37.626  1.00  0.00     0.124 S 
ATOM     76  O   UNL A   1      47.897  24.865  36.799  1.00  0.00    -0.237 OA
ATOM     77  O   UNL A   1      48.906  27.000  37.526  1.00  0.00    -0.237 OA
ATOM     78  O   UNL A   1      47.272  25.850  38.973  1.00  0.00    -0.744 OA
ENDBRANCH  74  75
ENDBRANCH  53  67
BRANCH  54  79
ATOM     79  C   UNL A   1      36.795  32.908  30.868  1.00  0.00     0.058 A 
ATOM     80  C   UNL A   1      35.471  32.546  31.155  1.00  0.00     0.135 A 
ATOM     81  C   UNL A   1      37.003  33.929  29.929  1.00  0.00     0.135 A 
ATOM     82  F   UNL A   1      35.219  31.568  32.040  1.00  0.00    -0.206 F 
ATOM     83  C   UNL A   1      34.393  33.164  30.529  1.00  0.00     0.059 A 
ATOM     84  C   UNL A   1      35.942  34.582  29.310  1.00  0.00     0.059 A 
ATOM     85  F   UNL A   1      38.250  34.325  29.629  1.00  0.00    -0.206 F 
ATOM     86  C   UNL A   1      34.639  34.187  29.611  1.00  0.00     0.060 A 
BRANCH  86  87
ATOM     87  S   UNL A   1      33.231  35.023  28.850  1.00  0.00     0.124 S 
ATOM     88  O   UNL A   1      32.688  33.970  28.000  1.00  0.00    -0.237 OA
ATOM     89  O   UNL A   1      32.427  35.385  30.013  1.00  0.00    -0.237 OA
ATOM     90  O   UNL A   1      33.847  36.146  28.150  1.00  0.00    -0.744 OA
ENDBRANCH  86  87
ENDBRANCH  54  79
BRANCH  66  91
ATOM     91  C   UNL A   1      39.690  33.615  37.184  1.00  0.00     0.058 A 
ATOM     92  C   UNL A   1      38.760  33.276  38.180  1.00  0.00     0.135 A 
ATOM     93  C   UNL A   1      40.395  34.822  37.331  1.00  0.00     0.135 A 
ATOM     94  F   UNL A   1      38.053  32.139  38.084  1.00  0.00    -0.206 F 
ATOM     95  C   UNL A   1      38.523  34.111  39.267  1.00  0.00     0.059 A 
ATOM     96  C   UNL A   1      40.196  35.657  38.426  1.00  0.00     0.059 A 
ATOM     97  F   UNL A   1      41.303  35.191  36.413  1.00  0.00    -0.206 F 
ATOM     98  C   UNL A   1      39.250  35.297  39.384  1.00  0.00     0.060 A 
BRANCH  98  99
ATOM     99  S   UNL A   1      38.960  36.350  40.821  1.00  0.00     0.124 S 
ATOM    100  O   UNL A   1      37.935  35.596  41.537  1.00  0.00    -0.237 OA
ATOM    101  O   UNL A   1      40.276  36.387  41.451  1.00  0.00    -0.237 OA
ATOM    102  O   UNL A   1      38.515  37.611  40.236  1.00  0.00    -0.744 OA
ENDBRANCH  98  99
ENDBRANCH  66  91
ENDBRANCH  40  41
ENDBRANCH  32  35
ENDBRANCH  30  31
ENDBRANCH  29  30
ENDBRANCH   1  29
TORSDOF 19
ENDMDL
MODEL 2
REMARK VINA RESULT:     -11.3      6.340     12.083
REMARK SMILES [NH3+]Cc1c(-c2ccccc2)c(C(=O)NCCCCCCNC(=O)c2ccc(-c3c4nc(c(-c5c(F)cc(S(=O)(=O)[O-])cc5F)c5ccc([nH]5)c(-c5c(F)cc(S(=O)(=O)[O-])cc5F)c5nc(c(-c6c(F)cc(S(=O)(=O)[O-])cc6F)c6ccc3[nH]6)C=C5)C=C4)cc2)c2ccccn12
REMARK SMILES IDX 18 1 17 2 16 3 15 4 14 5 12 6 13 7 11 9 3 10 4 11 95 12
REMARK SMILES IDX 90 13 94 14 91 15 93 16 92 17 2 18 1 19 5 23 6 24 10 25 7 26
REMARK SMILES IDX 9 27 8 28 19 29 20 30 21 31 22 32 23 34 24 35 25 36 89 37
REMARK SMILES IDX 26 38 88 39 27 40 28 41 29 42 82 43 30 44 87 45 81 46 83 47
REMARK SMILES IDX 31 48 86 49 80 50 79 51 32 53 66 54 45 55 65 56 46 57 49 58
REMARK SMILES IDX 64 59 84 60 47 61 48 62 63 64 85 65 50 66 33 67 34 68 43 69
REMARK SMILES IDX 35 70 36 71 42 72 44 73 37 74 38 75 39 76 40 77 41 78 67 79
REMARK SMILES IDX 68 80 77 81 69 82 70 83 76 84 78 85 71 86 72 87 73 88 74 89
REMARK SMILES IDX 75 90 51 91 52 92 61 93 53 94 54 95 60 96 62 97 55 98 56 99
REMARK SMILES IDX 57 100 58 101 59 102
REMARK H PARENT 14 8 1 20 1 21 1 22 21 33 83 52 49 63
REMARK Flexibility Score: inf
ROOT
ATOM      1  C   UNL A   1      35.519  32.442  28.001  1.00  0.00     0.002 C 
ENDROOT
BRANCH   1   2
ATOM      2  C   UNL A   1      34.160  31.740  28.079  1.00  0.00     0.002 C 
BRANCH   2   3
ATOM      3  C   UNL A   1      33.730  30.909  26.868  1.00  0.00     0.021 C 
BRANCH   3   4
ATOM      4  C   UNL A   1      33.873  29.396  26.984  1.00  0.00     0.116 C 
BRANCH   4   5
ATOM      5  N   UNL A   1      32.800  28.726  27.677  1.00  0.00    -0.352 N 
ATOM      6  C   UNL A   1      31.851  27.836  27.224  1.00  0.00     0.254 C 
ATOM      7  O   UNL A   1      31.120  27.348  28.088  1.00  0.00    -0.269 OA
ATOM      8  H   UNL A   1      32.735  28.940  28.637  1.00  0.00     0.163 HD
BRANCH   6   9
ATOM      9  C   UNL A   1      31.655  27.541  25.796  1.00  0.00     0.073 A 
ATOM     10  C   UNL A   1      31.688  26.354  23.815  1.00  0.00     0.086 A 
ATOM     11  C   UNL A   1      32.071  26.315  25.152  1.00  0.00     0.022 A 
ATOM     12  N   UNL A   1      31.022  27.551  23.620  1.00  0.00    -0.314 N 
ATOM     13  C   UNL A   1      31.169  28.341  24.763  1.00  0.00     0.059 A 
ATOM     14  C   UNL A   1      30.322  27.988  22.486  1.00  0.00     0.092 A 
ATOM     15  C   UNL A   1      30.783  29.713  24.628  1.00  0.00     0.027 A 
ATOM     16  C   UNL A   1      29.811  29.228  22.449  1.00  0.00     0.018 A 
ATOM     17  C   UNL A   1      30.095  30.125  23.548  1.00  0.00     0.004 A 
BRANCH  10  18
ATOM     18  C   UNL A   1      31.883  25.358  22.721  1.00  0.00     0.315 C 
BRANCH  18  19
ATOM     19  N   UNL A   1      30.905  24.283  22.841  1.00  0.00    -0.353 N 
ATOM     20  H   UNL A   1      29.965  24.667  22.750  1.00  0.00     0.344 HD
ATOM     21  H   UNL A   1      31.003  23.833  23.751  1.00  0.00     0.344 HD
ATOM     22  H   UNL A   1      31.063  23.596  22.104  1.00  0.00     0.344 HD
ENDBRANCH  18  19
ENDBRANCH  10  18
BRANCH  11  23
ATOM     23  C   UNL A   1      32.786  25.184  25.729  1.00  0.00    -0.016 A 
ATOM     24  C   UNL A   1      32.106  24.215  26.472  1.00  0.00     0.009 A 
ATOM     25  C   UNL A   1      34.175  25.083  25.578  1.00  0.00     0.009 A 
ATOM     26  C   UNL A   1      32.809  23.159  27.059  1.00  0.00     0.001 A 
ATOM     27  C   UNL A   1      34.875  24.023  26.155  1.00  0.00     0.001 A 
ATOM     28  C   UNL A   1      34.192  23.063  26.899  1.00  0.00     0.000 A 
ENDBRANCH  11  23
ENDBRANCH   6   9
ENDBRANCH   4   5
ENDBRANCH   3   4
ENDBRANCH   2   3
ENDBRANCH   1   2
BRANCH   1  29
ATOM     29  C   UNL A   1      35.804  33.521  29.047  1.00  0.00     0.021 C 
BRANCH  29  30
ATOM     30  C   UNL A   1      36.653  33.094  30.238  1.00  0.00     0.116 C 
BRANCH  30  31
ATOM     31  N   UNL A   1      36.137  31.914  30.910  1.00  0.00    -0.352 N 
ATOM     32  C   UNL A   1      36.669  30.650  30.996  1.00  0.00     0.251 C 
ATOM     33  H   UNL A   1      35.277  32.039  31.372  1.00  0.00     0.163 HD
ATOM     34  O   UNL A   1      36.006  29.743  31.489  1.00  0.00    -0.269 OA
BRANCH  32  35
ATOM     35  C   UNL A   1      38.027  30.376  30.471  1.00  0.00     0.039 A 
ATOM     36  C   UNL A   1      39.083  30.246  31.377  1.00  0.00     0.014 A 
ATOM     37  C   UNL A   1      38.263  30.255  29.099  1.00  0.00     0.014 A 
ATOM     38  C   UNL A   1      40.362  29.930  30.910  1.00  0.00     0.010 A 
ATOM     39  C   UNL A   1      39.520  29.867  28.643  1.00  0.00     0.010 A 
ATOM     40  C   UNL A   1      40.584  29.700  29.542  1.00  0.00    -0.014 A 
BRANCH  40  41
ATOM     41  C   UNL A   1      41.917  29.272  29.039  1.00  0.00     0.031 A 
ATOM     42  C   UNL A   1      43.036  30.270  28.907  1.00  0.00     0.074 A 
ATOM     43  C   UNL A   1      42.099  27.997  28.643  1.00  0.00     0.049 A 
ATOM     44  N   UNL A   1      44.242  30.099  28.433  1.00  0.00    -0.248 NA
ATOM     45  C   UNL A   1      42.752  31.647  29.342  1.00  0.00     0.031 C 
ATOM     46  C   UNL A   1      41.079  26.946  28.681  1.00  0.00     0.029 A 
ATOM     47  N   UNL A   1      43.202  27.367  28.122  1.00  0.00    -0.354 N 
ATOM     48  C   UNL A   1      44.858  31.343  28.503  1.00  0.00     0.074 A 
ATOM     49  C   UNL A   1      43.872  32.272  29.011  1.00  0.00     0.031 C 
ATOM     50  C   UNL A   1      41.610  25.800  28.228  1.00  0.00     0.029 A 
ATOM     51  C   UNL A   1      42.993  26.041  27.825  1.00  0.00     0.049 A 
ATOM     52  H   UNL A   1      44.063  27.823  27.974  1.00  0.00     0.167 HD
ATOM     53  C   UNL A   1      46.135  31.676  28.193  1.00  0.00     0.037 A 
ATOM     54  C   UNL A   1      43.816  25.123  27.280  1.00  0.00     0.037 A 
ATOM     55  C   UNL A   1      47.114  30.742  27.700  1.00  0.00     0.049 A 
ATOM     56  C   UNL A   1      45.222  25.520  26.923  1.00  0.00     0.074 A 
ATOM     57  C   UNL A   1      48.447  30.968  27.408  1.00  0.00     0.029 A 
ATOM     58  N   UNL A   1      46.865  29.406  27.417  1.00  0.00    -0.354 N 
ATOM     59  N   UNL A   1      45.808  26.687  27.057  1.00  0.00    -0.248 NA
ATOM     60  C   UNL A   1      46.082  24.479  26.347  1.00  0.00     0.031 C 
ATOM     61  C   UNL A   1      48.990  29.785  26.895  1.00  0.00     0.029 A 
ATOM     62  C   UNL A   1      48.012  28.804  26.925  1.00  0.00     0.049 A 
ATOM     63  H   UNL A   1      46.000  28.953  27.547  1.00  0.00     0.167 HD
ATOM     64  C   UNL A   1      47.113  26.512  26.607  1.00  0.00     0.074 A 
ATOM     65  C   UNL A   1      47.232  25.125  26.210  1.00  0.00     0.031 C 
ATOM     66  C   UNL A   1      48.119  27.419  26.534  1.00  0.00     0.037 A 
BRANCH  53  67
ATOM     67  C   UNL A   1      46.543  33.115  28.374  1.00  0.00     0.058 A 
ATOM     68  C   UNL A   1      47.082  33.585  29.583  1.00  0.00     0.135 A 
ATOM     69  C   UNL A   1      46.418  34.032  27.317  1.00  0.00     0.135 A 
ATOM     70  F   UNL A   1      47.213  32.758  30.633  1.00  0.00    -0.206 F 
ATOM     71  C   UNL A   1      47.444  34.918  29.751  1.00  0.00     0.059 A 
ATOM     72  C   UNL A   1      46.805  35.363  27.452  1.00  0.00     0.059 A 
ATOM     73  F   UNL A   1      45.913  33.639  26.137  1.00  0.00    -0.206 F 
ATOM     74  C   UNL A   1      47.299  35.800  28.679  1.00  0.00     0.060 A 
BRANCH  74  75
ATOM     75  S   UNL A   1      47.764  37.528  28.917  1.00  0.00     0.124 S 
ATOM     76  O   UNL A   1      46.913  38.196  27.936  1.00  0.00    -0.237 OA
ATOM     77  O   UNL A   1      47.413  37.755  30.315  1.00  0.00    -0.237 OA
ATOM     78  O   UNL A   1      49.192  37.542  28.620  1.00  0.00    -0.744 OA
ENDBRANCH  74  75
ENDBRANCH  53  67
BRANCH  54  79
ATOM     79  C   UNL A   1      43.332  23.733  27.059  1.00  0.00     0.058 A 
ATOM     80  C   UNL A   1      42.803  23.341  25.821  1.00  0.00     0.135 A 
ATOM     81  C   UNL A   1      43.411  22.764  28.071  1.00  0.00     0.135 A 
ATOM     82  F   UNL A   1      42.698  24.234  24.823  1.00  0.00    -0.206 F 
ATOM     83  C   UNL A   1      42.358  22.043  25.596  1.00  0.00     0.059 A 
ATOM     84  C   UNL A   1      43.000  21.452  27.862  1.00  0.00     0.059 A 
ATOM     85  F   UNL A   1      43.924  23.083  29.270  1.00  0.00    -0.206 F 
ATOM     86  C   UNL A   1      42.467  21.102  26.621  1.00  0.00     0.060 A 
BRANCH  86  87
ATOM     87  S   UNL A   1      41.943  19.405  26.298  1.00  0.00     0.124 S 
ATOM     88  O   UNL A   1      41.988  18.823  27.634  1.00  0.00    -0.237 OA
ATOM     89  O   UNL A   1      40.613  19.600  25.729  1.00  0.00    -0.237 OA
ATOM     90  O   UNL A   1      42.951  18.915  25.361  1.00  0.00    -0.744 OA
ENDBRANCH  86  87
ENDBRANCH  54  79
BRANCH  66  91
ATOM     91  C   UNL A   1      49.453  26.935  26.033  1.00  0.00     0.058 A 
ATOM     92  C   UNL A   1      49.830  27.063  24.686  1.00  0.00     0.135 A 
ATOM     93  C   UNL A   1      50.391  26.388  26.925  1.00  0.00     0.135 A 
ATOM     94  F   UNL A   1      48.969  27.571  23.789  1.00  0.00    -0.206 F 
ATOM     95  C   UNL A   1      51.079  26.645  24.238  1.00  0.00     0.059 A 
ATOM     96  C   UNL A   1      51.656  25.992  26.504  1.00  0.00     0.059 A 
ATOM     97  F   UNL A   1      50.087  26.252  28.226  1.00  0.00    -0.206 F 
ATOM     98  C   UNL A   1      51.987  26.115  25.156  1.00  0.00     0.060 A 
BRANCH  98  99
ATOM     99  S   UNL A   1      53.618  25.615  24.566  1.00  0.00     0.124 S 
ATOM    100  O   UNL A   1      54.497  26.356  25.466  1.00  0.00    -0.237 OA
ATOM    101  O   UNL A   1      53.589  24.169  24.758  1.00  0.00    -0.237 OA
ATOM    102  O   UNL A   1      53.629  26.058  23.175  1.00  0.00    -0.744 OA
ENDBRANCH  98  99
ENDBRANCH  66  91
ENDBRANCH  40  41
ENDBRANCH  32  35
ENDBRANCH  30  31
ENDBRANCH  29  30
ENDBRANCH   1  29
TORSDOF 19
ENDMDL
MODEL 3
REMARK VINA RESULT:     -11.3      1.157      1.945
REMARK SMILES [NH3+]Cc1c(-c2ccccc2)c(C(=O)NCCCCCCNC(=O)c2ccc(-c3c4nc(c(-c5c(F)cc(S(=O)(=O)[O-])cc5F)c5ccc([nH]5)c(-c5c(F)cc(S(=O)(=O)[O-])cc5F)c5nc(c(-c6c(F)cc(S(=O)(=O)[O-])cc6F)c6ccc3[nH]6)C=C5)C=C4)cc2)c2ccccn12
REMARK SMILES IDX 18 1 17 2 16 3 15 4 14 5 12 6 13 7 11 9 3 10 4 11 95 12
REMARK SMILES IDX 90 13 94 14 91 15 93 16 92 17 2 18 1 19 5 23 6 24 10 25 7 26
REMARK SMILES IDX 9 27 8 28 19 29 20 30 21 31 22 32 23 34 24 35 25 36 89 37
REMARK SMILES IDX 26 38 88 39 27 40 28 41 29 42 82 43 30 44 87 45 81 46 83 47
REMARK SMILES IDX 31 48 86 49 80 50 79 51 32 53 66 54 45 55 65 56 46 57 49 58
REMARK SMILES IDX 64 59 84 60 47 61 48 62 63 64 85 65 50 66 33 67 34 68 43 69
REMARK SMILES IDX 35 70 36 71 42 72 44 73 37 74 38 75 39 76 40 77 41 78 67 79
REMARK SMILES IDX 68 80 77 81 69 82 70 83 76 84 78 85 71 86 72 87 73 88 74 89
REMARK SMILES IDX 75 90 51 91 52 92 61 93 53 94 54 95 60 96 62 97 55 98 56 99
REMARK SMILES IDX 57 100 58 101 59 102
REMARK H PARENT 14 8 1 20 1 21 1 22 21 33 83 52 49 63
REMARK Flexibility Score: inf
ROOT
ATOM      1  C   UNL A   1      40.301  21.574  26.887  1.00  0.00     0.002 C 
ENDROOT
BRANCH   1   2
ATOM      2  C   UNL A   1      39.169  22.434  26.319  1.00  0.00     0.002 C 
BRANCH   2   3
ATOM      3  C   UNL A   1      38.068  21.714  25.536  1.00  0.00     0.021 C 
BRANCH   3   4
ATOM      4  C   UNL A   1      36.757  22.466  25.339  1.00  0.00     0.116 C 
BRANCH   4   5
ATOM      5  N   UNL A   1      35.974  22.666  26.535  1.00  0.00    -0.352 N 
ATOM      6  C   UNL A   1      34.612  22.635  26.735  1.00  0.00     0.254 C 
ATOM      7  O   UNL A   1      34.241  22.743  27.906  1.00  0.00    -0.269 OA
ATOM      8  H   UNL A   1      36.503  22.855  27.344  1.00  0.00     0.163 HD
BRANCH   6   9
ATOM      9  C   UNL A   1      33.646  22.566  25.627  1.00  0.00     0.073 A 
ATOM     10  C   UNL A   1      32.118  23.282  24.051  1.00  0.00     0.086 A 
ATOM     11  C   UNL A   1      32.896  23.696  25.126  1.00  0.00     0.022 A 
ATOM     12  N   UNL A   1      32.385  21.939  23.851  1.00  0.00    -0.314 N 
ATOM     13  C   UNL A   1      33.160  21.471  24.915  1.00  0.00     0.059 A 
ATOM     14  C   UNL A   1      31.963  21.109  22.803  1.00  0.00     0.092 A 
ATOM     15  C   UNL A   1      33.293  20.048  25.012  1.00  0.00     0.027 A 
ATOM     16  C   UNL A   1      32.252  19.799  22.825  1.00  0.00     0.018 A 
ATOM     17  C   UNL A   1      32.904  19.256  23.996  1.00  0.00     0.004 A 
BRANCH  10  18
ATOM     18  C   UNL A   1      31.162  24.044  23.194  1.00  0.00     0.315 C 
BRANCH  18  19
ATOM     19  N   UNL A   1      31.878  24.701  22.106  1.00  0.00    -0.353 N 
ATOM     20  H   UNL A   1      31.808  24.133  21.262  1.00  0.00     0.344 HD
ATOM     21  H   UNL A   1      32.859  24.812  22.361  1.00  0.00     0.344 HD
ATOM     22  H   UNL A   1      31.466  25.618  21.933  1.00  0.00     0.344 HD
ENDBRANCH  18  19
ENDBRANCH  10  18
BRANCH  11  23
ATOM     23  C   UNL A   1      32.888  25.068  25.616  1.00  0.00    -0.016 A 
ATOM     24  C   UNL A   1      31.822  25.544  26.387  1.00  0.00     0.009 A 
ATOM     25  C   UNL A   1      33.934  25.938  25.281  1.00  0.00     0.009 A 
ATOM     26  C   UNL A   1      31.803  26.875  26.813  1.00  0.00     0.001 A 
ATOM     27  C   UNL A   1      33.920  27.264  25.718  1.00  0.00     0.001 A 
ATOM     28  C   UNL A   1      32.852  27.733  26.480  1.00  0.00     0.000 A 
ENDBRANCH  11  23
ENDBRANCH   6   9
ENDBRANCH   4   5
ENDBRANCH   3   4
ENDBRANCH   2   3
ENDBRANCH   1   2
BRANCH   1  29
ATOM     29  C   UNL A   1      40.992  22.085  28.152  1.00  0.00     0.021 C 
BRANCH  29  30
ATOM     30  C   UNL A   1      42.398  22.646  27.970  1.00  0.00     0.116 C 
BRANCH  30  31
ATOM     31  N   UNL A   1      42.601  23.257  26.668  1.00  0.00    -0.352 N 
ATOM     32  C   UNL A   1      42.457  24.568  26.282  1.00  0.00     0.251 C 
ATOM     33  H   UNL A   1      42.883  22.639  25.956  1.00  0.00     0.163 HD
ATOM     34  O   UNL A   1      42.534  24.864  25.094  1.00  0.00    -0.269 OA
BRANCH  32  35
ATOM     35  C   UNL A   1      42.184  25.616  27.292  1.00  0.00     0.039 A 
ATOM     36  C   UNL A   1      40.955  25.603  27.958  1.00  0.00     0.014 A 
ATOM     37  C   UNL A   1      43.123  26.611  27.577  1.00  0.00     0.014 A 
ATOM     38  C   UNL A   1      40.696  26.546  28.955  1.00  0.00     0.010 A 
ATOM     39  C   UNL A   1      42.894  27.503  28.622  1.00  0.00     0.010 A 
ATOM     40  C   UNL A   1      41.679  27.481  29.323  1.00  0.00    -0.014 A 
BRANCH  40  41
ATOM     41  C   UNL A   1      41.456  28.432  30.445  1.00  0.00     0.031 A 
ATOM     42  C   UNL A   1      42.301  28.354  31.688  1.00  0.00     0.074 A 
ATOM     43  C   UNL A   1      40.450  29.325  30.367  1.00  0.00     0.049 A 
ATOM     44  N   UNL A   1      42.215  29.053  32.789  1.00  0.00    -0.248 NA
ATOM     45  C   UNL A   1      43.366  27.339  31.704  1.00  0.00     0.031 C 
ATOM     46  C   UNL A   1      39.533  29.470  29.233  1.00  0.00     0.029 A 
ATOM     47  N   UNL A   1      40.020  30.275  31.261  1.00  0.00    -0.354 N 
ATOM     48  C   UNL A   1      43.204  28.559  33.632  1.00  0.00     0.074 A 
ATOM     49  C   UNL A   1      43.839  27.462  32.935  1.00  0.00     0.031 C 
ATOM     50  C   UNL A   1      38.669  30.464  29.489  1.00  0.00     0.029 A 
ATOM     51  C   UNL A   1      38.937  30.999  30.821  1.00  0.00     0.049 A 
ATOM     52  H   UNL A   1      40.448  30.423  32.136  1.00  0.00     0.167 HD
ATOM     53  C   UNL A   1      43.564  28.995  34.863  1.00  0.00     0.037 A 
ATOM     54  C   UNL A   1      38.232  31.977  31.425  1.00  0.00     0.037 A 
ATOM     55  C   UNL A   1      42.935  30.097  35.544  1.00  0.00     0.049 A 
ATOM     56  C   UNL A   1      38.636  32.429  32.801  1.00  0.00     0.074 A 
ATOM     57  C   UNL A   1      43.260  30.650  36.770  1.00  0.00     0.029 A 
ATOM     58  N   UNL A   1      41.844  30.809  35.063  1.00  0.00    -0.354 N 
ATOM     59  N   UNL A   1      39.617  31.994  33.557  1.00  0.00    -0.248 NA
ATOM     60  C   UNL A   1      37.844  33.508  33.406  1.00  0.00     0.031 C 
ATOM     61  C   UNL A   1      42.333  31.657  37.057  1.00  0.00     0.029 A 
ATOM     62  C   UNL A   1      41.466  31.775  35.982  1.00  0.00     0.049 A 
ATOM     63  H   UNL A   1      41.403  30.650  34.197  1.00  0.00     0.167 HD
ATOM     64  C   UNL A   1      39.576  32.764  34.714  1.00  0.00     0.074 A 
ATOM     65  C   UNL A   1      38.482  33.699  34.552  1.00  0.00     0.031 C 
ATOM     66  C   UNL A   1      40.375  32.703  35.808  1.00  0.00     0.037 A 
BRANCH  53  67
ATOM     67  C   UNL A   1      44.690  28.272  35.557  1.00  0.00     0.058 A 
ATOM     68  C   UNL A   1      46.034  28.631  35.357  1.00  0.00     0.135 A 
ATOM     69  C   UNL A   1      44.422  27.223  36.451  1.00  0.00     0.135 A 
ATOM     70  F   UNL A   1      46.352  29.617  34.503  1.00  0.00    -0.206 F 
ATOM     71  C   UNL A   1      47.072  27.951  35.987  1.00  0.00     0.059 A 
ATOM     72  C   UNL A   1      45.443  26.551  37.118  1.00  0.00     0.059 A 
ATOM     73  F   UNL A   1      43.157  26.839  36.684  1.00  0.00    -0.206 F 
ATOM     74  C   UNL A   1      46.765  26.910  36.865  1.00  0.00     0.060 A 
BRANCH  74  75
ATOM     75  S   UNL A   1      48.124  26.031  37.666  1.00  0.00     0.124 S 
ATOM     76  O   UNL A   1      48.436  26.929  38.775  1.00  0.00    -0.237 OA
ATOM     77  O   UNL A   1      47.501  24.764  38.035  1.00  0.00    -0.237 OA
ATOM     78  O   UNL A   1      49.140  25.949  36.621  1.00  0.00    -0.744 OA
ENDBRANCH  74  75
ENDBRANCH  53  67
BRANCH  54  79
ATOM     79  C   UNL A   1      37.083  32.605  30.716  1.00  0.00     0.058 A 
ATOM     80  C   UNL A   1      35.771  32.160  30.934  1.00  0.00     0.135 A 
ATOM     81  C   UNL A   1      37.271  33.676  29.830  1.00  0.00     0.135 A 
ATOM     82  F   UNL A   1      35.540  31.133  31.766  1.00  0.00    -0.206 F 
ATOM     83  C   UNL A   1      34.686  32.746  30.289  1.00  0.00     0.059 A 
ATOM     84  C   UNL A   1      36.200  34.297  29.195  1.00  0.00     0.059 A 
ATOM     85  F   UNL A   1      38.505  34.151  29.599  1.00  0.00    -0.206 F 
ATOM     86  C   UNL A   1      34.910  33.819  29.425  1.00  0.00     0.060 A 
BRANCH  86  87
ATOM     87  S   UNL A   1      33.489  34.610  28.641  1.00  0.00     0.124 S 
ATOM     88  O   UNL A   1      32.628  34.872  29.788  1.00  0.00    -0.237 OA
ATOM     89  O   UNL A   1      34.098  35.781  28.018  1.00  0.00    -0.237 OA
ATOM     90  O   UNL A   1      33.010  33.592  27.710  1.00  0.00    -0.744 OA
ENDBRANCH  86  87
ENDBRANCH  54  79
BRANCH  66  91
ATOM     91  C   UNL A   1      40.119  33.695  36.911  1.00  0.00     0.058 A 
ATOM     92  C   UNL A   1      40.774  34.936  36.958  1.00  0.00     0.135 A 
ATOM     93  C   UNL A   1      39.161  33.423  37.902  1.00  0.00     0.135 A 
ATOM     94  F   UNL A   1      41.704  35.244  36.041  1.00  0.00    -0.206 F 
ATOM     95  C   UNL A   1      40.505  35.861  37.962  1.00  0.00     0.059 A 
ATOM     96  C   UNL A   1      38.854  34.346  38.897  1.00  0.00     0.059 A 
ATOM     97  F   UNL A   1      38.497  32.255  37.899  1.00  0.00    -0.206 F 
ATOM     98  C   UNL A   1      39.540  35.559  38.924  1.00  0.00     0.060 A 
BRANCH  98  99
ATOM     99  S   UNL A   1      39.174  36.787  40.196  1.00  0.00     0.124 S 
ATOM    100  O   UNL A   1      38.581  37.862  39.406  1.00  0.00    -0.237 OA
ATOM    101  O   UNL A   1      38.257  36.064  41.072  1.00  0.00    -0.237 OA
ATOM    102  O   UNL A   1      40.482  37.081  40.773  1.00  0.00    -0.744 OA
ENDBRANCH  98  99
ENDBRANCH  66  91
ENDBRANCH  40  41
ENDBRANCH  32  35
ENDBRANCH  30  31
ENDBRANCH  29  30
ENDBRANCH   1  29
TORSDOF 19
ENDMDL
