MODEL 1
REMARK VINA RESULT:     -11.8      0.000      0.000
REMARK SMILES CCn1ncc(NC(=O)[C@@H]2CCCC[C@@H]2C(=O)NCCCCCCNC(=O)c2ccc(-c3c4nc(c(-c5c(F)cc(S(=O)(=O)[O-])cc5F)c5ccc([nH]5)c(-c5c(F)cc(S(=O)(=O)[O-])cc5F)c5nc(c(-c6c(F)cc(S(=O)(=O)[O-])cc6F)c6ccc3[nH]6)C=C5)C=C4)cc2)c1C(=O)Nc1cnn(C)c1C
REMARK SMILES IDX 21 1 20 2 19 3 18 4 16 5 17 6 15 8 10 9 11 10 12 11 14 12
REMARK SMILES IDX 13 13 8 14 7 15 9 17 6 18 3 19 4 20 94 21 5 22 2 23 1 24
REMARK SMILES IDX 95 25 96 26 97 27 98 29 99 30 103 31 100 32 101 33 104 34
REMARK SMILES IDX 102 35 22 36 23 37 24 38 25 39 26 40 27 42 28 43 29 44 93 45
REMARK SMILES IDX 30 46 92 47 31 48 32 49 33 50 86 51 34 52 91 53 85 54 87 55
REMARK SMILES IDX 35 56 90 57 84 58 83 59 36 61 70 62 49 63 69 64 50 65 53 66
REMARK SMILES IDX 68 67 88 68 51 69 52 70 67 72 89 73 54 74 37 75 38 76 47 77
REMARK SMILES IDX 39 78 40 79 46 80 48 81 41 82 42 83 43 84 44 85 45 86 71 87
REMARK SMILES IDX 72 88 81 89 73 90 74 91 80 92 82 93 75 94 76 95 77 96 78 97
REMARK SMILES IDX 79 98 55 99 56 100 65 101 57 102 58 103 64 104 66 105 59 106
REMARK SMILES IDX 60 107 61 108 62 109 63 110
REMARK H PARENT 18 7 7 16 97 28 25 41 87 60 53 71
REMARK Flexibility Score: inf
ROOT
ATOM      1  C   UNL A   1      34.290  21.736  26.743  1.00  0.00     0.002 C 
ENDROOT
BRANCH   1   2
ATOM      2  C   UNL A   1      33.892  23.199  26.886  1.00  0.00     0.021 C 
BRANCH   2   3
ATOM      3  C   UNL A   1      32.390  23.413  26.794  1.00  0.00     0.116 C 
BRANCH   3   4
ATOM      4  N   UNL A   1      31.795  22.894  25.592  1.00  0.00    -0.356 N 
ATOM      5  C   UNL A   1      31.829  23.385  24.327  1.00  0.00     0.223 C 
ATOM      6  O   UNL A   1      31.332  22.691  23.434  1.00  0.00    -0.275 OA
ATOM      7  H   UNL A   1      31.288  22.057  25.702  1.00  0.00     0.163 HD
BRANCH   5   8
ATOM      8  C   UNL A   1      32.466  24.739  23.981  1.00  0.00     0.091 C 
ATOM      9  C   UNL A   1      31.499  25.795  23.452  1.00  0.00     0.091 C 
ATOM     10  C   UNL A   1      31.185  25.706  21.975  1.00  0.00     0.014 C 
ATOM     11  C   UNL A   1      32.480  25.893  21.184  1.00  0.00     0.001 C 
ATOM     12  C   UNL A   1      33.763  24.662  23.169  1.00  0.00     0.014 C 
ATOM     13  C   UNL A   1      33.744  25.201  21.726  1.00  0.00     0.001 C 
BRANCH   9  14
ATOM     14  C   UNL A   1      30.294  25.963  24.321  1.00  0.00     0.228 C 
ATOM     15  N   UNL A   1      30.387  26.682  25.473  1.00  0.00    -0.322 N 
ATOM     16  H   UNL A   1      29.585  26.573  26.034  1.00  0.00     0.170 HD
ATOM     17  O   UNL A   1      29.224  25.411  24.048  1.00  0.00    -0.274 OA
BRANCH  15  18
ATOM     18  C   UNL A   1      31.320  27.533  26.069  1.00  0.00     0.092 A 
ATOM     19  N   UNL A   1      32.679  29.072  26.897  1.00  0.00    -0.258 N 
ATOM     20  N   UNL A   1      32.413  28.261  27.943  1.00  0.00    -0.178 NA
ATOM     21  C   UNL A   1      32.119  28.637  25.704  1.00  0.00     0.150 A 
ATOM     22  C   UNL A   1      31.562  27.378  27.455  1.00  0.00     0.162 A 
BRANCH  19  23
ATOM     23  C   UNL A   1      33.382  30.283  27.280  1.00  0.00     0.142 C 
ATOM     24  C   UNL A   1      34.697  30.234  28.016  1.00  0.00     0.029 C 
ENDBRANCH  19  23
BRANCH  21  25
ATOM     25  C   UNL A   1      32.178  29.414  24.482  1.00  0.00     0.276 C 
ATOM     26  O   UNL A   1      33.172  29.406  23.755  1.00  0.00    -0.267 OA
ATOM     27  N   UNL A   1      31.195  30.372  24.250  1.00  0.00    -0.318 N 
ATOM     28  H   UNL A   1      31.264  31.256  24.677  1.00  0.00     0.170 HD
BRANCH  27  29
ATOM     29  C   UNL A   1      30.118  30.090  23.418  1.00  0.00     0.082 A 
ATOM     30  C   UNL A   1      29.737  28.873  22.825  1.00  0.00     0.161 A 
ATOM     31  C   UNL A   1      29.144  30.998  23.039  1.00  0.00     0.059 A 
ATOM     32  N   UNL A   1      28.754  29.047  21.939  1.00  0.00    -0.179 NA
ATOM     33  N   UNL A   1      28.455  30.359  22.030  1.00  0.00    -0.271 N 
ATOM     34  C   UNL A   1      28.886  32.407  23.425  1.00  0.00     0.068 C 
ATOM     35  C   UNL A   1      27.770  30.993  20.923  1.00  0.00     0.174 C 
ENDBRANCH  27  29
ENDBRANCH  21  25
ENDBRANCH  15  18
ENDBRANCH   9  14
ENDBRANCH   5   8
ENDBRANCH   3   4
ENDBRANCH   2   3
ENDBRANCH   1   2
BRANCH   1  36
ATOM     36  C   UNL A   1      35.191  21.420  25.538  1.00  0.00     0.002 C 
BRANCH  36  37
ATOM     37  C   UNL A   1      35.787  22.626  24.792  1.00  0.00     0.021 C 
BRANCH  37  38
ATOM     38  C   UNL A   1      37.057  23.158  25.434  1.00  0.00     0.116 C 
BRANCH  38  39
ATOM     39  N   UNL A   1      38.033  22.088  25.641  1.00  0.00    -0.352 N 
ATOM     40  C   UNL A   1      39.299  22.142  26.169  1.00  0.00     0.251 C 
ATOM     41  H   UNL A   1      37.736  21.194  25.359  1.00  0.00     0.163 HD
ATOM     42  O   UNL A   1      40.087  21.216  25.967  1.00  0.00    -0.269 OA
BRANCH  40  43
ATOM     43  C   UNL A   1      39.707  23.306  26.967  1.00  0.00     0.039 A 
ATOM     44  C   UNL A   1      40.872  23.270  27.737  1.00  0.00     0.014 A 
ATOM     45  C   UNL A   1      38.911  24.449  26.938  1.00  0.00     0.014 A 
ATOM     46  C   UNL A   1      41.256  24.419  28.419  1.00  0.00     0.010 A 
ATOM     47  C   UNL A   1      39.378  25.625  27.465  1.00  0.00     0.010 A 
ATOM     48  C   UNL A   1      40.513  25.602  28.259  1.00  0.00    -0.014 A 
BRANCH  48  49
ATOM     49  C   UNL A   1      40.996  26.863  28.804  1.00  0.00     0.031 A 
ATOM     50  C   UNL A   1      42.209  27.366  28.109  1.00  0.00     0.074 A 
ATOM     51  C   UNL A   1      40.309  27.610  29.697  1.00  0.00     0.049 A 
ATOM     52  N   UNL A   1      43.423  27.342  28.548  1.00  0.00    -0.248 NA
ATOM     53  C   UNL A   1      42.101  27.738  26.688  1.00  0.00     0.031 C 
ATOM     54  C   UNL A   1      38.958  27.387  30.223  1.00  0.00     0.029 A 
ATOM     55  N   UNL A   1      40.644  28.803  30.257  1.00  0.00    -0.354 N 
ATOM     56  C   UNL A   1      44.182  27.975  27.571  1.00  0.00     0.074 A 
ATOM     57  C   UNL A   1      43.381  27.956  26.376  1.00  0.00     0.031 C 
ATOM     58  C   UNL A   1      38.510  28.514  30.820  1.00  0.00     0.029 A 
ATOM     59  C   UNL A   1      39.592  29.480  30.870  1.00  0.00     0.049 A 
ATOM     60  H   UNL A   1      41.561  29.161  30.231  1.00  0.00     0.167 HD
ATOM     61  C   UNL A   1      45.258  28.734  27.921  1.00  0.00     0.037 A 
ATOM     62  C   UNL A   1      39.612  30.750  31.356  1.00  0.00     0.037 A 
ATOM     63  C   UNL A   1      45.668  28.451  29.278  1.00  0.00     0.049 A 
ATOM     64  C   UNL A   1      41.041  31.104  31.570  1.00  0.00     0.074 A 
ATOM     65  C   UNL A   1      46.010  27.302  29.969  1.00  0.00     0.029 A 
ATOM     66  N   UNL A   1      45.365  29.384  30.241  1.00  0.00    -0.354 N 
ATOM     67  N   UNL A   1      41.796  30.538  32.472  1.00  0.00    -0.248 NA
ATOM     68  C   UNL A   1      41.753  31.729  30.465  1.00  0.00     0.031 C 
ATOM     69  C   UNL A   1      45.407  27.454  31.255  1.00  0.00     0.029 A 
ATOM     70  C   UNL A   1      44.821  28.717  31.309  1.00  0.00     0.049 A 
ATOM     71  H   UNL A   1      45.513  30.355  30.177  1.00  0.00     0.167 HD
ATOM     72  C   UNL A   1      43.011  30.333  31.834  1.00  0.00     0.074 A 
ATOM     73  C   UNL A   1      42.950  31.160  30.628  1.00  0.00     0.031 C 
ATOM     74  C   UNL A   1      43.824  29.292  32.183  1.00  0.00     0.037 A 
BRANCH  61  75
ATOM     75  C   UNL A   1      45.654  30.016  27.217  1.00  0.00     0.058 A 
ATOM     76  C   UNL A   1      47.022  30.264  26.981  1.00  0.00     0.135 A 
ATOM     77  C   UNL A   1      44.799  31.127  27.038  1.00  0.00     0.135 A 
ATOM     78  F   UNL A   1      47.929  29.283  27.122  1.00  0.00    -0.206 F 
ATOM     79  C   UNL A   1      47.512  31.536  26.682  1.00  0.00     0.059 A 
ATOM     80  C   UNL A   1      45.260  32.389  26.686  1.00  0.00     0.059 A 
ATOM     81  F   UNL A   1      43.486  31.080  27.286  1.00  0.00    -0.206 F 
ATOM     82  C   UNL A   1      46.621  32.595  26.552  1.00  0.00     0.060 A 
BRANCH  82  83
ATOM     83  S   UNL A   1      47.251  34.253  26.253  1.00  0.00     0.124 S 
ATOM     84  O   UNL A   1      48.666  33.986  26.026  1.00  0.00    -0.237 OA
ATOM     85  O   UNL A   1      46.478  34.659  25.084  1.00  0.00    -0.237 OA
ATOM     86  O   UNL A   1      46.929  34.961  27.488  1.00  0.00    -0.744 OA
ENDBRANCH  82  83
ENDBRANCH  61  75
BRANCH  62  87
ATOM     87  C   UNL A   1      38.541  31.787  31.329  1.00  0.00     0.058 A 
ATOM     88  C   UNL A   1      37.773  32.002  30.168  1.00  0.00     0.135 A 
ATOM     89  C   UNL A   1      38.039  32.361  32.514  1.00  0.00     0.135 A 
ATOM     90  F   UNL A   1      38.169  31.489  28.992  1.00  0.00    -0.206 F 
ATOM     91  C   UNL A   1      36.543  32.671  30.194  1.00  0.00     0.059 A 
ATOM     92  C   UNL A   1      36.821  33.042  32.562  1.00  0.00     0.059 A 
ATOM     93  F   UNL A   1      38.668  32.194  33.686  1.00  0.00    -0.206 F 
ATOM     94  C   UNL A   1      36.060  33.161  31.405  1.00  0.00     0.060 A 
BRANCH  94  95
ATOM     95  S   UNL A   1      34.379  33.827  31.490  1.00  0.00     0.124 S 
ATOM     96  O   UNL A   1      34.615  35.193  31.943  1.00  0.00    -0.237 OA
ATOM     97  O   UNL A   1      33.919  33.682  30.113  1.00  0.00    -0.237 OA
ATOM     98  O   UNL A   1      33.720  32.952  32.457  1.00  0.00    -0.744 OA
ENDBRANCH  94  95
ENDBRANCH  62  87
BRANCH  74  99
ATOM     99  C   UNL A   1      43.553  28.575  33.482  1.00  0.00     0.058 A 
ATOM    100  C   UNL A   1      44.016  28.977  34.749  1.00  0.00     0.135 A 
ATOM    101  C   UNL A   1      42.685  27.472  33.443  1.00  0.00     0.135 A 
ATOM    102  F   UNL A   1      44.755  30.086  34.895  1.00  0.00    -0.206 F 
ATOM    103  C   UNL A   1      43.683  28.275  35.910  1.00  0.00     0.059 A 
ATOM    104  C   UNL A   1      42.311  26.781  34.590  1.00  0.00     0.059 A 
ATOM    105  F   UNL A   1      42.155  27.075  32.274  1.00  0.00    -0.206 F 
ATOM    106  C   UNL A   1      42.834  27.171  35.818  1.00  0.00     0.060 A 
BRANCH 106 107
ATOM    107  S   UNL A   1      42.391  26.267  37.317  1.00  0.00     0.124 S 
ATOM    108  O   UNL A   1      43.404  26.723  38.262  1.00  0.00    -0.237 OA
ATOM    109  O   UNL A   1      41.029  26.726  37.574  1.00  0.00    -0.237 OA
ATOM    110  O   UNL A   1      42.502  24.866  36.915  1.00  0.00    -0.744 OA
ENDBRANCH 106 107
ENDBRANCH  74  99
ENDBRANCH  48  49
ENDBRANCH  40  43
ENDBRANCH  38  39
ENDBRANCH  37  38
ENDBRANCH  36  37
ENDBRANCH   1  36
TORSDOF 21
ENDMDL
MODEL 2
REMARK VINA RESULT:     -11.3      3.250      9.706
REMARK SMILES CCn1ncc(NC(=O)[C@@H]2CCCC[C@@H]2C(=O)NCCCCCCNC(=O)c2ccc(-c3c4nc(c(-c5c(F)cc(S(=O)(=O)[O-])cc5F)c5ccc([nH]5)c(-c5c(F)cc(S(=O)(=O)[O-])cc5F)c5nc(c(-c6c(F)cc(S(=O)(=O)[O-])cc6F)c6ccc3[nH]6)C=C5)C=C4)cc2)c1C(=O)Nc1cnn(C)c1C
REMARK SMILES IDX 21 1 20 2 19 3 18 4 16 5 17 6 15 8 10 9 11 10 12 11 14 12
REMARK SMILES IDX 13 13 8 14 7 15 9 17 6 18 3 19 4 20 94 21 5 22 2 23 1 24
REMARK SMILES IDX 95 25 96 26 97 27 98 29 99 30 103 31 100 32 101 33 104 34
REMARK SMILES IDX 102 35 22 36 23 37 24 38 25 39 26 40 27 42 28 43 29 44 93 45
REMARK SMILES IDX 30 46 92 47 31 48 32 49 33 50 86 51 34 52 91 53 85 54 87 55
REMARK SMILES IDX 35 56 90 57 84 58 83 59 36 61 70 62 49 63 69 64 50 65 53 66
REMARK SMILES IDX 68 67 88 68 51 69 52 70 67 72 89 73 54 74 37 75 38 76 47 77
REMARK SMILES IDX 39 78 40 79 46 80 48 81 41 82 42 83 43 84 44 85 45 86 71 87
REMARK SMILES IDX 72 88 81 89 73 90 74 91 80 92 82 93 75 94 76 95 77 96 78 97
REMARK SMILES IDX 79 98 55 99 56 100 65 101 57 102 58 103 64 104 66 105 59 106
REMARK SMILES IDX 60 107 61 108 62 109 63 110
REMARK H PARENT 18 7 7 16 97 28 25 41 87 60 53 71
REMARK Flexibility Score: inf
ROOT
ATOM      1  C   UNL A   1      34.159  32.657  28.055  1.00  0.00     0.002 C 
ENDROOT
BRANCH   1   2
ATOM      2  C   UNL A   1      32.792  32.540  27.395  1.00  0.00     0.021 C 
BRANCH   2   3
ATOM      3  C   UNL A   1      32.339  31.098  27.232  1.00  0.00     0.116 C 
BRANCH   3   4
ATOM      4  N   UNL A   1      33.400  30.133  27.341  1.00  0.00    -0.356 N 
ATOM      5  C   UNL A   1      33.705  29.086  26.533  1.00  0.00     0.223 C 
ATOM      6  O   UNL A   1      34.744  28.463  26.776  1.00  0.00    -0.275 OA
ATOM      7  H   UNL A   1      33.994  30.249  28.118  1.00  0.00     0.163 HD
BRANCH   5   8
ATOM      8  C   UNL A   1      32.825  28.673  25.345  1.00  0.00     0.091 C 
ATOM      9  C   UNL A   1      32.405  27.205  25.326  1.00  0.00     0.091 C 
ATOM     10  C   UNL A   1      33.421  26.247  24.746  1.00  0.00     0.014 C 
ATOM     11  C   UNL A   1      33.678  26.625  23.287  1.00  0.00     0.001 C 
ATOM     12  C   UNL A   1      33.301  29.172  23.976  1.00  0.00     0.014 C 
ATOM     13  C   UNL A   1      33.786  28.124  22.955  1.00  0.00     0.001 C 
BRANCH   9  14
ATOM     14  C   UNL A   1      31.816  26.757  26.625  1.00  0.00     0.228 C 
ATOM     15  N   UNL A   1      31.460  25.454  26.791  1.00  0.00    -0.322 N 
ATOM     16  H   UNL A   1      30.932  25.324  27.612  1.00  0.00     0.170 HD
ATOM     17  O   UNL A   1      31.588  27.557  27.536  1.00  0.00    -0.274 OA
BRANCH  15  18
ATOM     18  C   UNL A   1      31.646  24.252  26.104  1.00  0.00     0.092 A 
ATOM     19  N   UNL A   1      31.982  22.242  25.240  1.00  0.00    -0.258 N 
ATOM     20  N   UNL A   1      30.902  22.713  24.582  1.00  0.00    -0.178 NA
ATOM     21  C   UNL A   1      32.540  23.162  26.117  1.00  0.00     0.150 A 
ATOM     22  C   UNL A   1      30.676  23.889  25.138  1.00  0.00     0.162 A 
BRANCH  19  23
ATOM     23  C   UNL A   1      32.239  20.837  24.979  1.00  0.00     0.142 C 
ATOM     24  C   UNL A   1      32.417  20.314  23.575  1.00  0.00     0.029 C 
ENDBRANCH  19  23
BRANCH  21  25
ATOM     25  C   UNL A   1      33.632  22.829  27.010  1.00  0.00     0.276 C 
ATOM     26  O   UNL A   1      33.439  22.282  28.096  1.00  0.00    -0.267 OA
ATOM     27  N   UNL A   1      34.895  23.354  26.748  1.00  0.00    -0.318 N 
ATOM     28  H   UNL A   1      35.107  24.276  27.021  1.00  0.00     0.170 HD
BRANCH  27  29
ATOM     29  C   UNL A   1      35.858  22.586  26.105  1.00  0.00     0.082 A 
ATOM     30  C   UNL A   1      35.718  21.376  25.402  1.00  0.00     0.161 A 
ATOM     31  C   UNL A   1      37.198  22.915  25.995  1.00  0.00     0.059 A 
ATOM     32  N   UNL A   1      36.905  20.850  25.093  1.00  0.00    -0.179 NA
ATOM     33  N   UNL A   1      37.796  21.765  25.526  1.00  0.00    -0.271 N 
ATOM     34  C   UNL A   1      37.969  24.118  26.397  1.00  0.00     0.068 C 
ATOM     35  C   UNL A   1      39.160  21.345  25.769  1.00  0.00     0.174 C 
ENDBRANCH  27  29
ENDBRANCH  21  25
ENDBRANCH  15  18
ENDBRANCH   9  14
ENDBRANCH   5   8
ENDBRANCH   3   4
ENDBRANCH   2   3
ENDBRANCH   1   2
BRANCH   1  36
ATOM     36  C   UNL A   1      34.415  33.983  28.791  1.00  0.00     0.002 C 
BRANCH  36  37
ATOM     37  C   UNL A   1      33.188  34.878  29.040  1.00  0.00     0.021 C 
BRANCH  37  38
ATOM     38  C   UNL A   1      33.445  35.974  30.061  1.00  0.00     0.116 C 
BRANCH  38  39
ATOM     39  N   UNL A   1      32.704  35.728  31.298  1.00  0.00    -0.352 N 
ATOM     40  C   UNL A   1      32.938  34.818  32.299  1.00  0.00     0.251 C 
ATOM     41  H   UNL A   1      31.917  36.303  31.432  1.00  0.00     0.163 HD
ATOM     42  O   UNL A   1      32.038  34.534  33.093  1.00  0.00    -0.269 OA
BRANCH  40  43
ATOM     43  C   UNL A   1      34.259  34.186  32.414  1.00  0.00     0.039 A 
ATOM     44  C   UNL A   1      34.408  32.808  32.240  1.00  0.00     0.014 A 
ATOM     45  C   UNL A   1      35.362  34.989  32.696  1.00  0.00     0.014 A 
ATOM     46  C   UNL A   1      35.687  32.264  32.287  1.00  0.00     0.010 A 
ATOM     47  C   UNL A   1      36.629  34.483  32.571  1.00  0.00     0.010 A 
ATOM     48  C   UNL A   1      36.797  33.114  32.432  1.00  0.00    -0.014 A 
BRANCH  48  49
ATOM     49  C   UNL A   1      38.152  32.598  32.293  1.00  0.00     0.031 A 
ATOM     50  C   UNL A   1      38.845  32.439  33.598  1.00  0.00     0.074 A 
ATOM     51  C   UNL A   1      38.659  32.115  31.138  1.00  0.00     0.049 A 
ATOM     52  N   UNL A   1      39.770  33.196  34.085  1.00  0.00    -0.248 NA
ATOM     53  C   UNL A   1      38.309  31.464  34.564  1.00  0.00     0.031 C 
ATOM     54  C   UNL A   1      37.977  31.920  29.854  1.00  0.00     0.029 A 
ATOM     55  N   UNL A   1      39.891  31.592  30.893  1.00  0.00    -0.354 N 
ATOM     56  C   UNL A   1      40.135  32.607  35.289  1.00  0.00     0.074 A 
ATOM     57  C   UNL A   1      39.053  31.727  35.641  1.00  0.00     0.031 C 
ATOM     58  C   UNL A   1      38.719  31.116  29.060  1.00  0.00     0.029 A 
ATOM     59  C   UNL A   1      39.998  30.874  29.704  1.00  0.00     0.049 A 
ATOM     60  H   UNL A   1      40.649  31.714  31.508  1.00  0.00     0.167 HD
ATOM     61  C   UNL A   1      41.429  32.657  35.715  1.00  0.00     0.037 A 
ATOM     62  C   UNL A   1      41.054  30.119  29.299  1.00  0.00     0.037 A 
ATOM     63  C   UNL A   1      42.168  33.670  34.994  1.00  0.00     0.049 A 
ATOM     64  C   UNL A   1      42.234  30.580  30.080  1.00  0.00     0.074 A 
ATOM     65  C   UNL A   1      41.989  35.022  34.761  1.00  0.00     0.029 A 
ATOM     66  N   UNL A   1      43.057  33.245  34.034  1.00  0.00    -0.354 N 
ATOM     67  N   UNL A   1      42.773  31.760  29.941  1.00  0.00    -0.248 NA
ATOM     68  C   UNL A   1      42.502  29.917  31.347  1.00  0.00     0.031 C 
ATOM     69  C   UNL A   1      42.366  35.213  33.397  1.00  0.00     0.029 A 
ATOM     70  C   UNL A   1      42.842  33.998  32.908  1.00  0.00     0.049 A 
ATOM     71  H   UNL A   1      43.727  32.531  34.137  1.00  0.00     0.167 HD
ATOM     72  C   UNL A   1      43.048  32.175  31.235  1.00  0.00     0.074 A 
ATOM     73  C   UNL A   1      42.936  30.966  32.052  1.00  0.00     0.031 C 
ATOM     74  C   UNL A   1      43.048  33.500  31.566  1.00  0.00     0.037 A 
BRANCH  61  75
ATOM     75  C   UNL A   1      42.125  31.526  36.444  1.00  0.00     0.058 A 
ATOM     76  C   UNL A   1      42.948  31.837  37.546  1.00  0.00     0.135 A 
ATOM     77  C   UNL A   1      42.259  30.213  35.939  1.00  0.00     0.135 A 
ATOM     78  F   UNL A   1      42.908  33.056  38.107  1.00  0.00    -0.206 F 
ATOM     79  C   UNL A   1      43.896  30.944  38.046  1.00  0.00     0.059 A 
ATOM     80  C   UNL A   1      43.157  29.290  36.460  1.00  0.00     0.059 A 
ATOM     81  F   UNL A   1      41.602  29.779  34.859  1.00  0.00    -0.206 F 
ATOM     82  C   UNL A   1      44.002  29.677  37.484  1.00  0.00     0.060 A 
BRANCH  82  83
ATOM     83  S   UNL A   1      45.279  28.552  38.066  1.00  0.00     0.124 S 
ATOM     84  O   UNL A   1      44.547  27.776  39.060  1.00  0.00    -0.237 OA
ATOM     85  O   UNL A   1      45.638  27.849  36.839  1.00  0.00    -0.237 OA
ATOM     86  O   UNL A   1      46.303  29.450  38.590  1.00  0.00    -0.744 OA
ENDBRANCH  82  83
ENDBRANCH  61  75
BRANCH  62  87
ATOM     87  C   UNL A   1      41.059  28.827  28.556  1.00  0.00     0.058 A 
ATOM     88  C   UNL A   1      41.853  28.659  27.405  1.00  0.00     0.135 A 
ATOM     89  C   UNL A   1      40.544  27.645  29.125  1.00  0.00     0.135 A 
ATOM     90  F   UNL A   1      42.392  29.726  26.794  1.00  0.00    -0.206 F 
ATOM     91  C   UNL A   1      42.185  27.396  26.898  1.00  0.00     0.059 A 
ATOM     92  C   UNL A   1      40.852  26.376  28.631  1.00  0.00     0.059 A 
ATOM     93  F   UNL A   1      39.803  27.679  30.242  1.00  0.00    -0.206 F 
ATOM     94  C   UNL A   1      41.703  26.257  27.539  1.00  0.00     0.060 A 
BRANCH  94  95
ATOM     95  S   UNL A   1      42.302  24.627  27.029  1.00  0.00     0.124 S 
ATOM     96  O   UNL A   1      43.665  24.628  27.549  1.00  0.00    -0.237 OA
ATOM     97  O   UNL A   1      41.366  23.730  27.697  1.00  0.00    -0.237 OA
ATOM     98  O   UNL A   1      42.189  24.668  25.573  1.00  0.00    -0.744 OA
ENDBRANCH  94  95
ENDBRANCH  62  87
BRANCH  74  99
ATOM     99  C   UNL A   1      43.080  34.517  30.454  1.00  0.00     0.058 A 
ATOM    100  C   UNL A   1      41.968  34.938  29.699  1.00  0.00     0.135 A 
ATOM    101  C   UNL A   1      44.296  35.177  30.216  1.00  0.00     0.135 A 
ATOM    102  F   UNL A   1      40.745  34.446  29.938  1.00  0.00    -0.206 F 
ATOM    103  C   UNL A   1      42.080  35.919  28.710  1.00  0.00     0.059 A 
ATOM    104  C   UNL A   1      44.422  36.181  29.263  1.00  0.00     0.059 A 
ATOM    105  F   UNL A   1      45.382  34.870  30.945  1.00  0.00    -0.206 F 
ATOM    106  C   UNL A   1      43.316  36.530  28.495  1.00  0.00     0.060 A 
BRANCH 106 107
ATOM    107  S   UNL A   1      43.463  37.808  27.227  1.00  0.00     0.124 S 
ATOM    108  O   UNL A   1      44.670  37.398  26.517  1.00  0.00    -0.237 OA
ATOM    109  O   UNL A   1      42.213  37.668  26.488  1.00  0.00    -0.237 OA
ATOM    110  O   UNL A   1      43.585  39.042  28.000  1.00  0.00    -0.744 OA
ENDBRANCH 106 107
ENDBRANCH  74  99
ENDBRANCH  48  49
ENDBRANCH  40  43
ENDBRANCH  38  39
ENDBRANCH  37  38
ENDBRANCH  36  37
ENDBRANCH   1  36
TORSDOF 21
ENDMDL
MODEL 3
REMARK VINA RESULT:     -11.2      5.429     13.014
REMARK SMILES CCn1ncc(NC(=O)[C@@H]2CCCC[C@@H]2C(=O)NCCCCCCNC(=O)c2ccc(-c3c4nc(c(-c5c(F)cc(S(=O)(=O)[O-])cc5F)c5ccc([nH]5)c(-c5c(F)cc(S(=O)(=O)[O-])cc5F)c5nc(c(-c6c(F)cc(S(=O)(=O)[O-])cc6F)c6ccc3[nH]6)C=C5)C=C4)cc2)c1C(=O)Nc1cnn(C)c1C
REMARK SMILES IDX 21 1 20 2 19 3 18 4 16 5 17 6 15 8 10 9 11 10 12 11 14 12
REMARK SMILES IDX 13 13 8 14 7 15 9 17 6 18 3 19 4 20 94 21 5 22 2 23 1 24
REMARK SMILES IDX 95 25 96 26 97 27 98 29 99 30 103 31 100 32 101 33 104 34
REMARK SMILES IDX 102 35 22 36 23 37 24 38 25 39 26 40 27 42 28 43 29 44 93 45
REMARK SMILES IDX 30 46 92 47 31 48 32 49 33 50 86 51 34 52 91 53 85 54 87 55
REMARK SMILES IDX 35 56 90 57 84 58 83 59 36 61 70 62 49 63 69 64 50 65 53 66
REMARK SMILES IDX 68 67 88 68 51 69 52 70 67 72 89 73 54 74 37 75 38 76 47 77
REMARK SMILES IDX 39 78 40 79 46 80 48 81 41 82 42 83 43 84 44 85 45 86 71 87
REMARK SMILES IDX 72 88 81 89 73 90 74 91 80 92 82 93 75 94 76 95 77 96 78 97
REMARK SMILES IDX 79 98 55 99 56 100 65 101 57 102 58 103 64 104 66 105 59 106
REMARK SMILES IDX 60 107 61 108 62 109 63 110
REMARK H PARENT 18 7 7 16 97 28 25 41 87 60 53 71
REMARK Flexibility Score: inf
ROOT
ATOM      1  C   UNL A   1      36.622  32.689  33.754  1.00  0.00     0.002 C 
ENDROOT
BRANCH   1   2
ATOM      2  C   UNL A   1      37.782  31.759  33.427  1.00  0.00     0.021 C 
BRANCH   2   3
ATOM      3  C   UNL A   1      38.996  31.998  34.311  1.00  0.00     0.116 C 
BRANCH   3   4
ATOM      4  N   UNL A   1      39.852  33.061  33.857  1.00  0.00    -0.356 N 
ATOM      5  C   UNL A   1      40.873  33.685  34.498  1.00  0.00     0.223 C 
ATOM      6  O   UNL A   1      41.539  34.499  33.850  1.00  0.00    -0.275 OA
ATOM      7  H   UNL A   1      39.671  33.385  32.945  1.00  0.00     0.163 HD
BRANCH   5   8
ATOM      8  C   UNL A   1      41.224  33.402  35.966  1.00  0.00     0.091 C 
ATOM      9  C   UNL A   1      41.319  34.635  36.860  1.00  0.00     0.091 C 
ATOM     10  C   UNL A   1      42.639  35.371  36.815  1.00  0.00     0.014 C 
ATOM     11  C   UNL A   1      43.745  34.427  37.290  1.00  0.00     0.001 C 
ATOM     12  C   UNL A   1      42.382  32.422  36.182  1.00  0.00     0.014 C 
ATOM     13  C   UNL A   1      43.682  32.967  36.806  1.00  0.00     0.001 C 
BRANCH   9  14
ATOM     14  C   UNL A   1      40.122  35.525  36.746  1.00  0.00     0.228 C 
ATOM     15  N   UNL A   1      38.906  35.079  37.164  1.00  0.00    -0.322 N 
ATOM     16  H   UNL A   1      38.181  35.681  36.879  1.00  0.00     0.170 HD
ATOM     17  O   UNL A   1      40.199  36.640  36.222  1.00  0.00    -0.274 OA
BRANCH  15  18
ATOM     18  C   UNL A   1      38.415  33.992  37.892  1.00  0.00     0.092 A 
ATOM     19  N   UNL A   1      37.638  32.423  39.246  1.00  0.00    -0.258 N 
ATOM     20  N   UNL A   1      36.895  32.298  38.125  1.00  0.00    -0.178 NA
ATOM     21  C   UNL A   1      38.643  33.374  39.139  1.00  0.00     0.150 A 
ATOM     22  C   UNL A   1      37.328  33.270  37.344  1.00  0.00     0.162 A 
BRANCH  19  23
ATOM     23  C   UNL A   1      37.138  31.626  40.352  1.00  0.00     0.142 C 
ATOM     24  C   UNL A   1      35.660  31.419  40.572  1.00  0.00     0.029 C 
ENDBRANCH  19  23
BRANCH  21  25
ATOM     25  C   UNL A   1      39.482  33.755  40.258  1.00  0.00     0.276 C 
ATOM     26  O   UNL A   1      40.124  32.923  40.901  1.00  0.00    -0.267 OA
ATOM     27  N   UNL A   1      39.374  35.046  40.768  1.00  0.00    -0.318 N 
ATOM     28  H   UNL A   1      38.644  35.265  41.391  1.00  0.00     0.170 HD
BRANCH  27  29
ATOM     29  C   UNL A   1      40.287  36.027  40.403  1.00  0.00     0.082 A 
ATOM     30  C   UNL A   1      41.689  35.957  40.307  1.00  0.00     0.161 A 
ATOM     31  C   UNL A   1      39.962  37.312  40.003  1.00  0.00     0.059 A 
ATOM     32  N   UNL A   1      42.227  37.162  40.111  1.00  0.00    -0.179 NA
ATOM     33  N   UNL A   1      41.164  37.985  40.001  1.00  0.00    -0.271 N 
ATOM     34  C   UNL A   1      38.661  37.983  39.756  1.00  0.00     0.068 C 
ATOM     35  C   UNL A   1      41.356  39.401  40.234  1.00  0.00     0.174 C 
ENDBRANCH  27  29
ENDBRANCH  21  25
ENDBRANCH  15  18
ENDBRANCH   9  14
ENDBRANCH   5   8
ENDBRANCH   3   4
ENDBRANCH   2   3
ENDBRANCH   1   2
BRANCH   1  36
ATOM     36  C   UNL A   1      36.511  33.933  32.858  1.00  0.00     0.002 C 
BRANCH  36  37
ATOM     37  C   UNL A   1      35.243  34.046  31.993  1.00  0.00     0.021 C 
BRANCH  37  38
ATOM     38  C   UNL A   1      34.549  32.712  31.773  1.00  0.00     0.116 C 
BRANCH  38  39
ATOM     39  N   UNL A   1      34.243  32.502  30.359  1.00  0.00    -0.352 N 
ATOM     40  C   UNL A   1      35.060  32.101  29.331  1.00  0.00     0.251 C 
ATOM     41  H   UNL A   1      33.308  32.674  30.105  1.00  0.00     0.163 HD
ATOM     42  O   UNL A   1      34.715  32.291  28.163  1.00  0.00    -0.269 OA
BRANCH  40  43
ATOM     43  C   UNL A   1      36.343  31.451  29.631  1.00  0.00     0.039 A 
ATOM     44  C   UNL A   1      36.416  30.070  29.825  1.00  0.00     0.014 A 
ATOM     45  C   UNL A   1      37.488  32.241  29.716  1.00  0.00     0.014 A 
ATOM     46  C   UNL A   1      37.662  29.490  30.035  1.00  0.00     0.010 A 
ATOM     47  C   UNL A   1      38.726  31.653  29.749  1.00  0.00     0.010 A 
ATOM     48  C   UNL A   1      38.817  30.289  29.974  1.00  0.00    -0.014 A 
BRANCH  48  49
ATOM     49  C   UNL A   1      40.142  29.684  30.000  1.00  0.00     0.031 A 
ATOM     50  C   UNL A   1      40.635  29.432  31.379  1.00  0.00     0.074 A 
ATOM     51  C   UNL A   1      40.773  29.206  28.905  1.00  0.00     0.049 A 
ATOM     52  N   UNL A   1      41.530  30.105  32.021  1.00  0.00    -0.248 NA
ATOM     53  C   UNL A   1      39.908  28.464  32.219  1.00  0.00     0.031 C 
ATOM     54  C   UNL A   1      40.265  29.104  27.532  1.00  0.00     0.029 A 
ATOM     55  N   UNL A   1      41.990  28.608  28.807  1.00  0.00    -0.354 N 
ATOM     56  C   UNL A   1      41.685  29.450  33.236  1.00  0.00     0.074 A 
ATOM     57  C   UNL A   1      40.510  28.637  33.398  1.00  0.00     0.031 C 
ATOM     58  C   UNL A   1      41.057  28.278  26.813  1.00  0.00     0.029 A 
ATOM     59  C   UNL A   1      42.215  27.925  27.614  1.00  0.00     0.049 A 
ATOM     60  H   UNL A   1      42.662  28.654  29.526  1.00  0.00     0.167 HD
ATOM     61  C   UNL A   1      42.907  29.395  33.836  1.00  0.00     0.037 A 
ATOM     62  C   UNL A   1      43.266  27.111  27.325  1.00  0.00     0.037 A 
ATOM     63  C   UNL A   1      43.804  30.377  33.268  1.00  0.00     0.049 A 
ATOM     64  C   UNL A   1      44.353  27.461  28.278  1.00  0.00     0.074 A 
ATOM     65  C   UNL A   1      43.747  31.745  33.073  1.00  0.00     0.029 A 
ATOM     66  N   UNL A   1      44.788  29.924  32.422  1.00  0.00    -0.354 N 
ATOM     67  N   UNL A   1      44.982  28.605  28.267  1.00  0.00    -0.248 NA
ATOM     68  C   UNL A   1      44.399  26.738  29.541  1.00  0.00     0.031 C 
ATOM     69  C   UNL A   1      44.322  31.956  31.783  1.00  0.00     0.029 A 
ATOM     70  C   UNL A   1      44.782  30.728  31.311  1.00  0.00     0.049 A 
ATOM     71  H   UNL A   1      45.389  29.161  32.584  1.00  0.00     0.167 HD
ATOM     72  C   UNL A   1      45.100  28.954  29.603  1.00  0.00     0.074 A 
ATOM     73  C   UNL A   1      44.797  27.729  30.344  1.00  0.00     0.031 C 
ATOM     74  C   UNL A   1      45.140  30.264  29.989  1.00  0.00     0.037 A 
BRANCH  61  75
ATOM     75  C   UNL A   1      43.420  28.193  34.604  1.00  0.00     0.058 A 
ATOM     76  C   UNL A   1      43.976  28.394  35.884  1.00  0.00     0.135 A 
ATOM     77  C   UNL A   1      43.661  26.923  34.032  1.00  0.00     0.135 A 
ATOM     78  F   UNL A   1      43.814  29.564  36.523  1.00  0.00    -0.206 F 
ATOM     79  C   UNL A   1      44.787  27.444  36.505  1.00  0.00     0.059 A 
ATOM     80  C   UNL A   1      44.418  25.942  34.659  1.00  0.00     0.059 A 
ATOM     81  F   UNL A   1      43.262  26.594  32.799  1.00  0.00    -0.206 F 
ATOM     82  C   UNL A   1      45.013  26.225  35.875  1.00  0.00     0.060 A 
BRANCH  82  83
ATOM     83  S   UNL A   1      46.125  25.029  36.629  1.00  0.00     0.124 S 
ATOM     84  O   UNL A   1      46.035  25.400  38.036  1.00  0.00    -0.237 OA
ATOM     85  O   UNL A   1      45.500  23.765  36.256  1.00  0.00    -0.237 OA
ATOM     86  O   UNL A   1      47.403  25.306  35.980  1.00  0.00    -0.744 OA
ENDBRANCH  82  83
ENDBRANCH  61  75
BRANCH  62  87
ATOM     87  C   UNL A   1      43.291  25.849  26.534  1.00  0.00     0.058 A 
ATOM     88  C   UNL A   1      44.161  25.701  25.435  1.00  0.00     0.135 A 
ATOM     89  C   UNL A   1      42.705  24.662  27.017  1.00  0.00     0.135 A 
ATOM     90  F   UNL A   1      44.770  26.775  24.908  1.00  0.00    -0.206 F 
ATOM     91  C   UNL A   1      44.495  24.449  24.904  1.00  0.00     0.059 A 
ATOM     92  C   UNL A   1      43.014  23.404  26.496  1.00  0.00     0.059 A 
ATOM     93  F   UNL A   1      41.886  24.676  28.079  1.00  0.00    -0.206 F 
ATOM     94  C   UNL A   1      43.938  23.301  25.464  1.00  0.00     0.060 A 
BRANCH  94  95
ATOM     95  S   UNL A   1      44.530  21.675  24.934  1.00  0.00     0.124 S 
ATOM     96  O   UNL A   1      43.459  20.797  25.393  1.00  0.00    -0.237 OA
ATOM     97  O   UNL A   1      44.642  21.842  23.489  1.00  0.00    -0.237 OA
ATOM     98  O   UNL A   1      45.801  21.534  25.641  1.00  0.00    -0.744 OA
ENDBRANCH  94  95
ENDBRANCH  62  87
BRANCH  74  99
ATOM     99  C   UNL A   1      45.392  31.314  28.937  1.00  0.00     0.058 A 
ATOM    100  C   UNL A   1      46.653  31.665  28.419  1.00  0.00     0.135 A 
ATOM    101  C   UNL A   1      44.272  31.923  28.350  1.00  0.00     0.135 A 
ATOM    102  F   UNL A   1      47.768  31.051  28.839  1.00  0.00    -0.206 F 
ATOM    103  C   UNL A   1      46.793  32.625  27.413  1.00  0.00     0.059 A 
ATOM    104  C   UNL A   1      44.385  32.853  27.322  1.00  0.00     0.059 A 
ATOM    105  F   UNL A   1      43.035  31.586  28.752  1.00  0.00    -0.206 F 
ATOM    106  C   UNL A   1      45.651  33.219  26.875  1.00  0.00     0.060 A 
BRANCH 106 107
ATOM    107  S   UNL A   1      45.825  34.450  25.566  1.00  0.00     0.124 S 
ATOM    108  O   UNL A   1      45.003  33.884  24.502  1.00  0.00    -0.237 OA
ATOM    109  O   UNL A   1      45.305  35.660  26.196  1.00  0.00    -0.237 OA
ATOM    110  O   UNL A   1      47.262  34.465  25.301  1.00  0.00    -0.744 OA
ENDBRANCH 106 107
ENDBRANCH  74  99
ENDBRANCH  48  49
ENDBRANCH  40  43
ENDBRANCH  38  39
ENDBRANCH  37  38
ENDBRANCH  36  37
ENDBRANCH   1  36
TORSDOF 21
ENDMDL
