MODEL 1
REMARK VINA RESULT:     -11.5      0.000      0.000
REMARK SMILES CC[C@](C)(NC(=O)[C@H]1CNc2ccccc2O1)C(=O)NCCCCCCNC(=O)c1ccc(-c2c3nc(c(-c4c(F)cc(S(=O)(=O)[O-])cc4F)c4ccc([nH]4)c(-c4c(F)cc(S(=O)(=O)[O-])cc4F)c4nc(c(-c5c(F)cc(S(=O)(=O)[O-])cc5F)c5ccc2[nH]5)C=C4)C=C3)cc1
REMARK SMILES IDX 24 1 23 2 22 3 21 4 20 5 18 6 19 7 3 9 4 10 2 11 1 12 5 13
REMARK SMILES IDX 6 14 7 16 8 17 9 18 17 19 10 20 16 21 11 22 15 24 12 25
REMARK SMILES IDX 14 26 13 27 25 28 26 29 27 30 28 31 29 33 30 34 31 35 95 36
REMARK SMILES IDX 32 37 94 38 33 39 34 40 35 41 88 42 36 43 93 44 87 45 89 46
REMARK SMILES IDX 37 47 92 48 86 49 85 50 38 52 72 53 51 54 71 55 52 56 55 57
REMARK SMILES IDX 70 58 90 59 53 60 54 61 69 63 91 64 56 65 39 66 40 67 49 68
REMARK SMILES IDX 41 69 42 70 48 71 50 72 43 73 44 74 45 75 46 76 47 77 73 78
REMARK SMILES IDX 74 79 83 80 75 81 76 82 82 83 84 84 77 85 78 86 79 87 80 88
REMARK SMILES IDX 81 89 57 90 58 91 67 92 59 93 60 94 66 95 68 96 61 97 62 98
REMARK SMILES IDX 63 99 64 100 65 101
REMARK H PARENT 20 8 5 15 10 23 27 32 89 51 55 62
REMARK Flexibility Score: inf
ROOT
ATOM      1  C   UNL A   1      33.418  29.221  26.989  1.00  0.00     0.002 C 
ENDROOT
BRANCH   1   2
ATOM      2  C   UNL A   1      32.977  27.949  26.266  1.00  0.00     0.002 C 
BRANCH   2   3
ATOM      3  C   UNL A   1      31.618  27.414  26.724  1.00  0.00     0.021 C 
BRANCH   3   4
ATOM      4  C   UNL A   1      30.969  26.456  25.739  1.00  0.00     0.116 C 
BRANCH   4   5
ATOM      5  N   UNL A   1      30.270  25.368  26.400  1.00  0.00    -0.354 N 
ATOM      6  C   UNL A   1      30.608  24.061  26.580  1.00  0.00     0.245 C 
ATOM      7  O   UNL A   1      29.857  23.383  27.288  1.00  0.00    -0.272 OA
ATOM      8  H   UNL A   1      29.402  25.620  26.788  1.00  0.00     0.163 HD
BRANCH   6   9
ATOM      9  C   UNL A   1      31.921  23.474  25.991  1.00  0.00     0.116 C 
ATOM     10  C   UNL A   1      31.691  22.006  25.577  1.00  0.00     0.045 C 
BRANCH   9  11
ATOM     11  C   UNL A   1      33.046  23.475  27.094  1.00  0.00     0.035 C 
ATOM     12  C   UNL A   1      33.138  22.240  27.995  1.00  0.00     0.007 C 
ENDBRANCH   9  11
BRANCH   9  13
ATOM     13  N   UNL A   1      32.424  24.204  24.787  1.00  0.00    -0.339 N 
ATOM     14  C   UNL A   1      33.693  24.604  24.435  1.00  0.00     0.263 C 
ATOM     15  H   UNL A   1      31.726  24.441  24.133  1.00  0.00     0.164 HD
ATOM     16  O   UNL A   1      33.780  25.602  23.712  1.00  0.00    -0.271 OA
BRANCH  14  17
ATOM     17  C   UNL A   1      34.934  23.769  24.796  1.00  0.00     0.281 C 
ATOM     18  C   UNL A   1      35.387  22.998  23.540  1.00  0.00     0.168 C 
ATOM     19  O   UNL A   1      36.065  24.493  25.304  1.00  0.00    -0.477 OA
ATOM     20  N   UNL A   1      36.258  21.920  23.991  1.00  0.00    -0.378 N 
ATOM     21  C   UNL A   1      37.133  23.627  25.516  1.00  0.00     0.143 A 
ATOM     22  C   UNL A   1      37.210  22.342  24.923  1.00  0.00     0.077 A 
ATOM     23  H   UNL A   1      36.183  20.991  23.672  1.00  0.00     0.160 HD
ATOM     24  C   UNL A   1      38.159  24.080  26.340  1.00  0.00     0.049 A 
ATOM     25  C   UNL A   1      38.218  21.467  25.331  1.00  0.00     0.029 A 
ATOM     26  C   UNL A   1      39.209  23.219  26.673  1.00  0.00     0.004 A 
ATOM     27  C   UNL A   1      39.216  21.905  26.202  1.00  0.00     0.002 A 
ENDBRANCH  14  17
ENDBRANCH   9  13
ENDBRANCH   6   9
ENDBRANCH   4   5
ENDBRANCH   3   4
ENDBRANCH   2   3
ENDBRANCH   1   2
BRANCH   1  28
ATOM     28  C   UNL A   1      34.806  29.131  27.620  1.00  0.00     0.021 C 
BRANCH  28  29
ATOM     29  C   UNL A   1      35.455  30.483  27.891  1.00  0.00     0.116 C 
BRANCH  29  30
ATOM     30  N   UNL A   1      35.430  30.824  29.305  1.00  0.00    -0.352 N 
ATOM     31  C   UNL A   1      36.359  30.509  30.269  1.00  0.00     0.251 C 
ATOM     32  H   UNL A   1      34.653  31.346  29.610  1.00  0.00     0.163 HD
ATOM     33  O   UNL A   1      36.123  30.679  31.454  1.00  0.00    -0.269 OA
BRANCH  31  34
ATOM     34  C   UNL A   1      37.645  29.935  29.824  1.00  0.00     0.039 A 
ATOM     35  C   UNL A   1      38.058  30.125  28.506  1.00  0.00     0.014 A 
ATOM     36  C   UNL A   1      38.468  29.288  30.750  1.00  0.00     0.014 A 
ATOM     37  C   UNL A   1      39.337  29.712  28.128  1.00  0.00     0.010 A 
ATOM     38  C   UNL A   1      39.768  28.953  30.391  1.00  0.00     0.010 A 
ATOM     39  C   UNL A   1      40.212  29.154  29.074  1.00  0.00    -0.014 A 
BRANCH  39  40
ATOM     40  C   UNL A   1      41.592  28.750  28.706  1.00  0.00     0.031 A 
ATOM     41  C   UNL A   1      42.684  29.785  28.669  1.00  0.00     0.074 A 
ATOM     42  C   UNL A   1      41.849  27.475  28.348  1.00  0.00     0.049 A 
ATOM     43  N   UNL A   1      43.929  29.659  28.291  1.00  0.00    -0.248 NA
ATOM     44  C   UNL A   1      42.319  31.151  29.083  1.00  0.00     0.031 C 
ATOM     45  C   UNL A   1      40.862  26.392  28.292  1.00  0.00     0.029 A 
ATOM     46  N   UNL A   1      43.018  26.874  27.953  1.00  0.00    -0.354 N 
ATOM     47  C   UNL A   1      44.490  30.925  28.412  1.00  0.00     0.074 A 
ATOM     48  C   UNL A   1      43.435  31.819  28.836  1.00  0.00     0.031 C 
ATOM     49  C   UNL A   1      41.471  25.260  27.905  1.00  0.00     0.029 A 
ATOM     50  C   UNL A   1      42.881  25.538  27.650  1.00  0.00     0.049 A 
ATOM     51  H   UNL A   1      43.875  27.354  27.890  1.00  0.00     0.167 HD
ATOM     52  C   UNL A   1      45.776  31.303  28.222  1.00  0.00     0.037 A 
ATOM     53  C   UNL A   1      43.788  24.645  27.210  1.00  0.00     0.037 A 
ATOM     54  C   UNL A   1      46.828  30.401  27.834  1.00  0.00     0.049 A 
ATOM     55  C   UNL A   1      45.213  25.090  27.010  1.00  0.00     0.074 A 
ATOM     56  C   UNL A   1      48.172  30.676  27.655  1.00  0.00     0.029 A 
ATOM     57  N   UNL A   1      46.657  29.049  27.577  1.00  0.00    -0.354 N 
ATOM     58  N   UNL A   1      45.736  26.282  27.182  1.00  0.00    -0.248 NA
ATOM     59  C   UNL A   1      46.174  24.071  26.566  1.00  0.00     0.031 C 
ATOM     60  C   UNL A   1      48.808  29.497  27.255  1.00  0.00     0.029 A 
ATOM     61  C   UNL A   1      47.870  28.478  27.232  1.00  0.00     0.049 A 
ATOM     62  H   UNL A   1      45.800  28.568  27.630  1.00  0.00     0.167 HD
ATOM     63  C   UNL A   1      47.091  26.145  26.900  1.00  0.00     0.074 A 
ATOM     64  C   UNL A   1      47.310  24.756  26.558  1.00  0.00     0.031 C 
ATOM     65  C   UNL A   1      48.068  27.086  26.919  1.00  0.00     0.037 A 
BRANCH  52  66
ATOM     66  C   UNL A   1      46.124  32.745  28.459  1.00  0.00     0.058 A 
ATOM     67  C   UNL A   1      46.058  33.694  27.426  1.00  0.00     0.135 A 
ATOM     68  C   UNL A   1      46.472  33.198  29.742  1.00  0.00     0.135 A 
ATOM     69  F   UNL A   1      45.751  33.311  26.176  1.00  0.00    -0.206 F 
ATOM     70  C   UNL A   1      46.339  35.036  27.651  1.00  0.00     0.059 A 
ATOM     71  C   UNL A   1      46.730  34.543  29.997  1.00  0.00     0.059 A 
ATOM     72  F   UNL A   1      46.555  32.333  30.766  1.00  0.00    -0.206 F 
ATOM     73  C   UNL A   1      46.670  35.452  28.941  1.00  0.00     0.060 A 
BRANCH  73  74
ATOM     74  S   UNL A   1      46.995  37.205  29.221  1.00  0.00     0.124 S 
ATOM     75  O   UNL A   1      45.652  37.712  29.486  1.00  0.00    -0.237 OA
ATOM     76  O   UNL A   1      47.898  37.175  30.367  1.00  0.00    -0.237 OA
ATOM     77  O   UNL A   1      47.595  37.645  27.965  1.00  0.00    -0.744 OA
ENDBRANCH  73  74
ENDBRANCH  52  66
BRANCH  53  78
ATOM     78  C   UNL A   1      43.388  23.237  26.935  1.00  0.00     0.058 A 
ATOM     79  C   UNL A   1      43.113  22.344  27.982  1.00  0.00     0.135 A 
ATOM     80  C   UNL A   1      43.299  22.749  25.623  1.00  0.00     0.135 A 
ATOM     81  F   UNL A   1      43.187  22.762  29.255  1.00  0.00    -0.206 F 
ATOM     82  C   UNL A   1      42.801  21.010  27.742  1.00  0.00     0.059 A 
ATOM     83  C   UNL A   1      42.962  21.426  25.355  1.00  0.00     0.059 A 
ATOM     84  F   UNL A   1      43.532  23.565  24.583  1.00  0.00    -0.206 F 
ATOM     85  C   UNL A   1      42.732  20.558  26.422  1.00  0.00     0.060 A 
BRANCH  85  86
ATOM     86  S   UNL A   1      42.315  18.829  26.116  1.00  0.00     0.124 S 
ATOM     87  O   UNL A   1      42.558  18.234  27.425  1.00  0.00    -0.237 OA
ATOM     88  O   UNL A   1      40.918  18.917  25.704  1.00  0.00    -0.237 OA
ATOM     89  O   UNL A   1      43.249  18.442  25.062  1.00  0.00    -0.744 OA
ENDBRANCH  85  86
ENDBRANCH  53  78
BRANCH  65  90
ATOM     90  C   UNL A   1      49.469  26.638  26.610  1.00  0.00     0.058 A 
ATOM     91  C   UNL A   1      49.979  26.653  25.302  1.00  0.00     0.135 A 
ATOM     92  C   UNL A   1      50.331  26.243  27.647  1.00  0.00     0.135 A 
ATOM     93  F   UNL A   1      49.195  27.016  24.276  1.00  0.00    -0.206 F 
ATOM     94  C   UNL A   1      51.288  26.270  25.031  1.00  0.00     0.059 A 
ATOM     95  C   UNL A   1      51.651  25.884  27.402  1.00  0.00     0.059 A 
ATOM     96  F   UNL A   1      49.895  26.222  28.917  1.00  0.00    -0.206 F 
ATOM     97  C   UNL A   1      52.118  25.890  26.088  1.00  0.00     0.060 A 
BRANCH  97  98
ATOM     98  S   UNL A   1      53.826  25.430  25.725  1.00  0.00     0.124 S 
ATOM     99  O   UNL A   1      54.322  25.076  27.051  1.00  0.00    -0.237 OA
ATOM    100  O   UNL A   1      53.658  24.319  24.793  1.00  0.00    -0.237 OA
ATOM    101  O   UNL A   1      54.389  26.646  25.147  1.00  0.00    -0.744 OA
ENDBRANCH  97  98
ENDBRANCH  65  90
ENDBRANCH  39  40
ENDBRANCH  31  34
ENDBRANCH  29  30
ENDBRANCH  28  29
ENDBRANCH   1  28
TORSDOF 19
ENDMDL
MODEL 2
REMARK VINA RESULT:     -11.4      2.421      2.970
REMARK SMILES CC[C@](C)(NC(=O)[C@H]1CNc2ccccc2O1)C(=O)NCCCCCCNC(=O)c1ccc(-c2c3nc(c(-c4c(F)cc(S(=O)(=O)[O-])cc4F)c4ccc([nH]4)c(-c4c(F)cc(S(=O)(=O)[O-])cc4F)c4nc(c(-c5c(F)cc(S(=O)(=O)[O-])cc5F)c5ccc2[nH]5)C=C4)C=C3)cc1
REMARK SMILES IDX 24 1 23 2 22 3 21 4 20 5 18 6 19 7 3 9 4 10 2 11 1 12 5 13
REMARK SMILES IDX 6 14 7 16 8 17 9 18 17 19 10 20 16 21 11 22 15 24 12 25
REMARK SMILES IDX 14 26 13 27 25 28 26 29 27 30 28 31 29 33 30 34 31 35 95 36
REMARK SMILES IDX 32 37 94 38 33 39 34 40 35 41 88 42 36 43 93 44 87 45 89 46
REMARK SMILES IDX 37 47 92 48 86 49 85 50 38 52 72 53 51 54 71 55 52 56 55 57
REMARK SMILES IDX 70 58 90 59 53 60 54 61 69 63 91 64 56 65 39 66 40 67 49 68
REMARK SMILES IDX 41 69 42 70 48 71 50 72 43 73 44 74 45 75 46 76 47 77 73 78
REMARK SMILES IDX 74 79 83 80 75 81 76 82 82 83 84 84 77 85 78 86 79 87 80 88
REMARK SMILES IDX 81 89 57 90 58 91 67 92 59 93 60 94 66 95 68 96 61 97 62 98
REMARK SMILES IDX 63 99 64 100 65 101
REMARK H PARENT 20 8 5 15 10 23 27 32 89 51 55 62
REMARK Flexibility Score: inf
ROOT
ATOM      1  C   UNL A   1      32.270  28.799  25.074  1.00  0.00     0.002 C 
ENDROOT
BRANCH   1   2
ATOM      2  C   UNL A   1      31.337  28.048  24.126  1.00  0.00     0.002 C 
BRANCH   2   3
ATOM      3  C   UNL A   1      30.184  27.328  24.829  1.00  0.00     0.021 C 
BRANCH   3   4
ATOM      4  C   UNL A   1      30.086  25.848  24.496  1.00  0.00     0.116 C 
BRANCH   4   5
ATOM      5  N   UNL A   1      29.716  25.043  25.646  1.00  0.00    -0.354 N 
ATOM      6  C   UNL A   1      30.384  24.053  26.302  1.00  0.00     0.245 C 
ATOM      7  O   UNL A   1      29.860  23.614  27.331  1.00  0.00    -0.272 OA
ATOM      8  H   UNL A   1      28.830  25.251  26.019  1.00  0.00     0.163 HD
BRANCH   6   9
ATOM      9  C   UNL A   1      31.776  23.557  25.821  1.00  0.00     0.116 C 
ATOM     10  C   UNL A   1      31.683  22.073  25.408  1.00  0.00     0.045 C 
BRANCH   9  11
ATOM     11  C   UNL A   1      32.810  23.645  27.007  1.00  0.00     0.035 C 
ATOM     12  C   UNL A   1      33.215  22.330  27.677  1.00  0.00     0.007 C 
ENDBRANCH   9  11
BRANCH   9  13
ATOM     13  N   UNL A   1      32.317  24.314  24.651  1.00  0.00    -0.339 N 
ATOM     14  C   UNL A   1      33.604  24.682  24.326  1.00  0.00     0.263 C 
ATOM     15  H   UNL A   1      31.636  24.598  23.999  1.00  0.00     0.164 HD
ATOM     16  O   UNL A   1      33.732  25.703  23.642  1.00  0.00    -0.271 OA
BRANCH  14  17
ATOM     17  C   UNL A   1      34.811  23.792  24.668  1.00  0.00     0.281 C 
ATOM     18  C   UNL A   1      35.255  23.057  23.388  1.00  0.00     0.168 C 
ATOM     19  O   UNL A   1      35.958  24.457  25.219  1.00  0.00    -0.477 OA
ATOM     20  N   UNL A   1      36.083  21.933  23.806  1.00  0.00    -0.378 N 
ATOM     21  C   UNL A   1      36.994  23.548  25.409  1.00  0.00     0.143 A 
ATOM     22  C   UNL A   1      37.036  22.285  24.766  1.00  0.00     0.077 A 
ATOM     23  H   UNL A   1      35.983  21.021  23.450  1.00  0.00     0.160 HD
ATOM     24  C   UNL A   1      38.024  23.933  26.263  1.00  0.00     0.049 A 
ATOM     25  C   UNL A   1      38.010  21.362  25.151  1.00  0.00     0.029 A 
ATOM     26  C   UNL A   1      39.039  23.025  26.574  1.00  0.00     0.004 A 
ATOM     27  C   UNL A   1      39.009  21.731  26.051  1.00  0.00     0.002 A 
ENDBRANCH  14  17
ENDBRANCH   9  13
ENDBRANCH   6   9
ENDBRANCH   4   5
ENDBRANCH   3   4
ENDBRANCH   2   3
ENDBRANCH   1   2
BRANCH   1  28
ATOM     28  C   UNL A   1      32.620  28.027  26.346  1.00  0.00     0.021 C 
BRANCH  28  29
ATOM     29  C   UNL A   1      33.882  28.518  27.044  1.00  0.00     0.116 C 
BRANCH  29  30
ATOM     30  N   UNL A   1      33.738  29.881  27.532  1.00  0.00    -0.352 N 
ATOM     31  C   UNL A   1      34.639  30.618  28.266  1.00  0.00     0.251 C 
ATOM     32  H   UNL A   1      32.892  30.333  27.309  1.00  0.00     0.163 HD
ATOM     33  O   UNL A   1      34.317  31.674  28.785  1.00  0.00    -0.269 OA
BRANCH  31  34
ATOM     34  C   UNL A   1      36.003  30.075  28.425  1.00  0.00     0.039 A 
ATOM     35  C   UNL A   1      36.915  30.200  27.377  1.00  0.00     0.014 A 
ATOM     36  C   UNL A   1      36.388  29.526  29.652  1.00  0.00     0.014 A 
ATOM     37  C   UNL A   1      38.242  29.822  27.583  1.00  0.00     0.010 A 
ATOM     38  C   UNL A   1      37.725  29.228  29.877  1.00  0.00     0.010 A 
ATOM     39  C   UNL A   1      38.664  29.365  28.842  1.00  0.00    -0.014 A 
BRANCH  39  40
ATOM     40  C   UNL A   1      40.081  29.001  29.097  1.00  0.00     0.031 A 
ATOM     41  C   UNL A   1      41.014  30.022  29.691  1.00  0.00     0.074 A 
ATOM     42  C   UNL A   1      40.539  27.784  28.740  1.00  0.00     0.049 A 
ATOM     43  N   UNL A   1      42.300  29.936  29.910  1.00  0.00    -0.248 NA
ATOM     44  C   UNL A   1      40.429  31.323  30.058  1.00  0.00     0.031 C 
ATOM     45  C   UNL A   1      39.744  26.728  28.106  1.00  0.00     0.029 A 
ATOM     46  N   UNL A   1      41.791  27.230  28.850  1.00  0.00    -0.354 N 
ATOM     47  C   UNL A   1      42.677  31.169  30.430  1.00  0.00     0.074 A 
ATOM     48  C   UNL A   1      41.500  32.007  30.433  1.00  0.00     0.031 C 
ATOM     49  C   UNL A   1      40.521  25.652  27.902  1.00  0.00     0.029 A 
ATOM     50  C   UNL A   1      41.876  25.949  28.355  1.00  0.00     0.049 A 
ATOM     51  H   UNL A   1      42.556  27.707  29.245  1.00  0.00     0.167 HD
ATOM     52  C   UNL A   1      43.888  31.556  30.896  1.00  0.00     0.037 A 
ATOM     53  C   UNL A   1      42.930  25.115  28.270  1.00  0.00     0.037 A 
ATOM     54  C   UNL A   1      45.047  30.705  30.921  1.00  0.00     0.049 A 
ATOM     55  C   UNL A   1      44.265  25.569  28.799  1.00  0.00     0.074 A 
ATOM     56  C   UNL A   1      46.310  30.989  31.411  1.00  0.00     0.029 A 
ATOM     57  N   UNL A   1      45.083  29.402  30.448  1.00  0.00    -0.354 N 
ATOM     58  N   UNL A   1      44.590  26.722  29.337  1.00  0.00    -0.248 NA
ATOM     59  C   UNL A   1      45.376  24.610  28.720  1.00  0.00     0.031 C 
ATOM     60  C   UNL A   1      47.120  29.868  31.202  1.00  0.00     0.029 A 
ATOM     61  C   UNL A   1      46.349  28.871  30.627  1.00  0.00     0.049 A 
ATOM     62  H   UNL A   1      44.322  28.926  30.045  1.00  0.00     0.167 HD
ATOM     63  C   UNL A   1      45.931  26.612  29.690  1.00  0.00     0.074 A 
ATOM     64  C   UNL A   1      46.354  25.279  29.316  1.00  0.00     0.031 C 
ATOM     65  C   UNL A   1      46.742  27.532  30.268  1.00  0.00     0.037 A 
BRANCH  52  66
ATOM     66  C   UNL A   1      44.013  32.951  31.442  1.00  0.00     0.058 A 
ATOM     67  C   UNL A   1      44.345  34.035  30.614  1.00  0.00     0.135 A 
ATOM     68  C   UNL A   1      43.744  33.218  32.795  1.00  0.00     0.135 A 
ATOM     69  F   UNL A   1      44.633  33.832  29.318  1.00  0.00    -0.206 F 
ATOM     70  C   UNL A   1      44.423  35.331  31.108  1.00  0.00     0.059 A 
ATOM     71  C   UNL A   1      43.788  34.513  33.305  1.00  0.00     0.059 A 
ATOM     72  F   UNL A   1      43.427  32.218  33.632  1.00  0.00    -0.206 F 
ATOM     73  C   UNL A   1      44.137  35.562  32.455  1.00  0.00     0.060 A 
BRANCH  73  74
ATOM     74  S   UNL A   1      44.206  37.257  33.069  1.00  0.00     0.124 S 
ATOM     75  O   UNL A   1      44.313  38.013  31.825  1.00  0.00    -0.237 OA
ATOM     76  O   UNL A   1      42.937  37.382  33.780  1.00  0.00    -0.237 OA
ATOM     77  O   UNL A   1      45.397  37.265  33.912  1.00  0.00    -0.744 OA
ENDBRANCH  73  74
ENDBRANCH  52  66
BRANCH  53  78
ATOM     78  C   UNL A   1      42.774  23.760  27.671  1.00  0.00     0.058 A 
ATOM     79  C   UNL A   1      42.451  22.650  28.465  1.00  0.00     0.135 A 
ATOM     80  C   UNL A   1      42.970  23.545  26.299  1.00  0.00     0.135 A 
ATOM     81  F   UNL A   1      42.256  22.803  29.783  1.00  0.00    -0.206 F 
ATOM     82  C   UNL A   1      42.364  21.369  27.928  1.00  0.00     0.059 A 
ATOM     83  C   UNL A   1      42.862  22.279  25.733  1.00  0.00     0.059 A 
ATOM     84  F   UNL A   1      43.261  24.576  25.489  1.00  0.00    -0.206 F 
ATOM     85  C   UNL A   1      42.576  21.193  26.560  1.00  0.00     0.060 A 
BRANCH  85  86
ATOM     86  S   UNL A   1      42.451  19.530  25.868  1.00  0.00     0.124 S 
ATOM     87  O   UNL A   1      42.745  18.705  27.035  1.00  0.00    -0.237 OA
ATOM     88  O   UNL A   1      41.072  19.497  25.393  1.00  0.00    -0.237 OA
ATOM     89  O   UNL A   1      43.468  19.527  24.820  1.00  0.00    -0.744 OA
ENDBRANCH  85  86
ENDBRANCH  53  78
BRANCH  65  90
ATOM     90  C   UNL A   1      48.152  27.117  30.580  1.00  0.00     0.058 A 
ATOM     91  C   UNL A   1      49.204  27.337  29.678  1.00  0.00     0.135 A 
ATOM     92  C   UNL A   1      48.462  26.542  31.824  1.00  0.00     0.135 A 
ATOM     93  F   UNL A   1      48.960  27.878  28.474  1.00  0.00    -0.206 F 
ATOM     94  C   UNL A   1      50.512  26.981  29.989  1.00  0.00     0.059 A 
ATOM     95  C   UNL A   1      49.767  26.205  32.167  1.00  0.00     0.059 A 
ATOM     96  F   UNL A   1      47.494  26.319  32.726  1.00  0.00    -0.206 F 
ATOM     97  C   UNL A   1      50.784  26.418  31.237  1.00  0.00     0.060 A 
BRANCH  97  98
ATOM     98  S   UNL A   1      52.492  25.994  31.642  1.00  0.00     0.124 S 
ATOM     99  O   UNL A   1      52.796  26.966  32.687  1.00  0.00    -0.237 OA
ATOM    100  O   UNL A   1      52.374  24.607  32.079  1.00  0.00    -0.237 OA
ATOM    101  O   UNL A   1      53.199  26.189  30.379  1.00  0.00    -0.744 OA
ENDBRANCH  97  98
ENDBRANCH  65  90
ENDBRANCH  39  40
ENDBRANCH  31  34
ENDBRANCH  29  30
ENDBRANCH  28  29
ENDBRANCH   1  28
TORSDOF 19
ENDMDL
MODEL 3
REMARK VINA RESULT:     -11.4      1.282      2.173
REMARK SMILES CC[C@](C)(NC(=O)[C@H]1CNc2ccccc2O1)C(=O)NCCCCCCNC(=O)c1ccc(-c2c3nc(c(-c4c(F)cc(S(=O)(=O)[O-])cc4F)c4ccc([nH]4)c(-c4c(F)cc(S(=O)(=O)[O-])cc4F)c4nc(c(-c5c(F)cc(S(=O)(=O)[O-])cc5F)c5ccc2[nH]5)C=C4)C=C3)cc1
REMARK SMILES IDX 24 1 23 2 22 3 21 4 20 5 18 6 19 7 3 9 4 10 2 11 1 12 5 13
REMARK SMILES IDX 6 14 7 16 8 17 9 18 17 19 10 20 16 21 11 22 15 24 12 25
REMARK SMILES IDX 14 26 13 27 25 28 26 29 27 30 28 31 29 33 30 34 31 35 95 36
REMARK SMILES IDX 32 37 94 38 33 39 34 40 35 41 88 42 36 43 93 44 87 45 89 46
REMARK SMILES IDX 37 47 92 48 86 49 85 50 38 52 72 53 51 54 71 55 52 56 55 57
REMARK SMILES IDX 70 58 90 59 53 60 54 61 69 63 91 64 56 65 39 66 40 67 49 68
REMARK SMILES IDX 41 69 42 70 48 71 50 72 43 73 44 74 45 75 46 76 47 77 73 78
REMARK SMILES IDX 74 79 83 80 75 81 76 82 82 83 84 84 77 85 78 86 79 87 80 88
REMARK SMILES IDX 81 89 57 90 58 91 67 92 59 93 60 94 66 95 68 96 61 97 62 98
REMARK SMILES IDX 63 99 64 100 65 101
REMARK H PARENT 20 8 5 15 10 23 27 32 89 51 55 62
REMARK Flexibility Score: inf
ROOT
ATOM      1  C   UNL A   1      33.629  29.844  26.716  1.00  0.00     0.002 C 
ENDROOT
BRANCH   1   2
ATOM      2  C   UNL A   1      32.190  29.663  27.197  1.00  0.00     0.002 C 
BRANCH   2   3
ATOM      3  C   UNL A   1      31.793  28.204  27.436  1.00  0.00     0.021 C 
BRANCH   3   4
ATOM      4  C   UNL A   1      32.651  27.200  26.685  1.00  0.00     0.116 C 
BRANCH   4   5
ATOM      5  N   UNL A   1      31.872  26.107  26.132  1.00  0.00    -0.354 N 
ATOM      6  C   UNL A   1      31.504  25.823  24.852  1.00  0.00     0.245 C 
ATOM      7  O   UNL A   1      30.925  24.749  24.663  1.00  0.00    -0.272 OA
ATOM      8  H   UNL A   1      31.557  25.455  26.799  1.00  0.00     0.163 HD
BRANCH   6   9
ATOM      9  C   UNL A   1      31.870  26.769  23.674  1.00  0.00     0.116 C 
ATOM     10  C   UNL A   1      33.235  27.432  23.948  1.00  0.00     0.045 C 
BRANCH   9  11
ATOM     11  C   UNL A   1      30.804  27.926  23.570  1.00  0.00     0.035 C 
ATOM     12  C   UNL A   1      31.320  29.361  23.702  1.00  0.00     0.007 C 
ENDBRANCH   9  11
BRANCH   9  13
ATOM     13  N   UNL A   1      31.966  26.079  22.351  1.00  0.00    -0.339 N 
ATOM     14  C   UNL A   1      32.880  25.169  21.868  1.00  0.00     0.263 C 
ATOM     15  H   UNL A   1      31.253  26.317  21.714  1.00  0.00     0.164 HD
ATOM     16  O   UNL A   1      33.058  25.157  20.646  1.00  0.00    -0.271 OA
BRANCH  14  17
ATOM     17  C   UNL A   1      33.537  24.120  22.781  1.00  0.00     0.281 C 
ATOM     18  C   UNL A   1      32.825  22.770  22.567  1.00  0.00     0.168 C 
ATOM     19  O   UNL A   1      34.946  23.912  22.604  1.00  0.00    -0.477 OA
ATOM     20  N   UNL A   1      33.152  21.927  23.710  1.00  0.00    -0.378 N 
ATOM     21  C   UNL A   1      35.389  22.890  23.437  1.00  0.00     0.143 A 
ATOM     22  C   UNL A   1      34.512  21.947  24.030  1.00  0.00     0.077 A 
ATOM     23  H   UNL A   1      32.485  21.398  24.204  1.00  0.00     0.160 HD
ATOM     24  C   UNL A   1      36.760  22.811  23.666  1.00  0.00     0.049 A 
ATOM     25  C   UNL A   1      35.012  21.071  24.995  1.00  0.00     0.029 A 
ATOM     26  C   UNL A   1      37.256  21.871  24.574  1.00  0.00     0.004 A 
ATOM     27  C   UNL A   1      36.379  21.032  25.265  1.00  0.00     0.002 A 
ENDBRANCH  14  17
ENDBRANCH   9  13
ENDBRANCH   6   9
ENDBRANCH   4   5
ENDBRANCH   3   4
ENDBRANCH   2   3
ENDBRANCH   1   2
BRANCH   1  28
ATOM     28  C   UNL A   1      34.457  30.800  27.573  1.00  0.00     0.021 C 
BRANCH  28  29
ATOM     29  C   UNL A   1      35.339  30.107  28.603  1.00  0.00     0.116 C 
BRANCH  29  30
ATOM     30  N   UNL A   1      35.522  30.918  29.797  1.00  0.00    -0.352 N 
ATOM     31  C   UNL A   1      36.637  31.008  30.598  1.00  0.00     0.251 C 
ATOM     32  H   UNL A   1      34.753  31.472  30.065  1.00  0.00     0.163 HD
ATOM     33  O   UNL A   1      36.593  31.568  31.681  1.00  0.00    -0.269 OA
BRANCH  31  34
ATOM     34  C   UNL A   1      37.884  30.384  30.113  1.00  0.00     0.039 A 
ATOM     35  C   UNL A   1      38.202  30.454  28.757  1.00  0.00     0.014 A 
ATOM     36  C   UNL A   1      38.769  29.809  31.030  1.00  0.00     0.014 A 
ATOM     37  C   UNL A   1      39.448  29.996  28.326  1.00  0.00     0.010 A 
ATOM     38  C   UNL A   1      40.037  29.430  30.610  1.00  0.00     0.010 A 
ATOM     39  C   UNL A   1      40.386  29.512  29.252  1.00  0.00    -0.014 A 
BRANCH  39  40
ATOM     40  C   UNL A   1      41.734  29.062  28.822  1.00  0.00     0.031 A 
ATOM     41  C   UNL A   1      42.859  30.058  28.744  1.00  0.00     0.074 A 
ATOM     42  C   UNL A   1      41.930  27.781  28.446  1.00  0.00     0.049 A 
ATOM     43  N   UNL A   1      44.082  29.891  28.312  1.00  0.00    -0.248 NA
ATOM     44  C   UNL A   1      42.561  31.433  29.180  1.00  0.00     0.031 C 
ATOM     45  C   UNL A   1      40.903  26.735  28.427  1.00  0.00     0.029 A 
ATOM     46  N   UNL A   1      43.059  27.142  27.998  1.00  0.00    -0.354 N 
ATOM     47  C   UNL A   1      44.692  31.135  28.416  1.00  0.00     0.074 A 
ATOM     48  C   UNL A   1      43.689  32.063  28.889  1.00  0.00     0.031 C 
ATOM     49  C   UNL A   1      41.454  25.584  28.008  1.00  0.00     0.029 A 
ATOM     50  C   UNL A   1      42.861  25.814  27.694  1.00  0.00     0.049 A 
ATOM     51  H   UNL A   1      43.929  27.592  27.900  1.00  0.00     0.167 HD
ATOM     52  C   UNL A   1      45.981  31.469  28.172  1.00  0.00     0.037 A 
ATOM     53  C   UNL A   1      43.716  24.893  27.210  1.00  0.00     0.037 A 
ATOM     54  C   UNL A   1      46.983  30.533  27.735  1.00  0.00     0.049 A 
ATOM     55  C   UNL A   1      45.146  25.289  26.952  1.00  0.00     0.074 A 
ATOM     56  C   UNL A   1      48.327  30.761  27.499  1.00  0.00     0.029 A 
ATOM     57  N   UNL A   1      46.753  29.190  27.477  1.00  0.00    -0.354 N 
ATOM     58  N   UNL A   1      45.718  26.460  27.107  1.00  0.00    -0.248 NA
ATOM     59  C   UNL A   1      46.051  24.239  26.461  1.00  0.00     0.031 C 
ATOM     60  C   UNL A   1      48.903  29.564  27.066  1.00  0.00     0.029 A 
ATOM     61  C   UNL A   1      47.929  28.579  27.078  1.00  0.00     0.049 A 
ATOM     62  H   UNL A   1      45.882  28.739  27.565  1.00  0.00     0.167 HD
ATOM     63  C   UNL A   1      47.054  26.278  26.766  1.00  0.00     0.074 A 
ATOM     64  C   UNL A   1      47.209  24.883  26.408  1.00  0.00     0.031 C 
ATOM     65  C   UNL A   1      48.064  27.183  26.748  1.00  0.00     0.037 A 
BRANCH  52  66
ATOM     66  C   UNL A   1      46.390  32.897  28.402  1.00  0.00     0.058 A 
ATOM     67  C   UNL A   1      46.883  33.326  29.645  1.00  0.00     0.135 A 
ATOM     68  C   UNL A   1      46.343  33.833  27.357  1.00  0.00     0.135 A 
ATOM     69  F   UNL A   1      46.929  32.476  30.684  1.00  0.00    -0.206 F 
ATOM     70  C   UNL A   1      47.300  34.636  29.849  1.00  0.00     0.059 A 
ATOM     71  C   UNL A   1      46.782  35.144  27.531  1.00  0.00     0.059 A 
ATOM     72  F   UNL A   1      45.875  33.478  26.150  1.00  0.00    -0.206 F 
ATOM     73  C   UNL A   1      47.251  35.537  28.785  1.00  0.00     0.060 A 
BRANCH  73  74
ATOM     74  S   UNL A   1      47.832  37.223  29.059  1.00  0.00     0.124 S 
ATOM     75  O   UNL A   1      47.672  37.806  27.730  1.00  0.00    -0.237 OA
ATOM     76  O   UNL A   1      46.908  37.708  30.079  1.00  0.00    -0.237 OA
ATOM     77  O   UNL A   1      49.211  37.040  29.501  1.00  0.00    -0.744 OA
ENDBRANCH  73  74
ENDBRANCH  52  66
BRANCH  53  78
ATOM     78  C   UNL A   1      43.255  23.502  26.945  1.00  0.00     0.058 A 
ATOM     79  C   UNL A   1      43.090  22.581  27.991  1.00  0.00     0.135 A 
ATOM     80  C   UNL A   1      42.997  23.057  25.640  1.00  0.00     0.135 A 
ATOM     81  F   UNL A   1      43.327  22.957  29.257  1.00  0.00    -0.206 F 
ATOM     82  C   UNL A   1      42.721  21.261  27.751  1.00  0.00     0.059 A 
ATOM     83  C   UNL A   1      42.600  21.750  25.376  1.00  0.00     0.059 A 
ATOM     84  F   UNL A   1      43.119  23.902  24.604  1.00  0.00    -0.206 F 
ATOM     85  C   UNL A   1      42.482  20.853  26.438  1.00  0.00     0.060 A 
BRANCH  85  86
ATOM     86  S   UNL A   1      41.994  19.142  26.135  1.00  0.00     0.124 S 
ATOM     87  O   UNL A   1      42.820  18.802  24.982  1.00  0.00    -0.237 OA
ATOM     88  O   UNL A   1      42.352  18.493  27.391  1.00  0.00    -0.237 OA
ATOM     89  O   UNL A   1      40.560  19.245  25.877  1.00  0.00    -0.744 OA
ENDBRANCH  85  86
ENDBRANCH  53  78
BRANCH  65  90
ATOM     90  C   UNL A   1      49.434  26.688  26.376  1.00  0.00     0.058 A 
ATOM     91  C   UNL A   1      49.957  26.860  25.086  1.00  0.00     0.135 A 
ATOM     92  C   UNL A   1      50.254  26.085  27.344  1.00  0.00     0.135 A 
ATOM     93  F   UNL A   1      49.211  27.425  24.124  1.00  0.00    -0.206 F 
ATOM     94  C   UNL A   1      51.239  26.430  24.761  1.00  0.00     0.059 A 
ATOM     95  C   UNL A   1      51.549  25.674  27.049  1.00  0.00     0.059 A 
ATOM     96  F   UNL A   1      49.805  25.907  28.596  1.00  0.00    -0.206 F 
ATOM     97  C   UNL A   1      52.029  25.840  25.750  1.00  0.00     0.060 A 
BRANCH  97  98
ATOM     98  S   UNL A   1      53.704  25.320  25.323  1.00  0.00     0.124 S 
ATOM     99  O   UNL A   1      53.766  25.662  23.906  1.00  0.00    -0.237 OA
ATOM    100  O   UNL A   1      54.522  26.142  26.210  1.00  0.00    -0.237 OA
ATOM    101  O   UNL A   1      53.704  23.892  25.625  1.00  0.00    -0.744 OA
ENDBRANCH  97  98
ENDBRANCH  65  90
ENDBRANCH  39  40
ENDBRANCH  31  34
ENDBRANCH  29  30
ENDBRANCH  28  29
ENDBRANCH   1  28
TORSDOF 19
ENDMDL
