MODEL 1
REMARK VINA RESULT:     -12.3      0.000      0.000
REMARK SMILES COc1ccc2c(c1)c(CC(=O)NCCCCCCNC(=O)c1ccc(-c3c4nc(c(-c5c(F)cc(S(=O)(=O)[O-])cc5F)c5ccc([nH]5)c(-c5c(F)cc(S(=O)(=O)[O-])cc5F)c5nc(c(-c6c(F)cc(S(=O)(=O)[O-])cc6F)c6ccc3[nH]6)C=C5)C=C4)cc1)c(C)n2Cc1ccn(C(F)F)c(=O)c1
REMARK SMILES IDX 16 1 15 2 14 3 13 4 11 5 12 6 10 8 9 9 3 10 4 11 8 12 5 13
REMARK SMILES IDX 7 14 6 15 91 16 89 17 90 18 2 19 1 20 92 21 93 22 94 23
REMARK SMILES IDX 102 24 95 25 100 26 96 27 101 28 97 29 98 30 99 31 17 32
REMARK SMILES IDX 18 33 19 34 20 35 21 36 22 38 23 39 24 40 88 41 25 42 87 43
REMARK SMILES IDX 26 44 27 45 28 46 81 47 29 48 86 49 80 50 82 51 30 52 85 53
REMARK SMILES IDX 79 54 78 55 31 57 65 58 44 59 64 60 45 61 48 62 63 63 83 64
REMARK SMILES IDX 46 65 47 66 62 68 84 69 49 70 32 71 33 72 42 73 34 74 35 75
REMARK SMILES IDX 41 76 43 77 36 78 37 79 38 80 39 81 40 82 66 83 67 84 76 85
REMARK SMILES IDX 68 86 69 87 75 88 77 89 70 90 71 91 72 92 73 93 74 94 50 95
REMARK SMILES IDX 51 96 60 97 52 98 53 99 59 100 61 101 54 102 55 103 56 104
REMARK SMILES IDX 57 105 58 106
REMARK H PARENT 13 7 20 37 82 56 48 67
REMARK Flexibility Score: inf
ROOT
ATOM      1  C   UNL A   1      39.517  21.644  25.999  1.00  0.00     0.002 C 
ENDROOT
BRANCH   1   2
ATOM      2  C   UNL A   1      39.157  22.970  26.684  1.00  0.00     0.021 C 
BRANCH   2   3
ATOM      3  C   UNL A   1      38.111  23.797  25.932  1.00  0.00     0.116 C 
BRANCH   3   4
ATOM      4  N   UNL A   1      37.736  23.172  24.677  1.00  0.00    -0.356 N 
ATOM      5  C   UNL A   1      36.613  23.347  23.919  1.00  0.00     0.224 C 
ATOM      6  O   UNL A   1      36.477  22.655  22.907  1.00  0.00    -0.275 OA
ATOM      7  H   UNL A   1      38.386  22.526  24.319  1.00  0.00     0.163 HD
BRANCH   5   8
ATOM      8  C   UNL A   1      35.601  24.428  24.270  1.00  0.00     0.138 C 
BRANCH   8   9
ATOM      9  C   UNL A   1      34.210  23.910  24.477  1.00  0.00    -0.010 A 
ATOM     10  C   UNL A   1      31.449  25.746  22.588  1.00  0.00     0.119 A 
ATOM     11  C   UNL A   1      30.416  24.894  22.963  1.00  0.00     0.048 A 
ATOM     12  C   UNL A   1      32.756  25.487  23.002  1.00  0.00     0.057 A 
ATOM     13  C   UNL A   1      30.658  23.785  23.789  1.00  0.00     0.031 A 
ATOM     14  C   UNL A   1      33.020  24.400  23.864  1.00  0.00     0.007 A 
ATOM     15  C   UNL A   1      31.971  23.561  24.248  1.00  0.00     0.049 A 
ATOM     16  N   UNL A   1      32.516  22.576  25.064  1.00  0.00    -0.340 N 
ATOM     17  C   UNL A   1      33.832  22.895  25.348  1.00  0.00     0.020 A 
ATOM     18  C   UNL A   1      34.684  22.205  26.357  1.00  0.00     0.065 C 
BRANCH  10  19
ATOM     19  O   UNL A   1      31.289  26.818  21.750  1.00  0.00    -0.497 OA
ATOM     20  C   UNL A   1      30.523  27.880  22.308  1.00  0.00     0.278 C 
ENDBRANCH  10  19
BRANCH  16  21
ATOM     21  C   UNL A   1      31.782  21.413  25.580  1.00  0.00     0.158 C 
BRANCH  21  22
ATOM     22  C   UNL A   1      32.261  20.092  25.013  1.00  0.00    -0.021 A 
ATOM     23  C   UNL A   1      32.781  19.078  25.911  1.00  0.00     0.024 A 
ATOM     24  C   UNL A   1      32.164  19.788  23.707  1.00  0.00     0.077 A 
ATOM     25  C   UNL A   1      33.294  17.937  25.439  1.00  0.00     0.095 A 
ATOM     26  C   UNL A   1      32.640  18.475  23.171  1.00  0.00     0.255 A 
ATOM     27  N   UNL A   1      33.275  17.650  24.089  1.00  0.00    -0.258 N 
ATOM     28  O   UNL A   1      32.449  18.233  21.990  1.00  0.00    -0.269 OA
BRANCH  27  29
ATOM     29  C   UNL A   1      33.749  16.363  23.635  1.00  0.00     0.451 C 
ATOM     30  F   UNL A   1      35.078  16.246  23.859  1.00  0.00    -0.185 F 
ATOM     31  F   UNL A   1      33.132  15.339  24.267  1.00  0.00    -0.185 F 
ENDBRANCH  27  29
ENDBRANCH  21  22
ENDBRANCH  16  21
ENDBRANCH   8   9
ENDBRANCH   5   8
ENDBRANCH   3   4
ENDBRANCH   2   3
ENDBRANCH   1   2
BRANCH   1  32
ATOM     32  C   UNL A   1      40.416  20.705  26.818  1.00  0.00     0.002 C 
BRANCH  32  33
ATOM     33  C   UNL A   1      41.060  19.561  26.027  1.00  0.00     0.021 C 
BRANCH  33  34
ATOM     34  C   UNL A   1      42.525  19.316  26.371  1.00  0.00     0.116 C 
BRANCH  34  35
ATOM     35  N   UNL A   1      43.434  19.516  25.267  1.00  0.00    -0.352 N 
ATOM     36  C   UNL A   1      44.337  20.488  24.934  1.00  0.00     0.251 C 
ATOM     37  H   UNL A   1      43.396  18.788  24.605  1.00  0.00     0.163 HD
ATOM     38  O   UNL A   1      45.175  20.167  24.085  1.00  0.00    -0.269 OA
BRANCH  36  39
ATOM     39  C   UNL A   1      44.322  21.897  25.426  1.00  0.00     0.039 A 
ATOM     40  C   UNL A   1      45.132  22.440  26.422  1.00  0.00     0.014 A 
ATOM     41  C   UNL A   1      43.314  22.712  24.871  1.00  0.00     0.014 A 
ATOM     42  C   UNL A   1      44.857  23.705  26.940  1.00  0.00     0.010 A 
ATOM     43  C   UNL A   1      43.048  23.982  25.371  1.00  0.00     0.010 A 
ATOM     44  C   UNL A   1      43.777  24.451  26.455  1.00  0.00    -0.014 A 
BRANCH  44  45
ATOM     45  C   UNL A   1      43.495  25.746  27.072  1.00  0.00     0.031 A 
ATOM     46  C   UNL A   1      44.501  26.807  26.778  1.00  0.00     0.074 A 
ATOM     47  C   UNL A   1      42.392  26.007  27.806  1.00  0.00     0.049 A 
ATOM     48  N   UNL A   1      45.335  27.353  27.601  1.00  0.00    -0.248 NA
ATOM     49  C   UNL A   1      44.707  27.200  25.376  1.00  0.00     0.031 C 
ATOM     50  C   UNL A   1      41.206  25.171  28.013  1.00  0.00     0.029 A 
ATOM     51  N   UNL A   1      42.071  27.145  28.487  1.00  0.00    -0.354 N 
ATOM     52  C   UNL A   1      46.037  28.310  26.869  1.00  0.00     0.074 A 
ATOM     53  C   UNL A   1      45.714  28.069  25.487  1.00  0.00     0.031 C 
ATOM     54  C   UNL A   1      40.217  25.916  28.560  1.00  0.00     0.029 A 
ATOM     55  C   UNL A   1      40.740  27.232  28.884  1.00  0.00     0.049 A 
ATOM     56  H   UNL A   1      42.730  27.849  28.683  1.00  0.00     0.167 HD
ATOM     57  C   UNL A   1      46.681  29.344  27.482  1.00  0.00     0.037 A 
ATOM     58  C   UNL A   1      40.113  28.318  29.410  1.00  0.00     0.037 A 
ATOM     59  C   UNL A   1      46.859  29.085  28.887  1.00  0.00     0.049 A 
ATOM     60  C   UNL A   1      41.172  29.184  29.992  1.00  0.00     0.074 A 
ATOM     61  C   UNL A   1      47.537  28.134  29.623  1.00  0.00     0.029 A 
ATOM     62  N   UNL A   1      45.985  29.682  29.764  1.00  0.00    -0.354 N 
ATOM     63  N   UNL A   1      41.891  28.846  31.029  1.00  0.00    -0.248 NA
ATOM     64  C   UNL A   1      41.753  30.206  29.134  1.00  0.00     0.031 C 
ATOM     65  C   UNL A   1      46.697  27.868  30.742  1.00  0.00     0.029 A 
ATOM     66  C   UNL A   1      45.593  28.719  30.657  1.00  0.00     0.049 A 
ATOM     67  H   UNL A   1      45.696  30.622  29.753  1.00  0.00     0.167 HD
ATOM     68  C   UNL A   1      43.173  29.275  30.722  1.00  0.00     0.074 A 
ATOM     69  C   UNL A   1      43.013  30.165  29.574  1.00  0.00     0.031 C 
ATOM     70  C   UNL A   1      44.274  28.657  31.245  1.00  0.00     0.037 A 
BRANCH  57  71
ATOM     71  C   UNL A   1      46.841  30.732  26.906  1.00  0.00     0.058 A 
ATOM     72  C   UNL A   1      48.115  31.340  26.923  1.00  0.00     0.135 A 
ATOM     73  C   UNL A   1      45.758  31.596  26.633  1.00  0.00     0.135 A 
ATOM     74  F   UNL A   1      49.219  30.612  27.158  1.00  0.00    -0.206 F 
ATOM     75  C   UNL A   1      48.289  32.717  26.785  1.00  0.00     0.059 A 
ATOM     76  C   UNL A   1      45.916  32.966  26.443  1.00  0.00     0.059 A 
ATOM     77  F   UNL A   1      44.489  31.173  26.634  1.00  0.00    -0.206 F 
ATOM     78  C   UNL A   1      47.178  33.523  26.568  1.00  0.00     0.060 A 
BRANCH  78  79
ATOM     79  S   UNL A   1      47.387  35.312  26.523  1.00  0.00     0.124 S 
ATOM     80  O   UNL A   1      46.084  35.745  26.028  1.00  0.00    -0.237 OA
ATOM     81  O   UNL A   1      47.673  35.616  27.922  1.00  0.00    -0.237 OA
ATOM     82  O   UNL A   1      48.506  35.497  25.604  1.00  0.00    -0.744 OA
ENDBRANCH  78  79
ENDBRANCH  57  71
BRANCH  58  83
ATOM     83  C   UNL A   1      38.746  28.831  29.098  1.00  0.00     0.058 A 
ATOM     84  C   UNL A   1      37.790  29.039  30.111  1.00  0.00     0.135 A 
ATOM     85  C   UNL A   1      38.448  29.409  27.847  1.00  0.00     0.135 A 
ATOM     86  F   UNL A   1      37.993  28.543  31.342  1.00  0.00    -0.206 F 
ATOM     87  C   UNL A   1      36.642  29.819  29.914  1.00  0.00     0.059 A 
ATOM     88  C   UNL A   1      37.309  30.183  27.625  1.00  0.00     0.059 A 
ATOM     89  F   UNL A   1      39.306  29.316  26.820  1.00  0.00    -0.206 F 
ATOM     90  C   UNL A   1      36.423  30.410  28.670  1.00  0.00     0.060 A 
BRANCH  90  91
ATOM     91  S   UNL A   1      35.045  31.564  28.458  1.00  0.00     0.124 S 
ATOM     92  O   UNL A   1      34.799  31.999  29.829  1.00  0.00    -0.237 OA
ATOM     93  O   UNL A   1      35.615  32.566  27.565  1.00  0.00    -0.237 OA
ATOM     94  O   UNL A   1      33.995  30.736  27.870  1.00  0.00    -0.744 OA
ENDBRANCH  90  91
ENDBRANCH  58  83
BRANCH  70  95
ATOM     95  C   UNL A   1      44.084  27.666  32.364  1.00  0.00     0.058 A 
ATOM     96  C   UNL A   1      43.996  26.274  32.187  1.00  0.00     0.135 A 
ATOM     97  C   UNL A   1      44.183  28.138  33.682  1.00  0.00     0.135 A 
ATOM     98  F   UNL A   1      44.000  25.733  30.961  1.00  0.00    -0.206 F 
ATOM     99  C   UNL A   1      43.980  25.394  33.272  1.00  0.00     0.059 A 
ATOM    100  C   UNL A   1      44.200  27.278  34.777  1.00  0.00     0.059 A 
ATOM    101  F   UNL A   1      44.332  29.452  33.916  1.00  0.00    -0.206 F 
ATOM    102  C   UNL A   1      44.090  25.906  34.564  1.00  0.00     0.060 A 
BRANCH 102 103
ATOM    103  S   UNL A   1      44.169  24.763  35.961  1.00  0.00     0.124 S 
ATOM    104  O   UNL A   1      45.377  23.999  35.667  1.00  0.00    -0.237 OA
ATOM    105  O   UNL A   1      44.252  25.667  37.105  1.00  0.00    -0.237 OA
ATOM    106  O   UNL A   1      42.918  24.015  35.862  1.00  0.00    -0.744 OA
ENDBRANCH 102 103
ENDBRANCH  70  95
ENDBRANCH  44  45
ENDBRANCH  36  39
ENDBRANCH  34  35
ENDBRANCH  33  34
ENDBRANCH  32  33
ENDBRANCH   1  32
TORSDOF 21
ENDMDL
MODEL 2
REMARK VINA RESULT:     -12.1      2.089      3.792
REMARK SMILES COc1ccc2c(c1)c(CC(=O)NCCCCCCNC(=O)c1ccc(-c3c4nc(c(-c5c(F)cc(S(=O)(=O)[O-])cc5F)c5ccc([nH]5)c(-c5c(F)cc(S(=O)(=O)[O-])cc5F)c5nc(c(-c6c(F)cc(S(=O)(=O)[O-])cc6F)c6ccc3[nH]6)C=C5)C=C4)cc1)c(C)n2Cc1ccn(C(F)F)c(=O)c1
REMARK SMILES IDX 16 1 15 2 14 3 13 4 11 5 12 6 10 8 9 9 3 10 4 11 8 12 5 13
REMARK SMILES IDX 7 14 6 15 91 16 89 17 90 18 2 19 1 20 92 21 93 22 94 23
REMARK SMILES IDX 102 24 95 25 100 26 96 27 101 28 97 29 98 30 99 31 17 32
REMARK SMILES IDX 18 33 19 34 20 35 21 36 22 38 23 39 24 40 88 41 25 42 87 43
REMARK SMILES IDX 26 44 27 45 28 46 81 47 29 48 86 49 80 50 82 51 30 52 85 53
REMARK SMILES IDX 79 54 78 55 31 57 65 58 44 59 64 60 45 61 48 62 63 63 83 64
REMARK SMILES IDX 46 65 47 66 62 68 84 69 49 70 32 71 33 72 42 73 34 74 35 75
REMARK SMILES IDX 41 76 43 77 36 78 37 79 38 80 39 81 40 82 66 83 67 84 76 85
REMARK SMILES IDX 68 86 69 87 75 88 77 89 70 90 71 91 72 92 73 93 74 94 50 95
REMARK SMILES IDX 51 96 60 97 52 98 53 99 59 100 61 101 54 102 55 103 56 104
REMARK SMILES IDX 57 105 58 106
REMARK H PARENT 13 7 20 37 82 56 48 67
REMARK Flexibility Score: inf
ROOT
ATOM      1  C   UNL A   1      39.718  21.726  26.552  1.00  0.00     0.002 C 
ENDROOT
BRANCH   1   2
ATOM      2  C   UNL A   1      39.228  23.174  26.407  1.00  0.00     0.021 C 
BRANCH   2   3
ATOM      3  C   UNL A   1      37.902  23.313  25.655  1.00  0.00     0.116 C 
BRANCH   3   4
ATOM      4  N   UNL A   1      36.765  23.077  26.525  1.00  0.00    -0.356 N 
ATOM      5  C   UNL A   1      35.822  22.089  26.478  1.00  0.00     0.224 C 
ATOM      6  O   UNL A   1      34.899  22.123  27.296  1.00  0.00    -0.275 OA
ATOM      7  H   UNL A   1      36.656  23.725  27.257  1.00  0.00     0.163 HD
BRANCH   5   8
ATOM      8  C   UNL A   1      35.958  20.934  25.498  1.00  0.00     0.138 C 
BRANCH   8   9
ATOM      9  C   UNL A   1      34.754  20.734  24.627  1.00  0.00    -0.010 A 
ATOM     10  C   UNL A   1      33.755  17.111  23.971  1.00  0.00     0.119 A 
ATOM     11  C   UNL A   1      32.591  17.400  23.266  1.00  0.00     0.048 A 
ATOM     12  C   UNL A   1      34.526  18.144  24.501  1.00  0.00     0.057 A 
ATOM     13  C   UNL A   1      32.190  18.727  23.047  1.00  0.00     0.031 A 
ATOM     14  C   UNL A   1      34.166  19.488  24.263  1.00  0.00     0.007 A 
ATOM     15  C   UNL A   1      33.003  19.766  23.539  1.00  0.00     0.049 A 
ATOM     16  N   UNL A   1      32.882  21.150  23.480  1.00  0.00    -0.340 N 
ATOM     17  C   UNL A   1      34.035  21.731  23.978  1.00  0.00     0.020 A 
ATOM     18  C   UNL A   1      34.376  23.179  23.885  1.00  0.00     0.065 C 
BRANCH  10  19
ATOM     19  O   UNL A   1      34.178  15.840  24.256  1.00  0.00    -0.497 OA
ATOM     20  C   UNL A   1      35.124  15.768  25.317  1.00  0.00     0.278 C 
ENDBRANCH  10  19
BRANCH  16  21
ATOM     21  C   UNL A   1      31.728  21.869  22.923  1.00  0.00     0.158 C 
BRANCH  21  22
ATOM     22  C   UNL A   1      31.375  23.131  23.683  1.00  0.00    -0.021 A 
ATOM     23  C   UNL A   1      31.333  24.398  22.978  1.00  0.00     0.024 A 
ATOM     24  C   UNL A   1      31.029  23.119  24.982  1.00  0.00     0.077 A 
ATOM     25  C   UNL A   1      31.113  25.544  23.632  1.00  0.00     0.095 A 
ATOM     26  C   UNL A   1      30.678  24.379  25.710  1.00  0.00     0.255 A 
ATOM     27  N   UNL A   1      30.838  25.552  24.986  1.00  0.00    -0.258 N 
ATOM     28  O   UNL A   1      30.297  24.287  26.865  1.00  0.00    -0.269 OA
BRANCH  27  29
ATOM     29  C   UNL A   1      30.506  26.801  25.629  1.00  0.00     0.451 C 
ATOM     30  F   UNL A   1      31.557  27.249  26.355  1.00  0.00    -0.185 F 
ATOM     31  F   UNL A   1      30.179  27.765  24.739  1.00  0.00    -0.185 F 
ENDBRANCH  27  29
ENDBRANCH  21  22
ENDBRANCH  16  21
ENDBRANCH   8   9
ENDBRANCH   5   8
ENDBRANCH   3   4
ENDBRANCH   2   3
ENDBRANCH   1   2
BRANCH   1  32
ATOM     32  C   UNL A   1      40.769  21.495  27.647  1.00  0.00     0.002 C 
BRANCH  32  33
ATOM     33  C   UNL A   1      41.651  20.256  27.455  1.00  0.00     0.021 C 
BRANCH  33  34
ATOM     34  C   UNL A   1      41.562  19.639  26.063  1.00  0.00     0.116 C 
BRANCH  34  35
ATOM     35  N   UNL A   1      42.798  19.679  25.318  1.00  0.00    -0.352 N 
ATOM     36  C   UNL A   1      43.892  20.499  25.321  1.00  0.00     0.251 C 
ATOM     37  H   UNL A   1      42.869  18.950  24.659  1.00  0.00     0.163 HD
ATOM     38  O   UNL A   1      44.903  20.040  24.779  1.00  0.00    -0.269 OA
BRANCH  36  39
ATOM     39  C   UNL A   1      43.925  21.906  25.819  1.00  0.00     0.039 A 
ATOM     40  C   UNL A   1      44.609  22.377  26.939  1.00  0.00     0.014 A 
ATOM     41  C   UNL A   1      43.099  22.807  25.118  1.00  0.00     0.014 A 
ATOM     42  C   UNL A   1      44.370  23.664  27.420  1.00  0.00     0.010 A 
ATOM     43  C   UNL A   1      42.872  24.098  25.583  1.00  0.00     0.010 A 
ATOM     44  C   UNL A   1      43.455  24.503  26.775  1.00  0.00    -0.014 A 
BRANCH  44  45
ATOM     45  C   UNL A   1      43.195  25.821  27.353  1.00  0.00     0.031 A 
ATOM     46  C   UNL A   1      44.225  26.852  27.036  1.00  0.00     0.074 A 
ATOM     47  C   UNL A   1      42.092  26.125  28.071  1.00  0.00     0.049 A 
ATOM     48  N   UNL A   1      45.064  27.404  27.850  1.00  0.00    -0.248 NA
ATOM     49  C   UNL A   1      44.449  27.200  25.625  1.00  0.00     0.031 C 
ATOM     50  C   UNL A   1      40.888  25.320  28.292  1.00  0.00     0.029 A 
ATOM     51  N   UNL A   1      41.791  27.288  28.716  1.00  0.00    -0.354 N 
ATOM     52  C   UNL A   1      45.791  28.325  27.096  1.00  0.00     0.074 A 
ATOM     53  C   UNL A   1      45.473  28.052  25.719  1.00  0.00     0.031 C 
ATOM     54  C   UNL A   1      39.911  26.100  28.810  1.00  0.00     0.029 A 
ATOM     55  C   UNL A   1      40.459  27.414  29.100  1.00  0.00     0.049 A 
ATOM     56  H   UNL A   1      42.463  27.984  28.897  1.00  0.00     0.167 HD
ATOM     57  C   UNL A   1      46.451  29.363  27.684  1.00  0.00     0.037 A 
ATOM     58  C   UNL A   1      39.850  28.527  29.590  1.00  0.00     0.037 A 
ATOM     59  C   UNL A   1      46.614  29.141  29.097  1.00  0.00     0.049 A 
ATOM     60  C   UNL A   1      40.923  29.388  30.155  1.00  0.00     0.074 A 
ATOM     61  C   UNL A   1      47.268  28.198  29.865  1.00  0.00     0.029 A 
ATOM     62  N   UNL A   1      45.747  29.780  29.951  1.00  0.00    -0.354 N 
ATOM     63  N   UNL A   1      41.628  29.065  31.207  1.00  0.00    -0.248 NA
ATOM     64  C   UNL A   1      41.531  30.372  29.273  1.00  0.00     0.031 C 
ATOM     65  C   UNL A   1      46.415  27.982  30.985  1.00  0.00     0.029 A 
ATOM     66  C   UNL A   1      45.329  28.852  30.867  1.00  0.00     0.049 A 
ATOM     67  H   UNL A   1      45.477  30.726  29.910  1.00  0.00     0.167 HD
ATOM     68  C   UNL A   1      42.921  29.458  30.898  1.00  0.00     0.074 A 
ATOM     69  C   UNL A   1      42.787  30.319  29.724  1.00  0.00     0.031 C 
ATOM     70  C   UNL A   1      44.005  28.834  31.447  1.00  0.00     0.037 A 
BRANCH  57  71
ATOM     71  C   UNL A   1      46.644  30.730  27.070  1.00  0.00     0.058 A 
ATOM     72  C   UNL A   1      47.937  31.297  27.046  1.00  0.00     0.135 A 
ATOM     73  C   UNL A   1      45.585  31.622  26.797  1.00  0.00     0.135 A 
ATOM     74  F   UNL A   1      49.022  30.539  27.277  1.00  0.00    -0.206 F 
ATOM     75  C   UNL A   1      48.153  32.664  26.870  1.00  0.00     0.059 A 
ATOM     76  C   UNL A   1      45.782  32.981  26.569  1.00  0.00     0.059 A 
ATOM     77  F   UNL A   1      44.303  31.242  26.834  1.00  0.00    -0.206 F 
ATOM     78  C   UNL A   1      47.064  33.500  26.655  1.00  0.00     0.060 A 
BRANCH  78  79
ATOM     79  S   UNL A   1      47.329  35.279  26.560  1.00  0.00     0.124 S 
ATOM     80  O   UNL A   1      48.684  35.344  26.023  1.00  0.00    -0.237 OA
ATOM     81  O   UNL A   1      46.262  35.694  25.656  1.00  0.00    -0.237 OA
ATOM     82  O   UNL A   1      47.177  35.716  27.945  1.00  0.00    -0.744 OA
ENDBRANCH  78  79
ENDBRANCH  57  71
BRANCH  58  83
ATOM     83  C   UNL A   1      38.497  29.059  29.254  1.00  0.00     0.058 A 
ATOM     84  C   UNL A   1      37.535  29.306  30.253  1.00  0.00     0.135 A 
ATOM     85  C   UNL A   1      38.222  29.616  27.988  1.00  0.00     0.135 A 
ATOM     86  F   UNL A   1      37.716  28.832  31.495  1.00  0.00    -0.206 F 
ATOM     87  C   UNL A   1      36.403  30.103  30.028  1.00  0.00     0.059 A 
ATOM     88  C   UNL A   1      37.100  30.407  27.738  1.00  0.00     0.059 A 
ATOM     89  F   UNL A   1      39.089  29.486  26.973  1.00  0.00    -0.206 F 
ATOM     90  C   UNL A   1      36.208  30.671  28.769  1.00  0.00     0.060 A 
BRANCH  90  91
ATOM     91  S   UNL A   1      34.854  31.846  28.519  1.00  0.00     0.124 S 
ATOM     92  O   UNL A   1      34.586  32.296  29.881  1.00  0.00    -0.237 OA
ATOM     93  O   UNL A   1      35.460  32.831  27.631  1.00  0.00    -0.237 OA
ATOM     94  O   UNL A   1      33.804  31.030  27.915  1.00  0.00    -0.744 OA
ENDBRANCH  90  91
ENDBRANCH  58  83
BRANCH  70  95
ATOM     95  C   UNL A   1      43.787  27.879  32.592  1.00  0.00     0.058 A 
ATOM     96  C   UNL A   1      43.750  26.479  32.465  1.00  0.00     0.135 A 
ATOM     97  C   UNL A   1      43.803  28.403  33.894  1.00  0.00     0.135 A 
ATOM     98  F   UNL A   1      43.835  25.894  31.262  1.00  0.00    -0.206 F 
ATOM     99  C   UNL A   1      43.704  25.640  33.581  1.00  0.00     0.059 A 
ATOM    100  C   UNL A   1      43.788  27.585  35.021  1.00  0.00     0.059 A 
ATOM    101  F   UNL A   1      43.899  29.729  34.085  1.00  0.00    -0.206 F 
ATOM    102  C   UNL A   1      43.731  26.203  34.856  1.00  0.00     0.060 A 
BRANCH 102 103
ATOM    103  S   UNL A   1      43.772  25.115  36.298  1.00  0.00     0.124 S 
ATOM    104  O   UNL A   1      42.570  25.517  37.021  1.00  0.00    -0.237 OA
ATOM    105  O   UNL A   1      43.734  23.787  35.692  1.00  0.00    -0.237 OA
ATOM    106  O   UNL A   1      45.035  25.456  36.949  1.00  0.00    -0.744 OA
ENDBRANCH 102 103
ENDBRANCH  70  95
ENDBRANCH  44  45
ENDBRANCH  36  39
ENDBRANCH  34  35
ENDBRANCH  33  34
ENDBRANCH  32  33
ENDBRANCH   1  32
TORSDOF 21
ENDMDL
MODEL 3
REMARK VINA RESULT:     -11.7      3.579      5.190
REMARK SMILES COc1ccc2c(c1)c(CC(=O)NCCCCCCNC(=O)c1ccc(-c3c4nc(c(-c5c(F)cc(S(=O)(=O)[O-])cc5F)c5ccc([nH]5)c(-c5c(F)cc(S(=O)(=O)[O-])cc5F)c5nc(c(-c6c(F)cc(S(=O)(=O)[O-])cc6F)c6ccc3[nH]6)C=C5)C=C4)cc1)c(C)n2Cc1ccn(C(F)F)c(=O)c1
REMARK SMILES IDX 16 1 15 2 14 3 13 4 11 5 12 6 10 8 9 9 3 10 4 11 8 12 5 13
REMARK SMILES IDX 7 14 6 15 91 16 89 17 90 18 2 19 1 20 92 21 93 22 94 23
REMARK SMILES IDX 102 24 95 25 100 26 96 27 101 28 97 29 98 30 99 31 17 32
REMARK SMILES IDX 18 33 19 34 20 35 21 36 22 38 23 39 24 40 88 41 25 42 87 43
REMARK SMILES IDX 26 44 27 45 28 46 81 47 29 48 86 49 80 50 82 51 30 52 85 53
REMARK SMILES IDX 79 54 78 55 31 57 65 58 44 59 64 60 45 61 48 62 63 63 83 64
REMARK SMILES IDX 46 65 47 66 62 68 84 69 49 70 32 71 33 72 42 73 34 74 35 75
REMARK SMILES IDX 41 76 43 77 36 78 37 79 38 80 39 81 40 82 66 83 67 84 76 85
REMARK SMILES IDX 68 86 69 87 75 88 77 89 70 90 71 91 72 92 73 93 74 94 50 95
REMARK SMILES IDX 51 96 60 97 52 98 53 99 59 100 61 101 54 102 55 103 56 104
REMARK SMILES IDX 57 105 58 106
REMARK H PARENT 13 7 20 37 82 56 48 67
REMARK Flexibility Score: inf
ROOT
ATOM      1  C   UNL A   1      39.481  24.011  26.505  1.00  0.00     0.002 C 
ENDROOT
BRANCH   1   2
ATOM      2  C   UNL A   1      37.961  24.222  26.456  1.00  0.00     0.021 C 
BRANCH   2   3
ATOM      3  C   UNL A   1      37.285  23.602  25.231  1.00  0.00     0.116 C 
BRANCH   3   4
ATOM      4  N   UNL A   1      36.105  22.840  25.598  1.00  0.00    -0.356 N 
ATOM      5  C   UNL A   1      34.791  23.074  25.306  1.00  0.00     0.224 C 
ATOM      6  O   UNL A   1      33.943  22.316  25.782  1.00  0.00    -0.275 OA
ATOM      7  H   UNL A   1      36.277  22.036  26.139  1.00  0.00     0.163 HD
BRANCH   5   8
ATOM      8  C   UNL A   1      34.396  24.190  24.350  1.00  0.00     0.138 C 
BRANCH   8   9
ATOM      9  C   UNL A   1      33.142  24.910  24.745  1.00  0.00    -0.010 A 
ATOM     10  C   UNL A   1      33.620  28.073  26.825  1.00  0.00     0.119 A 
ATOM     11  C   UNL A   1      32.281  28.445  26.846  1.00  0.00     0.048 A 
ATOM     12  C   UNL A   1      34.021  26.937  26.121  1.00  0.00     0.057 A 
ATOM     13  C   UNL A   1      31.306  27.673  26.193  1.00  0.00     0.031 A 
ATOM     14  C   UNL A   1      33.057  26.123  25.489  1.00  0.00     0.007 A 
ATOM     15  C   UNL A   1      31.711  26.498  25.531  1.00  0.00     0.049 A 
ATOM     16  N   UNL A   1      31.000  25.542  24.815  1.00  0.00    -0.340 N 
ATOM     17  C   UNL A   1      31.841  24.489  24.498  1.00  0.00     0.020 A 
ATOM     18  C   UNL A   1      31.405  23.184  23.927  1.00  0.00     0.065 C 
BRANCH  10  19
ATOM     19  O   UNL A   1      34.624  28.803  27.403  1.00  0.00    -0.497 OA
ATOM     20  C   UNL A   1      34.341  30.193  27.515  1.00  0.00     0.278 C 
ENDBRANCH  10  19
BRANCH  16  21
ATOM     21  C   UNL A   1      29.568  25.623  24.498  1.00  0.00     0.158 C 
BRANCH  21  22
ATOM     22  C   UNL A   1      29.178  26.892  23.768  1.00  0.00    -0.021 A 
ATOM     23  C   UNL A   1      30.170  27.590  22.972  1.00  0.00     0.024 A 
ATOM     24  C   UNL A   1      27.921  27.371  23.771  1.00  0.00     0.077 A 
ATOM     25  C   UNL A   1      29.888  28.759  22.388  1.00  0.00     0.095 A 
ATOM     26  C   UNL A   1      27.560  28.625  23.039  1.00  0.00     0.255 A 
ATOM     27  N   UNL A   1      28.620  29.302  22.455  1.00  0.00    -0.258 N 
ATOM     28  O   UNL A   1      26.386  28.959  23.018  1.00  0.00    -0.269 OA
BRANCH  27  29
ATOM     29  C   UNL A   1      28.334  30.515  21.724  1.00  0.00     0.451 C 
ATOM     30  F   UNL A   1      29.428  31.311  21.687  1.00  0.00    -0.185 F 
ATOM     31  F   UNL A   1      27.961  30.268  20.447  1.00  0.00    -0.185 F 
ENDBRANCH  27  29
ENDBRANCH  21  22
ENDBRANCH  16  21
ENDBRANCH   8   9
ENDBRANCH   5   8
ENDBRANCH   3   4
ENDBRANCH   2   3
ENDBRANCH   1   2
BRANCH   1  32
ATOM     32  C   UNL A   1      39.940  22.671  27.099  1.00  0.00     0.002 C 
BRANCH  32  33
ATOM     33  C   UNL A   1      40.682  21.745  26.129  1.00  0.00     0.021 C 
BRANCH  33  34
ATOM     34  C   UNL A   1      42.197  21.750  26.303  1.00  0.00     0.116 C 
BRANCH  34  35
ATOM     35  N   UNL A   1      42.906  22.499  25.292  1.00  0.00    -0.352 N 
ATOM     36  C   UNL A   1      43.318  23.798  25.176  1.00  0.00     0.251 C 
ATOM     37  H   UNL A   1      43.148  21.951  24.511  1.00  0.00     0.163 HD
ATOM     38  O   UNL A   1      44.185  24.007  24.320  1.00  0.00    -0.269 OA
BRANCH  36  39
ATOM     39  C   UNL A   1      42.741  24.964  25.907  1.00  0.00     0.039 A 
ATOM     40  C   UNL A   1      42.003  26.011  25.355  1.00  0.00     0.014 A 
ATOM     41  C   UNL A   1      43.071  25.033  27.275  1.00  0.00     0.014 A 
ATOM     42  C   UNL A   1      41.722  27.148  26.111  1.00  0.00     0.010 A 
ATOM     43  C   UNL A   1      42.776  26.157  28.039  1.00  0.00     0.010 A 
ATOM     44  C   UNL A   1      42.161  27.246  27.435  1.00  0.00    -0.014 A 
BRANCH  44  45
ATOM     45  C   UNL A   1      41.892  28.483  28.166  1.00  0.00     0.031 A 
ATOM     46  C   UNL A   1      42.974  29.506  28.075  1.00  0.00     0.074 A 
ATOM     47  C   UNL A   1      40.742  28.732  28.830  1.00  0.00     0.049 A 
ATOM     48  N   UNL A   1      43.758  29.910  29.021  1.00  0.00    -0.248 NA
ATOM     49  C   UNL A   1      43.324  30.031  26.747  1.00  0.00     0.031 C 
ATOM     50  C   UNL A   1      39.501  27.953  28.842  1.00  0.00     0.029 A 
ATOM     51  N   UNL A   1      40.421  29.810  29.602  1.00  0.00    -0.354 N 
ATOM     52  C   UNL A   1      44.571  30.894  28.460  1.00  0.00     0.074 A 
ATOM     53  C   UNL A   1      44.361  30.821  27.037  1.00  0.00     0.031 C 
ATOM     54  C   UNL A   1      38.507  28.696  29.384  1.00  0.00     0.029 A 
ATOM     55  C   UNL A   1      39.066  29.936  29.894  1.00  0.00     0.049 A 
ATOM     56  H   UNL A   1      41.096  30.448  29.929  1.00  0.00     0.167 HD
ATOM     57  C   UNL A   1      45.210  31.817  29.235  1.00  0.00     0.037 A 
ATOM     58  C   UNL A   1      38.451  30.997  30.482  1.00  0.00     0.037 A 
ATOM     59  C   UNL A   1      45.247  31.401  30.612  1.00  0.00     0.049 A 
ATOM     60  C   UNL A   1      39.497  31.731  31.242  1.00  0.00     0.074 A 
ATOM     61  C   UNL A   1      45.807  30.339  31.293  1.00  0.00     0.029 A 
ATOM     62  N   UNL A   1      44.331  31.954  31.474  1.00  0.00    -0.354 N 
ATOM     63  N   UNL A   1      40.102  31.242  32.292  1.00  0.00    -0.248 NA
ATOM     64  C   UNL A   1      40.205  32.799  30.554  1.00  0.00     0.031 C 
ATOM     65  C   UNL A   1      44.857  30.008  32.302  1.00  0.00     0.029 A 
ATOM     66  C   UNL A   1      43.811  30.928  32.220  1.00  0.00     0.049 A 
ATOM     67  H   UNL A   1      44.093  32.907  31.543  1.00  0.00     0.167 HD
ATOM     68  C   UNL A   1      41.427  31.621  32.143  1.00  0.00     0.074 A 
ATOM     69  C   UNL A   1      41.417  32.636  31.090  1.00  0.00     0.031 C 
ATOM     70  C   UNL A   1      42.443  30.886  32.685  1.00  0.00     0.037 A 
BRANCH  57  71
ATOM     71  C   UNL A   1      45.492  33.245  28.830  1.00  0.00     0.058 A 
ATOM     72  C   UNL A   1      46.800  33.757  28.983  1.00  0.00     0.135 A 
ATOM     73  C   UNL A   1      44.486  34.208  28.604  1.00  0.00     0.135 A 
ATOM     74  F   UNL A   1      47.839  32.931  29.189  1.00  0.00    -0.206 F 
ATOM     75  C   UNL A   1      47.070  35.125  29.013  1.00  0.00     0.059 A 
ATOM     76  C   UNL A   1      44.742  35.576  28.580  1.00  0.00     0.059 A 
ATOM     77  F   UNL A   1      43.194  33.879  28.490  1.00  0.00    -0.206 F 
ATOM     78  C   UNL A   1      46.027  36.027  28.833  1.00  0.00     0.060 A 
BRANCH  78  79
ATOM     79  S   UNL A   1      46.353  37.790  29.004  1.00  0.00     0.124 S 
ATOM     80  O   UNL A   1      46.993  37.842  30.314  1.00  0.00    -0.237 OA
ATOM     81  O   UNL A   1      47.219  38.048  27.858  1.00  0.00    -0.237 OA
ATOM     82  O   UNL A   1      45.023  38.386  28.927  1.00  0.00    -0.744 OA
ENDBRANCH  78  79
ENDBRANCH  57  71
BRANCH  58  83
ATOM     83  C   UNL A   1      37.146  31.622  30.115  1.00  0.00     0.058 A 
ATOM     84  C   UNL A   1      36.049  31.604  30.999  1.00  0.00     0.135 A 
ATOM     85  C   UNL A   1      37.038  32.506  29.023  1.00  0.00     0.135 A 
ATOM     86  F   UNL A   1      36.066  30.807  32.079  1.00  0.00    -0.206 F 
ATOM     87  C   UNL A   1      34.942  32.451  30.842  1.00  0.00     0.059 A 
ATOM     88  C   UNL A   1      35.945  33.354  28.842  1.00  0.00     0.059 A 
ATOM     89  F   UNL A   1      38.041  32.643  28.142  1.00  0.00    -0.206 F 
ATOM     90  C   UNL A   1      34.912  33.343  29.770  1.00  0.00     0.060 A 
BRANCH  90  91
ATOM     91  S   UNL A   1      33.580  34.564  29.661  1.00  0.00     0.124 S 
ATOM     92  O   UNL A   1      34.252  35.689  29.019  1.00  0.00    -0.237 OA
ATOM     93  O   UNL A   1      32.589  33.868  28.849  1.00  0.00    -0.237 OA
ATOM     94  O   UNL A   1      33.200  34.779  31.055  1.00  0.00    -0.744 OA
ENDBRANCH  90  91
ENDBRANCH  58  83
BRANCH  70  95
ATOM     95  C   UNL A   1      42.103  29.796  33.668  1.00  0.00     0.058 A 
ATOM     96  C   UNL A   1      41.677  28.504  33.308  1.00  0.00     0.135 A 
ATOM     97  C   UNL A   1      42.401  30.016  35.021  1.00  0.00     0.135 A 
ATOM     98  F   UNL A   1      41.468  28.180  32.025  1.00  0.00    -0.206 F 
ATOM     99  C   UNL A   1      41.529  27.488  34.255  1.00  0.00     0.059 A 
ATOM    100  C   UNL A   1      42.290  29.011  35.977  1.00  0.00     0.059 A 
ATOM    101  F   UNL A   1      42.872  31.210  35.420  1.00  0.00    -0.206 F 
ATOM    102  C   UNL A   1      41.846  27.749  35.588  1.00  0.00     0.060 A 
BRANCH 102 103
ATOM    103  S   UNL A   1      41.750  26.409  36.795  1.00  0.00     0.124 S 
ATOM    104  O   UNL A   1      40.400  26.568  37.326  1.00  0.00    -0.237 OA
ATOM    105  O   UNL A   1      41.971  25.224  35.969  1.00  0.00    -0.237 OA
ATOM    106  O   UNL A   1      42.829  26.712  37.731  1.00  0.00    -0.744 OA
ENDBRANCH 102 103
ENDBRANCH  70  95
ENDBRANCH  44  45
ENDBRANCH  36  39
ENDBRANCH  34  35
ENDBRANCH  33  34
ENDBRANCH  32  33
ENDBRANCH   1  32
TORSDOF 21
ENDMDL
