MODEL 1
REMARK VINA RESULT:     -11.2      0.000      0.000
REMARK SMILES COc1cc(Nc2cn[nH]c(=O)n2)c(C(=O)NCCCCCCNC(=O)c2ccc(-c3c4nc(c(-c5c(F)cc(S(=O)(=O)[O-])cc5F)c5ccc([nH]5)c(-c5c(F)cc(S(=O)(=O)[O-])cc5F)c5nc(c(-c6c(F)cc(S(=O)(=O)[O-])cc6F)c6ccc3[nH]6)C=C5)C=C4)cc2)cc1OC
REMARK SMILES IDX 21 1 20 2 19 3 18 4 17 5 15 6 16 7 14 9 3 10 4 11 94 12 5 13
REMARK SMILES IDX 93 14 2 15 1 16 95 17 96 18 6 19 7 21 8 22 13 23 9 24 11 25
REMARK SMILES IDX 10 26 12 27 22 29 23 30 24 31 25 32 26 34 27 35 28 36 92 37
REMARK SMILES IDX 29 38 91 39 30 40 31 41 32 42 85 43 33 44 90 45 84 46 86 47
REMARK SMILES IDX 34 48 89 49 83 50 82 51 35 53 69 54 48 55 68 56 49 57 52 58
REMARK SMILES IDX 67 59 87 60 50 61 51 62 66 64 88 65 53 66 36 67 37 68 46 69
REMARK SMILES IDX 38 70 39 71 45 72 47 73 40 74 41 75 42 76 43 77 44 78 70 79
REMARK SMILES IDX 71 80 80 81 72 82 73 83 79 84 81 85 74 86 75 87 76 88 77 89
REMARK SMILES IDX 78 90 54 91 55 92 64 93 56 94 57 95 63 96 65 97 58 98 59 99
REMARK SMILES IDX 60 100 61 101 62 102
REMARK H PARENT 17 8 6 20 10 28 24 33 86 52 52 63
REMARK Flexibility Score: inf
ROOT
ATOM      1  C   UNL A   1      40.813  21.842  26.384  1.00  0.00     0.002 C 
ENDROOT
BRANCH   1   2
ATOM      2  C   UNL A   1      39.289  22.015  26.398  1.00  0.00     0.002 C 
BRANCH   2   3
ATOM      3  C   UNL A   1      38.809  23.473  26.394  1.00  0.00     0.021 C 
BRANCH   3   4
ATOM      4  C   UNL A   1      37.357  23.627  25.930  1.00  0.00     0.116 C 
BRANCH   4   5
ATOM      5  N   UNL A   1      37.288  23.476  24.487  1.00  0.00    -0.352 N 
ATOM      6  C   UNL A   1      36.317  22.986  23.654  1.00  0.00     0.253 C 
ATOM      7  O   UNL A   1      36.568  22.937  22.445  1.00  0.00    -0.269 OA
ATOM      8  H   UNL A   1      38.095  23.786  24.015  1.00  0.00     0.163 HD
BRANCH   6   9
ATOM      9  C   UNL A   1      34.951  22.588  24.114  1.00  0.00     0.067 A 
ATOM     10  C   UNL A   1      32.405  21.903  25.084  1.00  0.00     0.162 A 
ATOM     11  C   UNL A   1      32.655  23.200  24.613  1.00  0.00     0.077 A 
ATOM     12  C   UNL A   1      33.397  20.926  24.992  1.00  0.00     0.161 A 
ATOM     13  C   UNL A   1      33.911  23.557  24.095  1.00  0.00     0.057 A 
ATOM     14  C   UNL A   1      34.650  21.272  24.480  1.00  0.00     0.066 A 
BRANCH  10  15
ATOM     15  O   UNL A   1      31.144  21.574  25.502  1.00  0.00    -0.493 OA
ATOM     16  C   UNL A   1      30.554  22.603  26.299  1.00  0.00     0.278 C 
ENDBRANCH  10  15
BRANCH  12  17
ATOM     17  O   UNL A   1      33.290  19.601  25.319  1.00  0.00    -0.493 OA
ATOM     18  C   UNL A   1      34.173  18.705  24.654  1.00  0.00     0.278 C 
ENDBRANCH  12  17
BRANCH  13  19
ATOM     19  N   UNL A   1      34.145  24.837  23.526  1.00  0.00    -0.338 N 
ATOM     20  H   UNL A   1      35.082  25.134  23.471  1.00  0.00     0.168 HD
BRANCH  19  21
ATOM     21  C   UNL A   1      33.191  25.700  23.044  1.00  0.00     0.156 A 
ATOM     22  C   UNL A   1      32.694  25.415  21.644  1.00  0.00     0.180 A 
ATOM     23  N   UNL A   1      32.718  26.711  23.702  1.00  0.00    -0.173 NA
ATOM     24  N   UNL A   1      31.803  26.150  21.067  1.00  0.00    -0.176 NA
ATOM     25  C   UNL A   1      31.800  27.521  23.091  1.00  0.00     0.363 A 
ATOM     26  N   UNL A   1      31.371  27.199  21.819  1.00  0.00    -0.227 N 
ATOM     27  O   UNL A   1      31.345  28.526  23.634  1.00  0.00    -0.244 OA
ATOM     28  H   UNL A   1      30.689  27.784  21.417  1.00  0.00     0.195 HD
ENDBRANCH  19  21
ENDBRANCH  13  19
ENDBRANCH   6   9
ENDBRANCH   4   5
ENDBRANCH   3   4
ENDBRANCH   2   3
ENDBRANCH   1   2
BRANCH   1  29
ATOM     29  C   UNL A   1      41.505  22.054  27.734  1.00  0.00     0.021 C 
BRANCH  29  30
ATOM     30  C   UNL A   1      42.595  23.122  27.728  1.00  0.00     0.116 C 
BRANCH  30  31
ATOM     31  N   UNL A   1      42.592  23.886  26.491  1.00  0.00    -0.352 N 
ATOM     32  C   UNL A   1      42.210  25.187  26.276  1.00  0.00     0.251 C 
ATOM     33  H   UNL A   1      42.909  23.401  25.695  1.00  0.00     0.163 HD
ATOM     34  O   UNL A   1      42.062  25.596  25.128  1.00  0.00    -0.269 OA
BRANCH  32  35
ATOM     35  C   UNL A   1      41.970  26.091  27.423  1.00  0.00     0.039 A 
ATOM     36  C   UNL A   1      42.867  27.137  27.656  1.00  0.00     0.014 A 
ATOM     37  C   UNL A   1      40.890  25.886  28.286  1.00  0.00     0.014 A 
ATOM     38  C   UNL A   1      42.658  28.001  28.735  1.00  0.00     0.010 A 
ATOM     39  C   UNL A   1      40.649  26.784  29.324  1.00  0.00     0.010 A 
ATOM     40  C   UNL A   1      41.538  27.843  29.566  1.00  0.00    -0.014 A 
BRANCH  40  41
ATOM     41  C   UNL A   1      41.295  28.761  30.708  1.00  0.00     0.031 A 
ATOM     42  C   UNL A   1      42.136  28.653  31.952  1.00  0.00     0.074 A 
ATOM     43  C   UNL A   1      40.288  29.652  30.646  1.00  0.00     0.049 A 
ATOM     44  N   UNL A   1      42.042  29.322  33.073  1.00  0.00    -0.248 NA
ATOM     45  C   UNL A   1      43.206  27.642  31.946  1.00  0.00     0.031 C 
ATOM     46  C   UNL A   1      39.373  29.817  29.514  1.00  0.00     0.029 A 
ATOM     47  N   UNL A   1      39.857  30.582  31.559  1.00  0.00    -0.354 N 
ATOM     48  C   UNL A   1      43.025  28.803  33.908  1.00  0.00     0.074 A 
ATOM     49  C   UNL A   1      43.673  27.733  33.183  1.00  0.00     0.031 C 
ATOM     50  C   UNL A   1      38.502  30.800  29.794  1.00  0.00     0.029 A 
ATOM     51  C   UNL A   1      38.776  31.315  31.132  1.00  0.00     0.049 A 
ATOM     52  H   UNL A   1      40.282  30.709  32.438  1.00  0.00     0.167 HD
ATOM     53  C   UNL A   1      43.370  29.198  35.158  1.00  0.00     0.037 A 
ATOM     54  C   UNL A   1      38.085  32.292  31.749  1.00  0.00     0.037 A 
ATOM     55  C   UNL A   1      42.744  30.286  35.861  1.00  0.00     0.049 A 
ATOM     56  C   UNL A   1      38.506  32.734  33.124  1.00  0.00     0.074 A 
ATOM     57  C   UNL A   1      43.058  30.802  37.106  1.00  0.00     0.029 A 
ATOM     58  N   UNL A   1      41.679  31.033  35.378  1.00  0.00    -0.354 N 
ATOM     59  N   UNL A   1      39.474  32.269  33.877  1.00  0.00    -0.248 NA
ATOM     60  C   UNL A   1      37.751  33.840  33.727  1.00  0.00     0.031 C 
ATOM     61  C   UNL A   1      42.164  31.840  37.390  1.00  0.00     0.029 A 
ATOM     62  C   UNL A   1      41.317  31.997  36.304  1.00  0.00     0.049 A 
ATOM     63  H   UNL A   1      41.244  30.897  34.506  1.00  0.00     0.167 HD
ATOM     64  C   UNL A   1      39.461  33.043  35.032  1.00  0.00     0.074 A 
ATOM     65  C   UNL A   1      38.395  34.011  34.874  1.00  0.00     0.031 C 
ATOM     66  C   UNL A   1      40.259  32.959  36.125  1.00  0.00     0.037 A 
BRANCH  53  67
ATOM     67  C   UNL A   1      44.481  28.449  35.840  1.00  0.00     0.058 A 
ATOM     68  C   UNL A   1      45.827  28.806  35.660  1.00  0.00     0.135 A 
ATOM     69  C   UNL A   1      44.198  27.380  36.705  1.00  0.00     0.135 A 
ATOM     70  F   UNL A   1      46.155  29.811  34.831  1.00  0.00    -0.206 F 
ATOM     71  C   UNL A   1      46.856  28.110  36.286  1.00  0.00     0.059 A 
ATOM     72  C   UNL A   1      45.209  26.685  37.363  1.00  0.00     0.059 A 
ATOM     73  F   UNL A   1      42.929  26.996  36.913  1.00  0.00    -0.206 F 
ATOM     74  C   UNL A   1      46.537  27.047  37.134  1.00  0.00     0.060 A 
BRANCH  74  75
ATOM     75  S   UNL A   1      47.881  26.151  37.938  1.00  0.00     0.124 S 
ATOM     76  O   UNL A   1      47.193  25.566  39.087  1.00  0.00    -0.237 OA
ATOM     77  O   UNL A   1      48.295  25.210  36.903  1.00  0.00    -0.237 OA
ATOM     78  O   UNL A   1      48.847  27.199  38.252  1.00  0.00    -0.744 OA
ENDBRANCH  74  75
ENDBRANCH  53  67
BRANCH  54  79
ATOM     79  C   UNL A   1      36.941  32.942  31.056  1.00  0.00     0.058 A 
ATOM     80  C   UNL A   1      37.157  33.907  30.062  1.00  0.00     0.135 A 
ATOM     81  C   UNL A   1      35.615  32.597  31.357  1.00  0.00     0.135 A 
ATOM     82  F   UNL A   1      38.407  34.272  29.742  1.00  0.00    -0.206 F 
ATOM     83  C   UNL A   1      36.098  34.520  29.399  1.00  0.00     0.059 A 
ATOM     84  C   UNL A   1      34.541  33.180  30.694  1.00  0.00     0.059 A 
ATOM     85  F   UNL A   1      35.358  31.665  32.289  1.00  0.00    -0.206 F 
ATOM     86  C   UNL A   1      34.792  34.148  29.723  1.00  0.00     0.060 A 
BRANCH  86  87
ATOM     87  S   UNL A   1      33.425  34.908  28.820  1.00  0.00     0.124 S 
ATOM     88  O   UNL A   1      33.100  33.869  27.850  1.00  0.00    -0.237 OA
ATOM     89  O   UNL A   1      32.441  35.126  29.876  1.00  0.00    -0.237 OA
ATOM     90  O   UNL A   1      34.021  36.123  28.272  1.00  0.00    -0.744 OA
ENDBRANCH  86  87
ENDBRANCH  54  79
BRANCH  66  91
ATOM     91  C   UNL A   1      40.035  33.963  37.220  1.00  0.00     0.058 A 
ATOM     92  C   UNL A   1      40.743  35.173  37.267  1.00  0.00     0.135 A 
ATOM     93  C   UNL A   1      39.067  33.728  38.210  1.00  0.00     0.135 A 
ATOM     94  F   UNL A   1      41.684  35.441  36.347  1.00  0.00    -0.206 F 
ATOM     95  C   UNL A   1      40.518  36.106  38.273  1.00  0.00     0.059 A 
ATOM     96  C   UNL A   1      38.809  34.659  39.212  1.00  0.00     0.059 A 
ATOM     97  F   UNL A   1      38.354  32.591  38.204  1.00  0.00    -0.206 F 
ATOM     98  C   UNL A   1      39.549  35.839  39.242  1.00  0.00     0.060 A 
BRANCH  98  99
ATOM     99  S   UNL A   1      39.246  37.068  40.529  1.00  0.00     0.124 S 
ATOM    100  O   UNL A   1      38.225  37.902  39.904  1.00  0.00    -0.237 OA
ATOM    101  O   UNL A   1      38.796  36.247  41.650  1.00  0.00    -0.237 OA
ATOM    102  O   UNL A   1      40.550  37.699  40.709  1.00  0.00    -0.744 OA
ENDBRANCH  98  99
ENDBRANCH  66  91
ENDBRANCH  40  41
ENDBRANCH  32  35
ENDBRANCH  30  31
ENDBRANCH  29  30
ENDBRANCH   1  29
TORSDOF 20
ENDMDL
MODEL 2
REMARK VINA RESULT:     -11.1      6.349     11.924
REMARK SMILES COc1cc(Nc2cn[nH]c(=O)n2)c(C(=O)NCCCCCCNC(=O)c2ccc(-c3c4nc(c(-c5c(F)cc(S(=O)(=O)[O-])cc5F)c5ccc([nH]5)c(-c5c(F)cc(S(=O)(=O)[O-])cc5F)c5nc(c(-c6c(F)cc(S(=O)(=O)[O-])cc6F)c6ccc3[nH]6)C=C5)C=C4)cc2)cc1OC
REMARK SMILES IDX 21 1 20 2 19 3 18 4 17 5 15 6 16 7 14 9 3 10 4 11 94 12 5 13
REMARK SMILES IDX 93 14 2 15 1 16 95 17 96 18 6 19 7 21 8 22 13 23 9 24 11 25
REMARK SMILES IDX 10 26 12 27 22 29 23 30 24 31 25 32 26 34 27 35 28 36 92 37
REMARK SMILES IDX 29 38 91 39 30 40 31 41 32 42 85 43 33 44 90 45 84 46 86 47
REMARK SMILES IDX 34 48 89 49 83 50 82 51 35 53 69 54 48 55 68 56 49 57 52 58
REMARK SMILES IDX 67 59 87 60 50 61 51 62 66 64 88 65 53 66 36 67 37 68 46 69
REMARK SMILES IDX 38 70 39 71 45 72 47 73 40 74 41 75 42 76 43 77 44 78 70 79
REMARK SMILES IDX 71 80 80 81 72 82 73 83 79 84 81 85 74 86 75 87 76 88 77 89
REMARK SMILES IDX 78 90 54 91 55 92 64 93 56 94 57 95 63 96 65 97 58 98 59 99
REMARK SMILES IDX 60 100 61 101 62 102
REMARK H PARENT 17 8 6 20 10 28 24 33 86 52 52 63
REMARK Flexibility Score: inf
ROOT
ATOM      1  C   UNL A   1      34.007  30.775  27.440  1.00  0.00     0.002 C 
ENDROOT
BRANCH   1   2
ATOM      2  C   UNL A   1      32.548  30.826  26.971  1.00  0.00     0.002 C 
BRANCH   2   3
ATOM      3  C   UNL A   1      31.888  29.453  26.778  1.00  0.00     0.021 C 
BRANCH   3   4
ATOM      4  C   UNL A   1      32.734  28.297  27.320  1.00  0.00     0.116 C 
BRANCH   4   5
ATOM      5  N   UNL A   1      31.917  27.099  27.418  1.00  0.00    -0.352 N 
ATOM      6  C   UNL A   1      31.501  26.185  26.487  1.00  0.00     0.253 C 
ATOM      7  O   UNL A   1      30.756  25.276  26.868  1.00  0.00    -0.269 OA
ATOM      8  H   UNL A   1      31.602  26.907  28.332  1.00  0.00     0.163 HD
BRANCH   6   9
ATOM      9  C   UNL A   1      31.962  26.179  25.065  1.00  0.00     0.067 A 
ATOM     10  C   UNL A   1      32.918  26.249  22.424  1.00  0.00     0.162 A 
ATOM     11  C   UNL A   1      33.621  25.541  23.410  1.00  0.00     0.077 A 
ATOM     12  C   UNL A   1      31.697  26.847  22.734  1.00  0.00     0.161 A 
ATOM     13  C   UNL A   1      33.146  25.467  24.730  1.00  0.00     0.057 A 
ATOM     14  C   UNL A   1      31.218  26.781  24.045  1.00  0.00     0.066 A 
BRANCH  10  15
ATOM     15  O   UNL A   1      33.371  26.225  21.132  1.00  0.00    -0.493 OA
ATOM     16  C   UNL A   1      32.765  25.182  20.367  1.00  0.00     0.278 C 
ENDBRANCH  10  15
BRANCH  12  17
ATOM     17  O   UNL A   1      30.847  27.494  21.876  1.00  0.00    -0.493 OA
ATOM     18  C   UNL A   1      30.298  28.726  22.329  1.00  0.00     0.278 C 
ENDBRANCH  12  17
BRANCH  13  19
ATOM     19  N   UNL A   1      33.797  24.672  25.712  1.00  0.00    -0.338 N 
ATOM     20  H   UNL A   1      34.484  25.118  26.258  1.00  0.00     0.168 HD
BRANCH  19  21
ATOM     21  C   UNL A   1      33.562  23.345  25.971  1.00  0.00     0.156 A 
ATOM     22  C   UNL A   1      34.377  22.739  27.092  1.00  0.00     0.180 A 
ATOM     23  N   UNL A   1      32.713  22.611  25.322  1.00  0.00    -0.173 NA
ATOM     24  N   UNL A   1      34.260  21.501  27.436  1.00  0.00    -0.176 NA
ATOM     25  C   UNL A   1      32.604  21.286  25.651  1.00  0.00     0.363 A 
ATOM     26  N   UNL A   1      33.361  20.796  26.696  1.00  0.00    -0.227 N 
ATOM     27  O   UNL A   1      31.858  20.519  25.048  1.00  0.00    -0.244 OA
ATOM     28  H   UNL A   1      33.240  19.847  26.928  1.00  0.00     0.195 HD
ENDBRANCH  19  21
ENDBRANCH  13  19
ENDBRANCH   6   9
ENDBRANCH   4   5
ENDBRANCH   3   4
ENDBRANCH   2   3
ENDBRANCH   1   2
BRANCH   1  29
ATOM     29  C   UNL A   1      34.595  32.118  27.883  1.00  0.00     0.021 C 
BRANCH  29  30
ATOM     30  C   UNL A   1      35.886  32.012  28.689  1.00  0.00     0.116 C 
BRANCH  30  31
ATOM     31  N   UNL A   1      35.642  31.501  30.028  1.00  0.00    -0.352 N 
ATOM     32  C   UNL A   1      36.370  30.593  30.757  1.00  0.00     0.251 C 
ATOM     33  H   UNL A   1      34.841  31.857  30.476  1.00  0.00     0.163 HD
ATOM     34  O   UNL A   1      35.892  30.110  31.780  1.00  0.00    -0.269 OA
BRANCH  32  35
ATOM     35  C   UNL A   1      37.721  30.190  30.306  1.00  0.00     0.039 A 
ATOM     36  C   UNL A   1      37.964  30.058  28.936  1.00  0.00     0.014 A 
ATOM     37  C   UNL A   1      38.733  29.909  31.229  1.00  0.00     0.014 A 
ATOM     38  C   UNL A   1      39.233  29.679  28.490  1.00  0.00     0.010 A 
ATOM     39  C   UNL A   1      40.013  29.590  30.781  1.00  0.00     0.010 A 
ATOM     40  C   UNL A   1      40.272  29.459  29.408  1.00  0.00    -0.014 A 
BRANCH  40  41
ATOM     41  C   UNL A   1      41.629  29.068  28.949  1.00  0.00     0.031 A 
ATOM     42  C   UNL A   1      42.725  30.097  28.874  1.00  0.00     0.074 A 
ATOM     43  C   UNL A   1      41.860  27.803  28.551  1.00  0.00     0.049 A 
ATOM     44  N   UNL A   1      43.955  29.965  28.447  1.00  0.00    -0.248 NA
ATOM     45  C   UNL A   1      42.387  31.461  29.312  1.00  0.00     0.031 C 
ATOM     46  C   UNL A   1      40.866  26.728  28.531  1.00  0.00     0.029 A 
ATOM     47  N   UNL A   1      43.003  27.207  28.077  1.00  0.00    -0.354 N 
ATOM     48  C   UNL A   1      44.529  31.227  28.548  1.00  0.00     0.074 A 
ATOM     49  C   UNL A   1      43.501  32.122  29.032  1.00  0.00     0.031 C 
ATOM     50  C   UNL A   1      41.447  25.601  28.086  1.00  0.00     0.029 A 
ATOM     51  C   UNL A   1      42.843  25.879  27.762  1.00  0.00     0.049 A 
ATOM     52  H   UNL A   1      43.856  27.687  27.972  1.00  0.00     0.167 HD
ATOM     53  C   UNL A   1      45.804  31.602  28.281  1.00  0.00     0.037 A 
ATOM     54  C   UNL A   1      43.722  24.986  27.268  1.00  0.00     0.037 A 
ATOM     55  C   UNL A   1      46.832  30.700  27.832  1.00  0.00     0.049 A 
ATOM     56  C   UNL A   1      45.139  25.418  27.010  1.00  0.00     0.074 A 
ATOM     57  C   UNL A   1      48.168  30.969  27.589  1.00  0.00     0.029 A 
ATOM     58  N   UNL A   1      46.641  29.353  27.563  1.00  0.00    -0.354 N 
ATOM     59  N   UNL A   1      45.680  26.604  27.164  1.00  0.00    -0.248 NA
ATOM     60  C   UNL A   1      46.070  24.390  26.523  1.00  0.00     0.031 C 
ATOM     61  C   UNL A   1      48.778  29.791  27.145  1.00  0.00     0.029 A 
ATOM     62  C   UNL A   1      47.831  28.779  27.149  1.00  0.00     0.049 A 
ATOM     63  H   UNL A   1      45.786  28.875  27.655  1.00  0.00     0.167 HD
ATOM     64  C   UNL A   1      47.019  26.458  26.817  1.00  0.00     0.074 A 
ATOM     65  C   UNL A   1      47.207  25.068  26.455  1.00  0.00     0.031 C 
ATOM     66  C   UNL A   1      48.003  27.391  26.801  1.00  0.00     0.037 A 
BRANCH  53  67
ATOM     67  C   UNL A   1      46.157  33.051  28.477  1.00  0.00     0.058 A 
ATOM     68  C   UNL A   1      46.046  33.982  27.432  1.00  0.00     0.135 A 
ATOM     69  C   UNL A   1      46.584  33.521  29.729  1.00  0.00     0.135 A 
ATOM     70  F   UNL A   1      45.657  33.583  26.210  1.00  0.00    -0.206 F 
ATOM     71  C   UNL A   1      46.378  35.321  27.610  1.00  0.00     0.059 A 
ATOM     72  C   UNL A   1      46.896  34.861  29.938  1.00  0.00     0.059 A 
ATOM     73  F   UNL A   1      46.708  32.674  30.763  1.00  0.00    -0.206 F 
ATOM     74  C   UNL A   1      46.806  35.751  28.868  1.00  0.00     0.060 A 
BRANCH  74  75
ATOM     75  S   UNL A   1      47.235  37.490  29.086  1.00  0.00     0.124 S 
ATOM     76  O   UNL A   1      48.673  37.468  28.832  1.00  0.00    -0.237 OA
ATOM     77  O   UNL A   1      46.422  38.144  28.066  1.00  0.00    -0.237 OA
ATOM     78  O   UNL A   1      46.846  37.765  30.466  1.00  0.00    -0.744 OA
ENDBRANCH  74  75
ENDBRANCH  53  67
BRANCH  54  79
ATOM     79  C   UNL A   1      43.294  23.585  27.018  1.00  0.00     0.058 A 
ATOM     80  C   UNL A   1      43.057  22.704  28.083  1.00  0.00     0.135 A 
ATOM     81  C   UNL A   1      43.092  23.106  25.715  1.00  0.00     0.135 A 
ATOM     82  F   UNL A   1      43.240  23.115  29.346  1.00  0.00    -0.206 F 
ATOM     83  C   UNL A   1      42.650  21.391  27.866  1.00  0.00     0.059 A 
ATOM     84  C   UNL A   1      42.664  21.805  25.473  1.00  0.00     0.059 A 
ATOM     85  F   UNL A   1      43.288  23.918  24.663  1.00  0.00    -0.206 F 
ATOM     86  C   UNL A   1      42.455  20.952  26.555  1.00  0.00     0.060 A 
BRANCH  86  87
ATOM     87  S   UNL A   1      41.874  19.263  26.284  1.00  0.00     0.124 S 
ATOM     88  O   UNL A   1      42.514  18.933  25.017  1.00  0.00    -0.237 OA
ATOM     89  O   UNL A   1      42.387  18.567  27.459  1.00  0.00    -0.237 OA
ATOM     90  O   UNL A   1      40.422  19.414  26.240  1.00  0.00    -0.744 OA
ENDBRANCH  86  87
ENDBRANCH  54  79
BRANCH  66  91
ATOM     91  C   UNL A   1      49.380  26.932  26.413  1.00  0.00     0.058 A 
ATOM     92  C   UNL A   1      50.285  26.435  27.362  1.00  0.00     0.135 A 
ATOM     93  C   UNL A   1      49.781  26.952  25.068  1.00  0.00     0.135 A 
ATOM     94  F   UNL A   1      49.952  26.401  28.662  1.00  0.00    -0.206 F 
ATOM     95  C   UNL A   1      51.552  25.994  26.994  1.00  0.00     0.059 A 
ATOM     96  C   UNL A   1      51.035  26.494  24.674  1.00  0.00     0.059 A 
ATOM     97  F   UNL A   1      48.948  27.408  24.120  1.00  0.00    -0.206 F 
ATOM     98  C   UNL A   1      51.918  26.030  25.647  1.00  0.00     0.060 A 
BRANCH  98  99
ATOM     99  S   UNL A   1      53.555  25.432  25.176  1.00  0.00     0.124 S 
ATOM    100  O   UNL A   1      53.402  23.991  25.347  1.00  0.00    -0.237 OA
ATOM    101  O   UNL A   1      53.677  25.898  23.797  1.00  0.00    -0.237 OA
ATOM    102  O   UNL A   1      54.443  26.088  26.132  1.00  0.00    -0.744 OA
ENDBRANCH  98  99
ENDBRANCH  66  91
ENDBRANCH  40  41
ENDBRANCH  32  35
ENDBRANCH  30  31
ENDBRANCH  29  30
ENDBRANCH   1  29
TORSDOF 20
ENDMDL
MODEL 3
REMARK VINA RESULT:     -11.0      6.524     11.915
REMARK SMILES COc1cc(Nc2cn[nH]c(=O)n2)c(C(=O)NCCCCCCNC(=O)c2ccc(-c3c4nc(c(-c5c(F)cc(S(=O)(=O)[O-])cc5F)c5ccc([nH]5)c(-c5c(F)cc(S(=O)(=O)[O-])cc5F)c5nc(c(-c6c(F)cc(S(=O)(=O)[O-])cc6F)c6ccc3[nH]6)C=C5)C=C4)cc2)cc1OC
REMARK SMILES IDX 21 1 20 2 19 3 18 4 17 5 15 6 16 7 14 9 3 10 4 11 94 12 5 13
REMARK SMILES IDX 93 14 2 15 1 16 95 17 96 18 6 19 7 21 8 22 13 23 9 24 11 25
REMARK SMILES IDX 10 26 12 27 22 29 23 30 24 31 25 32 26 34 27 35 28 36 92 37
REMARK SMILES IDX 29 38 91 39 30 40 31 41 32 42 85 43 33 44 90 45 84 46 86 47
REMARK SMILES IDX 34 48 89 49 83 50 82 51 35 53 69 54 48 55 68 56 49 57 52 58
REMARK SMILES IDX 67 59 87 60 50 61 51 62 66 64 88 65 53 66 36 67 37 68 46 69
REMARK SMILES IDX 38 70 39 71 45 72 47 73 40 74 41 75 42 76 43 77 44 78 70 79
REMARK SMILES IDX 71 80 80 81 72 82 73 83 79 84 81 85 74 86 75 87 76 88 77 89
REMARK SMILES IDX 78 90 54 91 55 92 64 93 56 94 57 95 63 96 65 97 58 98 59 99
REMARK SMILES IDX 60 100 61 101 62 102
REMARK H PARENT 17 8 6 20 10 28 24 33 86 52 52 63
REMARK Flexibility Score: inf
ROOT
ATOM      1  C   UNL A   1      33.918  28.371  26.260  1.00  0.00     0.002 C 
ENDROOT
BRANCH   1   2
ATOM      2  C   UNL A   1      33.268  28.746  24.922  1.00  0.00     0.002 C 
BRANCH   2   3
ATOM      3  C   UNL A   1      34.112  28.412  23.683  1.00  0.00     0.021 C 
BRANCH   3   4
ATOM      4  C   UNL A   1      33.368  28.650  22.366  1.00  0.00     0.116 C 
BRANCH   4   5
ATOM      5  N   UNL A   1      33.455  27.462  21.535  1.00  0.00    -0.352 N 
ATOM      6  C   UNL A   1      33.062  26.165  21.731  1.00  0.00     0.253 C 
ATOM      7  O   UNL A   1      33.319  25.346  20.843  1.00  0.00    -0.269 OA
ATOM      8  H   UNL A   1      33.881  27.620  20.660  1.00  0.00     0.163 HD
BRANCH   6   9
ATOM      9  C   UNL A   1      32.269  25.707  22.914  1.00  0.00     0.067 A 
ATOM     10  C   UNL A   1      30.767  24.736  25.080  1.00  0.00     0.162 A 
ATOM     11  C   UNL A   1      32.100  24.334  24.910  1.00  0.00     0.077 A 
ATOM     12  C   UNL A   1      30.211  25.686  24.222  1.00  0.00     0.161 A 
ATOM     13  C   UNL A   1      32.879  24.831  23.851  1.00  0.00     0.057 A 
ATOM     14  C   UNL A   1      30.978  26.183  23.166  1.00  0.00     0.066 A 
BRANCH  10  15
ATOM     15  O   UNL A   1      30.069  24.294  26.171  1.00  0.00    -0.493 OA
ATOM     16  C   UNL A   1      30.673  23.145  26.768  1.00  0.00     0.278 C 
ENDBRANCH  10  15
BRANCH  12  17
ATOM     17  O   UNL A   1      28.965  26.249  24.302  1.00  0.00    -0.493 OA
ATOM     18  C   UNL A   1      28.735  27.406  23.507  1.00  0.00     0.278 C 
ENDBRANCH  12  17
BRANCH  13  19
ATOM     19  N   UNL A   1      34.258  24.507  23.727  1.00  0.00    -0.338 N 
ATOM     20  H   UNL A   1      34.773  25.011  23.056  1.00  0.00     0.168 HD
BRANCH  19  21
ATOM     21  C   UNL A   1      34.939  23.560  24.452  1.00  0.00     0.156 A 
ATOM     22  C   UNL A   1      35.937  24.095  25.456  1.00  0.00     0.180 A 
ATOM     23  N   UNL A   1      34.781  22.281  24.318  1.00  0.00    -0.173 NA
ATOM     24  N   UNL A   1      36.649  23.316  26.199  1.00  0.00    -0.176 NA
ATOM     25  C   UNL A   1      35.556  21.441  25.072  1.00  0.00     0.363 A 
ATOM     26  N   UNL A   1      36.435  21.988  25.985  1.00  0.00    -0.227 N 
ATOM     27  O   UNL A   1      35.498  20.219  24.964  1.00  0.00    -0.244 OA
ATOM     28  H   UNL A   1      36.958  21.359  26.533  1.00  0.00     0.195 HD
ENDBRANCH  19  21
ENDBRANCH  13  19
ENDBRANCH   6   9
ENDBRANCH   4   5
ENDBRANCH   3   4
ENDBRANCH   2   3
ENDBRANCH   1   2
BRANCH   1  29
ATOM     29  C   UNL A   1      34.006  29.508  27.282  1.00  0.00     0.021 C 
BRANCH  29  30
ATOM     30  C   UNL A   1      35.413  29.787  27.802  1.00  0.00     0.116 C 
BRANCH  30  31
ATOM     31  N   UNL A   1      35.399  30.196  29.196  1.00  0.00    -0.352 N 
ATOM     32  C   UNL A   1      36.386  30.084  30.144  1.00  0.00     0.251 C 
ATOM     33  H   UNL A   1      34.562  30.613  29.506  1.00  0.00     0.163 HD
ATOM     34  O   UNL A   1      36.120  30.277  31.327  1.00  0.00    -0.269 OA
BRANCH  32  35
ATOM     35  C   UNL A   1      37.764  29.724  29.743  1.00  0.00     0.039 A 
ATOM     36  C   UNL A   1      38.635  29.209  30.707  1.00  0.00     0.014 A 
ATOM     37  C   UNL A   1      38.208  29.927  28.433  1.00  0.00     0.014 A 
ATOM     38  C   UNL A   1      39.940  28.862  30.348  1.00  0.00     0.010 A 
ATOM     39  C   UNL A   1      39.490  29.525  28.063  1.00  0.00     0.010 A 
ATOM     40  C   UNL A   1      40.372  29.001  29.019  1.00  0.00    -0.014 A 
BRANCH  40  41
ATOM     41  C   UNL A   1      41.753  28.625  28.620  1.00  0.00     0.031 A 
ATOM     42  C   UNL A   1      42.835  29.671  28.575  1.00  0.00     0.074 A 
ATOM     43  C   UNL A   1      42.019  27.359  28.248  1.00  0.00     0.049 A 
ATOM     44  N   UNL A   1      44.082  29.553  28.199  1.00  0.00    -0.248 NA
ATOM     45  C   UNL A   1      42.458  31.035  28.981  1.00  0.00     0.031 C 
ATOM     46  C   UNL A   1      41.043  26.268  28.202  1.00  0.00     0.029 A 
ATOM     47  N   UNL A   1      43.188  26.776  27.827  1.00  0.00    -0.354 N 
ATOM     48  C   UNL A   1      44.633  30.825  28.305  1.00  0.00     0.074 A 
ATOM     49  C   UNL A   1      43.572  31.709  28.737  1.00  0.00     0.031 C 
ATOM     50  C   UNL A   1      41.658  25.145  27.796  1.00  0.00     0.029 A 
ATOM     51  C   UNL A   1      43.061  25.441  27.524  1.00  0.00     0.049 A 
ATOM     52  H   UNL A   1      44.037  27.268  27.750  1.00  0.00     0.167 HD
ATOM     53  C   UNL A   1      45.911  31.217  28.084  1.00  0.00     0.037 A 
ATOM     54  C   UNL A   1      43.974  24.557  27.077  1.00  0.00     0.037 A 
ATOM     55  C   UNL A   1      46.970  30.326  27.688  1.00  0.00     0.049 A 
ATOM     56  C   UNL A   1      45.393  25.008  26.870  1.00  0.00     0.074 A 
ATOM     57  C   UNL A   1      48.310  30.613  27.495  1.00  0.00     0.029 A 
ATOM     58  N   UNL A   1      46.811  28.972  27.430  1.00  0.00    -0.354 N 
ATOM     59  N   UNL A   1      45.909  26.204  27.029  1.00  0.00    -0.248 NA
ATOM     60  C   UNL A   1      46.358  23.989  26.434  1.00  0.00     0.031 C 
ATOM     61  C   UNL A   1      48.956  29.439  27.091  1.00  0.00     0.029 A 
ATOM     62  C   UNL A   1      48.025  28.412  27.070  1.00  0.00     0.049 A 
ATOM     63  H   UNL A   1      45.960  28.482  27.493  1.00  0.00     0.167 HD
ATOM     64  C   UNL A   1      47.262  26.075  26.738  1.00  0.00     0.074 A 
ATOM     65  C   UNL A   1      47.487  24.683  26.402  1.00  0.00     0.031 C 
ATOM     66  C   UNL A   1      48.232  27.023  26.748  1.00  0.00     0.037 A 
BRANCH  53  67
ATOM     67  C   UNL A   1      46.233  32.674  28.274  1.00  0.00     0.058 A 
ATOM     68  C   UNL A   1      46.792  33.153  29.469  1.00  0.00     0.135 A 
ATOM     69  C   UNL A   1      46.007  33.597  27.241  1.00  0.00     0.135 A 
ATOM     70  F   UNL A   1      47.016  32.316  30.495  1.00  0.00    -0.206 F 
ATOM     71  C   UNL A   1      47.086  34.501  29.648  1.00  0.00     0.059 A 
ATOM     72  C   UNL A   1      46.316  34.947  27.387  1.00  0.00     0.059 A 
ATOM     73  F   UNL A   1      45.474  33.193  26.078  1.00  0.00    -0.206 F 
ATOM     74  C   UNL A   1      46.840  35.392  28.600  1.00  0.00     0.060 A 
BRANCH  74  75
ATOM     75  S   UNL A   1      47.222  37.139  28.845  1.00  0.00     0.124 S 
ATOM     76  O   UNL A   1      48.567  37.223  28.282  1.00  0.00    -0.237 OA
ATOM     77  O   UNL A   1      46.172  37.800  28.078  1.00  0.00    -0.237 OA
ATOM     78  O   UNL A   1      47.137  37.304  30.293  1.00  0.00    -0.744 OA
ENDBRANCH  74  75
ENDBRANCH  53  67
BRANCH  54  79
ATOM     79  C   UNL A   1      43.577  23.145  26.829  1.00  0.00     0.058 A 
ATOM     80  C   UNL A   1      43.301  22.278  27.895  1.00  0.00     0.135 A 
ATOM     81  C   UNL A   1      43.447  22.644  25.525  1.00  0.00     0.135 A 
ATOM     82  F   UNL A   1      43.415  22.711  29.159  1.00  0.00    -0.206 F 
ATOM     83  C   UNL A   1      42.922  20.956  27.680  1.00  0.00     0.059 A 
ATOM     84  C   UNL A   1      43.050  21.333  25.284  1.00  0.00     0.059 A 
ATOM     85  F   UNL A   1      43.684  23.442  24.471  1.00  0.00    -0.206 F 
ATOM     86  C   UNL A   1      42.799  20.494  26.368  1.00  0.00     0.060 A 
BRANCH  86  87
ATOM     87  S   UNL A   1      42.255  18.793  26.095  1.00  0.00     0.124 S 
ATOM     88  O   UNL A   1      43.137  18.372  25.015  1.00  0.00    -0.237 OA
ATOM     89  O   UNL A   1      42.499  18.178  27.396  1.00  0.00    -0.237 OA
ATOM     90  O   UNL A   1      40.846  18.947  25.740  1.00  0.00    -0.744 OA
ENDBRANCH  86  87
ENDBRANCH  54  79
BRANCH  66  91
ATOM     91  C   UNL A   1      49.630  26.582  26.421  1.00  0.00     0.058 A 
ATOM     92  C   UNL A   1      50.151  26.687  25.123  1.00  0.00     0.135 A 
ATOM     93  C   UNL A   1      50.472  26.086  27.430  1.00  0.00     0.135 A 
ATOM     94  F   UNL A   1      49.384  27.148  24.122  1.00  0.00    -0.206 F 
ATOM     95  C   UNL A   1      51.453  26.293  24.830  1.00  0.00     0.059 A 
ATOM     96  C   UNL A   1      51.784  25.708  27.164  1.00  0.00     0.059 A 
ATOM     97  F   UNL A   1      50.024  25.976  28.691  1.00  0.00    -0.206 F 
ATOM     98  C   UNL A   1      52.261  25.803  25.858  1.00  0.00     0.060 A 
BRANCH  98  99
ATOM     99  S   UNL A   1      53.957  25.319  25.473  1.00  0.00     0.124 S 
ATOM    100  O   UNL A   1      53.754  24.019  24.841  1.00  0.00    -0.237 OA
ATOM    101  O   UNL A   1      54.398  26.392  24.587  1.00  0.00    -0.237 OA
ATOM    102  O   UNL A   1      54.606  25.288  26.780  1.00  0.00    -0.744 OA
ENDBRANCH  98  99
ENDBRANCH  66  91
ENDBRANCH  40  41
ENDBRANCH  32  35
ENDBRANCH  30  31
ENDBRANCH  29  30
ENDBRANCH   1  29
TORSDOF 20
ENDMDL
