MODEL 1
REMARK VINA RESULT:     -11.5      0.000      0.000
REMARK SMILES Cc1cc(C)c(C(N)=O)c(N[C@H]2C=C[C@H](C(=O)NCCCCCCNC(=O)c3ccc(-c4c5nc(c(-c6c(F)cc(S(=O)(=O)[O-])cc6F)c6ccc([nH]6)c(-c6c(F)cc(S(=O)(=O)[O-])cc6F)c6nc(c(-c7c(F)cc(S(=O)(=O)[O-])cc7F)c7ccc4[nH]7)C=C6)C=C5)cc3)C2)n1
REMARK SMILES IDX 21 1 20 2 19 3 18 4 16 5 17 6 15 8 12 9 13 10 94 11 14 12
REMARK SMILES IDX 11 13 10 15 1 16 2 17 3 18 95 19 4 20 5 21 6 22 7 23 8 24
REMARK SMILES IDX 9 25 22 28 23 29 24 30 25 31 26 32 27 34 28 35 29 36 93 37
REMARK SMILES IDX 30 38 92 39 31 40 32 41 33 42 86 43 34 44 91 45 85 46 87 47
REMARK SMILES IDX 35 48 90 49 84 50 83 51 36 53 70 54 49 55 69 56 50 57 53 58
REMARK SMILES IDX 68 59 88 60 51 61 52 62 67 64 89 65 54 66 37 67 38 68 47 69
REMARK SMILES IDX 39 70 40 71 46 72 48 73 41 74 42 75 43 76 44 77 45 78 71 79
REMARK SMILES IDX 72 80 81 81 73 82 74 83 80 84 82 85 75 86 76 87 77 88 78 89
REMARK SMILES IDX 79 90 55 91 56 92 65 93 57 94 58 95 64 96 66 97 59 98 60 99
REMARK SMILES IDX 61 100 62 101 63 102
REMARK H PARENT 18 7 11 14 8 26 8 27 25 33 87 52 53 63
REMARK Flexibility Score: inf
ROOT
ATOM      1  C   UNL A   1      34.680  29.748  27.289  1.00  0.00     0.002 C 
ENDROOT
BRANCH   1   2
ATOM      2  C   UNL A   1      33.909  29.138  26.112  1.00  0.00     0.021 C 
BRANCH   2   3
ATOM      3  C   UNL A   1      32.400  29.343  26.166  1.00  0.00     0.116 C 
BRANCH   3   4
ATOM      4  N   UNL A   1      31.838  29.559  24.847  1.00  0.00    -0.356 N 
ATOM      5  C   UNL A   1      31.005  28.749  24.131  1.00  0.00     0.227 C 
ATOM      6  O   UNL A   1      30.573  29.163  23.055  1.00  0.00    -0.274 OA
ATOM      7  H   UNL A   1      32.089  30.405  24.409  1.00  0.00     0.163 HD
BRANCH   5   8
ATOM      8  C   UNL A   1      30.655  27.377  24.702  1.00  0.00     0.103 C 
ATOM      9  C   UNL A   1      31.315  25.406  23.410  1.00  0.00     0.104 C 
ATOM     10  C   UNL A   1      29.869  25.712  23.225  1.00  0.00    -0.006 C 
ATOM     11  C   UNL A   1      31.791  26.362  24.507  1.00  0.00     0.046 C 
ATOM     12  C   UNL A   1      29.505  26.785  23.932  1.00  0.00    -0.016 C 
BRANCH   9  13
ATOM     13  N   UNL A   1      31.555  24.009  23.728  1.00  0.00    -0.363 N 
ATOM     14  H   UNL A   1      30.873  23.350  23.463  1.00  0.00     0.162 HD
BRANCH  13  15
ATOM     15  C   UNL A   1      32.693  23.543  24.386  1.00  0.00     0.139 A 
ATOM     16  C   UNL A   1      36.192  22.927  23.390  1.00  0.00     0.067 C 
ATOM     17  C   UNL A   1      34.969  23.013  24.253  1.00  0.00     0.040 A 
ATOM     18  C   UNL A   1      34.999  22.596  25.571  1.00  0.00     0.028 A 
ATOM     19  N   UNL A   1      33.846  23.485  23.679  1.00  0.00    -0.236 NA
ATOM     20  C   UNL A   1      33.834  22.677  26.347  1.00  0.00    -0.033 A 
ATOM     21  C   UNL A   1      33.938  22.202  27.770  1.00  0.00     0.045 C 
ATOM     22  C   UNL A   1      32.652  23.156  25.741  1.00  0.00     0.084 A 
BRANCH  22  23
ATOM     23  C   UNL A   1      31.366  23.201  26.502  1.00  0.00     0.252 C 
ATOM     24  N   UNL A   1      30.539  22.114  26.403  1.00  0.00    -0.365 N 
ATOM     25  O   UNL A   1      31.046  24.149  27.207  1.00  0.00    -0.269 OA
ATOM     26  H   UNL A   1      30.796  21.350  25.835  1.00  0.00     0.159 HD
ATOM     27  H   UNL A   1      29.690  22.094  26.899  1.00  0.00     0.159 HD
ENDBRANCH  22  23
ENDBRANCH  13  15
ENDBRANCH   9  13
ENDBRANCH   5   8
ENDBRANCH   3   4
ENDBRANCH   2   3
ENDBRANCH   1   2
BRANCH   1  28
ATOM     28  C   UNL A   1      33.994  30.930  27.977  1.00  0.00     0.002 C 
BRANCH  28  29
ATOM     29  C   UNL A   1      34.785  32.239  27.966  1.00  0.00     0.021 C 
BRANCH  29  30
ATOM     30  C   UNL A   1      36.007  32.256  28.874  1.00  0.00     0.116 C 
BRANCH  30  31
ATOM     31  N   UNL A   1      35.777  31.553  30.125  1.00  0.00    -0.352 N 
ATOM     32  C   UNL A   1      36.551  30.598  30.738  1.00  0.00     0.251 C 
ATOM     33  H   UNL A   1      34.949  31.795  30.600  1.00  0.00     0.163 HD
ATOM     34  O   UNL A   1      36.112  29.982  31.704  1.00  0.00    -0.269 OA
BRANCH  32  35
ATOM     35  C   UNL A   1      37.900  30.299  30.212  1.00  0.00     0.039 A 
ATOM     36  C   UNL A   1      39.015  30.670  30.966  1.00  0.00     0.014 A 
ATOM     37  C   UNL A   1      38.066  29.650  28.985  1.00  0.00     0.014 A 
ATOM     38  C   UNL A   1      40.296  30.338  30.515  1.00  0.00     0.010 A 
ATOM     39  C   UNL A   1      39.336  29.253  28.576  1.00  0.00     0.010 A 
ATOM     40  C   UNL A   1      40.465  29.597  29.334  1.00  0.00    -0.014 A 
BRANCH  40  41
ATOM     41  C   UNL A   1      41.814  29.170  28.882  1.00  0.00     0.031 A 
ATOM     42  C   UNL A   1      42.936  30.171  28.794  1.00  0.00     0.074 A 
ATOM     43  C   UNL A   1      42.015  27.894  28.497  1.00  0.00     0.049 A 
ATOM     44  N   UNL A   1      44.162  30.002  28.372  1.00  0.00    -0.248 NA
ATOM     45  C   UNL A   1      42.631  31.550  29.213  1.00  0.00     0.031 C 
ATOM     46  C   UNL A   1      40.996  26.842  28.490  1.00  0.00     0.029 A 
ATOM     47  N   UNL A   1      43.141  27.264  28.028  1.00  0.00    -0.354 N 
ATOM     48  C   UNL A   1      44.771  31.249  28.463  1.00  0.00     0.074 A 
ATOM     49  C   UNL A   1      43.763  32.176  28.927  1.00  0.00     0.031 C 
ATOM     50  C   UNL A   1      41.549  25.695  28.064  1.00  0.00     0.029 A 
ATOM     51  C   UNL A   1      42.947  25.937  27.725  1.00  0.00     0.049 A 
ATOM     52  H   UNL A   1      44.007  27.721  27.917  1.00  0.00     0.167 HD
ATOM     53  C   UNL A   1      46.058  31.583  28.208  1.00  0.00     0.037 A 
ATOM     54  C   UNL A   1      43.797  25.018  27.224  1.00  0.00     0.037 A 
ATOM     55  C   UNL A   1      47.061  30.648  27.764  1.00  0.00     0.049 A 
ATOM     56  C   UNL A   1      45.220  25.417  26.939  1.00  0.00     0.074 A 
ATOM     57  C   UNL A   1      48.405  30.877  27.532  1.00  0.00     0.029 A 
ATOM     58  N   UNL A   1      46.829  29.309  27.484  1.00  0.00    -0.354 N 
ATOM     59  N   UNL A   1      45.796  26.586  27.094  1.00  0.00    -0.248 NA
ATOM     60  C   UNL A   1      46.111  24.373  26.416  1.00  0.00     0.031 C 
ATOM     61  C   UNL A   1      48.976  29.690  27.059  1.00  0.00     0.029 A 
ATOM     62  C   UNL A   1      48.000  28.705  27.056  1.00  0.00     0.049 A 
ATOM     63  H   UNL A   1      45.960  28.855  27.576  1.00  0.00     0.167 HD
ATOM     64  C   UNL A   1      47.123  26.410  26.717  1.00  0.00     0.074 A 
ATOM     65  C   UNL A   1      47.267  25.019  26.339  1.00  0.00     0.031 C 
ATOM     66  C   UNL A   1      48.131  27.316  26.688  1.00  0.00     0.037 A 
BRANCH  53  67
ATOM     67  C   UNL A   1      46.460  33.021  28.401  1.00  0.00     0.058 A 
ATOM     68  C   UNL A   1      46.954  33.492  29.628  1.00  0.00     0.135 A 
ATOM     69  C   UNL A   1      46.390  33.931  27.333  1.00  0.00     0.135 A 
ATOM     70  F   UNL A   1      47.029  32.670  30.687  1.00  0.00    -0.206 F 
ATOM     71  C   UNL A   1      47.337  34.818  29.800  1.00  0.00     0.059 A 
ATOM     72  C   UNL A   1      46.797  35.256  27.473  1.00  0.00     0.059 A 
ATOM     73  F   UNL A   1      45.925  33.538  26.137  1.00  0.00    -0.206 F 
ATOM     74  C   UNL A   1      47.255  35.693  28.715  1.00  0.00     0.060 A 
BRANCH  74  75
ATOM     75  S   UNL A   1      47.765  37.408  28.953  1.00  0.00     0.124 S 
ATOM     76  O   UNL A   1      47.423  37.620  30.356  1.00  0.00    -0.237 OA
ATOM     77  O   UNL A   1      49.191  37.355  28.648  1.00  0.00    -0.237 OA
ATOM     78  O   UNL A   1      46.949  38.143  27.992  1.00  0.00    -0.744 OA
ENDBRANCH  74  75
ENDBRANCH  53  67
BRANCH  54  79
ATOM     79  C   UNL A   1      43.329  23.627  26.978  1.00  0.00     0.058 A 
ATOM     80  C   UNL A   1      43.016  23.187  25.684  1.00  0.00     0.135 A 
ATOM     81  C   UNL A   1      43.193  22.708  28.031  1.00  0.00     0.135 A 
ATOM     82  F   UNL A   1      43.124  24.030  24.645  1.00  0.00    -0.206 F 
ATOM     83  C   UNL A   1      42.566  21.893  25.442  1.00  0.00     0.059 A 
ATOM     84  C   UNL A   1      42.773  21.400  27.810  1.00  0.00     0.059 A 
ATOM     85  F   UNL A   1      43.496  23.072  29.287  1.00  0.00    -0.206 F 
ATOM     86  C   UNL A   1      42.451  21.005  26.512  1.00  0.00     0.060 A 
BRANCH  86  87
ATOM     87  S   UNL A   1      41.908  19.315  26.182  1.00  0.00     0.124 S 
ATOM     88  O   UNL A   1      42.731  18.962  25.031  1.00  0.00    -0.237 OA
ATOM     89  O   UNL A   1      42.235  18.640  27.434  1.00  0.00    -0.237 OA
ATOM     90  O   UNL A   1      40.481  19.467  25.914  1.00  0.00    -0.744 OA
ENDBRANCH  86  87
ENDBRANCH  54  79
BRANCH  66  91
ATOM     91  C   UNL A   1      49.492  26.829  26.269  1.00  0.00     0.058 A 
ATOM     92  C   UNL A   1      49.988  27.039  24.974  1.00  0.00     0.135 A 
ATOM     93  C   UNL A   1      50.330  26.187  27.196  1.00  0.00     0.135 A 
ATOM     94  F   UNL A   1      49.226  27.642  24.047  1.00  0.00    -0.206 F 
ATOM     95  C   UNL A   1      51.258  26.608  24.603  1.00  0.00     0.059 A 
ATOM     96  C   UNL A   1      51.615  25.776  26.856  1.00  0.00     0.059 A 
ATOM     97  F   UNL A   1      49.910  25.971  28.453  1.00  0.00    -0.206 F 
ATOM     98  C   UNL A   1      52.065  25.979  25.553  1.00  0.00     0.060 A 
BRANCH  98  99
ATOM     99  S   UNL A   1      53.723  25.455  25.068  1.00  0.00     0.124 S 
ATOM    100  O   UNL A   1      53.707  24.044  25.443  1.00  0.00    -0.237 OA
ATOM    101  O   UNL A   1      53.729  25.728  23.634  1.00  0.00    -0.237 OA
ATOM    102  O   UNL A   1      54.598  26.307  25.866  1.00  0.00    -0.744 OA
ENDBRANCH  98  99
ENDBRANCH  66  91
ENDBRANCH  40  41
ENDBRANCH  32  35
ENDBRANCH  30  31
ENDBRANCH  29  30
ENDBRANCH  28  29
ENDBRANCH   1  28
TORSDOF 19
ENDMDL
MODEL 2
REMARK VINA RESULT:     -11.4      6.325     11.886
REMARK SMILES Cc1cc(C)c(C(N)=O)c(N[C@H]2C=C[C@H](C(=O)NCCCCCCNC(=O)c3ccc(-c4c5nc(c(-c6c(F)cc(S(=O)(=O)[O-])cc6F)c6ccc([nH]6)c(-c6c(F)cc(S(=O)(=O)[O-])cc6F)c6nc(c(-c7c(F)cc(S(=O)(=O)[O-])cc7F)c7ccc4[nH]7)C=C6)C=C5)cc3)C2)n1
REMARK SMILES IDX 21 1 20 2 19 3 18 4 16 5 17 6 15 8 12 9 13 10 94 11 14 12
REMARK SMILES IDX 11 13 10 15 1 16 2 17 3 18 95 19 4 20 5 21 6 22 7 23 8 24
REMARK SMILES IDX 9 25 22 28 23 29 24 30 25 31 26 32 27 34 28 35 29 36 93 37
REMARK SMILES IDX 30 38 92 39 31 40 32 41 33 42 86 43 34 44 91 45 85 46 87 47
REMARK SMILES IDX 35 48 90 49 84 50 83 51 36 53 70 54 49 55 69 56 50 57 53 58
REMARK SMILES IDX 68 59 88 60 51 61 52 62 67 64 89 65 54 66 37 67 38 68 47 69
REMARK SMILES IDX 39 70 40 71 46 72 48 73 41 74 42 75 43 76 44 77 45 78 71 79
REMARK SMILES IDX 72 80 81 81 73 82 74 83 80 84 82 85 75 86 76 87 77 88 78 89
REMARK SMILES IDX 79 90 55 91 56 92 65 93 57 94 58 95 64 96 66 97 59 98 60 99
REMARK SMILES IDX 61 100 62 101 63 102
REMARK H PARENT 18 7 11 14 8 26 8 27 25 33 87 52 53 63
REMARK Flexibility Score: inf
ROOT
ATOM      1  C   UNL A   1      36.400  23.769  25.181  1.00  0.00     0.002 C 
ENDROOT
BRANCH   1   2
ATOM      2  C   UNL A   1      36.068  23.294  23.762  1.00  0.00     0.021 C 
BRANCH   2   3
ATOM      3  C   UNL A   1      34.874  22.352  23.670  1.00  0.00     0.116 C 
BRANCH   3   4
ATOM      4  N   UNL A   1      34.593  21.711  24.941  1.00  0.00    -0.356 N 
ATOM      5  C   UNL A   1      33.434  21.716  25.662  1.00  0.00     0.227 C 
ATOM      6  O   UNL A   1      33.381  21.032  26.684  1.00  0.00    -0.274 OA
ATOM      7  H   UNL A   1      35.338  21.203  25.336  1.00  0.00     0.163 HD
BRANCH   5   8
ATOM      8  C   UNL A   1      32.269  22.566  25.162  1.00  0.00     0.103 C 
ATOM      9  C   UNL A   1      31.243  24.129  26.741  1.00  0.00     0.104 C 
ATOM     10  C   UNL A   1      30.422  22.896  26.594  1.00  0.00    -0.006 C 
ATOM     11  C   UNL A   1      32.342  24.010  25.681  1.00  0.00     0.046 C 
ATOM     12  C   UNL A   1      30.978  22.042  25.730  1.00  0.00    -0.016 C 
BRANCH   9  13
ATOM     13  N   UNL A   1      30.456  25.344  26.611  1.00  0.00    -0.363 N 
ATOM     14  H   UNL A   1      29.529  25.332  26.943  1.00  0.00     0.162 HD
BRANCH  13  15
ATOM     15  C   UNL A   1      30.933  26.526  26.046  1.00  0.00     0.139 A 
ATOM     16  C   UNL A   1      33.256  29.172  27.147  1.00  0.00     0.067 C 
ATOM     17  C   UNL A   1      32.305  28.409  26.276  1.00  0.00     0.040 A 
ATOM     18  C   UNL A   1      31.914  28.905  25.046  1.00  0.00     0.028 A 
ATOM     19  N   UNL A   1      31.834  27.243  26.758  1.00  0.00    -0.236 NA
ATOM     20  C   UNL A   1      31.011  28.172  24.262  1.00  0.00    -0.033 A 
ATOM     21  C   UNL A   1      30.626  28.773  22.939  1.00  0.00     0.045 C 
ATOM     22  C   UNL A   1      30.505  26.958  24.774  1.00  0.00     0.084 A 
BRANCH  22  23
ATOM     23  C   UNL A   1      29.490  26.169  24.010  1.00  0.00     0.252 C 
ATOM     24  N   UNL A   1      29.910  25.003  23.426  1.00  0.00    -0.365 N 
ATOM     25  O   UNL A   1      28.320  26.515  23.909  1.00  0.00    -0.269 OA
ATOM     26  H   UNL A   1      30.851  24.724  23.507  1.00  0.00     0.159 HD
ATOM     27  H   UNL A   1      29.272  24.445  22.927  1.00  0.00     0.159 HD
ENDBRANCH  22  23
ENDBRANCH  13  15
ENDBRANCH   9  13
ENDBRANCH   5   8
ENDBRANCH   3   4
ENDBRANCH   2   3
ENDBRANCH   1   2
BRANCH   1  28
ATOM     28  C   UNL A   1      37.670  23.169  25.790  1.00  0.00     0.002 C 
BRANCH  28  29
ATOM     29  C   UNL A   1      38.742  24.183  26.191  1.00  0.00     0.021 C 
BRANCH  29  30
ATOM     30  C   UNL A   1      39.947  23.590  26.912  1.00  0.00     0.116 C 
BRANCH  30  31
ATOM     31  N   UNL A   1      41.200  23.907  26.248  1.00  0.00    -0.352 N 
ATOM     32  C   UNL A   1      41.987  25.025  26.369  1.00  0.00     0.251 C 
ATOM     33  H   UNL A   1      41.531  23.222  25.623  1.00  0.00     0.163 HD
ATOM     34  O   UNL A   1      42.923  25.202  25.595  1.00  0.00    -0.269 OA
BRANCH  32  35
ATOM     35  C   UNL A   1      41.684  26.026  27.415  1.00  0.00     0.039 A 
ATOM     36  C   UNL A   1      40.754  25.707  28.406  1.00  0.00     0.014 A 
ATOM     37  C   UNL A   1      42.319  27.272  27.422  1.00  0.00     0.014 A 
ATOM     38  C   UNL A   1      40.504  26.615  29.438  1.00  0.00     0.010 A 
ATOM     39  C   UNL A   1      42.126  28.143  28.491  1.00  0.00     0.010 A 
ATOM     40  C   UNL A   1      41.214  27.826  29.508  1.00  0.00    -0.014 A 
BRANCH  40  41
ATOM     41  C   UNL A   1      41.014  28.768  30.639  1.00  0.00     0.031 A 
ATOM     42  C   UNL A   1      41.869  28.660  31.875  1.00  0.00     0.074 A 
ATOM     43  C   UNL A   1      40.028  29.684  30.577  1.00  0.00     0.049 A 
ATOM     44  N   UNL A   1      41.809  29.353  32.982  1.00  0.00    -0.248 NA
ATOM     45  C   UNL A   1      42.912  27.621  31.874  1.00  0.00     0.031 C 
ATOM     46  C   UNL A   1      39.102  29.855  29.455  1.00  0.00     0.029 A 
ATOM     47  N   UNL A   1      39.630  30.639  31.481  1.00  0.00    -0.354 N 
ATOM     48  C   UNL A   1      42.794  28.829  33.812  1.00  0.00     0.074 A 
ATOM     49  C   UNL A   1      43.398  27.723  33.102  1.00  0.00     0.031 C 
ATOM     50  C   UNL A   1      38.263  30.868  29.726  1.00  0.00     0.029 A 
ATOM     51  C   UNL A   1      38.560  31.390  31.056  1.00  0.00     0.049 A 
ATOM     52  H   UNL A   1      40.070  30.771  32.351  1.00  0.00     0.167 HD
ATOM     53  C   UNL A   1      43.175  29.247  35.042  1.00  0.00     0.037 A 
ATOM     54  C   UNL A   1      37.887  32.383  31.670  1.00  0.00     0.037 A 
ATOM     55  C   UNL A   1      42.580  30.361  35.735  1.00  0.00     0.049 A 
ATOM     56  C   UNL A   1      38.323  32.823  33.042  1.00  0.00     0.074 A 
ATOM     57  C   UNL A   1      42.933  30.899  36.960  1.00  0.00     0.029 A 
ATOM     58  N   UNL A   1      41.508  31.107  35.265  1.00  0.00    -0.354 N 
ATOM     59  N   UNL A   1      39.301  32.359  33.784  1.00  0.00    -0.248 NA
ATOM     60  C   UNL A   1      37.572  33.925  33.658  1.00  0.00     0.031 C 
ATOM     61  C   UNL A   1      42.040  31.934  37.257  1.00  0.00     0.029 A 
ATOM     62  C   UNL A   1      41.171  32.084  36.189  1.00  0.00     0.049 A 
ATOM     63  H   UNL A   1      41.056  30.964  34.403  1.00  0.00     0.167 HD
ATOM     64  C   UNL A   1      39.300  33.131  34.941  1.00  0.00     0.074 A 
ATOM     65  C   UNL A   1      38.233  34.100  34.793  1.00  0.00     0.031 C 
ATOM     66  C   UNL A   1      40.109  33.047  36.026  1.00  0.00     0.037 A 
BRANCH  53  67
ATOM     67  C   UNL A   1      44.290  28.497  35.723  1.00  0.00     0.058 A 
ATOM     68  C   UNL A   1      45.629  28.903  35.611  1.00  0.00     0.135 A 
ATOM     69  C   UNL A   1      44.011  27.384  36.532  1.00  0.00     0.135 A 
ATOM     70  F   UNL A   1      45.956  29.952  34.838  1.00  0.00    -0.206 F 
ATOM     71  C   UNL A   1      46.655  28.216  36.251  1.00  0.00     0.059 A 
ATOM     72  C   UNL A   1      45.018  26.700  37.208  1.00  0.00     0.059 A 
ATOM     73  F   UNL A   1      42.749  26.950  36.676  1.00  0.00    -0.206 F 
ATOM     74  C   UNL A   1      46.339  27.115  37.049  1.00  0.00     0.060 A 
BRANCH  74  75
ATOM     75  S   UNL A   1      47.682  26.241  37.880  1.00  0.00     0.124 S 
ATOM     76  O   UNL A   1      46.975  25.102  38.455  1.00  0.00    -0.237 OA
ATOM     77  O   UNL A   1      48.586  25.935  36.776  1.00  0.00    -0.237 OA
ATOM     78  O   UNL A   1      48.181  27.219  38.842  1.00  0.00    -0.744 OA
ENDBRANCH  74  75
ENDBRANCH  53  67
BRANCH  54  79
ATOM     79  C   UNL A   1      36.741  33.042  30.985  1.00  0.00     0.058 A 
ATOM     80  C   UNL A   1      35.421  32.818  31.405  1.00  0.00     0.135 A 
ATOM     81  C   UNL A   1      36.943  33.913  29.903  1.00  0.00     0.135 A 
ATOM     82  F   UNL A   1      35.176  31.988  32.431  1.00  0.00    -0.206 F 
ATOM     83  C   UNL A   1      34.341  33.417  30.766  1.00  0.00     0.059 A 
ATOM     84  C   UNL A   1      35.881  34.547  29.266  1.00  0.00     0.059 A 
ATOM     85  F   UNL A   1      38.187  34.175  29.473  1.00  0.00    -0.206 F 
ATOM     86  C   UNL A   1      34.581  34.283  29.698  1.00  0.00     0.060 A 
BRANCH  86  87
ATOM     87  S   UNL A   1      33.175  35.090  28.903  1.00  0.00     0.124 S 
ATOM     88  O   UNL A   1      32.273  35.287  30.032  1.00  0.00    -0.237 OA
ATOM     89  O   UNL A   1      33.786  36.297  28.355  1.00  0.00    -0.237 OA
ATOM     90  O   UNL A   1      32.742  34.109  27.912  1.00  0.00    -0.744 OA
ENDBRANCH  86  87
ENDBRANCH  54  79
BRANCH  66  91
ATOM     91  C   UNL A   1      39.902  34.052  37.127  1.00  0.00     0.058 A 
ATOM     92  C   UNL A   1      39.101  33.773  38.244  1.00  0.00     0.135 A 
ATOM     93  C   UNL A   1      40.558  35.294  37.085  1.00  0.00     0.135 A 
ATOM     94  F   UNL A   1      38.446  32.604  38.332  1.00  0.00    -0.206 F 
ATOM     95  C   UNL A   1      38.937  34.699  39.270  1.00  0.00     0.059 A 
ATOM     96  C   UNL A   1      40.434  36.221  38.114  1.00  0.00     0.059 A 
ATOM     97  F   UNL A   1      41.347  35.608  36.044  1.00  0.00    -0.206 F 
ATOM     98  C   UNL A   1      39.609  35.920  39.197  1.00  0.00     0.060 A 
BRANCH  98  99
ATOM     99  S   UNL A   1      39.413  37.098  40.550  1.00  0.00     0.124 S 
ATOM    100  O   UNL A   1      40.803  37.368  40.908  1.00  0.00    -0.237 OA
ATOM    101  O   UNL A   1      38.700  38.197  39.906  1.00  0.00    -0.237 OA
ATOM    102  O   UNL A   1      38.643  36.354  41.541  1.00  0.00    -0.744 OA
ENDBRANCH  98  99
ENDBRANCH  66  91
ENDBRANCH  40  41
ENDBRANCH  32  35
ENDBRANCH  30  31
ENDBRANCH  29  30
ENDBRANCH  28  29
ENDBRANCH   1  28
TORSDOF 19
ENDMDL
MODEL 3
REMARK VINA RESULT:     -11.3      6.326     11.907
REMARK SMILES Cc1cc(C)c(C(N)=O)c(N[C@H]2C=C[C@H](C(=O)NCCCCCCNC(=O)c3ccc(-c4c5nc(c(-c6c(F)cc(S(=O)(=O)[O-])cc6F)c6ccc([nH]6)c(-c6c(F)cc(S(=O)(=O)[O-])cc6F)c6nc(c(-c7c(F)cc(S(=O)(=O)[O-])cc7F)c7ccc4[nH]7)C=C6)C=C5)cc3)C2)n1
REMARK SMILES IDX 21 1 20 2 19 3 18 4 16 5 17 6 15 8 12 9 13 10 94 11 14 12
REMARK SMILES IDX 11 13 10 15 1 16 2 17 3 18 95 19 4 20 5 21 6 22 7 23 8 24
REMARK SMILES IDX 9 25 22 28 23 29 24 30 25 31 26 32 27 34 28 35 29 36 93 37
REMARK SMILES IDX 30 38 92 39 31 40 32 41 33 42 86 43 34 44 91 45 85 46 87 47
REMARK SMILES IDX 35 48 90 49 84 50 83 51 36 53 70 54 49 55 69 56 50 57 53 58
REMARK SMILES IDX 68 59 88 60 51 61 52 62 67 64 89 65 54 66 37 67 38 68 47 69
REMARK SMILES IDX 39 70 40 71 46 72 48 73 41 74 42 75 43 76 44 77 45 78 71 79
REMARK SMILES IDX 72 80 81 81 73 82 74 83 80 84 82 85 75 86 76 87 77 88 78 89
REMARK SMILES IDX 79 90 55 91 56 92 65 93 57 94 58 95 64 96 66 97 59 98 60 99
REMARK SMILES IDX 61 100 62 101 63 102
REMARK H PARENT 18 7 11 14 8 26 8 27 25 33 87 52 53 63
REMARK Flexibility Score: inf
ROOT
ATOM      1  C   UNL A   1      36.846  23.781  25.435  1.00  0.00     0.002 C 
ENDROOT
BRANCH   1   2
ATOM      2  C   UNL A   1      35.993  22.571  25.832  1.00  0.00     0.021 C 
BRANCH   2   3
ATOM      3  C   UNL A   1      34.639  22.919  26.439  1.00  0.00     0.116 C 
BRANCH   3   4
ATOM      4  N   UNL A   1      33.542  22.436  25.623  1.00  0.00    -0.356 N 
ATOM      5  C   UNL A   1      32.840  23.098  24.657  1.00  0.00     0.227 C 
ATOM      6  O   UNL A   1      31.994  22.471  24.019  1.00  0.00    -0.274 OA
ATOM      7  H   UNL A   1      33.266  21.505  25.787  1.00  0.00     0.163 HD
BRANCH   5   8
ATOM      8  C   UNL A   1      33.143  24.574  24.420  1.00  0.00     0.103 C 
ATOM      9  C   UNL A   1      32.348  25.578  22.334  1.00  0.00     0.104 C 
ATOM     10  C   UNL A   1      33.800  25.254  22.257  1.00  0.00    -0.006 C 
ATOM     11  C   UNL A   1      31.955  25.316  23.791  1.00  0.00     0.046 C 
ATOM     12  C   UNL A   1      34.238  24.710  23.396  1.00  0.00    -0.016 C 
BRANCH   9  13
ATOM     13  N   UNL A   1      32.053  26.932  21.899  1.00  0.00    -0.363 N 
ATOM     14  H   UNL A   1      32.402  27.223  21.025  1.00  0.00     0.162 HD
BRANCH  13  15
ATOM     15  C   UNL A   1      31.305  27.845  22.642  1.00  0.00     0.139 A 
ATOM     16  C   UNL A   1      27.770  28.900  22.653  1.00  0.00     0.067 C 
ATOM     17  C   UNL A   1      29.216  28.821  23.041  1.00  0.00     0.040 A 
ATOM     18  C   UNL A   1      29.734  29.648  24.020  1.00  0.00     0.028 A 
ATOM     19  N   UNL A   1      29.981  27.934  22.377  1.00  0.00    -0.236 NA
ATOM     20  C   UNL A   1      31.094  29.559  24.349  1.00  0.00    -0.033 A 
ATOM     21  C   UNL A   1      31.591  30.491  25.419  1.00  0.00     0.045 C 
ATOM     22  C   UNL A   1      31.901  28.641  23.642  1.00  0.00     0.084 A 
BRANCH  22  23
ATOM     23  C   UNL A   1      33.369  28.550  23.906  1.00  0.00     0.252 C 
ATOM     24  N   UNL A   1      34.201  29.255  23.077  1.00  0.00    -0.365 N 
ATOM     25  O   UNL A   1      33.838  27.896  24.829  1.00  0.00    -0.269 OA
ATOM     26  H   UNL A   1      33.825  29.781  22.334  1.00  0.00     0.159 HD
ATOM     27  H   UNL A   1      35.174  29.235  23.223  1.00  0.00     0.159 HD
ENDBRANCH  22  23
ENDBRANCH  13  15
ENDBRANCH   9  13
ENDBRANCH   5   8
ENDBRANCH   3   4
ENDBRANCH   2   3
ENDBRANCH   1   2
BRANCH   1  28
ATOM     28  C   UNL A   1      38.042  24.065  26.349  1.00  0.00     0.002 C 
BRANCH  28  29
ATOM     29  C   UNL A   1      39.027  22.907  26.509  1.00  0.00     0.021 C 
BRANCH  29  30
ATOM     30  C   UNL A   1      40.376  23.291  27.104  1.00  0.00     0.116 C 
BRANCH  30  31
ATOM     31  N   UNL A   1      41.274  23.863  26.116  1.00  0.00    -0.352 N 
ATOM     32  C   UNL A   1      41.730  25.153  26.002  1.00  0.00     0.251 C 
ATOM     33  H   UNL A   1      41.602  23.236  25.430  1.00  0.00     0.163 HD
ATOM     34  O   UNL A   1      42.344  25.499  24.998  1.00  0.00    -0.269 OA
BRANCH  32  35
ATOM     35  C   UNL A   1      41.455  26.126  27.081  1.00  0.00     0.039 A 
ATOM     36  C   UNL A   1      40.495  25.812  28.044  1.00  0.00     0.014 A 
ATOM     37  C   UNL A   1      42.145  27.341  27.145  1.00  0.00     0.014 A 
ATOM     38  C   UNL A   1      40.268  26.691  29.106  1.00  0.00     0.010 A 
ATOM     39  C   UNL A   1      41.973  28.179  28.244  1.00  0.00     0.010 A 
ATOM     40  C   UNL A   1      41.029  27.865  29.233  1.00  0.00    -0.014 A 
BRANCH  40  41
ATOM     41  C   UNL A   1      40.853  28.772  30.397  1.00  0.00     0.031 A 
ATOM     42  C   UNL A   1      41.720  28.616  31.619  1.00  0.00     0.074 A 
ATOM     43  C   UNL A   1      39.876  29.701  30.376  1.00  0.00     0.049 A 
ATOM     44  N   UNL A   1      41.679  29.272  32.749  1.00  0.00    -0.248 NA
ATOM     45  C   UNL A   1      42.750  27.565  31.573  1.00  0.00     0.031 C 
ATOM     46  C   UNL A   1      38.940  29.919  29.270  1.00  0.00     0.029 A 
ATOM     47  N   UNL A   1      39.499  30.630  31.314  1.00  0.00    -0.354 N 
ATOM     48  C   UNL A   1      42.667  28.711  33.550  1.00  0.00     0.074 A 
ATOM     49  C   UNL A   1      43.251  27.623  32.798  1.00  0.00     0.031 C 
ATOM     50  C   UNL A   1      38.116  30.932  29.583  1.00  0.00     0.029 A 
ATOM     51  C   UNL A   1      38.433  31.407  30.925  1.00  0.00     0.049 A 
ATOM     52  H   UNL A   1      39.950  30.729  32.183  1.00  0.00     0.167 HD
ATOM     53  C   UNL A   1      43.066  29.085  34.789  1.00  0.00     0.037 A 
ATOM     54  C   UNL A   1      37.778  32.387  31.580  1.00  0.00     0.037 A 
ATOM     55  C   UNL A   1      42.492  30.182  35.524  1.00  0.00     0.049 A 
ATOM     56  C   UNL A   1      38.234  32.777  32.960  1.00  0.00     0.074 A 
ATOM     57  C   UNL A   1      42.864  30.675  36.762  1.00  0.00     0.029 A 
ATOM     58  N   UNL A   1      41.423  30.955  35.091  1.00  0.00    -0.354 N 
ATOM     59  N   UNL A   1      39.214  32.278  33.676  1.00  0.00    -0.248 NA
ATOM     60  C   UNL A   1      37.502  33.866  33.619  1.00  0.00     0.031 C 
ATOM     61  C   UNL A   1      41.986  31.711  37.103  1.00  0.00     0.029 A 
ATOM     62  C   UNL A   1      41.107  31.904  36.049  1.00  0.00     0.049 A 
ATOM     63  H   UNL A   1      40.960  30.845  34.230  1.00  0.00     0.167 HD
ATOM     64  C   UNL A   1      39.234  33.012  34.857  1.00  0.00     0.074 A 
ATOM     65  C   UNL A   1      38.177  33.997  34.752  1.00  0.00     0.031 C 
ATOM     66  C   UNL A   1      40.055  32.884  35.929  1.00  0.00     0.037 A 
BRANCH  53  67
ATOM     67  C   UNL A   1      44.180  28.301  35.433  1.00  0.00     0.058 A 
ATOM     68  C   UNL A   1      43.925  27.163  36.216  1.00  0.00     0.135 A 
ATOM     69  C   UNL A   1      45.520  28.666  35.229  1.00  0.00     0.135 A 
ATOM     70  F   UNL A   1      42.662  26.776  36.457  1.00  0.00    -0.206 F 
ATOM     71  C   UNL A   1      44.956  26.433  36.798  1.00  0.00     0.059 A 
ATOM     72  C   UNL A   1      46.570  27.933  35.776  1.00  0.00     0.059 A 
ATOM     73  F   UNL A   1      45.823  29.745  34.490  1.00  0.00    -0.206 F 
ATOM     74  C   UNL A   1      46.277  26.826  36.571  1.00  0.00     0.060 A 
BRANCH  74  75
ATOM     75  S   UNL A   1      47.603  25.862  37.327  1.00  0.00     0.124 S 
ATOM     76  O   UNL A   1      47.512  24.610  36.581  1.00  0.00    -0.237 OA
ATOM     77  O   UNL A   1      48.779  26.680  37.052  1.00  0.00    -0.237 OA
ATOM     78  O   UNL A   1      47.211  25.785  38.731  1.00  0.00    -0.744 OA
ENDBRANCH  74  75
ENDBRANCH  53  67
BRANCH  54  79
ATOM     79  C   UNL A   1      36.632  33.079  30.929  1.00  0.00     0.058 A 
ATOM     80  C   UNL A   1      35.319  32.890  31.384  1.00  0.00     0.135 A 
ATOM     81  C   UNL A   1      36.829  33.949  29.845  1.00  0.00     0.135 A 
ATOM     82  F   UNL A   1      35.079  32.063  32.413  1.00  0.00    -0.206 F 
ATOM     83  C   UNL A   1      34.239  33.522  30.777  1.00  0.00     0.059 A 
ATOM     84  C   UNL A   1      35.767  34.616  29.240  1.00  0.00     0.059 A 
ATOM     85  F   UNL A   1      38.067  34.179  29.381  1.00  0.00    -0.206 F 
ATOM     86  C   UNL A   1      34.473  34.386  29.707  1.00  0.00     0.060 A 
BRANCH  86  87
ATOM     87  S   UNL A   1      33.069  35.235  28.954  1.00  0.00     0.124 S 
ATOM     88  O   UNL A   1      33.701  36.439  28.429  1.00  0.00    -0.237 OA
ATOM     89  O   UNL A   1      32.621  34.262  27.962  1.00  0.00    -0.237 OA
ATOM     90  O   UNL A   1      32.158  35.438  30.078  1.00  0.00    -0.744 OA
ENDBRANCH  86  87
ENDBRANCH  54  79
BRANCH  66  91
ATOM     91  C   UNL A   1      39.871  33.855  37.065  1.00  0.00     0.058 A 
ATOM     92  C   UNL A   1      40.414  35.148  37.030  1.00  0.00     0.135 A 
ATOM     93  C   UNL A   1      39.096  33.500  38.181  1.00  0.00     0.135 A 
ATOM     94  F   UNL A   1      41.169  35.537  35.989  1.00  0.00    -0.206 F 
ATOM     95  C   UNL A   1      40.217  36.048  38.073  1.00  0.00     0.059 A 
ATOM     96  C   UNL A   1      38.859  34.394  39.220  1.00  0.00     0.059 A 
ATOM     97  F   UNL A   1      38.542  32.279  38.261  1.00  0.00    -0.206 F 
ATOM     98  C   UNL A   1      39.435  35.662  39.163  1.00  0.00     0.060 A 
BRANCH  98  99
ATOM     99  S   UNL A   1      39.160  36.850  40.493  1.00  0.00     0.124 S 
ATOM    100  O   UNL A   1      40.495  36.955  41.074  1.00  0.00    -0.237 OA
ATOM    101  O   UNL A   1      38.690  38.027  39.768  1.00  0.00    -0.237 OA
ATOM    102  O   UNL A   1      38.160  36.198  41.333  1.00  0.00    -0.744 OA
ENDBRANCH  98  99
ENDBRANCH  66  91
ENDBRANCH  40  41
ENDBRANCH  32  35
ENDBRANCH  30  31
ENDBRANCH  29  30
ENDBRANCH  28  29
ENDBRANCH   1  28
TORSDOF 19
ENDMDL
