MODEL 1
REMARK VINA RESULT:     -12.1      0.000      0.000
REMARK SMILES CC(=O)Nc1ccc(/C(=C\c2ccc(S(C)(=O)=O)cc2)C(=O)NCCCCCCNC(=O)c2ccc(-c3c4nc(c(-c5c(F)cc(S(=O)(=O)[O-])cc5F)c5ccc([nH]5)c(-c5c(F)cc(S(=O)(=O)[O-])cc5F)c5nc(c(-c6c(F)cc(S(=O)(=O)[O-])cc6F)c6ccc3[nH]6)C=C5)C=C4)cc2)cc1
REMARK SMILES IDX 27 1 26 2 25 3 24 4 23 5 21 6 22 7 9 9 10 10 8 11 5 12 6 13
REMARK SMILES IDX 100 14 7 15 99 16 4 17 1 18 2 19 3 20 11 22 12 23 20 24
REMARK SMILES IDX 13 25 19 26 14 27 15 28 16 29 17 30 18 31 28 32 29 33 30 34
REMARK SMILES IDX 31 35 32 37 33 38 34 39 98 40 35 41 97 42 36 43 37 44 38 45
REMARK SMILES IDX 91 46 39 47 96 48 90 49 92 50 40 51 95 52 89 53 88 54 41 56
REMARK SMILES IDX 75 57 54 58 74 59 55 60 58 61 73 62 93 63 56 64 57 65 72 67
REMARK SMILES IDX 94 68 59 69 42 70 43 71 52 72 44 73 45 74 51 75 53 76 46 77
REMARK SMILES IDX 47 78 48 79 49 80 50 81 76 82 77 83 86 84 78 85 79 86 85 87
REMARK SMILES IDX 87 88 80 89 81 90 82 91 83 92 84 93 60 94 61 95 70 96 62 97
REMARK SMILES IDX 63 98 69 99 71 100 64 101 65 102 66 103 67 104 68 105
REMARK H PARENT 23 8 4 21 30 36 92 55 58 66
REMARK Flexibility Score: inf
ROOT
ATOM      1  C   UNL A   1      32.365  26.944  26.500  1.00  0.00     0.002 C 
ENDROOT
BRANCH   1   2
ATOM      2  C   UNL A   1      31.505  25.779  25.996  1.00  0.00     0.002 C 
BRANCH   2   3
ATOM      3  C   UNL A   1      30.361  26.180  25.053  1.00  0.00     0.021 C 
BRANCH   3   4
ATOM      4  C   UNL A   1      30.162  25.206  23.887  1.00  0.00     0.116 C 
BRANCH   4   5
ATOM      5  N   UNL A   1      31.142  25.467  22.853  1.00  0.00    -0.352 N 
ATOM      6  C   UNL A   1      32.303  24.903  22.438  1.00  0.00     0.251 C 
ATOM      7  O   UNL A   1      32.812  25.493  21.480  1.00  0.00    -0.269 OA
ATOM      8  H   UNL A   1      30.904  26.256  22.314  1.00  0.00     0.163 HD
BRANCH   6   9
ATOM      9  C   UNL A   1      32.923  23.627  23.009  1.00  0.00     0.047 C 
ATOM     10  C   UNL A   1      32.138  22.538  23.194  1.00  0.00     0.022 C 
BRANCH   9  11
ATOM     11  C   UNL A   1      34.342  23.670  23.532  1.00  0.00    -0.013 A 
ATOM     12  C   UNL A   1      36.872  23.347  24.826  1.00  0.00     0.041 A 
ATOM     13  C   UNL A   1      36.694  22.973  23.492  1.00  0.00     0.027 A 
ATOM     14  C   UNL A   1      35.839  24.027  25.448  1.00  0.00     0.027 A 
ATOM     15  C   UNL A   1      35.457  23.165  22.847  1.00  0.00     0.011 A 
ATOM     16  C   UNL A   1      34.591  24.145  24.829  1.00  0.00     0.011 A 
BRANCH  12  17
ATOM     17  N   UNL A   1      38.084  23.018  25.454  1.00  0.00    -0.326 N 
ATOM     18  C   UNL A   1      38.051  20.517  25.291  1.00  0.00     0.114 C 
ATOM     19  C   UNL A   1      38.651  21.814  25.768  1.00  0.00     0.221 C 
ATOM     20  O   UNL A   1      39.700  21.806  26.419  1.00  0.00    -0.275 OA
ATOM     21  H   UNL A   1      38.625  23.797  25.718  1.00  0.00     0.169 HD
ENDBRANCH  12  17
ENDBRANCH   9  11
BRANCH  10  22
ATOM     22  C   UNL A   1      32.516  21.158  23.532  1.00  0.00    -0.025 A 
ATOM     23  C   UNL A   1      32.131  20.137  22.646  1.00  0.00     0.009 A 
ATOM     24  C   UNL A   1      33.281  20.841  24.658  1.00  0.00     0.009 A 
ATOM     25  C   UNL A   1      32.552  18.821  22.848  1.00  0.00     0.021 A 
ATOM     26  C   UNL A   1      33.708  19.526  24.865  1.00  0.00     0.021 A 
ATOM     27  C   UNL A   1      33.349  18.526  23.955  1.00  0.00     0.067 A 
BRANCH  27  28
ATOM     28  S   UNL A   1      34.005  16.881  24.132  1.00  0.00     0.175 S 
ATOM     29  C   UNL A   1      32.805  16.043  25.130  1.00  0.00     0.163 C 
ATOM     30  O   UNL A   1      34.004  16.281  22.812  1.00  0.00    -0.224 OA
ATOM     31  O   UNL A   1      35.234  16.981  24.896  1.00  0.00    -0.224 OA
ENDBRANCH  27  28
ENDBRANCH  10  22
ENDBRANCH   6   9
ENDBRANCH   4   5
ENDBRANCH   3   4
ENDBRANCH   2   3
ENDBRANCH   1   2
BRANCH   1  32
ATOM     32  C   UNL A   1      33.072  27.742  25.399  1.00  0.00     0.021 C 
BRANCH  32  33
ATOM     33  C   UNL A   1      34.271  28.551  25.885  1.00  0.00     0.116 C 
BRANCH  33  34
ATOM     34  N   UNL A   1      33.874  29.881  26.311  1.00  0.00    -0.352 N 
ATOM     35  C   UNL A   1      34.340  30.638  27.354  1.00  0.00     0.251 C 
ATOM     36  H   UNL A   1      33.166  30.302  25.770  1.00  0.00     0.163 HD
ATOM     37  O   UNL A   1      33.702  31.623  27.717  1.00  0.00    -0.269 OA
BRANCH  35  38
ATOM     38  C   UNL A   1      35.599  30.275  28.041  1.00  0.00     0.039 A 
ATOM     39  C   UNL A   1      36.804  30.762  27.528  1.00  0.00     0.014 A 
ATOM     40  C   UNL A   1      35.604  29.422  29.150  1.00  0.00     0.014 A 
ATOM     41  C   UNL A   1      38.008  30.412  28.141  1.00  0.00     0.010 A 
ATOM     42  C   UNL A   1      36.800  29.138  29.807  1.00  0.00     0.010 A 
ATOM     43  C   UNL A   1      38.016  29.613  29.298  1.00  0.00    -0.014 A 
BRANCH  43  44
ATOM     44  C   UNL A   1      39.299  29.276  29.966  1.00  0.00     0.031 A 
ATOM     45  C   UNL A   1      39.738  30.015  31.203  1.00  0.00     0.074 A 
ATOM     46  C   UNL A   1      40.080  28.313  29.440  1.00  0.00     0.049 A 
ATOM     47  N   UNL A   1      40.801  29.825  31.941  1.00  0.00    -0.248 NA
ATOM     48  C   UNL A   1      38.888  31.128  31.654  1.00  0.00     0.031 C 
ATOM     49  C   UNL A   1      39.797  27.580  28.204  1.00  0.00     0.029 A 
ATOM     50  N   UNL A   1      41.268  27.783  29.875  1.00  0.00    -0.354 N 
ATOM     51  C   UNL A   1      40.754  30.795  32.935  1.00  0.00     0.074 A 
ATOM     52  C   UNL A   1      39.588  31.609  32.671  1.00  0.00     0.031 C 
ATOM     53  C   UNL A   1      40.764  26.673  27.999  1.00  0.00     0.029 A 
ATOM     54  C   UNL A   1      41.750  26.779  29.070  1.00  0.00     0.049 A 
ATOM     55  H   UNL A   1      41.731  28.093  30.687  1.00  0.00     0.167 HD
ATOM     56  C   UNL A   1      41.592  30.976  33.985  1.00  0.00     0.037 A 
ATOM     57  C   UNL A   1      42.859  26.022  29.185  1.00  0.00     0.037 A 
ATOM     58  C   UNL A   1      42.739  30.145  34.250  1.00  0.00     0.049 A 
ATOM     59  C   UNL A   1      43.750  26.211  30.380  1.00  0.00     0.074 A 
ATOM     60  C   UNL A   1      43.611  30.197  35.325  1.00  0.00     0.029 A 
ATOM     61  N   UNL A   1      43.179  29.116  33.430  1.00  0.00    -0.354 N 
ATOM     62  N   UNL A   1      43.641  27.077  31.361  1.00  0.00    -0.248 NA
ATOM     63  C   UNL A   1      44.902  25.309  30.497  1.00  0.00     0.031 C 
ATOM     64  C   UNL A   1      44.607  29.235  35.127  1.00  0.00     0.029 A 
ATOM     65  C   UNL A   1      44.324  28.543  33.959  1.00  0.00     0.049 A 
ATOM     66  H   UNL A   1      42.744  28.835  32.593  1.00  0.00     0.167 HD
ATOM     67  C   UNL A   1      44.699  26.809  32.223  1.00  0.00     0.074 A 
ATOM     68  C   UNL A   1      45.421  25.687  31.657  1.00  0.00     0.031 C 
ATOM     69  C   UNL A   1      45.040  27.432  33.379  1.00  0.00     0.037 A 
BRANCH  56  70
ATOM     70  C   UNL A   1      41.301  32.118  34.923  1.00  0.00     0.058 A 
ATOM     71  C   UNL A   1      41.889  33.383  34.760  1.00  0.00     0.135 A 
ATOM     72  C   UNL A   1      40.397  31.953  35.987  1.00  0.00     0.135 A 
ATOM     73  F   UNL A   1      42.770  33.597  33.770  1.00  0.00    -0.206 F 
ATOM     74  C   UNL A   1      41.622  34.431  35.636  1.00  0.00     0.059 A 
ATOM     75  C   UNL A   1      40.091  32.996  36.857  1.00  0.00     0.059 A 
ATOM     76  F   UNL A   1      39.803  30.768  36.192  1.00  0.00    -0.206 F 
ATOM     77  C   UNL A   1      40.722  34.228  36.683  1.00  0.00     0.060 A 
BRANCH  77  78
ATOM     78  S   UNL A   1      40.389  35.595  37.814  1.00  0.00     0.124 S 
ATOM     79  O   UNL A   1      39.298  35.048  38.617  1.00  0.00    -0.237 OA
ATOM     80  O   UNL A   1      41.666  35.748  38.502  1.00  0.00    -0.237 OA
ATOM     81  O   UNL A   1      40.022  36.692  36.924  1.00  0.00    -0.744 OA
ENDBRANCH  77  78
ENDBRANCH  56  70
BRANCH  57  82
ATOM     82  C   UNL A   1      43.159  24.996  28.150  1.00  0.00     0.058 A 
ATOM     83  C   UNL A   1      43.818  25.334  26.960  1.00  0.00     0.135 A 
ATOM     84  C   UNL A   1      42.821  23.649  28.350  1.00  0.00     0.135 A 
ATOM     85  F   UNL A   1      44.159  26.609  26.720  1.00  0.00    -0.206 F 
ATOM     86  C   UNL A   1      44.122  24.376  25.998  1.00  0.00     0.059 A 
ATOM     87  C   UNL A   1      43.139  22.669  27.417  1.00  0.00     0.059 A 
ATOM     88  F   UNL A   1      42.207  23.270  29.483  1.00  0.00    -0.206 F 
ATOM     89  C   UNL A   1      43.783  23.043  26.238  1.00  0.00     0.060 A 
BRANCH  89  90
ATOM     90  S   UNL A   1      44.240  21.796  25.015  1.00  0.00     0.124 S 
ATOM     91  O   UNL A   1      43.231  20.770  25.251  1.00  0.00    -0.237 OA
ATOM     92  O   UNL A   1      44.118  22.538  23.764  1.00  0.00    -0.237 OA
ATOM     93  O   UNL A   1      45.604  21.441  25.394  1.00  0.00    -0.744 OA
ENDBRANCH  89  90
ENDBRANCH  57  82
BRANCH  69  94
ATOM     94  C   UNL A   1      46.234  26.896  34.120  1.00  0.00     0.058 A 
ATOM     95  C   UNL A   1      47.529  27.392  33.898  1.00  0.00     0.135 A 
ATOM     96  C   UNL A   1      46.079  25.877  35.073  1.00  0.00     0.135 A 
ATOM     97  F   UNL A   1      47.734  28.365  32.996  1.00  0.00    -0.206 F 
ATOM     98  C   UNL A   1      48.633  26.865  34.561  1.00  0.00     0.059 A 
ATOM     99  C   UNL A   1      47.165  25.357  35.771  1.00  0.00     0.059 A 
ATOM    100  F   UNL A   1      44.861  25.375  35.337  1.00  0.00    -0.206 F 
ATOM    101  C   UNL A   1      48.441  25.843  35.491  1.00  0.00     0.060 A 
BRANCH 101 102
ATOM    102  S   UNL A   1      49.882  25.158  36.336  1.00  0.00     0.124 S 
ATOM    103  O   UNL A   1      49.270  24.558  37.517  1.00  0.00    -0.237 OA
ATOM    104  O   UNL A   1      50.408  24.221  35.349  1.00  0.00    -0.237 OA
ATOM    105  O   UNL A   1      50.716  26.330  36.587  1.00  0.00    -0.744 OA
ENDBRANCH 101 102
ENDBRANCH  69  94
ENDBRANCH  43  44
ENDBRANCH  35  38
ENDBRANCH  33  34
ENDBRANCH  32  33
ENDBRANCH   1  32
TORSDOF 20
ENDMDL
MODEL 2
REMARK VINA RESULT:     -11.9      4.782      6.037
REMARK SMILES CC(=O)Nc1ccc(/C(=C\c2ccc(S(C)(=O)=O)cc2)C(=O)NCCCCCCNC(=O)c2ccc(-c3c4nc(c(-c5c(F)cc(S(=O)(=O)[O-])cc5F)c5ccc([nH]5)c(-c5c(F)cc(S(=O)(=O)[O-])cc5F)c5nc(c(-c6c(F)cc(S(=O)(=O)[O-])cc6F)c6ccc3[nH]6)C=C5)C=C4)cc2)cc1
REMARK SMILES IDX 27 1 26 2 25 3 24 4 23 5 21 6 22 7 9 9 10 10 8 11 5 12 6 13
REMARK SMILES IDX 100 14 7 15 99 16 4 17 1 18 2 19 3 20 11 22 12 23 20 24
REMARK SMILES IDX 13 25 19 26 14 27 15 28 16 29 17 30 18 31 28 32 29 33 30 34
REMARK SMILES IDX 31 35 32 37 33 38 34 39 98 40 35 41 97 42 36 43 37 44 38 45
REMARK SMILES IDX 91 46 39 47 96 48 90 49 92 50 40 51 95 52 89 53 88 54 41 56
REMARK SMILES IDX 75 57 54 58 74 59 55 60 58 61 73 62 93 63 56 64 57 65 72 67
REMARK SMILES IDX 94 68 59 69 42 70 43 71 52 72 44 73 45 74 51 75 53 76 46 77
REMARK SMILES IDX 47 78 48 79 49 80 50 81 76 82 77 83 86 84 78 85 79 86 85 87
REMARK SMILES IDX 87 88 80 89 81 90 82 91 83 92 84 93 60 94 61 95 70 96 62 97
REMARK SMILES IDX 63 98 69 99 71 100 64 101 65 102 66 103 67 104 68 105
REMARK H PARENT 23 8 4 21 30 36 92 55 58 66
REMARK Flexibility Score: inf
ROOT
ATOM      1  C   UNL A   1      33.113  29.853  27.305  1.00  0.00     0.002 C 
ENDROOT
BRANCH   1   2
ATOM      2  C   UNL A   1      32.279  29.265  26.162  1.00  0.00     0.002 C 
BRANCH   2   3
ATOM      3  C   UNL A   1      31.562  27.947  26.496  1.00  0.00     0.021 C 
BRANCH   3   4
ATOM      4  C   UNL A   1      32.273  26.709  25.939  1.00  0.00     0.116 C 
BRANCH   4   5
ATOM      5  N   UNL A   1      31.820  26.446  24.589  1.00  0.00    -0.352 N 
ATOM      6  C   UNL A   1      31.909  25.419  23.708  1.00  0.00     0.251 C 
ATOM      7  O   UNL A   1      31.348  25.654  22.633  1.00  0.00    -0.269 OA
ATOM      8  H   UNL A   1      31.321  27.208  24.215  1.00  0.00     0.163 HD
BRANCH   6   9
ATOM      9  C   UNL A   1      32.555  24.061  23.990  1.00  0.00     0.047 C 
ATOM     10  C   UNL A   1      31.761  22.975  24.153  1.00  0.00     0.022 C 
BRANCH   9  11
ATOM     11  C   UNL A   1      34.039  23.998  24.271  1.00  0.00    -0.013 A 
ATOM     12  C   UNL A   1      36.735  23.416  25.031  1.00  0.00     0.041 A 
ATOM     13  C   UNL A   1      36.334  23.346  23.695  1.00  0.00     0.027 A 
ATOM     14  C   UNL A   1      35.835  23.933  25.948  1.00  0.00     0.027 A 
ATOM     15  C   UNL A   1      35.015  23.666  23.319  1.00  0.00     0.011 A 
ATOM     16  C   UNL A   1      34.508  24.176  25.582  1.00  0.00     0.011 A 
BRANCH  12  17
ATOM     17  N   UNL A   1      38.021  22.965  25.365  1.00  0.00    -0.326 N 
ATOM     18  C   UNL A   1      37.738  20.484  25.148  1.00  0.00     0.114 C 
ATOM     19  C   UNL A   1      38.537  21.707  25.513  1.00  0.00     0.221 C 
ATOM     20  O   UNL A   1      39.699  21.588  25.915  1.00  0.00    -0.275 OA
ATOM     21  H   UNL A   1      38.673  23.687  25.522  1.00  0.00     0.169 HD
ENDBRANCH  12  17
ENDBRANCH   9  11
BRANCH  10  22
ATOM     22  C   UNL A   1      32.125  21.553  24.233  1.00  0.00    -0.025 A 
ATOM     23  C   UNL A   1      32.120  20.806  23.042  1.00  0.00     0.009 A 
ATOM     24  C   UNL A   1      32.525  20.945  25.426  1.00  0.00     0.009 A 
ATOM     25  C   UNL A   1      32.563  19.482  23.028  1.00  0.00     0.021 A 
ATOM     26  C   UNL A   1      32.972  19.620  25.419  1.00  0.00     0.021 A 
ATOM     27  C   UNL A   1      32.997  18.899  24.221  1.00  0.00     0.067 A 
BRANCH  27  28
ATOM     28  S   UNL A   1      33.696  17.264  24.176  1.00  0.00     0.175 S 
ATOM     29  C   UNL A   1      32.802  16.378  25.423  1.00  0.00     0.163 C 
ATOM     30  O   UNL A   1      33.366  16.696  22.883  1.00  0.00    -0.224 OA
ATOM     31  O   UNL A   1      35.079  17.369  24.604  1.00  0.00    -0.224 OA
ENDBRANCH  27  28
ENDBRANCH  10  22
ENDBRANCH   6   9
ENDBRANCH   4   5
ENDBRANCH   3   4
ENDBRANCH   2   3
ENDBRANCH   1   2
BRANCH   1  32
ATOM     32  C   UNL A   1      34.572  29.387  27.341  1.00  0.00     0.021 C 
BRANCH  32  33
ATOM     33  C   UNL A   1      35.547  30.419  27.900  1.00  0.00     0.116 C 
BRANCH  33  34
ATOM     34  N   UNL A   1      35.514  30.447  29.351  1.00  0.00    -0.352 N 
ATOM     35  C   UNL A   1      36.433  29.980  30.254  1.00  0.00     0.251 C 
ATOM     36  H   UNL A   1      34.712  30.862  29.746  1.00  0.00     0.163 HD
ATOM     37  O   UNL A   1      36.111  29.853  31.432  1.00  0.00    -0.269 OA
BRANCH  35  38
ATOM     38  C   UNL A   1      37.802  29.629  29.817  1.00  0.00     0.039 A 
ATOM     39  C   UNL A   1      38.087  29.626  28.449  1.00  0.00     0.014 A 
ATOM     40  C   UNL A   1      38.787  29.254  30.737  1.00  0.00     0.014 A 
ATOM     41  C   UNL A   1      39.364  29.273  28.009  1.00  0.00     0.010 A 
ATOM     42  C   UNL A   1      40.082  28.977  30.301  1.00  0.00     0.010 A 
ATOM     43  C   UNL A   1      40.378  28.964  28.932  1.00  0.00    -0.014 A 
BRANCH  43  44
ATOM     44  C   UNL A   1      41.744  28.625  28.457  1.00  0.00     0.031 A 
ATOM     45  C   UNL A   1      42.812  29.683  28.370  1.00  0.00     0.074 A 
ATOM     46  C   UNL A   1      42.014  27.359  28.082  1.00  0.00     0.049 A 
ATOM     47  N   UNL A   1      44.067  29.559  28.021  1.00  0.00    -0.248 NA
ATOM     48  C   UNL A   1      42.414  31.063  28.689  1.00  0.00     0.031 C 
ATOM     49  C   UNL A   1      41.041  26.265  28.051  1.00  0.00     0.029 A 
ATOM     50  N   UNL A   1      43.181  26.778  27.658  1.00  0.00    -0.354 N 
ATOM     51  C   UNL A   1      44.604  30.840  28.070  1.00  0.00     0.074 A 
ATOM     52  C   UNL A   1      43.525  31.735  28.425  1.00  0.00     0.031 C 
ATOM     53  C   UNL A   1      41.659  25.138  27.665  1.00  0.00     0.029 A 
ATOM     54  C   UNL A   1      43.062  25.434  27.392  1.00  0.00     0.049 A 
ATOM     55  H   UNL A   1      44.024  27.275  27.554  1.00  0.00     0.167 HD
ATOM     56  C   UNL A   1      45.886  31.232  27.862  1.00  0.00     0.037 A 
ATOM     57  C   UNL A   1      43.981  24.539  26.983  1.00  0.00     0.037 A 
ATOM     58  C   UNL A   1      46.958  30.328  27.530  1.00  0.00     0.049 A 
ATOM     59  C   UNL A   1      45.404  24.986  26.800  1.00  0.00     0.074 A 
ATOM     60  C   UNL A   1      48.303  30.610  27.369  1.00  0.00     0.029 A 
ATOM     61  N   UNL A   1      46.806  28.968  27.299  1.00  0.00    -0.354 N 
ATOM     62  N   UNL A   1      45.914  26.188  26.938  1.00  0.00    -0.248 NA
ATOM     63  C   UNL A   1      46.381  23.955  26.427  1.00  0.00     0.031 C 
ATOM     64  C   UNL A   1      48.956  29.431  26.990  1.00  0.00     0.029 A 
ATOM     65  C   UNL A   1      48.028  28.402  26.973  1.00  0.00     0.049 A 
ATOM     66  H   UNL A   1      45.955  28.477  27.358  1.00  0.00     0.167 HD
ATOM     67  C   UNL A   1      47.276  26.053  26.689  1.00  0.00     0.074 A 
ATOM     68  C   UNL A   1      47.510  24.649  26.415  1.00  0.00     0.031 C 
ATOM     69  C   UNL A   1      48.244  27.003  26.691  1.00  0.00     0.037 A 
BRANCH  56  70
ATOM     70  C   UNL A   1      46.197  32.700  27.984  1.00  0.00     0.058 A 
ATOM     71  C   UNL A   1      46.699  33.258  29.172  1.00  0.00     0.135 A 
ATOM     72  C   UNL A   1      46.016  33.560  26.887  1.00  0.00     0.135 A 
ATOM     73  F   UNL A   1      46.879  32.488  30.257  1.00  0.00    -0.206 F 
ATOM     74  C   UNL A   1      46.975  34.617  29.280  1.00  0.00     0.059 A 
ATOM     75  C   UNL A   1      46.316  34.917  26.963  1.00  0.00     0.059 A 
ATOM     76  F   UNL A   1      45.541  33.085  25.726  1.00  0.00    -0.206 F 
ATOM     77  C   UNL A   1      46.779  35.440  28.170  1.00  0.00     0.060 A 
BRANCH  77  78
ATOM     78  S   UNL A   1      47.138  37.202  28.327  1.00  0.00     0.124 S 
ATOM     79  O   UNL A   1      46.691  37.469  29.692  1.00  0.00    -0.237 OA
ATOM     80  O   UNL A   1      48.580  37.247  28.114  1.00  0.00    -0.237 OA
ATOM     81  O   UNL A   1      46.331  37.810  27.274  1.00  0.00    -0.744 OA
ENDBRANCH  77  78
ENDBRANCH  56  70
BRANCH  57  82
ATOM     82  C   UNL A   1      43.579  23.125  26.753  1.00  0.00     0.058 A 
ATOM     83  C   UNL A   1      43.519  22.586  25.460  1.00  0.00     0.135 A 
ATOM     84  C   UNL A   1      43.279  22.276  27.830  1.00  0.00     0.135 A 
ATOM     85  F   UNL A   1      43.793  23.358  24.398  1.00  0.00    -0.206 F 
ATOM     86  C   UNL A   1      43.166  21.258  25.239  1.00  0.00     0.059 A 
ATOM     87  C   UNL A   1      42.950  20.939  27.637  1.00  0.00     0.059 A 
ATOM     88  F   UNL A   1      43.342  22.739  29.089  1.00  0.00    -0.206 F 
ATOM     89  C   UNL A   1      42.889  20.440  26.337  1.00  0.00     0.060 A 
BRANCH  89  90
ATOM     90  S   UNL A   1      42.496  18.702  26.047  1.00  0.00     0.124 S 
ATOM     91  O   UNL A   1      43.413  18.371  24.962  1.00  0.00    -0.237 OA
ATOM     92  O   UNL A   1      42.794  18.101  27.343  1.00  0.00    -0.237 OA
ATOM     93  O   UNL A   1      41.080  18.735  25.690  1.00  0.00    -0.744 OA
ENDBRANCH  89  90
ENDBRANCH  57  82
BRANCH  69  94
ATOM     94  C   UNL A   1      49.651  26.548  26.411  1.00  0.00     0.058 A 
ATOM     95  C   UNL A   1      50.226  26.659  25.134  1.00  0.00     0.135 A 
ATOM     96  C   UNL A   1      50.438  26.001  27.437  1.00  0.00     0.135 A 
ATOM     97  F   UNL A   1      49.517  27.173  24.117  1.00  0.00    -0.206 F 
ATOM     98  C   UNL A   1      51.514  26.202  24.875  1.00  0.00     0.059 A 
ATOM     99  C   UNL A   1      51.740  25.567  27.207  1.00  0.00     0.059 A 
ATOM    100  F   UNL A   1      49.944  25.885  28.680  1.00  0.00    -0.206 F 
ATOM    101  C   UNL A   1      52.261  25.652  25.918  1.00  0.00     0.060 A 
BRANCH 101 102
ATOM    102  S   UNL A   1      53.927  25.051  25.567  1.00  0.00     0.124 S 
ATOM    103  O   UNL A   1      53.646  23.789  24.891  1.00  0.00    -0.237 OA
ATOM    104  O   UNL A   1      54.473  26.113  24.728  1.00  0.00    -0.237 OA
ATOM    105  O   UNL A   1      54.530  24.933  26.892  1.00  0.00    -0.744 OA
ENDBRANCH 101 102
ENDBRANCH  69  94
ENDBRANCH  43  44
ENDBRANCH  35  38
ENDBRANCH  33  34
ENDBRANCH  32  33
ENDBRANCH   1  32
TORSDOF 20
ENDMDL
MODEL 3
REMARK VINA RESULT:     -11.0      5.904      9.551
REMARK SMILES CC(=O)Nc1ccc(/C(=C\c2ccc(S(C)(=O)=O)cc2)C(=O)NCCCCCCNC(=O)c2ccc(-c3c4nc(c(-c5c(F)cc(S(=O)(=O)[O-])cc5F)c5ccc([nH]5)c(-c5c(F)cc(S(=O)(=O)[O-])cc5F)c5nc(c(-c6c(F)cc(S(=O)(=O)[O-])cc6F)c6ccc3[nH]6)C=C5)C=C4)cc2)cc1
REMARK SMILES IDX 27 1 26 2 25 3 24 4 23 5 21 6 22 7 9 9 10 10 8 11 5 12 6 13
REMARK SMILES IDX 100 14 7 15 99 16 4 17 1 18 2 19 3 20 11 22 12 23 20 24
REMARK SMILES IDX 13 25 19 26 14 27 15 28 16 29 17 30 18 31 28 32 29 33 30 34
REMARK SMILES IDX 31 35 32 37 33 38 34 39 98 40 35 41 97 42 36 43 37 44 38 45
REMARK SMILES IDX 91 46 39 47 96 48 90 49 92 50 40 51 95 52 89 53 88 54 41 56
REMARK SMILES IDX 75 57 54 58 74 59 55 60 58 61 73 62 93 63 56 64 57 65 72 67
REMARK SMILES IDX 94 68 59 69 42 70 43 71 52 72 44 73 45 74 51 75 53 76 46 77
REMARK SMILES IDX 47 78 48 79 49 80 50 81 76 82 77 83 86 84 78 85 79 86 85 87
REMARK SMILES IDX 87 88 80 89 81 90 82 91 83 92 84 93 60 94 61 95 70 96 62 97
REMARK SMILES IDX 63 98 69 99 71 100 64 101 65 102 66 103 67 104 68 105
REMARK H PARENT 23 8 4 21 30 36 92 55 58 66
REMARK Flexibility Score: inf
ROOT
ATOM      1  C   UNL A   1      37.315  33.233  34.844  1.00  0.00     0.002 C 
ENDROOT
BRANCH   1   2
ATOM      2  C   UNL A   1      38.321  34.374  34.647  1.00  0.00     0.002 C 
BRANCH   2   3
ATOM      3  C   UNL A   1      38.823  34.551  33.206  1.00  0.00     0.021 C 
BRANCH   3   4
ATOM      4  C   UNL A   1      37.870  33.977  32.152  1.00  0.00     0.116 C 
BRANCH   4   5
ATOM      5  N   UNL A   1      38.411  34.192  30.827  1.00  0.00    -0.352 N 
ATOM      6  C   UNL A   1      38.044  33.889  29.558  1.00  0.00     0.251 C 
ATOM      7  O   UNL A   1      38.849  34.292  28.712  1.00  0.00    -0.269 OA
ATOM      8  H   UNL A   1      39.264  34.684  30.855  1.00  0.00     0.163 HD
BRANCH   6   9
ATOM      9  C   UNL A   1      36.744  33.193  29.152  1.00  0.00     0.047 C 
ATOM     10  C   UNL A   1      36.780  32.244  28.185  1.00  0.00     0.022 C 
BRANCH   9  11
ATOM     11  C   UNL A   1      35.432  33.711  29.695  1.00  0.00    -0.013 A 
ATOM     12  C   UNL A   1      33.249  34.942  31.075  1.00  0.00     0.041 A 
ATOM     13  C   UNL A   1      33.626  35.369  29.800  1.00  0.00     0.027 A 
ATOM     14  C   UNL A   1      33.854  33.803  31.577  1.00  0.00     0.027 A 
ATOM     15  C   UNL A   1      34.678  34.739  29.108  1.00  0.00     0.011 A 
ATOM     16  C   UNL A   1      34.947  33.229  30.921  1.00  0.00     0.011 A 
BRANCH  12  17
ATOM     17  N   UNL A   1      32.281  35.686  31.768  1.00  0.00    -0.326 N 
ATOM     18  C   UNL A   1      33.722  37.060  33.290  1.00  0.00     0.114 C 
ATOM     19  C   UNL A   1      32.383  36.580  32.797  1.00  0.00     0.221 C 
ATOM     20  O   UNL A   1      31.345  37.027  33.296  1.00  0.00    -0.275 OA
ATOM     21  H   UNL A   1      31.359  35.536  31.455  1.00  0.00     0.169 HD
ENDBRANCH  12  17
ENDBRANCH   9  11
BRANCH  10  22
ATOM     22  C   UNL A   1      35.733  31.303  27.757  1.00  0.00    -0.025 A 
ATOM     23  C   UNL A   1      36.089  29.951  27.606  1.00  0.00     0.009 A 
ATOM     24  C   UNL A   1      34.407  31.694  27.554  1.00  0.00     0.009 A 
ATOM     25  C   UNL A   1      35.122  28.989  27.313  1.00  0.00     0.021 A 
ATOM     26  C   UNL A   1      33.433  30.735  27.261  1.00  0.00     0.021 A 
ATOM     27  C   UNL A   1      33.794  29.388  27.151  1.00  0.00     0.067 A 
BRANCH  27  28
ATOM     28  S   UNL A   1      32.542  28.144  26.921  1.00  0.00     0.175 S 
ATOM     29  C   UNL A   1      31.555  28.766  25.587  1.00  0.00     0.163 C 
ATOM     30  O   UNL A   1      33.216  26.941  26.473  1.00  0.00    -0.224 OA
ATOM     31  O   UNL A   1      31.719  28.127  28.117  1.00  0.00    -0.224 OA
ENDBRANCH  27  28
ENDBRANCH  10  22
ENDBRANCH   6   9
ENDBRANCH   4   5
ENDBRANCH   3   4
ENDBRANCH   2   3
ENDBRANCH   1   2
BRANCH   1  32
ATOM     32  C   UNL A   1      37.910  31.946  35.426  1.00  0.00     0.021 C 
BRANCH  32  33
ATOM     33  C   UNL A   1      38.344  30.926  34.378  1.00  0.00     0.116 C 
BRANCH  33  34
ATOM     34  N   UNL A   1      37.218  30.477  33.579  1.00  0.00    -0.352 N 
ATOM     35  C   UNL A   1      37.177  30.103  32.262  1.00  0.00     0.251 C 
ATOM     36  H   UNL A   1      36.356  30.435  34.054  1.00  0.00     0.163 HD
ATOM     37  O   UNL A   1      36.092  30.008  31.694  1.00  0.00    -0.269 OA
BRANCH  35  38
ATOM     38  C   UNL A   1      38.427  29.814  31.525  1.00  0.00     0.039 A 
ATOM     39  C   UNL A   1      39.438  29.103  32.176  1.00  0.00     0.014 A 
ATOM     40  C   UNL A   1      38.629  30.282  30.221  1.00  0.00     0.014 A 
ATOM     41  C   UNL A   1      40.637  28.841  31.512  1.00  0.00     0.010 A 
ATOM     42  C   UNL A   1      39.796  29.953  29.534  1.00  0.00     0.010 A 
ATOM     43  C   UNL A   1      40.820  29.246  30.178  1.00  0.00    -0.014 A 
BRANCH  43  44
ATOM     44  C   UNL A   1      42.085  28.931  29.467  1.00  0.00     0.031 A 
ATOM     45  C   UNL A   1      43.161  29.974  29.315  1.00  0.00     0.074 A 
ATOM     46  C   UNL A   1      42.253  27.704  28.936  1.00  0.00     0.049 A 
ATOM     47  N   UNL A   1      44.343  29.864  28.765  1.00  0.00    -0.248 NA
ATOM     48  C   UNL A   1      42.861  31.323  29.822  1.00  0.00     0.031 C 
ATOM     49  C   UNL A   1      41.251  26.636  28.952  1.00  0.00     0.029 A 
ATOM     50  N   UNL A   1      43.322  27.148  28.282  1.00  0.00    -0.354 N 
ATOM     51  C   UNL A   1      44.923  31.124  28.852  1.00  0.00     0.074 A 
ATOM     52  C   UNL A   1      43.940  31.998  29.454  1.00  0.00     0.031 C 
ATOM     53  C   UNL A   1      41.766  25.542  28.369  1.00  0.00     0.029 A 
ATOM     54  C   UNL A   1      43.120  25.839  27.911  1.00  0.00     0.049 A 
ATOM     55  H   UNL A   1      44.154  27.638  28.095  1.00  0.00     0.167 HD
ATOM     56  C   UNL A   1      46.169  31.512  28.484  1.00  0.00     0.037 A 
ATOM     57  C   UNL A   1      43.935  24.973  27.279  1.00  0.00     0.037 A 
ATOM     58  C   UNL A   1      47.147  30.627  27.905  1.00  0.00     0.049 A 
ATOM     59  C   UNL A   1      45.327  25.412  26.921  1.00  0.00     0.074 A 
ATOM     60  C   UNL A   1      48.461  30.900  27.564  1.00  0.00     0.029 A 
ATOM     61  N   UNL A   1      46.918  29.299  27.572  1.00  0.00    -0.354 N 
ATOM     62  N   UNL A   1      45.892  26.585  27.091  1.00  0.00    -0.248 NA
ATOM     63  C   UNL A   1      46.201  24.406  26.304  1.00  0.00     0.031 C 
ATOM     64  C   UNL A   1      49.009  29.753  26.978  1.00  0.00     0.029 A 
ATOM     65  C   UNL A   1      48.056  28.747  27.007  1.00  0.00     0.049 A 
ATOM     66  H   UNL A   1      46.071  28.820  27.716  1.00  0.00     0.167 HD
ATOM     67  C   UNL A   1      47.193  26.451  26.622  1.00  0.00     0.074 A 
ATOM     68  C   UNL A   1      47.337  25.078  26.182  1.00  0.00     0.031 C 
ATOM     69  C   UNL A   1      48.181  27.380  26.563  1.00  0.00     0.037 A 
BRANCH  56  70
ATOM     70  C   UNL A   1      46.543  32.955  28.696  1.00  0.00     0.058 A 
ATOM     71  C   UNL A   1      47.154  33.400  29.881  1.00  0.00     0.135 A 
ATOM     72  C   UNL A   1      46.312  33.906  27.687  1.00  0.00     0.135 A 
ATOM     73  F   UNL A   1      47.387  32.540  30.885  1.00  0.00    -0.206 F 
ATOM     74  C   UNL A   1      47.488  34.737  30.072  1.00  0.00     0.059 A 
ATOM     75  C   UNL A   1      46.667  35.243  27.845  1.00  0.00     0.059 A 
ATOM     76  F   UNL A   1      45.733  33.541  26.533  1.00  0.00    -0.206 F 
ATOM     77  C   UNL A   1      47.239  35.652  29.049  1.00  0.00     0.060 A 
BRANCH  77  78
ATOM     78  S   UNL A   1      47.674  37.384  29.314  1.00  0.00     0.124 S 
ATOM     79  O   UNL A   1      49.050  37.268  29.792  1.00  0.00    -0.237 OA
ATOM     80  O   UNL A   1      47.513  37.954  27.981  1.00  0.00    -0.237 OA
ATOM     81  O   UNL A   1      46.702  37.831  30.307  1.00  0.00    -0.744 OA
ENDBRANCH  77  78
ENDBRANCH  56  70
BRANCH  57  82
ATOM     82  C   UNL A   1      43.457  23.596  26.982  1.00  0.00     0.058 A 
ATOM     83  C   UNL A   1      43.179  23.190  25.669  1.00  0.00     0.135 A 
ATOM     84  C   UNL A   1      43.302  22.649  28.006  1.00  0.00     0.135 A 
ATOM     85  F   UNL A   1      43.308  24.060  24.656  1.00  0.00    -0.206 F 
ATOM     86  C   UNL A   1      42.753  21.897  25.381  1.00  0.00     0.059 A 
ATOM     87  C   UNL A   1      42.904  21.343  27.740  1.00  0.00     0.059 A 
ATOM     88  F   UNL A   1      43.576  22.982  29.278  1.00  0.00    -0.206 F 
ATOM     89  C   UNL A   1      42.624  20.978  26.424  1.00  0.00     0.060 A 
BRANCH  89  90
ATOM     90  S   UNL A   1      42.135  19.285  26.035  1.00  0.00     0.124 S 
ATOM     91  O   UNL A   1      42.613  18.563  27.209  1.00  0.00    -0.237 OA
ATOM     92  O   UNL A   1      40.686  19.408  25.906  1.00  0.00    -0.237 OA
ATOM     93  O   UNL A   1      42.846  19.010  24.790  1.00  0.00    -0.744 OA
ENDBRANCH  89  90
ENDBRANCH  57  82
BRANCH  69  94
ATOM     94  C   UNL A   1      49.513  26.930  26.025  1.00  0.00     0.058 A 
ATOM     95  C   UNL A   1      50.461  26.285  26.836  1.00  0.00     0.135 A 
ATOM     96  C   UNL A   1      49.840  27.138  24.675  1.00  0.00     0.135 A 
ATOM     97  F   UNL A   1      50.199  26.062  28.134  1.00  0.00    -0.206 F 
ATOM     98  C   UNL A   1      51.704  25.905  26.339  1.00  0.00     0.059 A 
ATOM     99  C   UNL A   1      51.064  26.738  24.150  1.00  0.00     0.059 A 
ATOM    100  F   UNL A   1      48.965  27.736  23.850  1.00  0.00    -0.206 F 
ATOM    101  C   UNL A   1      51.998  26.142  24.995  1.00  0.00     0.060 A 
BRANCH 101 102
ATOM    102  S   UNL A   1      53.618  25.656  24.365  1.00  0.00     0.124 S 
ATOM    103  O   UNL A   1      53.430  25.807  22.926  1.00  0.00    -0.237 OA
ATOM    104  O   UNL A   1      54.504  26.630  24.994  1.00  0.00    -0.237 OA
ATOM    105  O   UNL A   1      53.768  24.283  24.838  1.00  0.00    -0.744 OA
ENDBRANCH 101 102
ENDBRANCH  69  94
ENDBRANCH  43  44
ENDBRANCH  35  38
ENDBRANCH  33  34
ENDBRANCH  32  33
ENDBRANCH   1  32
TORSDOF 20
ENDMDL
