MODEL 1
REMARK VINA RESULT:     -12.4      0.000      0.000
REMARK SMILES CC(=O)Nc1cc(NC(C)=O)cc(C(=O)Nc2ccc(Br)cc2C(=O)NCCCCCCNC(=O)c2ccc(-c3c4nc(c(-c5c(F)cc(S(=O)(=O)[O-])cc5F)c5ccc([nH]5)c(-c5c(F)cc(S(=O)(=O)[O-])cc5F)c5nc(c(-c6c(F)cc(S(=O)(=O)[O-])cc6F)c6ccc3[nH]6)C=C5)C=C4)cc2)c1
REMARK SMILES IDX 29 1 28 2 27 3 26 4 24 5 25 6 23 8 17 9 18 10 19 11 22 12
REMARK SMILES IDX 20 13 21 14 16 15 14 16 15 17 13 19 5 20 6 21 102 22 7 23
REMARK SMILES IDX 12 24 4 25 1 26 2 27 3 28 8 30 9 31 10 33 11 34 30 35 31 36
REMARK SMILES IDX 32 37 33 38 34 39 35 41 36 42 37 43 101 44 38 45 100 46
REMARK SMILES IDX 39 47 40 48 41 49 94 50 42 51 99 52 93 53 95 54 43 55 98 56
REMARK SMILES IDX 92 57 91 58 44 60 78 61 57 62 77 63 58 64 61 65 76 66 96 67
REMARK SMILES IDX 59 68 60 69 75 71 97 72 62 73 45 74 46 75 55 76 47 77 48 78
REMARK SMILES IDX 54 79 56 80 49 81 50 82 51 83 52 84 53 85 79 86 80 87 89 88
REMARK SMILES IDX 81 89 82 90 88 91 90 92 83 93 84 94 85 95 86 96 87 97 63 98
REMARK SMILES IDX 64 99 73 100 65 101 66 102 72 103 74 104 67 105 68 106
REMARK SMILES IDX 69 107 70 108 71 109
REMARK H PARENT 26 7 16 18 4 29 8 32 33 40 95 59 61 70
REMARK Flexibility Score: inf
ROOT
ATOM      1  C   UNL A   1      39.029  21.845  26.058  1.00  0.00     0.002 C 
ENDROOT
BRANCH   1   2
ATOM      2  C   UNL A   1      38.558  23.189  26.627  1.00  0.00     0.021 C 
BRANCH   2   3
ATOM      3  C   UNL A   1      37.497  23.913  25.815  1.00  0.00     0.116 C 
BRANCH   3   4
ATOM      4  N   UNL A   1      37.376  23.465  24.447  1.00  0.00    -0.352 N 
ATOM      5  C   UNL A   1      36.255  23.350  23.663  1.00  0.00     0.253 C 
ATOM      6  O   UNL A   1      36.403  22.951  22.507  1.00  0.00    -0.269 OA
ATOM      7  H   UNL A   1      38.221  23.205  24.013  1.00  0.00     0.163 HD
BRANCH   5   8
ATOM      8  C   UNL A   1      34.872  23.585  24.179  1.00  0.00     0.064 A 
ATOM      9  C   UNL A   1      33.813  24.279  23.551  1.00  0.00     0.054 A 
ATOM     10  C   UNL A   1      32.664  24.581  24.309  1.00  0.00     0.028 A 
ATOM     11  C   UNL A   1      32.481  24.059  25.592  1.00  0.00     0.018 A 
ATOM     12  C   UNL A   1      34.655  23.037  25.464  1.00  0.00     0.031 A 
ATOM     13  C   UNL A   1      33.461  23.250  26.146  1.00  0.00     0.018 A 
ATOM     14  Br  UNL A   1      33.163  22.422  27.818  1.00  0.00    -0.051 Br
BRANCH   9  15
ATOM     15  N   UNL A   1      33.696  24.651  22.188  1.00  0.00    -0.321 N 
ATOM     16  C   UNL A   1      33.081  25.721  21.560  1.00  0.00     0.255 C 
ATOM     17  O   UNL A   1      32.933  25.697  20.339  1.00  0.00    -0.269 OA
ATOM     18  H   UNL A   1      34.138  24.028  21.567  1.00  0.00     0.170 HD
BRANCH  16  19
ATOM     19  C   UNL A   1      32.630  26.911  22.311  1.00  0.00     0.044 A 
ATOM     20  C   UNL A   1      33.130  28.632  23.917  1.00  0.00     0.044 A 
ATOM     21  C   UNL A   1      31.759  28.911  24.001  1.00  0.00     0.052 A 
ATOM     22  C   UNL A   1      33.560  27.696  22.992  1.00  0.00     0.040 A 
ATOM     23  C   UNL A   1      30.827  28.269  23.174  1.00  0.00     0.044 A 
ATOM     24  C   UNL A   1      31.269  27.231  22.350  1.00  0.00     0.040 A 
BRANCH  20  25
ATOM     25  N   UNL A   1      33.973  29.221  24.877  1.00  0.00    -0.326 N 
ATOM     26  C   UNL A   1      34.038  27.518  26.704  1.00  0.00     0.114 C 
ATOM     27  C   UNL A   1      34.284  28.899  26.165  1.00  0.00     0.221 C 
ATOM     28  O   UNL A   1      34.819  29.753  26.877  1.00  0.00    -0.275 OA
ATOM     29  H   UNL A   1      34.430  30.030  24.553  1.00  0.00     0.169 HD
ENDBRANCH  20  25
BRANCH  23  30
ATOM     30  N   UNL A   1      29.454  28.602  23.133  1.00  0.00    -0.326 N 
ATOM     31  C   UNL A   1      28.833  29.445  22.229  1.00  0.00     0.221 C 
ATOM     32  H   UNL A   1      28.880  28.193  23.820  1.00  0.00     0.169 HD
ATOM     33  C   UNL A   1      27.340  29.543  22.424  1.00  0.00     0.114 C 
ATOM     34  O   UNL A   1      29.369  30.069  21.316  1.00  0.00    -0.275 OA
ENDBRANCH  23  30
ENDBRANCH  16  19
ENDBRANCH   9  15
ENDBRANCH   5   8
ENDBRANCH   3   4
ENDBRANCH   2   3
ENDBRANCH   1   2
BRANCH   1  35
ATOM     35  C   UNL A   1      40.421  21.354  26.474  1.00  0.00     0.002 C 
BRANCH  35  36
ATOM     36  C   UNL A   1      41.133  22.129  27.585  1.00  0.00     0.021 C 
BRANCH  36  37
ATOM     37  C   UNL A   1      42.326  22.975  27.157  1.00  0.00     0.116 C 
BRANCH  37  38
ATOM     38  N   UNL A   1      42.031  23.850  26.036  1.00  0.00    -0.352 N 
ATOM     39  C   UNL A   1      41.652  25.172  26.026  1.00  0.00     0.251 C 
ATOM     40  H   UNL A   1      42.117  23.434  25.147  1.00  0.00     0.163 HD
ATOM     41  O   UNL A   1      41.318  25.703  24.975  1.00  0.00    -0.269 OA
BRANCH  39  42
ATOM     42  C   UNL A   1      41.613  25.938  27.292  1.00  0.00     0.039 A 
ATOM     43  C   UNL A   1      42.705  26.745  27.619  1.00  0.00     0.014 A 
ATOM     44  C   UNL A   1      40.506  25.874  28.143  1.00  0.00     0.014 A 
ATOM     45  C   UNL A   1      42.649  27.560  28.753  1.00  0.00     0.010 A 
ATOM     46  C   UNL A   1      40.425  26.734  29.236  1.00  0.00     0.010 A 
ATOM     47  C   UNL A   1      41.488  27.598  29.541  1.00  0.00    -0.014 A 
BRANCH  47  48
ATOM     48  C   UNL A   1      41.339  28.576  30.650  1.00  0.00     0.031 A 
ATOM     49  C   UNL A   1      42.191  28.467  31.882  1.00  0.00     0.074 A 
ATOM     50  C   UNL A   1      40.369  29.510  30.576  1.00  0.00     0.049 A 
ATOM     51  N   UNL A   1      42.131  29.161  32.989  1.00  0.00    -0.248 NA
ATOM     52  C   UNL A   1      43.235  27.430  31.878  1.00  0.00     0.031 C 
ATOM     53  C   UNL A   1      39.452  29.688  29.447  1.00  0.00     0.029 A 
ATOM     54  N   UNL A   1      39.976  30.472  31.473  1.00  0.00    -0.354 N 
ATOM     55  C   UNL A   1      43.119  28.641  33.817  1.00  0.00     0.074 A 
ATOM     56  C   UNL A   1      43.733  27.543  33.102  1.00  0.00     0.031 C 
ATOM     57  C   UNL A   1      38.616  30.703  29.713  1.00  0.00     0.029 A 
ATOM     58  C   UNL A   1      38.899  31.216  31.048  1.00  0.00     0.049 A 
ATOM     59  H   UNL A   1      40.423  30.617  32.337  1.00  0.00     0.167 HD
ATOM     60  C   UNL A   1      43.489  29.053  35.053  1.00  0.00     0.037 A 
ATOM     61  C   UNL A   1      38.201  32.185  31.673  1.00  0.00     0.037 A 
ATOM     62  C   UNL A   1      42.876  30.154  35.752  1.00  0.00     0.049 A 
ATOM     63  C   UNL A   1      38.604  32.596  33.064  1.00  0.00     0.074 A 
ATOM     64  C   UNL A   1      43.218  30.689  36.982  1.00  0.00     0.029 A 
ATOM     65  N   UNL A   1      41.787  30.881  35.292  1.00  0.00    -0.354 N 
ATOM     66  N   UNL A   1      39.587  32.141  33.803  1.00  0.00    -0.248 NA
ATOM     67  C   UNL A   1      37.801  33.646  33.706  1.00  0.00     0.031 C 
ATOM     68  C   UNL A   1      42.301  31.698  37.292  1.00  0.00     0.029 A 
ATOM     69  C   UNL A   1      41.420  31.833  36.230  1.00  0.00     0.049 A 
ATOM     70  H   UNL A   1      41.341  30.742  34.425  1.00  0.00     0.167 HD
ATOM     71  C   UNL A   1      39.531  32.861  34.992  1.00  0.00     0.074 A 
ATOM     72  C   UNL A   1      38.432  33.795  34.863  1.00  0.00     0.031 C 
ATOM     73  C   UNL A   1      40.319  32.754  36.091  1.00  0.00     0.037 A 
BRANCH  60  74
ATOM     74  C   UNL A   1      44.604  28.311  35.737  1.00  0.00     0.058 A 
ATOM     75  C   UNL A   1      45.926  28.788  35.726  1.00  0.00     0.135 A 
ATOM     76  C   UNL A   1      44.343  27.130  36.453  1.00  0.00     0.135 A 
ATOM     77  F   UNL A   1      46.236  29.905  35.048  1.00  0.00    -0.206 F 
ATOM     78  C   UNL A   1      46.951  28.108  36.376  1.00  0.00     0.059 A 
ATOM     79  C   UNL A   1      45.348  26.450  37.135  1.00  0.00     0.059 A 
ATOM     80  F   UNL A   1      43.100  26.628  36.498  1.00  0.00    -0.206 F 
ATOM     81  C   UNL A   1      46.652  26.940  37.079  1.00  0.00     0.060 A 
BRANCH  81  82
ATOM     82  S   UNL A   1      47.994  26.077  37.921  1.00  0.00     0.124 S 
ATOM     83  O   UNL A   1      48.688  27.184  38.574  1.00  0.00    -0.237 OA
ATOM     84  O   UNL A   1      47.274  25.170  38.807  1.00  0.00    -0.237 OA
ATOM     85  O   UNL A   1      48.725  25.437  36.831  1.00  0.00    -0.744 OA
ENDBRANCH  81  82
ENDBRANCH  60  74
BRANCH  61  86
ATOM     86  C   UNL A   1      37.044  32.824  30.991  1.00  0.00     0.058 A 
ATOM     87  C   UNL A   1      37.233  33.867  30.072  1.00  0.00     0.135 A 
ATOM     88  C   UNL A   1      35.727  32.398  31.231  1.00  0.00     0.135 A 
ATOM     89  F   UNL A   1      38.471  34.317  29.815  1.00  0.00    -0.206 F 
ATOM     90  C   UNL A   1      36.161  34.474  29.426  1.00  0.00     0.059 A 
ATOM     91  C   UNL A   1      34.641  32.970  30.576  1.00  0.00     0.059 A 
ATOM     92  F   UNL A   1      35.490  31.396  32.091  1.00  0.00    -0.206 F 
ATOM     93  C   UNL A   1      34.868  34.014  29.681  1.00  0.00     0.060 A 
BRANCH  93  94
ATOM     94  S   UNL A   1      33.488  34.776  28.799  1.00  0.00     0.124 S 
ATOM     95  O   UNL A   1      32.568  35.069  29.893  1.00  0.00    -0.237 OA
ATOM     96  O   UNL A   1      34.127  35.931  28.174  1.00  0.00    -0.237 OA
ATOM     97  O   UNL A   1      33.061  33.730  27.877  1.00  0.00    -0.744 OA
ENDBRANCH  93  94
ENDBRANCH  61  86
BRANCH  73  98
ATOM     98  C   UNL A   1      40.027  33.673  37.246  1.00  0.00     0.058 A 
ATOM     99  C   UNL A   1      40.671  34.912  37.378  1.00  0.00     0.135 A 
ATOM    100  C   UNL A   1      39.041  33.342  38.190  1.00  0.00     0.135 A 
ATOM    101  F   UNL A   1      41.629  35.272  36.509  1.00  0.00    -0.206 F 
ATOM    102  C   UNL A   1      40.356  35.788  38.411  1.00  0.00     0.059 A 
ATOM    103  C   UNL A   1      38.689  34.215  39.215  1.00  0.00     0.059 A 
ATOM    104  F   UNL A   1      38.389  32.171  38.107  1.00  0.00    -0.206 F 
ATOM    105  C   UNL A   1      39.358  35.434  39.320  1.00  0.00     0.060 A 
BRANCH 105 106
ATOM    106  S   UNL A   1      38.921  36.608  40.621  1.00  0.00     0.124 S 
ATOM    107  O   UNL A   1      37.953  35.840  41.398  1.00  0.00    -0.237 OA
ATOM    108  O   UNL A   1      40.207  36.847  41.268  1.00  0.00    -0.237 OA
ATOM    109  O   UNL A   1      38.374  37.744  39.885  1.00  0.00    -0.744 OA
ENDBRANCH 105 106
ENDBRANCH  73  98
ENDBRANCH  47  48
ENDBRANCH  39  42
ENDBRANCH  37  38
ENDBRANCH  36  37
ENDBRANCH  35  36
ENDBRANCH   1  35
TORSDOF 20
ENDMDL
MODEL 2
REMARK VINA RESULT:     -12.4      1.648      2.145
REMARK SMILES CC(=O)Nc1cc(NC(C)=O)cc(C(=O)Nc2ccc(Br)cc2C(=O)NCCCCCCNC(=O)c2ccc(-c3c4nc(c(-c5c(F)cc(S(=O)(=O)[O-])cc5F)c5ccc([nH]5)c(-c5c(F)cc(S(=O)(=O)[O-])cc5F)c5nc(c(-c6c(F)cc(S(=O)(=O)[O-])cc6F)c6ccc3[nH]6)C=C5)C=C4)cc2)c1
REMARK SMILES IDX 29 1 28 2 27 3 26 4 24 5 25 6 23 8 17 9 18 10 19 11 22 12
REMARK SMILES IDX 20 13 21 14 16 15 14 16 15 17 13 19 5 20 6 21 102 22 7 23
REMARK SMILES IDX 12 24 4 25 1 26 2 27 3 28 8 30 9 31 10 33 11 34 30 35 31 36
REMARK SMILES IDX 32 37 33 38 34 39 35 41 36 42 37 43 101 44 38 45 100 46
REMARK SMILES IDX 39 47 40 48 41 49 94 50 42 51 99 52 93 53 95 54 43 55 98 56
REMARK SMILES IDX 92 57 91 58 44 60 78 61 57 62 77 63 58 64 61 65 76 66 96 67
REMARK SMILES IDX 59 68 60 69 75 71 97 72 62 73 45 74 46 75 55 76 47 77 48 78
REMARK SMILES IDX 54 79 56 80 49 81 50 82 51 83 52 84 53 85 79 86 80 87 89 88
REMARK SMILES IDX 81 89 82 90 88 91 90 92 83 93 84 94 85 95 86 96 87 97 63 98
REMARK SMILES IDX 64 99 73 100 65 101 66 102 72 103 74 104 67 105 68 106
REMARK SMILES IDX 69 107 70 108 71 109
REMARK H PARENT 26 7 16 18 4 29 8 32 33 40 95 59 61 70
REMARK Flexibility Score: inf
ROOT
ATOM      1  C   UNL A   1      38.198  20.705  25.600  1.00  0.00     0.002 C 
ENDROOT
BRANCH   1   2
ATOM      2  C   UNL A   1      37.461  21.283  24.386  1.00  0.00     0.021 C 
BRANCH   2   3
ATOM      3  C   UNL A   1      37.109  22.758  24.468  1.00  0.00     0.116 C 
BRANCH   3   4
ATOM      4  N   UNL A   1      36.196  23.101  25.533  1.00  0.00    -0.352 N 
ATOM      5  C   UNL A   1      34.845  22.878  25.628  1.00  0.00     0.253 C 
ATOM      6  O   UNL A   1      34.272  23.254  26.652  1.00  0.00    -0.269 OA
ATOM      7  H   UNL A   1      36.600  23.561  26.304  1.00  0.00     0.163 HD
BRANCH   5   8
ATOM      8  C   UNL A   1      34.033  22.300  24.513  1.00  0.00     0.064 A 
ATOM      9  C   UNL A   1      33.583  22.942  23.338  1.00  0.00     0.054 A 
ATOM     10  C   UNL A   1      32.638  22.279  22.529  1.00  0.00     0.028 A 
ATOM     11  C   UNL A   1      32.282  20.950  22.767  1.00  0.00     0.018 A 
ATOM     12  C   UNL A   1      33.688  20.944  24.720  1.00  0.00     0.031 A 
ATOM     13  C   UNL A   1      32.845  20.274  23.839  1.00  0.00     0.018 A 
ATOM     14  Br  UNL A   1      32.483  18.436  24.086  1.00  0.00    -0.051 Br
BRANCH   9  15
ATOM     15  N   UNL A   1      34.030  24.168  22.783  1.00  0.00    -0.321 N 
ATOM     16  C   UNL A   1      33.450  25.421  22.694  1.00  0.00     0.255 C 
ATOM     17  O   UNL A   1      33.959  26.269  21.963  1.00  0.00    -0.269 OA
ATOM     18  H   UNL A   1      34.929  24.119  22.385  1.00  0.00     0.170 HD
BRANCH  16  19
ATOM     19  C   UNL A   1      32.254  25.784  23.483  1.00  0.00     0.044 A 
ATOM     20  C   UNL A   1      30.882  25.394  25.422  1.00  0.00     0.044 A 
ATOM     21  C   UNL A   1      29.870  26.158  24.823  1.00  0.00     0.052 A 
ATOM     22  C   UNL A   1      32.107  25.300  24.783  1.00  0.00     0.040 A 
ATOM     23  C   UNL A   1      30.074  26.820  23.605  1.00  0.00     0.044 A 
ATOM     24  C   UNL A   1      31.267  26.595  22.914  1.00  0.00     0.040 A 
BRANCH  20  25
ATOM     25  N   UNL A   1      30.545  24.655  26.570  1.00  0.00    -0.326 N 
ATOM     26  C   UNL A   1      30.595  22.290  25.765  1.00  0.00     0.114 C 
ATOM     27  C   UNL A   1      30.233  23.343  26.775  1.00  0.00     0.221 C 
ATOM     28  O   UNL A   1      29.685  23.022  27.832  1.00  0.00    -0.275 OA
ATOM     29  H   UNL A   1      30.529  25.195  27.393  1.00  0.00     0.169 HD
ENDBRANCH  20  25
BRANCH  23  30
ATOM     30  N   UNL A   1      29.133  27.699  23.023  1.00  0.00    -0.326 N 
ATOM     31  C   UNL A   1      29.132  29.081  23.098  1.00  0.00     0.221 C 
ATOM     32  H   UNL A   1      28.400  27.286  22.512  1.00  0.00     0.169 HD
ATOM     33  C   UNL A   1      28.016  29.726  22.315  1.00  0.00     0.114 C 
ATOM     34  O   UNL A   1      29.938  29.785  23.701  1.00  0.00    -0.275 OA
ENDBRANCH  23  30
ENDBRANCH  16  19
ENDBRANCH   9  15
ENDBRANCH   5   8
ENDBRANCH   3   4
ENDBRANCH   2   3
ENDBRANCH   1   2
BRANCH   1  35
ATOM     35  C   UNL A   1      39.675  21.082  25.772  1.00  0.00     0.002 C 
BRANCH  35  36
ATOM     36  C   UNL A   1      40.070  21.787  27.071  1.00  0.00     0.021 C 
BRANCH  36  37
ATOM     37  C   UNL A   1      39.826  23.290  27.121  1.00  0.00     0.116 C 
BRANCH  37  38
ATOM     38  N   UNL A   1      40.556  24.019  26.098  1.00  0.00    -0.352 N 
ATOM     39  C   UNL A   1      41.101  25.281  26.134  1.00  0.00     0.251 C 
ATOM     40  H   UNL A   1      40.680  23.535  25.249  1.00  0.00     0.163 HD
ATOM     41  O   UNL A   1      41.567  25.774  25.116  1.00  0.00    -0.269 OA
BRANCH  39  42
ATOM     42  C   UNL A   1      41.089  26.054  27.398  1.00  0.00     0.039 A 
ATOM     43  C   UNL A   1      42.254  26.717  27.788  1.00  0.00     0.014 A 
ATOM     44  C   UNL A   1      39.935  26.137  28.182  1.00  0.00     0.014 A 
ATOM     45  C   UNL A   1      42.238  27.539  28.918  1.00  0.00     0.010 A 
ATOM     46  C   UNL A   1      39.902  27.008  29.270  1.00  0.00     0.010 A 
ATOM     47  C   UNL A   1      41.048  27.731  29.637  1.00  0.00    -0.014 A 
BRANCH  47  48
ATOM     48  C   UNL A   1      40.962  28.726  30.736  1.00  0.00     0.031 A 
ATOM     49  C   UNL A   1      41.850  28.609  31.942  1.00  0.00     0.074 A 
ATOM     50  C   UNL A   1      40.017  29.687  30.680  1.00  0.00     0.049 A 
ATOM     51  N   UNL A   1      41.845  29.319  33.042  1.00  0.00    -0.248 NA
ATOM     52  C   UNL A   1      42.863  27.543  31.920  1.00  0.00     0.031 C 
ATOM     53  C   UNL A   1      39.070  29.876  29.578  1.00  0.00     0.029 A 
ATOM     54  N   UNL A   1      39.680  30.671  31.576  1.00  0.00    -0.354 N 
ATOM     55  C   UNL A   1      42.843  28.781  33.845  1.00  0.00     0.074 A 
ATOM     56  C   UNL A   1      43.403  27.657  33.126  1.00  0.00     0.031 C 
ATOM     57  C   UNL A   1      38.272  30.919  29.856  1.00  0.00     0.029 A 
ATOM     58  C   UNL A   1      38.612  31.440  31.175  1.00  0.00     0.049 A 
ATOM     59  H   UNL A   1      40.158  30.815  32.424  1.00  0.00     0.167 HD
ATOM     60  C   UNL A   1      43.264  29.199  35.063  1.00  0.00     0.037 A 
ATOM     61  C   UNL A   1      37.961  32.436  31.809  1.00  0.00     0.037 A 
ATOM     62  C   UNL A   1      42.705  30.326  35.766  1.00  0.00     0.049 A 
ATOM     63  C   UNL A   1      38.420  32.854  33.180  1.00  0.00     0.074 A 
ATOM     64  C   UNL A   1      43.101  30.866  36.977  1.00  0.00     0.029 A 
ATOM     65  N   UNL A   1      41.623  31.078  35.330  1.00  0.00    -0.354 N 
ATOM     66  N   UNL A   1      39.412  32.380  33.894  1.00  0.00    -0.248 NA
ATOM     67  C   UNL A   1      37.668  33.935  33.833  1.00  0.00     0.031 C 
ATOM     68  C   UNL A   1      42.223  31.905  37.301  1.00  0.00     0.029 A 
ATOM     69  C   UNL A   1      41.313  32.051  36.265  1.00  0.00     0.049 A 
ATOM     70  H   UNL A   1      41.145  30.940  34.479  1.00  0.00     0.167 HD
ATOM     71  C   UNL A   1      39.415  33.117  35.074  1.00  0.00     0.074 A 
ATOM     72  C   UNL A   1      38.339  34.080  34.967  1.00  0.00     0.031 C 
ATOM     73  C   UNL A   1      40.234  33.001  36.149  1.00  0.00     0.037 A 
BRANCH  60  74
ATOM     74  C   UNL A   1      44.379  28.433  35.721  1.00  0.00     0.058 A 
ATOM     75  C   UNL A   1      45.728  28.761  35.506  1.00  0.00     0.135 A 
ATOM     76  C   UNL A   1      44.097  27.388  36.616  1.00  0.00     0.135 A 
ATOM     77  F   UNL A   1      46.057  29.744  34.652  1.00  0.00    -0.206 F 
ATOM     78  C   UNL A   1      46.756  28.064  36.132  1.00  0.00     0.059 A 
ATOM     79  C   UNL A   1      45.109  26.695  37.276  1.00  0.00     0.059 A 
ATOM     80  F   UNL A   1      42.827  27.031  36.860  1.00  0.00    -0.206 F 
ATOM     81  C   UNL A   1      46.437  27.032  37.016  1.00  0.00     0.060 A 
BRANCH  81  82
ATOM     82  S   UNL A   1      47.784  26.144  37.823  1.00  0.00     0.124 S 
ATOM     83  O   UNL A   1      47.281  24.773  37.805  1.00  0.00    -0.237 OA
ATOM     84  O   UNL A   1      48.911  26.417  36.939  1.00  0.00    -0.237 OA
ATOM     85  O   UNL A   1      47.860  26.764  39.142  1.00  0.00    -0.744 OA
ENDBRANCH  81  82
ENDBRANCH  60  74
BRANCH  61  86
ATOM     86  C   UNL A   1      36.801  33.100  31.155  1.00  0.00     0.058 A 
ATOM     87  C   UNL A   1      36.988  34.014  30.107  1.00  0.00     0.135 A 
ATOM     88  C   UNL A   1      35.482  32.824  31.551  1.00  0.00     0.135 A 
ATOM     89  F   UNL A   1      38.229  34.317  29.697  1.00  0.00    -0.206 F 
ATOM     90  C   UNL A   1      35.914  34.641  29.485  1.00  0.00     0.059 A 
ATOM     91  C   UNL A   1      34.390  33.417  30.926  1.00  0.00     0.059 A 
ATOM     92  F   UNL A   1      35.246  31.949  32.540  1.00  0.00    -0.206 F 
ATOM     93  C   UNL A   1      34.617  34.332  29.899  1.00  0.00     0.060 A 
BRANCH  93  94
ATOM     94  S   UNL A   1      33.227  35.115  29.051  1.00  0.00     0.124 S 
ATOM     95  O   UNL A   1      33.875  36.262  28.424  1.00  0.00    -0.237 OA
ATOM     96  O   UNL A   1      32.786  34.057  28.147  1.00  0.00    -0.237 OA
ATOM     97  O   UNL A   1      32.304  35.427  30.137  1.00  0.00    -0.744 OA
ENDBRANCH  93  94
ENDBRANCH  61  86
BRANCH  73  98
ATOM     98  C   UNL A   1      40.005  33.943  37.300  1.00  0.00     0.058 A 
ATOM     99  C   UNL A   1      40.576  35.225  37.323  1.00  0.00     0.135 A 
ATOM    100  C   UNL A   1      39.148  33.587  38.354  1.00  0.00     0.135 A 
ATOM    101  F   UNL A   1      41.411  35.610  36.346  1.00  0.00    -0.206 F 
ATOM    102  C   UNL A   1      40.315  36.117  38.357  1.00  0.00     0.059 A 
ATOM    103  C   UNL A   1      38.849  34.475  39.384  1.00  0.00     0.059 A 
ATOM    104  F   UNL A   1      38.570  32.375  38.377  1.00  0.00    -0.206 F 
ATOM    105  C   UNL A   1      39.443  35.736  39.379  1.00  0.00     0.060 A 
BRANCH 105 106
ATOM    106  S   UNL A   1      39.069  36.928  40.682  1.00  0.00     0.124 S 
ATOM    107  O   UNL A   1      40.404  37.361  41.078  1.00  0.00    -0.237 OA
ATOM    108  O   UNL A   1      38.264  37.919  39.974  1.00  0.00    -0.237 OA
ATOM    109  O   UNL A   1      38.346  36.135  41.673  1.00  0.00    -0.744 OA
ENDBRANCH 105 106
ENDBRANCH  73  98
ENDBRANCH  47  48
ENDBRANCH  39  42
ENDBRANCH  37  38
ENDBRANCH  36  37
ENDBRANCH  35  36
ENDBRANCH   1  35
TORSDOF 20
ENDMDL
MODEL 3
REMARK VINA RESULT:     -12.3      0.674      8.073
REMARK SMILES CC(=O)Nc1cc(NC(C)=O)cc(C(=O)Nc2ccc(Br)cc2C(=O)NCCCCCCNC(=O)c2ccc(-c3c4nc(c(-c5c(F)cc(S(=O)(=O)[O-])cc5F)c5ccc([nH]5)c(-c5c(F)cc(S(=O)(=O)[O-])cc5F)c5nc(c(-c6c(F)cc(S(=O)(=O)[O-])cc6F)c6ccc3[nH]6)C=C5)C=C4)cc2)c1
REMARK SMILES IDX 29 1 28 2 27 3 26 4 24 5 25 6 23 8 17 9 18 10 19 11 22 12
REMARK SMILES IDX 20 13 21 14 16 15 14 16 15 17 13 19 5 20 6 21 102 22 7 23
REMARK SMILES IDX 12 24 4 25 1 26 2 27 3 28 8 30 9 31 10 33 11 34 30 35 31 36
REMARK SMILES IDX 32 37 33 38 34 39 35 41 36 42 37 43 101 44 38 45 100 46
REMARK SMILES IDX 39 47 40 48 41 49 94 50 42 51 99 52 93 53 95 54 43 55 98 56
REMARK SMILES IDX 92 57 91 58 44 60 78 61 57 62 77 63 58 64 61 65 76 66 96 67
REMARK SMILES IDX 59 68 60 69 75 71 97 72 62 73 45 74 46 75 55 76 47 77 48 78
REMARK SMILES IDX 54 79 56 80 49 81 50 82 51 83 52 84 53 85 79 86 80 87 89 88
REMARK SMILES IDX 81 89 82 90 88 91 90 92 83 93 84 94 85 95 86 96 87 97 63 98
REMARK SMILES IDX 64 99 73 100 65 101 66 102 72 103 74 104 67 105 68 106
REMARK SMILES IDX 69 107 70 108 71 109
REMARK H PARENT 26 7 16 18 4 29 8 32 33 40 95 59 61 70
REMARK Flexibility Score: inf
ROOT
ATOM      1  C   UNL A   1      39.398  22.080  26.371  1.00  0.00     0.002 C 
ENDROOT
BRANCH   1   2
ATOM      2  C   UNL A   1      38.903  23.492  26.710  1.00  0.00     0.021 C 
BRANCH   2   3
ATOM      3  C   UNL A   1      37.657  23.949  25.970  1.00  0.00     0.116 C 
BRANCH   3   4
ATOM      4  N   UNL A   1      37.568  23.494  24.603  1.00  0.00    -0.352 N 
ATOM      5  C   UNL A   1      36.459  23.315  23.814  1.00  0.00     0.253 C 
ATOM      6  O   UNL A   1      36.633  22.924  22.659  1.00  0.00    -0.269 OA
ATOM      7  H   UNL A   1      38.427  23.282  24.173  1.00  0.00     0.163 HD
BRANCH   5   8
ATOM      8  C   UNL A   1      35.062  23.471  24.323  1.00  0.00     0.064 A 
ATOM      9  C   UNL A   1      34.012  24.239  23.771  1.00  0.00     0.054 A 
ATOM     10  C   UNL A   1      32.843  24.429  24.535  1.00  0.00     0.028 A 
ATOM     11  C   UNL A   1      32.635  23.736  25.729  1.00  0.00     0.018 A 
ATOM     12  C   UNL A   1      34.819  22.751  25.516  1.00  0.00     0.031 A 
ATOM     13  C   UNL A   1      33.608  22.864  26.192  1.00  0.00     0.018 A 
ATOM     14  Br  UNL A   1      33.277  21.814  27.728  1.00  0.00    -0.051 Br
BRANCH   9  15
ATOM     15  N   UNL A   1      33.924  24.793  22.469  1.00  0.00    -0.321 N 
ATOM     16  C   UNL A   1      33.327  25.942  21.980  1.00  0.00     0.255 C 
ATOM     17  O   UNL A   1      33.203  26.085  20.765  1.00  0.00    -0.269 OA
ATOM     18  H   UNL A   1      34.375  24.257  21.778  1.00  0.00     0.170 HD
BRANCH  16  19
ATOM     19  C   UNL A   1      32.867  27.023  22.876  1.00  0.00     0.044 A 
ATOM     20  C   UNL A   1      31.189  28.660  23.420  1.00  0.00     0.044 A 
ATOM     21  C   UNL A   1      32.108  29.270  24.287  1.00  0.00     0.052 A 
ATOM     22  C   UNL A   1      31.551  27.478  22.798  1.00  0.00     0.040 A 
ATOM     23  C   UNL A   1      33.368  28.710  24.532  1.00  0.00     0.044 A 
ATOM     24  C   UNL A   1      33.761  27.596  23.787  1.00  0.00     0.040 A 
BRANCH  20  25
ATOM     25  N   UNL A   1      30.006  29.364  23.128  1.00  0.00    -0.326 N 
ATOM     26  C   UNL A   1      28.221  27.645  23.456  1.00  0.00     0.114 C 
ATOM     27  C   UNL A   1      28.711  28.974  22.953  1.00  0.00     0.221 C 
ATOM     28  O   UNL A   1      27.925  29.756  22.410  1.00  0.00    -0.275 OA
ATOM     29  H   UNL A   1      30.141  30.333  23.030  1.00  0.00     0.169 HD
ENDBRANCH  20  25
BRANCH  23  30
ATOM     30  N   UNL A   1      34.278  29.216  25.488  1.00  0.00    -0.326 N 
ATOM     31  C   UNL A   1      34.216  29.053  26.861  1.00  0.00     0.221 C 
ATOM     32  H   UNL A   1      35.036  29.740  25.141  1.00  0.00     0.169 HD
ATOM     33  C   UNL A   1      35.379  29.672  27.594  1.00  0.00     0.114 C 
ATOM     34  O   UNL A   1      33.345  28.459  27.491  1.00  0.00    -0.275 OA
ENDBRANCH  23  30
ENDBRANCH  16  19
ENDBRANCH   9  15
ENDBRANCH   5   8
ENDBRANCH   3   4
ENDBRANCH   2   3
ENDBRANCH   1   2
BRANCH   1  35
ATOM     35  C   UNL A   1      40.901  21.810  26.507  1.00  0.00     0.002 C 
BRANCH  35  36
ATOM     36  C   UNL A   1      41.657  22.588  27.586  1.00  0.00     0.021 C 
BRANCH  36  37
ATOM     37  C   UNL A   1      42.801  23.471  27.102  1.00  0.00     0.116 C 
BRANCH  37  38
ATOM     38  N   UNL A   1      42.406  24.387  26.047  1.00  0.00    -0.352 N 
ATOM     39  C   UNL A   1      41.876  25.653  26.131  1.00  0.00     0.251 C 
ATOM     40  H   UNL A   1      42.539  24.051  25.131  1.00  0.00     0.163 HD
ATOM     41  O   UNL A   1      41.483  26.218  25.120  1.00  0.00    -0.269 OA
BRANCH  39  42
ATOM     42  C   UNL A   1      41.750  26.313  27.450  1.00  0.00     0.039 A 
ATOM     43  C   UNL A   1      42.679  27.297  27.798  1.00  0.00     0.014 A 
ATOM     44  C   UNL A   1      40.717  25.979  28.330  1.00  0.00     0.014 A 
ATOM     45  C   UNL A   1      42.519  28.009  28.990  1.00  0.00     0.010 A 
ATOM     46  C   UNL A   1      40.521  26.734  29.485  1.00  0.00     0.010 A 
ATOM     47  C   UNL A   1      41.410  27.768  29.816  1.00  0.00    -0.014 A 
BRANCH  47  48
ATOM     48  C   UNL A   1      41.126  28.624  30.997  1.00  0.00     0.031 A 
ATOM     49  C   UNL A   1      40.042  29.662  30.943  1.00  0.00     0.074 A 
ATOM     50  C   UNL A   1      41.911  28.518  32.089  1.00  0.00     0.049 A 
ATOM     51  N   UNL A   1      39.722  30.567  31.832  1.00  0.00    -0.248 NA
ATOM     52  C   UNL A   1      39.223  29.703  29.722  1.00  0.00     0.031 C 
ATOM     53  C   UNL A   1      43.021  27.574  32.243  1.00  0.00     0.029 A 
ATOM     54  N   UNL A   1      41.913  29.223  33.267  1.00  0.00    -0.354 N 
ATOM     55  C   UNL A   1      38.674  31.290  31.278  1.00  0.00     0.074 A 
ATOM     56  C   UNL A   1      38.442  30.749  29.956  1.00  0.00     0.031 C 
ATOM     57  C   UNL A   1      43.585  27.748  33.448  1.00  0.00     0.029 A 
ATOM     58  C   UNL A   1      42.914  28.848  34.133  1.00  0.00     0.049 A 
ATOM     59  H   UNL A   1      41.259  29.928  33.474  1.00  0.00     0.167 HD
ATOM     60  C   UNL A   1      37.960  32.302  31.828  1.00  0.00     0.037 A 
ATOM     61  C   UNL A   1      43.270  29.349  35.332  1.00  0.00     0.037 A 
ATOM     62  C   UNL A   1      38.195  32.826  33.150  1.00  0.00     0.049 A 
ATOM     63  C   UNL A   1      42.490  30.502  35.904  1.00  0.00     0.074 A 
ATOM     64  C   UNL A   1      37.489  33.809  33.822  1.00  0.00     0.029 A 
ATOM     65  N   UNL A   1      39.219  32.424  33.996  1.00  0.00    -0.354 N 
ATOM     66  N   UNL A   1      41.455  31.127  35.396  1.00  0.00    -0.248 NA
ATOM     67  C   UNL A   1      42.928  31.021  37.208  1.00  0.00     0.031 C 
ATOM     68  C   UNL A   1      38.121  34.041  35.048  1.00  0.00     0.029 A 
ATOM     69  C   UNL A   1      39.188  33.164  35.166  1.00  0.00     0.049 A 
ATOM     70  H   UNL A   1      39.873  31.715  33.793  1.00  0.00     0.167 HD
ATOM     71  C   UNL A   1      41.108  32.102  36.325  1.00  0.00     0.074 A 
ATOM     72  C   UNL A   1      42.029  31.969  37.434  1.00  0.00     0.031 C 
ATOM     73  C   UNL A   1      40.116  33.025  36.261  1.00  0.00     0.037 A 
BRANCH  60  74
ATOM     74  C   UNL A   1      36.861  32.916  31.005  1.00  0.00     0.058 A 
ATOM     75  C   UNL A   1      37.134  33.802  29.950  1.00  0.00     0.135 A 
ATOM     76  C   UNL A   1      35.518  32.578  31.242  1.00  0.00     0.135 A 
ATOM     77  F   UNL A   1      38.399  34.170  29.686  1.00  0.00    -0.206 F 
ATOM     78  C   UNL A   1      36.116  34.352  29.179  1.00  0.00     0.059 A 
ATOM     79  C   UNL A   1      34.485  33.094  30.464  1.00  0.00     0.059 A 
ATOM     80  F   UNL A   1      35.198  31.736  32.237  1.00  0.00    -0.206 F 
ATOM     81  C   UNL A   1      34.794  33.991  29.442  1.00  0.00     0.060 A 
BRANCH  81  82
ATOM     82  S   UNL A   1      33.487  34.710  28.426  1.00  0.00     0.124 S 
ATOM     83  O   UNL A   1      33.020  33.542  27.684  1.00  0.00    -0.237 OA
ATOM     84  O   UNL A   1      32.566  35.233  29.428  1.00  0.00    -0.237 OA
ATOM     85  O   UNL A   1      34.186  35.716  27.633  1.00  0.00    -0.744 OA
ENDBRANCH  81  82
ENDBRANCH  60  74
BRANCH  61  86
ATOM     86  C   UNL A   1      44.427  28.769  36.067  1.00  0.00     0.058 A 
ATOM     87  C   UNL A   1      44.252  27.706  36.966  1.00  0.00     0.135 A 
ATOM     88  C   UNL A   1      45.732  29.251  35.874  1.00  0.00     0.135 A 
ATOM     89  F   UNL A   1      43.024  27.216  37.192  1.00  0.00    -0.206 F 
ATOM     90  C   UNL A   1      45.323  27.153  37.659  1.00  0.00     0.059 A 
ATOM     91  C   UNL A   1      46.823  28.695  36.533  1.00  0.00     0.059 A 
ATOM     92  F   UNL A   1      45.958  30.257  35.015  1.00  0.00    -0.206 F 
ATOM     93  C   UNL A   1      46.607  27.651  37.432  1.00  0.00     0.060 A 
BRANCH  93  94
ATOM     94  S   UNL A   1      47.998  26.892  38.299  1.00  0.00     0.124 S 
ATOM     95  O   UNL A   1      47.494  26.837  39.667  1.00  0.00    -0.237 OA
ATOM     96  O   UNL A   1      48.122  25.610  37.612  1.00  0.00    -0.237 OA
ATOM     97  O   UNL A   1      49.091  27.829  38.066  1.00  0.00    -0.744 OA
ENDBRANCH  93  94
ENDBRANCH  61  86
BRANCH  73  98
ATOM     98  C   UNL A   1      39.969  33.966  37.426  1.00  0.00     0.058 A 
ATOM     99  C   UNL A   1      40.636  35.201  37.460  1.00  0.00     0.135 A 
ATOM    100  C   UNL A   1      39.095  33.663  38.483  1.00  0.00     0.135 A 
ATOM    101  F   UNL A   1      41.490  35.535  36.480  1.00  0.00    -0.206 F 
ATOM    102  C   UNL A   1      40.451  36.097  38.508  1.00  0.00     0.059 A 
ATOM    103  C   UNL A   1      38.874  34.557  39.527  1.00  0.00     0.059 A 
ATOM    104  F   UNL A   1      38.427  32.498  38.496  1.00  0.00    -0.206 F 
ATOM    105  C   UNL A   1      39.562  35.769  39.532  1.00  0.00     0.060 A 
BRANCH 105 106
ATOM    106  S   UNL A   1      39.289  36.969  40.853  1.00  0.00     0.124 S 
ATOM    107  O   UNL A   1      38.693  36.134  41.891  1.00  0.00    -0.237 OA
ATOM    108  O   UNL A   1      40.642  37.446  41.123  1.00  0.00    -0.237 OA
ATOM    109  O   UNL A   1      38.394  37.949  40.245  1.00  0.00    -0.744 OA
ENDBRANCH 105 106
ENDBRANCH  73  98
ENDBRANCH  47  48
ENDBRANCH  39  42
ENDBRANCH  37  38
ENDBRANCH  36  37
ENDBRANCH  35  36
ENDBRANCH   1  35
TORSDOF 20
ENDMDL
