MODEL 1
REMARK VINA RESULT:     -11.0      0.000      0.000
REMARK SMILES C[C@H](C(=O)NCCCCCCNC(=O)c1ccc(-c2c3nc(c(-c4c(F)cc(S(=O)(=O)[O-])cc4F)c4ccc([nH]4)c(-c4c(F)cc(S(=O)(=O)[O-])cc4F)c4nc(c(-c5c(F)cc(S(=O)(=O)[O-])cc5F)c5ccc2[nH]5)C=C4)C=C3)cc1)[C@H](C)[NH+]1CCN(c2ccccc2Cl)CC1
REMARK SMILES IDX 8 1 7 2 6 3 5 4 3 5 4 6 2 8 1 9 81 10 82 11 83 12 84 13
REMARK SMILES IDX 95 14 85 16 94 17 86 18 87 19 88 20 92 21 89 22 91 23 93 24
REMARK SMILES IDX 90 25 9 26 10 27 11 28 12 29 13 30 14 32 15 33 16 34 80 35
REMARK SMILES IDX 17 36 79 37 18 38 19 39 20 40 73 41 21 42 78 43 72 44 74 45
REMARK SMILES IDX 22 46 77 47 71 48 70 49 23 51 57 52 36 53 56 54 37 55 40 56
REMARK SMILES IDX 55 57 75 58 38 59 39 60 54 62 76 63 41 64 24 65 25 66 34 67
REMARK SMILES IDX 26 68 27 69 33 70 35 71 28 72 29 73 30 74 31 75 32 76 58 77
REMARK SMILES IDX 59 78 68 79 60 80 61 81 67 82 69 83 62 84 63 85 64 86 65 87
REMARK SMILES IDX 66 88 42 89 43 90 52 91 44 92 45 93 51 94 53 95 46 96 47 97
REMARK SMILES IDX 48 98 49 99 50 100
REMARK H PARENT 5 7 83 15 12 31 74 50 40 61
REMARK Flexibility Score: inf
ROOT
ATOM      1  C   UNL A   1      40.266  20.683  26.055  1.00  0.00     0.002 C 
ENDROOT
BRANCH   1   2
ATOM      2  C   UNL A   1      39.297  21.853  26.290  1.00  0.00     0.021 C 
BRANCH   2   3
ATOM      3  C   UNL A   1      38.023  21.886  25.412  1.00  0.00     0.116 C 
BRANCH   3   4
ATOM      4  N   UNL A   1      36.894  22.460  26.139  1.00  0.00    -0.356 N 
ATOM      5  C   UNL A   1      35.550  22.565  25.952  1.00  0.00     0.228 C 
ATOM      6  O   UNL A   1      34.953  23.112  26.889  1.00  0.00    -0.275 OA
ATOM      7  H   UNL A   1      37.178  22.879  26.982  1.00  0.00     0.163 HD
BRANCH   5   8
ATOM      8  C   UNL A   1      34.768  21.999  24.744  1.00  0.00     0.133 C 
ATOM      9  C   UNL A   1      34.835  20.452  24.823  1.00  0.00     0.024 C 
BRANCH   8  10
ATOM     10  C   UNL A   1      33.286  22.526  24.600  1.00  0.00     0.193 C 
ATOM     11  C   UNL A   1      32.271  21.356  24.513  1.00  0.00     0.076 C 
BRANCH  10  12
ATOM     12  N   UNL A   1      33.105  23.408  23.391  1.00  0.00    -0.329 N 
ATOM     13  C   UNL A   1      31.756  24.054  23.280  1.00  0.00     0.284 C 
ATOM     14  C   UNL A   1      34.066  24.545  23.349  1.00  0.00     0.284 C 
ATOM     15  H   UNL A   1      33.250  22.745  22.630  1.00  0.00     0.348 HD
ATOM     16  C   UNL A   1      31.424  25.072  24.398  1.00  0.00     0.178 C 
ATOM     17  C   UNL A   1      33.842  25.586  24.459  1.00  0.00     0.178 C 
ATOM     18  N   UNL A   1      32.475  26.097  24.480  1.00  0.00    -0.359 N 
BRANCH  18  19
ATOM     19  C   UNL A   1      32.287  27.188  25.335  1.00  0.00     0.056 A 
ATOM     20  C   UNL A   1      31.928  26.988  26.682  1.00  0.00     0.027 A 
ATOM     21  C   UNL A   1      32.483  28.517  24.898  1.00  0.00     0.064 A 
ATOM     22  C   UNL A   1      31.706  28.057  27.542  1.00  0.00     0.002 A 
ATOM     23  C   UNL A   1      32.244  29.591  25.755  1.00  0.00     0.023 A 
ATOM     24  Cl  UNL A   1      32.995  28.887  23.286  1.00  0.00    -0.082 Cl
ATOM     25  C   UNL A   1      31.830  29.350  27.064  1.00  0.00     0.002 A 
ENDBRANCH  18  19
ENDBRANCH  10  12
ENDBRANCH   8  10
ENDBRANCH   5   8
ENDBRANCH   3   4
ENDBRANCH   2   3
ENDBRANCH   1   2
BRANCH   1  26
ATOM     26  C   UNL A   1      41.717  20.865  26.524  1.00  0.00     0.002 C 
BRANCH  26  27
ATOM     27  C   UNL A   1      41.986  21.848  27.677  1.00  0.00     0.021 C 
BRANCH  27  28
ATOM     28  C   UNL A   1      42.927  23.033  27.412  1.00  0.00     0.116 C 
BRANCH  28  29
ATOM     29  N   UNL A   1      42.567  23.832  26.250  1.00  0.00    -0.352 N 
ATOM     30  C   UNL A   1      42.079  25.121  26.165  1.00  0.00     0.251 C 
ATOM     31  H   UNL A   1      42.691  23.381  25.383  1.00  0.00     0.163 HD
ATOM     32  O   UNL A   1      41.783  25.579  25.064  1.00  0.00    -0.269 OA
BRANCH  30  33
ATOM     33  C   UNL A   1      41.892  25.970  27.371  1.00  0.00     0.039 A 
ATOM     34  C   UNL A   1      42.860  26.919  27.709  1.00  0.00     0.014 A 
ATOM     35  C   UNL A   1      40.822  25.775  28.236  1.00  0.00     0.014 A 
ATOM     36  C   UNL A   1      42.711  27.717  28.863  1.00  0.00     0.010 A 
ATOM     37  C   UNL A   1      40.651  26.620  29.352  1.00  0.00     0.010 A 
ATOM     38  C   UNL A   1      41.572  27.626  29.685  1.00  0.00    -0.014 A 
BRANCH  38  39
ATOM     39  C   UNL A   1      41.334  28.572  30.845  1.00  0.00     0.031 A 
ATOM     40  C   UNL A   1      40.190  29.578  30.852  1.00  0.00     0.074 A 
ATOM     41  C   UNL A   1      42.188  28.601  31.897  1.00  0.00     0.049 A 
ATOM     42  N   UNL A   1      39.890  30.492  31.749  1.00  0.00    -0.248 NA
ATOM     43  C   UNL A   1      39.296  29.601  29.683  1.00  0.00     0.031 C 
ATOM     44  C   UNL A   1      43.410  27.803  32.025  1.00  0.00     0.029 A 
ATOM     45  N   UNL A   1      42.163  29.333  33.068  1.00  0.00    -0.354 N 
ATOM     46  C   UNL A   1      38.813  31.212  31.233  1.00  0.00     0.074 A 
ATOM     47  C   UNL A   1      38.564  30.682  29.910  1.00  0.00     0.031 C 
ATOM     48  C   UNL A   1      43.970  28.030  33.224  1.00  0.00     0.029 A 
ATOM     49  C   UNL A   1      43.188  29.034  33.941  1.00  0.00     0.049 A 
ATOM     50  H   UNL A   1      41.474  30.010  33.262  1.00  0.00     0.167 HD
ATOM     51  C   UNL A   1      38.060  32.186  31.807  1.00  0.00     0.037 A 
ATOM     52  C   UNL A   1      43.478  29.495  35.177  1.00  0.00     0.037 A 
ATOM     53  C   UNL A   1      38.234  32.674  33.153  1.00  0.00     0.049 A 
ATOM     54  C   UNL A   1      42.596  30.531  35.825  1.00  0.00     0.074 A 
ATOM     55  C   UNL A   1      37.445  33.578  33.848  1.00  0.00     0.029 A 
ATOM     56  N   UNL A   1      39.253  32.298  34.013  1.00  0.00    -0.354 N 
ATOM     57  N   UNL A   1      41.525  31.118  35.348  1.00  0.00    -0.248 NA
ATOM     58  C   UNL A   1      42.958  30.964  37.184  1.00  0.00     0.031 C 
ATOM     59  C   UNL A   1      38.012  33.782  35.110  1.00  0.00     0.029 A 
ATOM     60  C   UNL A   1      39.122  32.963  35.223  1.00  0.00     0.049 A 
ATOM     61  H   UNL A   1      39.965  31.653  33.797  1.00  0.00     0.167 HD
ATOM     62  C   UNL A   1      41.073  31.963  36.358  1.00  0.00     0.074 A 
ATOM     63  C   UNL A   1      41.974  31.802  37.477  1.00  0.00     0.031 C 
ATOM     64  C   UNL A   1      40.005  32.797  36.351  1.00  0.00     0.037 A 
BRANCH  51  65
ATOM     65  C   UNL A   1      36.930  32.777  30.995  1.00  0.00     0.058 A 
ATOM     66  C   UNL A   1      35.596  32.383  31.193  1.00  0.00     0.135 A 
ATOM     67  C   UNL A   1      37.175  33.787  30.048  1.00  0.00     0.135 A 
ATOM     68  F   UNL A   1      35.299  31.424  32.084  1.00  0.00    -0.206 F 
ATOM     69  C   UNL A   1      34.555  32.928  30.448  1.00  0.00     0.059 A 
ATOM     70  C   UNL A   1      36.143  34.374  29.318  1.00  0.00     0.059 A 
ATOM     71  F   UNL A   1      38.426  34.219  29.827  1.00  0.00    -0.206 F 
ATOM     72  C   UNL A   1      34.839  33.922  29.510  1.00  0.00     0.060 A 
BRANCH  72  73
ATOM     73  S   UNL A   1      33.473  34.609  28.549  1.00  0.00     0.124 S 
ATOM     74  O   UNL A   1      33.101  33.467  27.720  1.00  0.00    -0.237 OA
ATOM     75  O   UNL A   1      32.516  34.979  29.585  1.00  0.00    -0.237 OA
ATOM     76  O   UNL A   1      34.087  35.726  27.836  1.00  0.00    -0.744 OA
ENDBRANCH  72  73
ENDBRANCH  51  65
BRANCH  52  77
ATOM     77  C   UNL A   1      44.652  28.950  35.921  1.00  0.00     0.058 A 
ATOM     78  C   UNL A   1      44.510  27.859  36.794  1.00  0.00     0.135 A 
ATOM     79  C   UNL A   1      45.933  29.508  35.784  1.00  0.00     0.135 A 
ATOM     80  F   UNL A   1      43.305  27.298  36.975  1.00  0.00    -0.206 F 
ATOM     81  C   UNL A   1      45.587  27.354  37.517  1.00  0.00     0.059 A 
ATOM     82  C   UNL A   1      47.032  29.001  36.472  1.00  0.00     0.059 A 
ATOM     83  F   UNL A   1      46.128  30.546  34.956  1.00  0.00    -0.206 F 
ATOM     84  C   UNL A   1      46.847  27.929  37.343  1.00  0.00     0.060 A 
BRANCH  84  85
ATOM     85  S   UNL A   1      48.246  27.227  38.246  1.00  0.00     0.124 S 
ATOM     86  O   UNL A   1      49.377  27.758  37.500  1.00  0.00    -0.237 OA
ATOM     87  O   UNL A   1      48.049  27.769  39.586  1.00  0.00    -0.237 OA
ATOM     88  O   UNL A   1      48.031  25.784  38.126  1.00  0.00    -0.744 OA
ENDBRANCH  84  85
ENDBRANCH  52  77
BRANCH  64  89
ATOM     89  C   UNL A   1      39.705  33.578  37.605  1.00  0.00     0.058 A 
ATOM     90  C   UNL A   1      38.798  33.116  38.570  1.00  0.00     0.135 A 
ATOM     91  C   UNL A   1      40.382  34.781  37.870  1.00  0.00     0.135 A 
ATOM     92  F   UNL A   1      38.119  31.975  38.369  1.00  0.00    -0.206 F 
ATOM     93  C   UNL A   1      38.555  33.827  39.744  1.00  0.00     0.059 A 
ATOM     94  C   UNL A   1      40.178  35.493  39.050  1.00  0.00     0.059 A 
ATOM     95  F   UNL A   1      41.269  35.267  36.988  1.00  0.00    -0.206 F 
ATOM     96  C   UNL A   1      39.254  35.013  39.976  1.00  0.00     0.060 A 
BRANCH  96  97
ATOM     97  S   UNL A   1      38.959  35.905  41.519  1.00  0.00     0.124 S 
ATOM     98  O   UNL A   1      37.682  35.342  41.945  1.00  0.00    -0.237 OA
ATOM     99  O   UNL A   1      40.117  35.528  42.323  1.00  0.00    -0.237 OA
ATOM    100  O   UNL A   1      38.921  37.303  41.104  1.00  0.00    -0.744 OA
ENDBRANCH  96  97
ENDBRANCH  64  89
ENDBRANCH  38  39
ENDBRANCH  30  33
ENDBRANCH  28  29
ENDBRANCH  27  28
ENDBRANCH  26  27
ENDBRANCH   1  26
TORSDOF 19
ENDMDL
MODEL 2
REMARK VINA RESULT:     -10.8      0.738      8.129
REMARK SMILES C[C@H](C(=O)NCCCCCCNC(=O)c1ccc(-c2c3nc(c(-c4c(F)cc(S(=O)(=O)[O-])cc4F)c4ccc([nH]4)c(-c4c(F)cc(S(=O)(=O)[O-])cc4F)c4nc(c(-c5c(F)cc(S(=O)(=O)[O-])cc5F)c5ccc2[nH]5)C=C4)C=C3)cc1)[C@H](C)[NH+]1CCN(c2ccccc2Cl)CC1
REMARK SMILES IDX 8 1 7 2 6 3 5 4 3 5 4 6 2 8 1 9 81 10 82 11 83 12 84 13
REMARK SMILES IDX 95 14 85 16 94 17 86 18 87 19 88 20 92 21 89 22 91 23 93 24
REMARK SMILES IDX 90 25 9 26 10 27 11 28 12 29 13 30 14 32 15 33 16 34 80 35
REMARK SMILES IDX 17 36 79 37 18 38 19 39 20 40 73 41 21 42 78 43 72 44 74 45
REMARK SMILES IDX 22 46 77 47 71 48 70 49 23 51 57 52 36 53 56 54 37 55 40 56
REMARK SMILES IDX 55 57 75 58 38 59 39 60 54 62 76 63 41 64 24 65 25 66 34 67
REMARK SMILES IDX 26 68 27 69 33 70 35 71 28 72 29 73 30 74 31 75 32 76 58 77
REMARK SMILES IDX 59 78 68 79 60 80 61 81 67 82 69 83 62 84 63 85 64 86 65 87
REMARK SMILES IDX 66 88 42 89 43 90 52 91 44 92 45 93 51 94 53 95 46 96 47 97
REMARK SMILES IDX 48 98 49 99 50 100
REMARK H PARENT 5 7 83 15 12 31 74 50 40 61
REMARK Flexibility Score: inf
ROOT
ATOM      1  C   UNL A   1      39.462  21.345  26.308  1.00  0.00     0.002 C 
ENDROOT
BRANCH   1   2
ATOM      2  C   UNL A   1      38.650  22.643  26.169  1.00  0.00     0.021 C 
BRANCH   2   3
ATOM      3  C   UNL A   1      37.280  22.533  25.459  1.00  0.00     0.116 C 
BRANCH   3   4
ATOM      4  N   UNL A   1      36.238  22.095  26.384  1.00  0.00    -0.356 N 
ATOM      5  C   UNL A   1      34.916  21.782  26.306  1.00  0.00     0.228 C 
ATOM      6  O   UNL A   1      34.426  21.399  27.377  1.00  0.00    -0.275 OA
ATOM      7  H   UNL A   1      36.581  22.003  27.302  1.00  0.00     0.163 HD
BRANCH   5   8
ATOM      8  C   UNL A   1      34.068  21.800  25.013  1.00  0.00     0.133 C 
ATOM      9  C   UNL A   1      33.739  20.330  24.647  1.00  0.00     0.024 C 
BRANCH   8  10
ATOM     10  C   UNL A   1      32.774  22.703  25.075  1.00  0.00     0.193 C 
ATOM     11  C   UNL A   1      31.507  21.865  25.389  1.00  0.00     0.076 C 
BRANCH  10  12
ATOM     12  N   UNL A   1      32.541  23.461  23.793  1.00  0.00    -0.329 N 
ATOM     13  C   UNL A   1      31.221  24.169  23.711  1.00  0.00     0.284 C 
ATOM     14  C   UNL A   1      33.551  24.529  23.554  1.00  0.00     0.284 C 
ATOM     15  H   UNL A   1      32.592  22.713  23.101  1.00  0.00     0.348 HD
ATOM     16  C   UNL A   1      31.030  25.318  24.731  1.00  0.00     0.178 C 
ATOM     17  C   UNL A   1      33.468  25.694  24.557  1.00  0.00     0.178 C 
ATOM     18  N   UNL A   1      32.135  26.282  24.622  1.00  0.00    -0.359 N 
BRANCH  18  19
ATOM     19  C   UNL A   1      32.070  27.467  25.363  1.00  0.00     0.056 A 
ATOM     20  C   UNL A   1      31.874  27.430  26.757  1.00  0.00     0.027 A 
ATOM     21  C   UNL A   1      32.232  28.733  24.757  1.00  0.00     0.064 A 
ATOM     22  C   UNL A   1      31.777  28.594  27.509  1.00  0.00     0.002 A 
ATOM     23  C   UNL A   1      32.118  29.902  25.507  1.00  0.00     0.023 A 
ATOM     24  Cl  UNL A   1      32.550  28.905  23.063  1.00  0.00    -0.082 Cl
ATOM     25  C   UNL A   1      31.862  29.822  26.875  1.00  0.00     0.002 A 
ENDBRANCH  18  19
ENDBRANCH  10  12
ENDBRANCH   8  10
ENDBRANCH   5   8
ENDBRANCH   3   4
ENDBRANCH   2   3
ENDBRANCH   1   2
BRANCH   1  26
ATOM     26  C   UNL A   1      40.988  21.477  26.418  1.00  0.00     0.002 C 
BRANCH  26  27
ATOM     27  C   UNL A   1      41.554  22.592  27.315  1.00  0.00     0.021 C 
BRANCH  27  28
ATOM     28  C   UNL A   1      42.885  23.243  26.907  1.00  0.00     0.116 C 
BRANCH  28  29
ATOM     29  N   UNL A   1      42.780  24.160  25.782  1.00  0.00    -0.352 N 
ATOM     30  C   UNL A   1      42.468  25.505  25.749  1.00  0.00     0.251 C 
ATOM     31  H   UNL A   1      42.962  23.757  24.902  1.00  0.00     0.163 HD
ATOM     32  O   UNL A   1      42.376  26.073  24.663  1.00  0.00    -0.269 OA
BRANCH  30  33
ATOM     33  C   UNL A   1      42.228  26.286  26.991  1.00  0.00     0.039 A 
ATOM     34  C   UNL A   1      43.089  27.332  27.330  1.00  0.00     0.014 A 
ATOM     35  C   UNL A   1      41.223  25.936  27.885  1.00  0.00     0.014 A 
ATOM     36  C   UNL A   1      42.892  28.068  28.517  1.00  0.00     0.010 A 
ATOM     37  C   UNL A   1      40.997  26.717  29.037  1.00  0.00     0.010 A 
ATOM     38  C   UNL A   1      41.804  27.815  29.374  1.00  0.00    -0.014 A 
BRANCH  38  39
ATOM     39  C   UNL A   1      41.501  28.687  30.576  1.00  0.00     0.031 A 
ATOM     40  C   UNL A   1      42.307  28.601  31.866  1.00  0.00     0.074 A 
ATOM     41  C   UNL A   1      40.442  29.533  30.565  1.00  0.00     0.049 A 
ATOM     42  N   UNL A   1      42.133  29.244  33.001  1.00  0.00    -0.248 NA
ATOM     43  C   UNL A   1      43.417  27.637  31.912  1.00  0.00     0.031 C 
ATOM     44  C   UNL A   1      39.476  29.675  29.473  1.00  0.00     0.029 A 
ATOM     45  N   UNL A   1      39.993  30.440  31.505  1.00  0.00    -0.354 N 
ATOM     46  C   UNL A   1      43.077  28.733  33.891  1.00  0.00     0.074 A 
ATOM     47  C   UNL A   1      43.766  27.671  33.190  1.00  0.00     0.031 C 
ATOM     48  C   UNL A   1      38.605  30.654  29.769  1.00  0.00     0.029 A 
ATOM     49  C   UNL A   1      38.903  31.180  31.098  1.00  0.00     0.049 A 
ATOM     50  H   UNL A   1      40.414  30.548  32.389  1.00  0.00     0.167 HD
ATOM     51  C   UNL A   1      43.390  29.128  35.152  1.00  0.00     0.037 A 
ATOM     52  C   UNL A   1      38.214  32.172  31.703  1.00  0.00     0.037 A 
ATOM     53  C   UNL A   1      42.777  30.236  35.842  1.00  0.00     0.049 A 
ATOM     54  C   UNL A   1      38.614  32.641  33.079  1.00  0.00     0.074 A 
ATOM     55  C   UNL A   1      43.112  30.770  37.077  1.00  0.00     0.029 A 
ATOM     56  N   UNL A   1      41.715  30.985  35.364  1.00  0.00    -0.354 N 
ATOM     57  N   UNL A   1      39.577  32.203  33.853  1.00  0.00    -0.248 NA
ATOM     58  C   UNL A   1      37.835  33.746  33.662  1.00  0.00     0.031 C 
ATOM     59  C   UNL A   1      42.226  31.813  37.363  1.00  0.00     0.029 A 
ATOM     60  C   UNL A   1      41.373  31.966  36.283  1.00  0.00     0.049 A 
ATOM     61  H   UNL A   1      41.269  30.844  34.498  1.00  0.00     0.167 HD
ATOM     62  C   UNL A   1      39.537  32.996  34.996  1.00  0.00     0.074 A 
ATOM     63  C   UNL A   1      38.468  33.951  34.809  1.00  0.00     0.031 C 
ATOM     64  C   UNL A   1      40.320  32.933  36.100  1.00  0.00     0.037 A 
BRANCH  51  65
ATOM     65  C   UNL A   1      44.488  28.381  35.875  1.00  0.00     0.058 A 
ATOM     66  C   UNL A   1      45.837  28.754  35.753  1.00  0.00     0.135 A 
ATOM     67  C   UNL A   1      44.186  27.317  36.742  1.00  0.00     0.135 A 
ATOM     68  F   UNL A   1      46.188  29.764  34.941  1.00  0.00    -0.206 F 
ATOM     69  C   UNL A   1      46.848  28.070  36.420  1.00  0.00     0.059 A 
ATOM     70  C   UNL A   1      45.178  26.642  37.450  1.00  0.00     0.059 A 
ATOM     71  F   UNL A   1      42.913  26.925  36.916  1.00  0.00    -0.206 F 
ATOM     72  C   UNL A   1      46.509  27.012  37.265  1.00  0.00     0.060 A 
BRANCH  72  73
ATOM     73  S   UNL A   1      47.838  26.133  38.114  1.00  0.00     0.124 S 
ATOM     74  O   UNL A   1      48.409  25.350  37.022  1.00  0.00    -0.237 OA
ATOM     75  O   UNL A   1      48.667  27.224  38.612  1.00  0.00    -0.237 OA
ATOM     76  O   UNL A   1      47.137  25.362  39.137  1.00  0.00    -0.744 OA
ENDBRANCH  72  73
ENDBRANCH  51  65
BRANCH  52  77
ATOM     77  C   UNL A   1      37.079  32.835  30.994  1.00  0.00     0.058 A 
ATOM     78  C   UNL A   1      35.749  32.576  31.364  1.00  0.00     0.135 A 
ATOM     79  C   UNL A   1      37.296  33.729  29.935  1.00  0.00     0.135 A 
ATOM     80  F   UNL A   1      35.485  31.717  32.360  1.00  0.00    -0.206 F 
ATOM     81  C   UNL A   1      34.676  33.164  30.699  1.00  0.00     0.059 A 
ATOM     82  C   UNL A   1      36.241  34.354  29.275  1.00  0.00     0.059 A 
ATOM     83  F   UNL A   1      38.547  34.020  29.547  1.00  0.00    -0.206 F 
ATOM     84  C   UNL A   1      34.934  34.058  29.658  1.00  0.00     0.060 A 
BRANCH  84  85
ATOM     85  S   UNL A   1      33.534  34.855  28.841  1.00  0.00     0.124 S 
ATOM     86  O   UNL A   1      34.136  36.089  28.357  1.00  0.00    -0.237 OA
ATOM     87  O   UNL A   1      33.173  33.874  27.824  1.00  0.00    -0.237 OA
ATOM     88  O   UNL A   1      32.560  35.010  29.923  1.00  0.00    -0.744 OA
ENDBRANCH  84  85
ENDBRANCH  52  77
BRANCH  64  89
ATOM     89  C   UNL A   1      40.096  33.950  37.189  1.00  0.00     0.058 A 
ATOM     90  C   UNL A   1      40.609  35.253  37.108  1.00  0.00     0.135 A 
ATOM     91  C   UNL A   1      39.304  33.631  38.306  1.00  0.00     0.135 A 
ATOM     92  F   UNL A   1      41.376  35.614  36.066  1.00  0.00    -0.206 F 
ATOM     93  C   UNL A   1      40.365  36.198  38.103  1.00  0.00     0.059 A 
ATOM     94  C   UNL A   1      39.022  34.567  39.298  1.00  0.00     0.059 A 
ATOM     95  F   UNL A   1      38.778  32.403  38.433  1.00  0.00    -0.206 F 
ATOM     96  C   UNL A   1      39.566  35.846  39.193  1.00  0.00     0.060 A 
BRANCH  96  97
ATOM     97  S   UNL A   1      39.225  37.091  40.455  1.00  0.00     0.124 S 
ATOM     98  O   UNL A   1      39.602  38.321  39.766  1.00  0.00    -0.237 OA
ATOM     99  O   UNL A   1      37.796  36.911  40.693  1.00  0.00    -0.237 OA
ATOM    100  O   UNL A   1      40.093  36.702  41.563  1.00  0.00    -0.744 OA
ENDBRANCH  96  97
ENDBRANCH  64  89
ENDBRANCH  38  39
ENDBRANCH  30  33
ENDBRANCH  28  29
ENDBRANCH  27  28
ENDBRANCH  26  27
ENDBRANCH   1  26
TORSDOF 19
ENDMDL
MODEL 3
REMARK VINA RESULT:     -10.7      1.423      8.235
REMARK SMILES C[C@H](C(=O)NCCCCCCNC(=O)c1ccc(-c2c3nc(c(-c4c(F)cc(S(=O)(=O)[O-])cc4F)c4ccc([nH]4)c(-c4c(F)cc(S(=O)(=O)[O-])cc4F)c4nc(c(-c5c(F)cc(S(=O)(=O)[O-])cc5F)c5ccc2[nH]5)C=C4)C=C3)cc1)[C@H](C)[NH+]1CCN(c2ccccc2Cl)CC1
REMARK SMILES IDX 8 1 7 2 6 3 5 4 3 5 4 6 2 8 1 9 81 10 82 11 83 12 84 13
REMARK SMILES IDX 95 14 85 16 94 17 86 18 87 19 88 20 92 21 89 22 91 23 93 24
REMARK SMILES IDX 90 25 9 26 10 27 11 28 12 29 13 30 14 32 15 33 16 34 80 35
REMARK SMILES IDX 17 36 79 37 18 38 19 39 20 40 73 41 21 42 78 43 72 44 74 45
REMARK SMILES IDX 22 46 77 47 71 48 70 49 23 51 57 52 36 53 56 54 37 55 40 56
REMARK SMILES IDX 55 57 75 58 38 59 39 60 54 62 76 63 41 64 24 65 25 66 34 67
REMARK SMILES IDX 26 68 27 69 33 70 35 71 28 72 29 73 30 74 31 75 32 76 58 77
REMARK SMILES IDX 59 78 68 79 60 80 61 81 67 82 69 83 62 84 63 85 64 86 65 87
REMARK SMILES IDX 66 88 42 89 43 90 52 91 44 92 45 93 51 94 53 95 46 96 47 97
REMARK SMILES IDX 48 98 49 99 50 100
REMARK H PARENT 5 7 83 15 12 31 74 50 40 61
REMARK Flexibility Score: inf
ROOT
ATOM      1  C   UNL A   1      37.571  23.029  25.614  1.00  0.00     0.002 C 
ENDROOT
BRANCH   1   2
ATOM      2  C   UNL A   1      36.045  23.093  25.439  1.00  0.00     0.021 C 
BRANCH   2   3
ATOM      3  C   UNL A   1      35.239  21.866  25.927  1.00  0.00     0.116 C 
BRANCH   3   4
ATOM      4  N   UNL A   1      34.238  22.250  26.919  1.00  0.00    -0.356 N 
ATOM      5  C   UNL A   1      32.912  22.554  26.916  1.00  0.00     0.228 C 
ATOM      6  O   UNL A   1      32.447  22.783  28.041  1.00  0.00    -0.275 OA
ATOM      7  H   UNL A   1      34.623  22.304  27.823  1.00  0.00     0.163 HD
BRANCH   5   8
ATOM      8  C   UNL A   1      31.995  22.548  25.672  1.00  0.00     0.133 C 
ATOM      9  C   UNL A   1      30.534  22.394  26.166  1.00  0.00     0.024 C 
BRANCH   8  10
ATOM     10  C   UNL A   1      32.171  23.784  24.705  1.00  0.00     0.193 C 
ATOM     11  C   UNL A   1      32.878  23.379  23.384  1.00  0.00     0.076 C 
BRANCH  10  12
ATOM     12  N   UNL A   1      32.952  24.905  25.342  1.00  0.00    -0.329 N 
ATOM     13  C   UNL A   1      33.520  25.903  24.378  1.00  0.00     0.284 C 
ATOM     14  C   UNL A   1      32.138  25.721  26.285  1.00  0.00     0.284 C 
ATOM     15  H   UNL A   1      33.698  24.392  25.811  1.00  0.00     0.348 HD
ATOM     16  C   UNL A   1      32.469  26.729  23.596  1.00  0.00     0.178 C 
ATOM     17  C   UNL A   1      31.031  26.540  25.598  1.00  0.00     0.178 C 
ATOM     18  N   UNL A   1      31.546  27.390  24.529  1.00  0.00    -0.359 N 
BRANCH  18  19
ATOM     19  C   UNL A   1      30.610  28.297  24.022  1.00  0.00     0.056 A 
ATOM     20  C   UNL A   1      29.584  27.861  23.161  1.00  0.00     0.027 A 
ATOM     21  C   UNL A   1      30.633  29.664  24.376  1.00  0.00     0.064 A 
ATOM     22  C   UNL A   1      28.662  28.749  22.621  1.00  0.00     0.002 A 
ATOM     23  C   UNL A   1      29.718  30.559  23.823  1.00  0.00     0.023 A 
ATOM     24  Cl  UNL A   1      31.800  30.307  25.483  1.00  0.00    -0.082 Cl
ATOM     25  C   UNL A   1      28.757  30.096  22.926  1.00  0.00     0.002 A 
ENDBRANCH  18  19
ENDBRANCH  10  12
ENDBRANCH   8  10
ENDBRANCH   5   8
ENDBRANCH   3   4
ENDBRANCH   2   3
ENDBRANCH   1   2
BRANCH   1  26
ATOM     26  C   UNL A   1      38.219  24.070  26.539  1.00  0.00     0.002 C 
BRANCH  26  27
ATOM     27  C   UNL A   1      39.755  24.136  26.589  1.00  0.00     0.021 C 
BRANCH  27  28
ATOM     28  C   UNL A   1      40.468  25.121  25.648  1.00  0.00     0.116 C 
BRANCH  28  29
ATOM     29  N   UNL A   1      41.907  24.925  25.560  1.00  0.00    -0.352 N 
ATOM     30  C   UNL A   1      42.930  25.432  26.337  1.00  0.00     0.251 C 
ATOM     31  H   UNL A   1      42.200  24.333  24.829  1.00  0.00     0.163 HD
ATOM     32  O   UNL A   1      44.094  25.176  26.037  1.00  0.00    -0.269 OA
BRANCH  30  33
ATOM     33  C   UNL A   1      42.665  26.290  27.521  1.00  0.00     0.039 A 
ATOM     34  C   UNL A   1      43.101  27.617  27.529  1.00  0.00     0.014 A 
ATOM     35  C   UNL A   1      42.080  25.776  28.672  1.00  0.00     0.014 A 
ATOM     36  C   UNL A   1      42.879  28.439  28.654  1.00  0.00     0.010 A 
ATOM     37  C   UNL A   1      41.807  26.622  29.766  1.00  0.00     0.010 A 
ATOM     38  C   UNL A   1      42.174  27.977  29.782  1.00  0.00    -0.014 A 
BRANCH  38  39
ATOM     39  C   UNL A   1      41.808  28.889  30.936  1.00  0.00     0.031 A 
ATOM     40  C   UNL A   1      42.596  28.905  32.240  1.00  0.00     0.074 A 
ATOM     41  C   UNL A   1      40.708  29.679  30.869  1.00  0.00     0.049 A 
ATOM     42  N   UNL A   1      42.371  29.591  33.340  1.00  0.00    -0.248 NA
ATOM     43  C   UNL A   1      43.751  28.002  32.349  1.00  0.00     0.031 C 
ATOM     44  C   UNL A   1      39.756  29.720  29.757  1.00  0.00     0.029 A 
ATOM     45  N   UNL A   1      40.199  30.605  31.757  1.00  0.00    -0.354 N 
ATOM     46  C   UNL A   1      43.324  29.171  34.268  1.00  0.00     0.074 A 
ATOM     47  C   UNL A   1      44.076  28.113  33.629  1.00  0.00     0.031 C 
ATOM     48  C   UNL A   1      38.832  30.666  29.993  1.00  0.00     0.029 A 
ATOM     49  C   UNL A   1      39.081  31.269  31.299  1.00  0.00     0.049 A 
ATOM     50  H   UNL A   1      40.599  30.776  32.641  1.00  0.00     0.167 HD
ATOM     51  C   UNL A   1      43.595  29.640  35.513  1.00  0.00     0.037 A 
ATOM     52  C   UNL A   1      38.333  32.252  31.846  1.00  0.00     0.037 A 
ATOM     53  C   UNL A   1      42.915  30.747  36.140  1.00  0.00     0.049 A 
ATOM     54  C   UNL A   1      38.686  32.806  33.203  1.00  0.00     0.074 A 
ATOM     55  C   UNL A   1      43.203  31.356  37.352  1.00  0.00     0.029 A 
ATOM     56  N   UNL A   1      41.826  31.419  35.610  1.00  0.00    -0.354 N 
ATOM     57  N   UNL A   1      39.656  32.454  34.011  1.00  0.00    -0.248 NA
ATOM     58  C   UNL A   1      37.843  33.896  33.721  1.00  0.00     0.031 C 
ATOM     59  C   UNL A   1      42.261  32.365  37.575  1.00  0.00     0.029 A 
ATOM     60  C   UNL A   1      41.420  32.423  36.476  1.00  0.00     0.049 A 
ATOM     61  H   UNL A   1      41.402  31.215  34.745  1.00  0.00     0.167 HD
ATOM     62  C   UNL A   1      39.557  33.298  35.114  1.00  0.00     0.074 A 
ATOM     63  C   UNL A   1      38.445  34.187  34.866  1.00  0.00     0.031 C 
ATOM     64  C   UNL A   1      40.324  33.327  36.231  1.00  0.00     0.037 A 
BRANCH  51  65
ATOM     65  C   UNL A   1      44.716  28.985  36.286  1.00  0.00     0.058 A 
ATOM     66  C   UNL A   1      44.497  27.848  37.082  1.00  0.00     0.135 A 
ATOM     67  C   UNL A   1      46.035  29.464  36.188  1.00  0.00     0.135 A 
ATOM     68  F   UNL A   1      43.260  27.343  37.213  1.00  0.00    -0.206 F 
ATOM     69  C   UNL A   1      45.529  27.242  37.791  1.00  0.00     0.059 A 
ATOM     70  C   UNL A   1      47.090  28.849  36.859  1.00  0.00     0.059 A 
ATOM     71  F   UNL A   1      46.312  30.535  35.429  1.00  0.00    -0.206 F 
ATOM     72  C   UNL A   1      46.823  27.752  37.676  1.00  0.00     0.060 A 
BRANCH  72  73
ATOM     73  S   UNL A   1      48.145  26.956  38.613  1.00  0.00     0.124 S 
ATOM     74  O   UNL A   1      48.844  28.111  39.166  1.00  0.00    -0.237 OA
ATOM     75  O   UNL A   1      47.404  26.144  39.571  1.00  0.00    -0.237 OA
ATOM     76  O   UNL A   1      48.880  26.208  37.596  1.00  0.00    -0.744 OA
ENDBRANCH  72  73
ENDBRANCH  51  65
BRANCH  52  77
ATOM     77  C   UNL A   1      37.179  32.822  31.089  1.00  0.00     0.058 A 
ATOM     78  C   UNL A   1      35.859  32.459  31.405  1.00  0.00     0.135 A 
ATOM     79  C   UNL A   1      37.366  33.732  30.037  1.00  0.00     0.135 A 
ATOM     80  F   UNL A   1      35.624  31.581  32.392  1.00  0.00    -0.206 F 
ATOM     81  C   UNL A   1      34.771  32.959  30.696  1.00  0.00     0.059 A 
ATOM     82  C   UNL A   1      36.293  34.271  29.333  1.00  0.00     0.059 A 
ATOM     83  F   UNL A   1      38.606  34.121  29.700  1.00  0.00    -0.206 F 
ATOM     84  C   UNL A   1      34.999  33.871  29.663  1.00  0.00     0.060 A 
BRANCH  84  85
ATOM     85  S   UNL A   1      33.575  34.554  28.787  1.00  0.00     0.124 S 
ATOM     86  O   UNL A   1      32.667  34.854  29.886  1.00  0.00    -0.237 OA
ATOM     87  O   UNL A   1      34.157  35.703  28.103  1.00  0.00    -0.237 OA
ATOM     88  O   UNL A   1      33.164  33.456  27.911  1.00  0.00    -0.744 OA
ENDBRANCH  84  85
ENDBRANCH  52  77
BRANCH  64  89
ATOM     89  C   UNL A   1      40.030  34.381  37.267  1.00  0.00     0.058 A 
ATOM     90  C   UNL A   1      39.226  34.120  38.387  1.00  0.00     0.135 A 
ATOM     91  C   UNL A   1      40.612  35.656  37.166  1.00  0.00     0.135 A 
ATOM     92  F   UNL A   1      38.640  32.921  38.534  1.00  0.00    -0.206 F 
ATOM     93  C   UNL A   1      38.990  35.090  39.359  1.00  0.00     0.059 A 
ATOM     94  C   UNL A   1      40.415  36.632  38.141  1.00  0.00     0.059 A 
ATOM     95  F   UNL A   1      41.400  35.960  36.123  1.00  0.00    -0.206 F 
ATOM     96  C   UNL A   1      39.593  36.343  39.228  1.00  0.00     0.060 A 
BRANCH  96  97
ATOM     97  S   UNL A   1      39.312  37.579  40.516  1.00  0.00     0.124 S 
ATOM     98  O   UNL A   1      38.210  38.349  39.949  1.00  0.00    -0.237 OA
ATOM     99  O   UNL A   1      38.980  36.754  41.673  1.00  0.00    -0.237 OA
ATOM    100  O   UNL A   1      40.589  38.281  40.599  1.00  0.00    -0.744 OA
ENDBRANCH  96  97
ENDBRANCH  64  89
ENDBRANCH  38  39
ENDBRANCH  30  33
ENDBRANCH  28  29
ENDBRANCH  27  28
ENDBRANCH  26  27
ENDBRANCH   1  26
TORSDOF 19
ENDMDL
