MODEL 1
REMARK VINA RESULT:     -12.5      0.000      0.000
REMARK SMILES COc1ccc2c(c1)c(CC(=O)NCCCCCCNC(=O)c1ccc(-c3c4nc(c(-c5c(F)cc(S(=O)(=O)[O-])cc5F)c5ccc([nH]5)c(-c5c(F)cc(S(=O)(=O)[O-])cc5F)c5nc(c(-c6c(F)cc(S(=O)(=O)[O-])cc6F)c6ccc3[nH]6)C=C5)C=C4)cc1)c(C(F)(F)F)n2C(=O)c1ccc(Cl)cc1
REMARK SMILES IDX 16 1 15 2 14 3 13 4 11 5 12 6 10 8 9 9 3 10 4 11 8 12 5 13
REMARK SMILES IDX 7 14 6 15 94 16 89 17 2 18 1 19 95 20 96 21 97 22 98 23
REMARK SMILES IDX 103 24 99 25 102 26 100 27 101 28 90 29 91 30 92 31 93 32
REMARK SMILES IDX 17 33 18 34 19 35 20 36 21 37 22 39 23 40 24 41 88 42 25 43
REMARK SMILES IDX 87 44 26 45 27 46 28 47 81 48 29 49 86 50 80 51 82 52 30 53
REMARK SMILES IDX 85 54 79 55 78 56 31 58 65 59 44 60 64 61 45 62 48 63 63 64
REMARK SMILES IDX 83 65 46 66 47 67 62 69 84 70 49 71 32 72 33 73 42 74 34 75
REMARK SMILES IDX 35 76 41 77 43 78 36 79 37 80 38 81 39 82 40 83 66 84 67 85
REMARK SMILES IDX 76 86 68 87 69 88 75 89 77 90 70 91 71 92 72 93 73 94 74 95
REMARK SMILES IDX 50 96 51 97 60 98 52 99 53 100 59 101 61 102 54 103 55 104
REMARK SMILES IDX 56 105 57 106 58 107
REMARK H PARENT 13 7 20 38 82 57 48 68
REMARK Flexibility Score: inf
ROOT
ATOM      1  C   UNL A   1      31.737  28.123  26.103  1.00  0.00     0.002 C 
ENDROOT
BRANCH   1   2
ATOM      2  C   UNL A   1      30.773  27.023  26.565  1.00  0.00     0.021 C 
BRANCH   2   3
ATOM      3  C   UNL A   1      31.039  25.664  25.917  1.00  0.00     0.116 C 
BRANCH   3   4
ATOM      4  N   UNL A   1      31.373  24.662  26.912  1.00  0.00    -0.356 N 
ATOM      5  C   UNL A   1      31.758  23.366  26.721  1.00  0.00     0.224 C 
ATOM      6  O   UNL A   1      31.968  22.657  27.707  1.00  0.00    -0.275 OA
ATOM      7  H   UNL A   1      31.312  24.955  27.850  1.00  0.00     0.163 HD
BRANCH   5   8
ATOM      8  C   UNL A   1      31.962  22.837  25.308  1.00  0.00     0.138 C 
BRANCH   8   9
ATOM      9  C   UNL A   1      33.254  22.087  25.124  1.00  0.00     0.000 A 
ATOM     10  C   UNL A   1      32.901  18.295  24.833  1.00  0.00     0.119 A 
ATOM     11  C   UNL A   1      34.260  18.023  24.799  1.00  0.00     0.048 A 
ATOM     12  C   UNL A   1      32.465  19.619  24.922  1.00  0.00     0.057 A 
ATOM     13  C   UNL A   1      35.200  19.058  24.844  1.00  0.00     0.031 A 
ATOM     14  C   UNL A   1      33.395  20.681  24.967  1.00  0.00     0.008 A 
ATOM     15  C   UNL A   1      34.760  20.397  24.879  1.00  0.00     0.057 A 
ATOM     16  N   UNL A   1      35.437  21.621  24.768  1.00  0.00    -0.271 N 
ATOM     17  C   UNL A   1      34.542  22.622  25.146  1.00  0.00     0.135 A 
BRANCH  10  18
ATOM     18  O   UNL A   1      31.907  17.359  24.760  1.00  0.00    -0.497 OA
ATOM     19  C   UNL A   1      32.206  16.097  25.341  1.00  0.00     0.278 C 
ENDBRANCH  10  18
BRANCH  16  20
ATOM     20  C   UNL A   1      36.767  21.826  24.301  1.00  0.00     0.262 C 
ATOM     21  O   UNL A   1      36.928  22.347  23.214  1.00  0.00    -0.268 OA
BRANCH  20  22
ATOM     22  C   UNL A   1      37.984  21.404  25.023  1.00  0.00     0.040 A 
ATOM     23  C   UNL A   1      38.478  20.103  24.874  1.00  0.00     0.015 A 
ATOM     24  C   UNL A   1      38.599  22.312  25.890  1.00  0.00     0.015 A 
ATOM     25  C   UNL A   1      39.547  19.683  25.670  1.00  0.00     0.021 A 
ATOM     26  C   UNL A   1      39.676  21.889  26.674  1.00  0.00     0.021 A 
ATOM     27  C   UNL A   1      40.131  20.573  26.576  1.00  0.00     0.041 A 
ATOM     28  Cl  UNL A   1      41.403  20.034  27.600  1.00  0.00    -0.084 Cl
ENDBRANCH  20  22
ENDBRANCH  16  20
BRANCH  17  29
ATOM     29  C   UNL A   1      34.962  24.022  25.452  1.00  0.00     0.432 C 
ATOM     30  F   UNL A   1      34.057  24.929  25.019  1.00  0.00    -0.165 F 
ATOM     31  F   UNL A   1      35.060  24.194  26.800  1.00  0.00    -0.165 F 
ATOM     32  F   UNL A   1      36.182  24.351  24.968  1.00  0.00    -0.165 F 
ENDBRANCH  17  29
ENDBRANCH   8   9
ENDBRANCH   5   8
ENDBRANCH   3   4
ENDBRANCH   2   3
ENDBRANCH   1   2
BRANCH   1  33
ATOM     33  C   UNL A   1      32.339  28.972  27.230  1.00  0.00     0.002 C 
BRANCH  33  34
ATOM     34  C   UNL A   1      32.716  30.408  26.845  1.00  0.00     0.021 C 
BRANCH  34  35
ATOM     35  C   UNL A   1      34.104  30.845  27.315  1.00  0.00     0.116 C 
BRANCH  35  36
ATOM     36  N   UNL A   1      34.086  31.621  28.538  1.00  0.00    -0.352 N 
ATOM     37  C   UNL A   1      34.991  31.906  29.520  1.00  0.00     0.251 C 
ATOM     38  H   UNL A   1      33.212  32.045  28.699  1.00  0.00     0.163 HD
ATOM     39  O   UNL A   1      34.614  32.716  30.373  1.00  0.00    -0.269 OA
BRANCH  37  40
ATOM     40  C   UNL A   1      36.335  31.282  29.668  1.00  0.00     0.039 A 
ATOM     41  C   UNL A   1      37.559  31.938  29.544  1.00  0.00     0.014 A 
ATOM     42  C   UNL A   1      36.343  29.892  29.902  1.00  0.00     0.014 A 
ATOM     43  C   UNL A   1      38.748  31.211  29.548  1.00  0.00     0.010 A 
ATOM     44  C   UNL A   1      37.527  29.164  29.926  1.00  0.00     0.010 A 
ATOM     45  C   UNL A   1      38.730  29.819  29.699  1.00  0.00    -0.014 A 
BRANCH  45  46
ATOM     46  C   UNL A   1      40.012  29.117  29.735  1.00  0.00     0.031 A 
ATOM     47  C   UNL A   1      40.530  28.888  31.112  1.00  0.00     0.074 A 
ATOM     48  C   UNL A   1      40.652  28.633  28.647  1.00  0.00     0.049 A 
ATOM     49  N   UNL A   1      41.553  29.442  31.677  1.00  0.00    -0.248 NA
ATOM     50  C   UNL A   1      39.725  28.060  32.025  1.00  0.00     0.031 C 
ATOM     51  C   UNL A   1      40.141  28.537  27.275  1.00  0.00     0.029 A 
ATOM     52  N   UNL A   1      41.884  28.049  28.552  1.00  0.00    -0.354 N 
ATOM     53  C   UNL A   1      41.655  28.857  32.938  1.00  0.00     0.074 A 
ATOM     54  C   UNL A   1      40.421  28.153  33.160  1.00  0.00     0.031 C 
ATOM     55  C   UNL A   1      40.956  27.739  26.545  1.00  0.00     0.029 A 
ATOM     56  C   UNL A   1      42.126  27.405  27.339  1.00  0.00     0.049 A 
ATOM     57  H   UNL A   1      42.547  28.081  29.279  1.00  0.00     0.167 HD
ATOM     58  C   UNL A   1      42.852  28.788  33.586  1.00  0.00     0.037 A 
ATOM     59  C   UNL A   1      43.206  26.648  27.022  1.00  0.00     0.037 A 
ATOM     60  C   UNL A   1      43.821  29.661  32.978  1.00  0.00     0.049 A 
ATOM     61  C   UNL A   1      44.313  27.069  27.910  1.00  0.00     0.074 A 
ATOM     62  C   UNL A   1      44.096  31.009  32.976  1.00  0.00     0.029 A 
ATOM     63  N   UNL A   1      44.466  29.106  31.907  1.00  0.00    -0.354 N 
ATOM     64  N   UNL A   1      44.870  28.247  27.862  1.00  0.00    -0.248 NA
ATOM     65  C   UNL A   1      44.620  26.277  29.096  1.00  0.00     0.031 C 
ATOM     66  C   UNL A   1      44.769  31.274  31.745  1.00  0.00     0.029 A 
ATOM     67  C   UNL A   1      44.918  30.075  31.051  1.00  0.00     0.049 A 
ATOM     68  H   UNL A   1      44.590  28.140  31.768  1.00  0.00     0.167 HD
ATOM     69  C   UNL A   1      45.237  28.503  29.166  1.00  0.00     0.074 A 
ATOM     70  C   UNL A   1      45.229  27.208  29.834  1.00  0.00     0.031 C 
ATOM     71  C   UNL A   1      45.201  29.769  29.666  1.00  0.00     0.037 A 
BRANCH  58  72
ATOM     72  C   UNL A   1      43.293  27.623  34.450  1.00  0.00     0.058 A 
ATOM     73  C   UNL A   1      43.562  27.827  35.820  1.00  0.00     0.135 A 
ATOM     74  C   UNL A   1      43.744  26.392  33.922  1.00  0.00     0.135 A 
ATOM     75  F   UNL A   1      43.205  28.973  36.423  1.00  0.00    -0.206 F 
ATOM     76  C   UNL A   1      44.260  26.895  36.595  1.00  0.00     0.059 A 
ATOM     77  C   UNL A   1      44.396  25.430  34.687  1.00  0.00     0.059 A 
ATOM     78  F   UNL A   1      43.664  26.107  32.617  1.00  0.00    -0.206 F 
ATOM     79  C   UNL A   1      44.676  25.700  36.016  1.00  0.00     0.060 A 
BRANCH  79  80
ATOM     80  S   UNL A   1      45.626  24.521  36.994  1.00  0.00     0.124 S 
ATOM     81  O   UNL A   1      45.429  25.029  38.346  1.00  0.00    -0.237 OA
ATOM     82  O   UNL A   1      44.959  23.263  36.679  1.00  0.00    -0.237 OA
ATOM     83  O   UNL A   1      46.979  24.654  36.460  1.00  0.00    -0.744 OA
ENDBRANCH  79  80
ENDBRANCH  58  72
BRANCH  59  84
ATOM     84  C   UNL A   1      43.307  25.403  26.212  1.00  0.00     0.058 A 
ATOM     85  C   UNL A   1      44.311  25.267  25.232  1.00  0.00     0.135 A 
ATOM     86  C   UNL A   1      42.674  24.215  26.621  1.00  0.00     0.135 A 
ATOM     87  F   UNL A   1      44.962  26.349  24.775  1.00  0.00    -0.206 F 
ATOM     88  C   UNL A   1      44.741  24.021  24.770  1.00  0.00     0.059 A 
ATOM     89  C   UNL A   1      43.081  22.959  26.168  1.00  0.00     0.059 A 
ATOM     90  F   UNL A   1      41.714  24.236  27.557  1.00  0.00    -0.206 F 
ATOM     91  C   UNL A   1      44.145  22.868  25.276  1.00  0.00     0.060 A 
BRANCH  91  92
ATOM     92  S   UNL A   1      44.866  21.257  24.871  1.00  0.00     0.124 S 
ATOM     93  O   UNL A   1      44.840  21.271  23.413  1.00  0.00    -0.237 OA
ATOM     94  O   UNL A   1      46.185  21.350  25.486  1.00  0.00    -0.237 OA
ATOM     95  O   UNL A   1      43.951  20.309  25.503  1.00  0.00    -0.744 OA
ENDBRANCH  91  92
ENDBRANCH  59  84
BRANCH  71  96
ATOM     96  C   UNL A   1      45.316  30.904  28.693  1.00  0.00     0.058 A 
ATOM     97  C   UNL A   1      46.518  31.385  28.149  1.00  0.00     0.135 A 
ATOM     98  C   UNL A   1      44.123  31.480  28.235  1.00  0.00     0.135 A 
ATOM     99  F   UNL A   1      47.696  30.837  28.486  1.00  0.00    -0.206 F 
ATOM    100  C   UNL A   1      46.531  32.414  27.205  1.00  0.00     0.059 A 
ATOM    101  C   UNL A   1      44.109  32.484  27.274  1.00  0.00     0.059 A 
ATOM    102  F   UNL A   1      42.941  31.033  28.692  1.00  0.00    -0.206 F 
ATOM    103  C   UNL A   1      45.319  32.954  26.770  1.00  0.00     0.060 A 
BRANCH 103 104
ATOM    104  S   UNL A   1      45.328  34.230  25.493  1.00  0.00     0.124 S 
ATOM    105  O   UNL A   1      44.650  35.338  26.157  1.00  0.00    -0.237 OA
ATOM    106  O   UNL A   1      46.755  34.416  25.247  1.00  0.00    -0.237 OA
ATOM    107  O   UNL A   1      44.590  33.617  24.392  1.00  0.00    -0.744 OA
ENDBRANCH 103 104
ENDBRANCH  71  96
ENDBRANCH  45  46
ENDBRANCH  37  40
ENDBRANCH  35  36
ENDBRANCH  34  35
ENDBRANCH  33  34
ENDBRANCH   1  33
TORSDOF 21
ENDMDL
MODEL 2
REMARK VINA RESULT:     -12.3      1.574      2.568
REMARK SMILES COc1ccc2c(c1)c(CC(=O)NCCCCCCNC(=O)c1ccc(-c3c4nc(c(-c5c(F)cc(S(=O)(=O)[O-])cc5F)c5ccc([nH]5)c(-c5c(F)cc(S(=O)(=O)[O-])cc5F)c5nc(c(-c6c(F)cc(S(=O)(=O)[O-])cc6F)c6ccc3[nH]6)C=C5)C=C4)cc1)c(C(F)(F)F)n2C(=O)c1ccc(Cl)cc1
REMARK SMILES IDX 16 1 15 2 14 3 13 4 11 5 12 6 10 8 9 9 3 10 4 11 8 12 5 13
REMARK SMILES IDX 7 14 6 15 94 16 89 17 2 18 1 19 95 20 96 21 97 22 98 23
REMARK SMILES IDX 103 24 99 25 102 26 100 27 101 28 90 29 91 30 92 31 93 32
REMARK SMILES IDX 17 33 18 34 19 35 20 36 21 37 22 39 23 40 24 41 88 42 25 43
REMARK SMILES IDX 87 44 26 45 27 46 28 47 81 48 29 49 86 50 80 51 82 52 30 53
REMARK SMILES IDX 85 54 79 55 78 56 31 58 65 59 44 60 64 61 45 62 48 63 63 64
REMARK SMILES IDX 83 65 46 66 47 67 62 69 84 70 49 71 32 72 33 73 42 74 34 75
REMARK SMILES IDX 35 76 41 77 43 78 36 79 37 80 38 81 39 82 40 83 66 84 67 85
REMARK SMILES IDX 76 86 68 87 69 88 75 89 77 90 70 91 71 92 72 93 73 94 74 95
REMARK SMILES IDX 50 96 51 97 60 98 52 99 53 100 59 101 61 102 54 103 55 104
REMARK SMILES IDX 56 105 57 106 58 107
REMARK H PARENT 13 7 20 38 82 57 48 68
REMARK Flexibility Score: inf
ROOT
ATOM      1  C   UNL A   1      31.830  30.487  25.933  1.00  0.00     0.002 C 
ENDROOT
BRANCH   1   2
ATOM      2  C   UNL A   1      31.147  29.521  24.957  1.00  0.00     0.021 C 
BRANCH   2   3
ATOM      3  C   UNL A   1      31.781  28.131  24.926  1.00  0.00     0.116 C 
BRANCH   3   4
ATOM      4  N   UNL A   1      30.908  27.140  25.527  1.00  0.00    -0.356 N 
ATOM      5  C   UNL A   1      31.241  25.943  26.094  1.00  0.00     0.224 C 
ATOM      6  O   UNL A   1      30.341  25.219  26.525  1.00  0.00    -0.275 OA
ATOM      7  H   UNL A   1      29.949  27.358  25.525  1.00  0.00     0.163 HD
BRANCH   5   8
ATOM      8  C   UNL A   1      32.705  25.546  26.222  1.00  0.00     0.138 C 
BRANCH   8   9
ATOM      9  C   UNL A   1      33.085  24.359  25.377  1.00  0.00     0.000 A 
ATOM     10  C   UNL A   1      32.903  24.928  21.605  1.00  0.00     0.119 A 
ATOM     11  C   UNL A   1      33.201  23.623  21.244  1.00  0.00     0.048 A 
ATOM     12  C   UNL A   1      32.858  25.277  22.956  1.00  0.00     0.057 A 
ATOM     13  C   UNL A   1      33.466  22.653  22.218  1.00  0.00     0.031 A 
ATOM     14  C   UNL A   1      33.124  24.316  23.956  1.00  0.00     0.008 A 
ATOM     15  C   UNL A   1      33.474  23.017  23.580  1.00  0.00     0.057 A 
ATOM     16  N   UNL A   1      33.853  22.330  24.743  1.00  0.00    -0.271 N 
ATOM     17  C   UNL A   1      33.396  23.077  25.829  1.00  0.00     0.135 A 
BRANCH  10  18
ATOM     18  O   UNL A   1      32.664  25.952  20.731  1.00  0.00    -0.497 OA
ATOM     19  C   UNL A   1      32.442  25.570  19.380  1.00  0.00     0.278 C 
ENDBRANCH  10  18
BRANCH  16  20
ATOM     20  C   UNL A   1      34.614  21.129  24.819  1.00  0.00     0.262 C 
ATOM     21  O   UNL A   1      34.027  20.064  24.758  1.00  0.00    -0.268 OA
BRANCH  20  22
ATOM     22  C   UNL A   1      36.075  21.072  25.020  1.00  0.00     0.040 A 
ATOM     23  C   UNL A   1      36.762  19.860  24.880  1.00  0.00     0.015 A 
ATOM     24  C   UNL A   1      36.746  22.239  25.398  1.00  0.00     0.015 A 
ATOM     25  C   UNL A   1      38.118  19.802  25.209  1.00  0.00     0.021 A 
ATOM     26  C   UNL A   1      38.106  22.176  25.713  1.00  0.00     0.021 A 
ATOM     27  C   UNL A   1      38.780  20.955  25.637  1.00  0.00     0.041 A 
ATOM     28  Cl  UNL A   1      40.433  20.866  26.104  1.00  0.00    -0.084 Cl
ENDBRANCH  20  22
ENDBRANCH  16  20
BRANCH  17  29
ATOM     29  C   UNL A   1      33.332  22.541  27.221  1.00  0.00     0.432 C 
ATOM     30  F   UNL A   1      34.449  22.831  27.927  1.00  0.00    -0.165 F 
ATOM     31  F   UNL A   1      32.295  23.113  27.894  1.00  0.00    -0.165 F 
ATOM     32  F   UNL A   1      33.101  21.208  27.290  1.00  0.00    -0.165 F 
ENDBRANCH  17  29
ENDBRANCH   8   9
ENDBRANCH   5   8
ENDBRANCH   3   4
ENDBRANCH   2   3
ENDBRANCH   1   2
BRANCH   1  33
ATOM     33  C   UNL A   1      32.443  29.827  27.175  1.00  0.00     0.002 C 
BRANCH  33  34
ATOM     34  C   UNL A   1      33.935  30.103  27.401  1.00  0.00     0.021 C 
BRANCH  34  35
ATOM     35  C   UNL A   1      34.285  31.580  27.578  1.00  0.00     0.116 C 
BRANCH  35  36
ATOM     36  N   UNL A   1      34.153  32.049  28.943  1.00  0.00    -0.352 N 
ATOM     37  C   UNL A   1      34.970  32.097  30.036  1.00  0.00     0.251 C 
ATOM     38  H   UNL A   1      33.260  32.423  29.126  1.00  0.00     0.163 HD
ATOM     39  O   UNL A   1      34.509  32.685  31.020  1.00  0.00    -0.269 OA
BRANCH  37  40
ATOM     40  C   UNL A   1      36.310  31.458  30.146  1.00  0.00     0.039 A 
ATOM     41  C   UNL A   1      37.538  32.118  30.102  1.00  0.00     0.014 A 
ATOM     42  C   UNL A   1      36.311  30.052  30.249  1.00  0.00     0.014 A 
ATOM     43  C   UNL A   1      38.725  31.390  30.057  1.00  0.00     0.010 A 
ATOM     44  C   UNL A   1      37.494  29.321  30.224  1.00  0.00     0.010 A 
ATOM     45  C   UNL A   1      38.702  29.990  30.077  1.00  0.00    -0.014 A 
BRANCH  45  46
ATOM     46  C   UNL A   1      39.981  29.283  30.067  1.00  0.00     0.031 A 
ATOM     47  C   UNL A   1      40.587  29.122  31.418  1.00  0.00     0.074 A 
ATOM     48  C   UNL A   1      40.549  28.740  28.967  1.00  0.00     0.049 A 
ATOM     49  N   UNL A   1      41.645  29.698  31.886  1.00  0.00    -0.248 NA
ATOM     50  C   UNL A   1      39.839  28.347  32.422  1.00  0.00     0.031 C 
ATOM     51  C   UNL A   1      39.950  28.576  27.637  1.00  0.00     0.029 A 
ATOM     52  N   UNL A   1      41.770  28.144  28.823  1.00  0.00    -0.354 N 
ATOM     53  C   UNL A   1      41.827  29.179  33.167  1.00  0.00     0.074 A 
ATOM     54  C   UNL A   1      40.607  28.495  33.504  1.00  0.00     0.031 C 
ATOM     55  C   UNL A   1      40.713  27.736  26.898  1.00  0.00     0.029 A 
ATOM     56  C   UNL A   1      41.931  27.437  27.632  1.00  0.00     0.049 A 
ATOM     57  H   UNL A   1      42.479  28.210  29.503  1.00  0.00     0.167 HD
ATOM     58  C   UNL A   1      43.063  29.136  33.739  1.00  0.00     0.037 A 
ATOM     59  C   UNL A   1      42.987  26.658  27.286  1.00  0.00     0.037 A 
ATOM     60  C   UNL A   1      43.993  29.970  33.026  1.00  0.00     0.049 A 
ATOM     61  C   UNL A   1      44.149  27.118  28.078  1.00  0.00     0.074 A 
ATOM     62  C   UNL A   1      44.271  31.316  32.936  1.00  0.00     0.029 A 
ATOM     63  N   UNL A   1      44.566  29.358  31.945  1.00  0.00    -0.354 N 
ATOM     64  N   UNL A   1      44.705  28.288  27.933  1.00  0.00    -0.248 NA
ATOM     65  C   UNL A   1      44.531  26.386  29.281  1.00  0.00     0.031 C 
ATOM     66  C   UNL A   1      44.863  31.512  31.652  1.00  0.00     0.029 A 
ATOM     67  C   UNL A   1      44.964  30.278  31.013  1.00  0.00     0.049 A 
ATOM     68  H   UNL A   1      44.678  28.385  31.850  1.00  0.00     0.167 HD
ATOM     69  C   UNL A   1      45.157  28.609  29.196  1.00  0.00     0.074 A 
ATOM     70  C   UNL A   1      45.189  27.350  29.929  1.00  0.00     0.031 C 
ATOM     71  C   UNL A   1      45.157  29.899  29.631  1.00  0.00     0.037 A 
BRANCH  58  72
ATOM     72  C   UNL A   1      43.555  28.015  34.632  1.00  0.00     0.058 A 
ATOM     73  C   UNL A   1      44.022  28.306  35.932  1.00  0.00     0.135 A 
ATOM     74  C   UNL A   1      43.863  26.720  34.155  1.00  0.00     0.135 A 
ATOM     75  F   UNL A   1      43.814  29.515  36.478  1.00  0.00    -0.206 F 
ATOM     76  C   UNL A   1      44.769  27.392  36.683  1.00  0.00     0.059 A 
ATOM     77  C   UNL A   1      44.561  25.779  34.905  1.00  0.00     0.059 A 
ATOM     78  F   UNL A   1      43.589  26.342  32.901  1.00  0.00    -0.206 F 
ATOM     79  C   UNL A   1      45.037  26.132  36.157  1.00  0.00     0.060 A 
BRANCH  79  80
ATOM     80  S   UNL A   1      46.048  24.972  37.096  1.00  0.00     0.124 S 
ATOM     81  O   UNL A   1      47.249  25.760  37.346  1.00  0.00    -0.237 OA
ATOM     82  O   UNL A   1      45.202  24.707  38.255  1.00  0.00    -0.237 OA
ATOM     83  O   UNL A   1      46.210  23.848  36.178  1.00  0.00    -0.744 OA
ENDBRANCH  79  80
ENDBRANCH  58  72
BRANCH  59  84
ATOM     84  C   UNL A   1      43.032  25.372  26.537  1.00  0.00     0.058 A 
ATOM     85  C   UNL A   1      43.784  25.262  25.350  1.00  0.00     0.135 A 
ATOM     86  C   UNL A   1      42.651  24.162  27.145  1.00  0.00     0.135 A 
ATOM     87  F   UNL A   1      44.183  26.365  24.697  1.00  0.00    -0.206 F 
ATOM     88  C   UNL A   1      44.230  24.032  24.858  1.00  0.00     0.059 A 
ATOM     89  C   UNL A   1      43.077  22.921  26.668  1.00  0.00     0.059 A 
ATOM     90  F   UNL A   1      41.943  24.159  28.284  1.00  0.00    -0.206 F 
ATOM     91  C   UNL A   1      43.903  22.868  25.549  1.00  0.00     0.060 A 
BRANCH  91  92
ATOM     92  S   UNL A   1      44.683  21.309  25.060  1.00  0.00     0.124 S 
ATOM     93  O   UNL A   1      43.768  20.322  25.624  1.00  0.00    -0.237 OA
ATOM     94  O   UNL A   1      44.689  21.414  23.605  1.00  0.00    -0.237 OA
ATOM     95  O   UNL A   1      45.997  21.374  25.694  1.00  0.00    -0.744 OA
ENDBRANCH  91  92
ENDBRANCH  59  84
BRANCH  71  96
ATOM     96  C   UNL A   1      45.212  30.981  28.595  1.00  0.00     0.058 A 
ATOM     97  C   UNL A   1      44.097  31.653  28.067  1.00  0.00     0.135 A 
ATOM     98  C   UNL A   1      46.480  31.407  28.176  1.00  0.00     0.135 A 
ATOM     99  F   UNL A   1      42.854  31.351  28.470  1.00  0.00    -0.206 F 
ATOM    100  C   UNL A   1      44.241  32.689  27.141  1.00  0.00     0.059 A 
ATOM    101  C   UNL A   1      46.650  32.455  27.280  1.00  0.00     0.059 A 
ATOM    102  F   UNL A   1      47.583  30.826  28.678  1.00  0.00    -0.206 F 
ATOM    103  C   UNL A   1      45.525  33.086  26.758  1.00  0.00     0.060 A 
BRANCH 103 104
ATOM    104  S   UNL A   1      45.716  34.477  25.622  1.00  0.00     0.124 S 
ATOM    105  O   UNL A   1      45.306  35.608  26.447  1.00  0.00    -0.237 OA
ATOM    106  O   UNL A   1      47.137  34.417  25.290  1.00  0.00    -0.237 OA
ATOM    107  O   UNL A   1      44.813  34.146  24.522  1.00  0.00    -0.744 OA
ENDBRANCH 103 104
ENDBRANCH  71  96
ENDBRANCH  45  46
ENDBRANCH  37  40
ENDBRANCH  35  36
ENDBRANCH  34  35
ENDBRANCH  33  34
ENDBRANCH   1  33
TORSDOF 21
ENDMDL
MODEL 3
REMARK VINA RESULT:     -10.8      2.157      3.403
REMARK SMILES COc1ccc2c(c1)c(CC(=O)NCCCCCCNC(=O)c1ccc(-c3c4nc(c(-c5c(F)cc(S(=O)(=O)[O-])cc5F)c5ccc([nH]5)c(-c5c(F)cc(S(=O)(=O)[O-])cc5F)c5nc(c(-c6c(F)cc(S(=O)(=O)[O-])cc6F)c6ccc3[nH]6)C=C5)C=C4)cc1)c(C(F)(F)F)n2C(=O)c1ccc(Cl)cc1
REMARK SMILES IDX 16 1 15 2 14 3 13 4 11 5 12 6 10 8 9 9 3 10 4 11 8 12 5 13
REMARK SMILES IDX 7 14 6 15 94 16 89 17 2 18 1 19 95 20 96 21 97 22 98 23
REMARK SMILES IDX 103 24 99 25 102 26 100 27 101 28 90 29 91 30 92 31 93 32
REMARK SMILES IDX 17 33 18 34 19 35 20 36 21 37 22 39 23 40 24 41 88 42 25 43
REMARK SMILES IDX 87 44 26 45 27 46 28 47 81 48 29 49 86 50 80 51 82 52 30 53
REMARK SMILES IDX 85 54 79 55 78 56 31 58 65 59 44 60 64 61 45 62 48 63 63 64
REMARK SMILES IDX 83 65 46 66 47 67 62 69 84 70 49 71 32 72 33 73 42 74 34 75
REMARK SMILES IDX 35 76 41 77 43 78 36 79 37 80 38 81 39 82 40 83 66 84 67 85
REMARK SMILES IDX 76 86 68 87 69 88 75 89 77 90 70 91 71 92 72 93 73 94 74 95
REMARK SMILES IDX 50 96 51 97 60 98 52 99 53 100 59 101 61 102 54 103 55 104
REMARK SMILES IDX 56 105 57 106 58 107
REMARK H PARENT 13 7 20 38 82 57 48 68
REMARK Flexibility Score: inf
ROOT
ATOM      1  C   UNL A   1      33.659  29.239  25.945  1.00  0.00     0.002 C 
ENDROOT
BRANCH   1   2
ATOM      2  C   UNL A   1      32.461  28.303  25.748  1.00  0.00     0.021 C 
BRANCH   2   3
ATOM      3  C   UNL A   1      31.649  28.071  27.021  1.00  0.00     0.116 C 
BRANCH   3   4
ATOM      4  N   UNL A   1      30.863  26.854  26.931  1.00  0.00    -0.356 N 
ATOM      5  C   UNL A   1      31.294  25.573  26.736  1.00  0.00     0.224 C 
ATOM      6  O   UNL A   1      30.458  24.670  26.655  1.00  0.00    -0.275 OA
ATOM      7  H   UNL A   1      29.890  26.967  27.021  1.00  0.00     0.163 HD
BRANCH   5   8
ATOM      8  C   UNL A   1      32.786  25.278  26.665  1.00  0.00     0.138 C 
BRANCH   8   9
ATOM      9  C   UNL A   1      33.134  24.139  25.744  1.00  0.00     0.000 A 
ATOM     10  C   UNL A   1      32.488  24.792  22.038  1.00  0.00     0.119 A 
ATOM     11  C   UNL A   1      32.816  23.517  21.603  1.00  0.00     0.048 A 
ATOM     12  C   UNL A   1      32.578  25.103  23.396  1.00  0.00     0.057 A 
ATOM     13  C   UNL A   1      33.246  22.540  22.509  1.00  0.00     0.031 A 
ATOM     14  C   UNL A   1      33.012  24.135  24.328  1.00  0.00     0.008 A 
ATOM     15  C   UNL A   1      33.390  22.869  23.872  1.00  0.00     0.057 A 
ATOM     16  N   UNL A   1      33.939  22.177  24.962  1.00  0.00    -0.271 N 
ATOM     17  C   UNL A   1      33.567  22.867  26.117  1.00  0.00     0.135 A 
BRANCH  10  18
ATOM     18  O   UNL A   1      32.092  25.822  21.230  1.00  0.00    -0.497 OA
ATOM     19  C   UNL A   1      31.558  26.958  21.898  1.00  0.00     0.278 C 
ENDBRANCH  10  18
BRANCH  16  20
ATOM     20  C   UNL A   1      34.771  21.022  24.913  1.00  0.00     0.262 C 
ATOM     21  O   UNL A   1      35.978  21.174  24.914  1.00  0.00    -0.268 OA
BRANCH  20  22
ATOM     22  C   UNL A   1      34.275  19.635  24.810  1.00  0.00     0.040 A 
ATOM     23  C   UNL A   1      32.919  19.352  25.012  1.00  0.00     0.015 A 
ATOM     24  C   UNL A   1      35.193  18.612  24.556  1.00  0.00     0.015 A 
ATOM     25  C   UNL A   1      32.497  18.021  25.046  1.00  0.00     0.021 A 
ATOM     26  C   UNL A   1      34.762  17.283  24.579  1.00  0.00     0.021 A 
ATOM     27  C   UNL A   1      33.422  16.993  24.845  1.00  0.00     0.041 A 
ATOM     28  Cl  UNL A   1      32.912  15.354  24.953  1.00  0.00    -0.084 Cl
ENDBRANCH  20  22
ENDBRANCH  16  20
BRANCH  17  29
ATOM     29  C   UNL A   1      33.695  22.292  27.489  1.00  0.00     0.432 C 
ATOM     30  F   UNL A   1      32.528  22.345  28.171  1.00  0.00    -0.165 F 
ATOM     31  F   UNL A   1      34.032  20.974  27.412  1.00  0.00    -0.165 F 
ATOM     32  F   UNL A   1      34.669  22.860  28.238  1.00  0.00    -0.165 F 
ENDBRANCH  17  29
ENDBRANCH   8   9
ENDBRANCH   5   8
ENDBRANCH   3   4
ENDBRANCH   2   3
ENDBRANCH   1   2
BRANCH   1  33
ATOM     33  C   UNL A   1      33.644  30.044  27.251  1.00  0.00     0.002 C 
BRANCH  33  34
ATOM     34  C   UNL A   1      34.970  30.717  27.627  1.00  0.00     0.021 C 
BRANCH  34  35
ATOM     35  C   UNL A   1      34.834  32.163  28.103  1.00  0.00     0.116 C 
BRANCH  35  36
ATOM     36  N   UNL A   1      34.428  32.282  29.489  1.00  0.00    -0.352 N 
ATOM     37  C   UNL A   1      35.050  32.148  30.697  1.00  0.00     0.251 C 
ATOM     38  H   UNL A   1      33.476  32.515  29.582  1.00  0.00     0.163 HD
ATOM     39  O   UNL A   1      34.366  32.440  31.684  1.00  0.00    -0.269 OA
BRANCH  37  40
ATOM     40  C   UNL A   1      36.430  31.631  30.910  1.00  0.00     0.039 A 
ATOM     41  C   UNL A   1      37.568  32.404  31.138  1.00  0.00     0.014 A 
ATOM     42  C   UNL A   1      36.581  30.232  30.813  1.00  0.00     0.014 A 
ATOM     43  C   UNL A   1      38.827  31.809  31.164  1.00  0.00     0.010 A 
ATOM     44  C   UNL A   1      37.834  29.631  30.857  1.00  0.00     0.010 A 
ATOM     45  C   UNL A   1      38.965  30.427  30.983  1.00  0.00    -0.014 A 
BRANCH  45  46
ATOM     46  C   UNL A   1      40.309  29.856  31.060  1.00  0.00     0.031 A 
ATOM     47  C   UNL A   1      40.879  29.851  32.436  1.00  0.00     0.074 A 
ATOM     48  C   UNL A   1      40.966  29.300  30.018  1.00  0.00     0.049 A 
ATOM     49  N   UNL A   1      41.857  30.564  32.890  1.00  0.00    -0.248 NA
ATOM     50  C   UNL A   1      40.179  29.075  33.472  1.00  0.00     0.031 C 
ATOM     51  C   UNL A   1      40.434  28.985  28.687  1.00  0.00     0.029 A 
ATOM     52  N   UNL A   1      42.245  28.824  29.951  1.00  0.00    -0.354 N 
ATOM     53  C   UNL A   1      42.045  30.155  34.210  1.00  0.00     0.074 A 
ATOM     54  C   UNL A   1      40.889  29.374  34.561  1.00  0.00     0.031 C 
ATOM     55  C   UNL A   1      41.303  28.178  28.033  1.00  0.00     0.029 A 
ATOM     56  C   UNL A   1      42.518  28.057  28.820  1.00  0.00     0.049 A 
ATOM     57  H   UNL A   1      42.919  29.008  30.645  1.00  0.00     0.167 HD
ATOM     58  C   UNL A   1      43.259  30.279  34.818  1.00  0.00     0.037 A 
ATOM     59  C   UNL A   1      43.658  27.369  28.560  1.00  0.00     0.037 A 
ATOM     60  C   UNL A   1      44.124  31.153  34.073  1.00  0.00     0.049 A 
ATOM     61  C   UNL A   1      44.740  27.998  29.349  1.00  0.00     0.074 A 
ATOM     62  C   UNL A   1      44.269  32.510  33.894  1.00  0.00     0.029 A 
ATOM     63  N   UNL A   1      44.794  30.529  33.056  1.00  0.00    -0.354 N 
ATOM     64  N   UNL A   1      45.181  29.207  29.137  1.00  0.00    -0.248 NA
ATOM     65  C   UNL A   1      45.151  27.394  30.612  1.00  0.00     0.031 C 
ATOM     66  C   UNL A   1      44.884  32.678  32.617  1.00  0.00     0.029 A 
ATOM     67  C   UNL A   1      45.130  31.420  32.072  1.00  0.00     0.049 A 
ATOM     68  H   UNL A   1      45.006  29.569  33.033  1.00  0.00     0.167 HD
ATOM     69  C   UNL A   1      45.553  29.658  30.385  1.00  0.00     0.074 A 
ATOM     70  C   UNL A   1      45.685  28.462  31.207  1.00  0.00     0.031 C 
ATOM     71  C   UNL A   1      45.408  30.969  30.725  1.00  0.00     0.037 A 
BRANCH  58  72
ATOM     72  C   UNL A   1      43.829  29.277  35.803  1.00  0.00     0.058 A 
ATOM     73  C   UNL A   1      44.270  29.713  37.071  1.00  0.00     0.135 A 
ATOM     74  C   UNL A   1      44.232  27.973  35.438  1.00  0.00     0.135 A 
ATOM     75  F   UNL A   1      43.972  30.946  37.511  1.00  0.00    -0.206 F 
ATOM     76  C   UNL A   1      45.079  28.925  37.895  1.00  0.00     0.059 A 
ATOM     77  C   UNL A   1      44.995  27.154  36.264  1.00  0.00     0.059 A 
ATOM     78  F   UNL A   1      43.990  27.468  34.222  1.00  0.00    -0.206 F 
ATOM     79  C   UNL A   1      45.440  27.647  37.479  1.00  0.00     0.060 A 
BRANCH  79  80
ATOM     80  S   UNL A   1      46.531  26.649  38.511  1.00  0.00     0.124 S 
ATOM     81  O   UNL A   1      45.809  26.634  39.778  1.00  0.00    -0.237 OA
ATOM     82  O   UNL A   1      46.567  25.388  37.779  1.00  0.00    -0.237 OA
ATOM     83  O   UNL A   1      47.781  27.404  38.506  1.00  0.00    -0.744 OA
ENDBRANCH  79  80
ENDBRANCH  58  72
BRANCH  59  84
ATOM     84  C   UNL A   1      43.858  26.046  27.906  1.00  0.00     0.058 A 
ATOM     85  C   UNL A   1      43.531  24.856  28.587  1.00  0.00     0.135 A 
ATOM     86  C   UNL A   1      44.022  25.939  26.513  1.00  0.00     0.135 A 
ATOM     87  F   UNL A   1      43.364  24.862  29.919  1.00  0.00    -0.206 F 
ATOM     88  C   UNL A   1      43.268  23.659  27.916  1.00  0.00     0.059 A 
ATOM     89  C   UNL A   1      43.774  24.753  25.822  1.00  0.00     0.059 A 
ATOM     90  F   UNL A   1      44.323  27.016  25.773  1.00  0.00    -0.206 F 
ATOM     91  C   UNL A   1      43.354  23.628  26.526  1.00  0.00     0.060 A 
BRANCH  91  92
ATOM     92  S   UNL A   1      42.775  22.157  25.643  1.00  0.00     0.124 S 
ATOM     93  O   UNL A   1      43.413  21.082  26.394  1.00  0.00    -0.237 OA
ATOM     94  O   UNL A   1      41.328  22.264  25.788  1.00  0.00    -0.237 OA
ATOM     95  O   UNL A   1      43.280  22.356  24.287  1.00  0.00    -0.744 OA
ENDBRANCH  91  92
ENDBRANCH  59  84
BRANCH  71  96
ATOM     96  C   UNL A   1      45.390  31.977  29.617  1.00  0.00     0.058 A 
ATOM     97  C   UNL A   1      46.527  32.482  28.964  1.00  0.00     0.135 A 
ATOM     98  C   UNL A   1      44.137  32.391  29.145  1.00  0.00     0.135 A 
ATOM     99  F   UNL A   1      47.759  32.080  29.312  1.00  0.00    -0.206 F 
ATOM    100  C   UNL A   1      46.418  33.382  27.901  1.00  0.00     0.059 A 
ATOM    101  C   UNL A   1      44.003  33.262  28.070  1.00  0.00     0.059 A 
ATOM    102  F   UNL A   1      43.015  31.910  29.706  1.00  0.00    -0.206 F 
ATOM    103  C   UNL A   1      45.149  33.761  27.458  1.00  0.00     0.060 A 
BRANCH 103 104
ATOM    104  S   UNL A   1      45.004  34.863  26.034  1.00  0.00     0.124 S 
ATOM    105  O   UNL A   1      46.194  34.526  25.261  1.00  0.00    -0.237 OA
ATOM    106  O   UNL A   1      43.730  34.453  25.449  1.00  0.00    -0.237 OA
ATOM    107  O   UNL A   1      45.004  36.195  26.632  1.00  0.00    -0.744 OA
ENDBRANCH 103 104
ENDBRANCH  71  96
ENDBRANCH  45  46
ENDBRANCH  37  40
ENDBRANCH  35  36
ENDBRANCH  34  35
ENDBRANCH  33  34
ENDBRANCH   1  33
TORSDOF 21
ENDMDL
