MODEL 1
REMARK VINA RESULT:      -8.8      0.000      0.000
REMARK SMILES COc1cc(OC)cc(-c2cnc(Cl)c(C(=O)NCCCCCCNC(=O)c3ccc(-c4c5nc(c(-c6c(F)cc(S(=O)(=O)[O-])cc6F)c6ccc([nH]6)c(-c6c(F)cc(S(=O)(=O)[O-])cc6F)c6nc(c(-c7c(F)cc(S(=O)(=O)[O-])cc7F)c7ccc4[nH]7)C=C6)C=C5)cc3)c2)c1
REMARK SMILES IDX 22 1 21 2 20 3 19 4 18 5 16 6 17 7 15 9 10 10 11 11 94 12
REMARK SMILES IDX 12 13 13 14 14 15 9 16 3 17 4 18 95 19 5 20 8 21 2 22 1 23
REMARK SMILES IDX 6 24 7 25 23 26 24 27 25 28 26 29 27 31 28 32 29 33 93 34
REMARK SMILES IDX 30 35 92 36 31 37 32 38 33 39 86 40 34 41 91 42 85 43 87 44
REMARK SMILES IDX 35 45 90 46 84 47 83 48 36 50 70 51 49 52 69 53 50 54 53 55
REMARK SMILES IDX 68 56 88 57 51 58 52 59 67 61 89 62 54 63 37 64 38 65 47 66
REMARK SMILES IDX 39 67 40 68 46 69 48 70 41 71 42 72 43 73 44 74 45 75 71 76
REMARK SMILES IDX 72 77 81 78 73 79 74 80 80 81 82 82 75 83 76 84 77 85 78 86
REMARK SMILES IDX 79 87 55 88 56 89 65 90 57 91 58 92 64 93 66 94 59 95 60 96
REMARK SMILES IDX 61 97 62 98 63 99
REMARK H PARENT 18 8 25 30 87 49 53 60
REMARK Flexibility Score: inf
ROOT
ATOM      1  C   UNL A   1      36.412  32.502  30.448  1.00  0.00     0.002 C 
ENDROOT
BRANCH   1   2
ATOM      2  C   UNL A   1      37.416  32.921  29.364  1.00  0.00     0.002 C 
BRANCH   2   3
ATOM      3  C   UNL A   1      38.259  34.154  29.717  1.00  0.00     0.021 C 
BRANCH   3   4
ATOM      4  C   UNL A   1      37.906  34.737  31.088  1.00  0.00     0.116 C 
BRANCH   4   5
ATOM      5  N   UNL A   1      39.076  34.808  31.922  1.00  0.00    -0.352 N 
ATOM      6  C   UNL A   1      39.591  34.150  32.990  1.00  0.00     0.254 C 
ATOM      7  O   UNL A   1      40.686  34.617  33.339  1.00  0.00    -0.269 OA
ATOM      8  H   UNL A   1      39.669  35.542  31.639  1.00  0.00     0.163 HD
BRANCH   6   9
ATOM      9  C   UNL A   1      39.070  32.977  33.758  1.00  0.00     0.077 A 
ATOM     10  C   UNL A   1      39.794  30.737  34.537  1.00  0.00     0.001 A 
ATOM     11  C   UNL A   1      38.540  30.584  35.094  1.00  0.00     0.121 A 
ATOM     12  C   UNL A   1      40.033  31.941  33.868  1.00  0.00     0.027 A 
ATOM     13  N   UNL A   1      37.586  31.527  35.037  1.00  0.00    -0.243 NA
ATOM     14  C   UNL A   1      37.867  32.702  34.398  1.00  0.00     0.141 A 
ATOM     15  Cl  UNL A   1      36.525  33.732  34.655  1.00  0.00    -0.061 Cl
BRANCH  10  16
ATOM     16  C   UNL A   1      40.799  29.683  34.597  1.00  0.00    -0.009 A 
ATOM     17  C   UNL A   1      42.378  28.186  33.517  1.00  0.00     0.123 A 
ATOM     18  C   UNL A   1      42.717  27.663  34.769  1.00  0.00     0.092 A 
ATOM     19  C   UNL A   1      41.408  29.185  33.433  1.00  0.00     0.055 A 
ATOM     20  C   UNL A   1      42.108  28.133  35.934  1.00  0.00     0.123 A 
ATOM     21  C   UNL A   1      41.158  29.146  35.841  1.00  0.00     0.055 A 
BRANCH  17  22
ATOM     22  O   UNL A   1      43.041  27.630  32.457  1.00  0.00    -0.497 OA
ATOM     23  C   UNL A   1      43.908  26.539  32.751  1.00  0.00     0.278 C 
ENDBRANCH  17  22
BRANCH  20  24
ATOM     24  O   UNL A   1      42.520  27.543  37.099  1.00  0.00    -0.497 OA
ATOM     25  C   UNL A   1      43.883  27.130  37.150  1.00  0.00     0.278 C 
ENDBRANCH  20  24
ENDBRANCH  10  16
ENDBRANCH   6   9
ENDBRANCH   4   5
ENDBRANCH   3   4
ENDBRANCH   2   3
ENDBRANCH   1   2
BRANCH   1  26
ATOM     26  C   UNL A   1      34.942  32.643  30.046  1.00  0.00     0.021 C 
BRANCH  26  27
ATOM     27  C   UNL A   1      34.700  32.513  28.547  1.00  0.00     0.116 C 
BRANCH  27  28
ATOM     28  N   UNL A   1      33.998  31.278  28.232  1.00  0.00    -0.352 N 
ATOM     29  C   UNL A   1      34.512  30.049  27.932  1.00  0.00     0.251 C 
ATOM     30  H   UNL A   1      33.015  31.338  28.234  1.00  0.00     0.163 HD
ATOM     31  O   UNL A   1      33.786  29.188  27.422  1.00  0.00    -0.269 OA
BRANCH  29  32
ATOM     32  C   UNL A   1      35.927  29.755  28.217  1.00  0.00     0.039 A 
ATOM     33  C   UNL A   1      36.280  29.251  29.472  1.00  0.00     0.014 A 
ATOM     34  C   UNL A   1      36.911  29.997  27.251  1.00  0.00     0.014 A 
ATOM     35  C   UNL A   1      37.615  28.955  29.742  1.00  0.00     0.010 A 
ATOM     36  C   UNL A   1      38.229  29.629  27.497  1.00  0.00     0.010 A 
ATOM     37  C   UNL A   1      38.596  29.118  28.750  1.00  0.00    -0.014 A 
BRANCH  37  38
ATOM     38  C   UNL A   1      40.017  28.777  29.015  1.00  0.00     0.031 A 
ATOM     39  C   UNL A   1      40.928  29.797  29.644  1.00  0.00     0.074 A 
ATOM     40  C   UNL A   1      40.490  27.569  28.650  1.00  0.00     0.049 A 
ATOM     41  N   UNL A   1      42.209  29.713  29.897  1.00  0.00    -0.248 NA
ATOM     42  C   UNL A   1      40.328  31.090  30.014  1.00  0.00     0.031 C 
ATOM     43  C   UNL A   1      39.710  26.517  27.994  1.00  0.00     0.029 A 
ATOM     44  N   UNL A   1      41.741  27.023  28.775  1.00  0.00    -0.354 N 
ATOM     45  C   UNL A   1      42.565  30.933  30.459  1.00  0.00     0.074 A 
ATOM     46  C   UNL A   1      41.382  31.767  30.443  1.00  0.00     0.031 C 
ATOM     47  C   UNL A   1      40.496  25.447  27.793  1.00  0.00     0.029 A 
ATOM     48  C   UNL A   1      41.841  25.747  28.270  1.00  0.00     0.049 A 
ATOM     49  H   UNL A   1      42.498  27.500  29.186  1.00  0.00     0.167 HD
ATOM     50  C   UNL A   1      43.759  31.314  30.972  1.00  0.00     0.037 A 
ATOM     51  C   UNL A   1      42.900  24.919  28.196  1.00  0.00     0.037 A 
ATOM     52  C   UNL A   1      44.928  30.475  30.994  1.00  0.00     0.049 A 
ATOM     53  C   UNL A   1      44.222  25.376  28.755  1.00  0.00     0.074 A 
ATOM     54  C   UNL A   1      46.185  30.760  31.499  1.00  0.00     0.029 A 
ATOM     55  N   UNL A   1      44.982  29.180  30.498  1.00  0.00    -0.354 N 
ATOM     56  N   UNL A   1      44.529  26.520  29.318  1.00  0.00    -0.248 NA
ATOM     57  C   UNL A   1      45.338  24.423  28.682  1.00  0.00     0.031 C 
ATOM     58  C   UNL A   1      47.007  29.650  31.279  1.00  0.00     0.029 A 
ATOM     59  C   UNL A   1      46.250  28.654  30.683  1.00  0.00     0.049 A 
ATOM     60  H   UNL A   1      44.230  28.704  30.077  1.00  0.00     0.167 HD
ATOM     61  C   UNL A   1      45.862  26.409  29.701  1.00  0.00     0.074 A 
ATOM     62  C   UNL A   1      46.296  25.083  29.316  1.00  0.00     0.031 C 
ATOM     63  C   UNL A   1      46.655  27.321  30.316  1.00  0.00     0.037 A 
BRANCH  50  64
ATOM     64  C   UNL A   1      43.853  32.689  31.576  1.00  0.00     0.058 A 
ATOM     65  C   UNL A   1      44.032  33.828  30.773  1.00  0.00     0.135 A 
ATOM     66  C   UNL A   1      43.714  32.881  32.960  1.00  0.00     0.135 A 
ATOM     67  F   UNL A   1      44.189  33.702  29.446  1.00  0.00    -0.206 F 
ATOM     68  C   UNL A   1      44.092  35.104  31.322  1.00  0.00     0.059 A 
ATOM     69  C   UNL A   1      43.741  34.152  33.527  1.00  0.00     0.059 A 
ATOM     70  F   UNL A   1      43.543  31.828  33.774  1.00  0.00    -0.206 F 
ATOM     71  C   UNL A   1      43.941  35.256  32.701  1.00  0.00     0.060 A 
BRANCH  71  72
ATOM     72  S   UNL A   1      43.996  36.924  33.391  1.00  0.00     0.124 S 
ATOM     73  O   UNL A   1      44.278  37.722  32.203  1.00  0.00    -0.237 OA
ATOM     74  O   UNL A   1      42.657  37.073  33.952  1.00  0.00    -0.237 OA
ATOM     75  O   UNL A   1      45.078  36.851  34.368  1.00  0.00    -0.744 OA
ENDBRANCH  71  72
ENDBRANCH  50  64
BRANCH  51  76
ATOM     76  C   UNL A   1      42.761  23.571  27.581  1.00  0.00     0.058 A 
ATOM     77  C   UNL A   1      42.361  22.464  28.346  1.00  0.00     0.135 A 
ATOM     78  C   UNL A   1      43.054  23.354  26.226  1.00  0.00     0.135 A 
ATOM     79  F   UNL A   1      42.068  22.619  29.647  1.00  0.00    -0.206 F 
ATOM     80  C   UNL A   1      42.300  21.186  27.802  1.00  0.00     0.059 A 
ATOM     81  C   UNL A   1      42.970  22.090  25.651  1.00  0.00     0.059 A 
ATOM     82  F   UNL A   1      43.419  24.382  25.444  1.00  0.00    -0.206 F 
ATOM     83  C   UNL A   1      42.614  21.008  26.455  1.00  0.00     0.060 A 
BRANCH  83  84
ATOM     84  S   UNL A   1      42.536  19.344  25.757  1.00  0.00     0.124 S 
ATOM     85  O   UNL A   1      43.022  18.538  26.870  1.00  0.00    -0.237 OA
ATOM     86  O   UNL A   1      41.118  19.209  25.441  1.00  0.00    -0.237 OA
ATOM     87  O   UNL A   1      43.423  19.424  24.600  1.00  0.00    -0.744 OA
ENDBRANCH  83  84
ENDBRANCH  51  76
BRANCH  63  88
ATOM     88  C   UNL A   1      48.053  26.892  30.670  1.00  0.00     0.058 A 
ATOM     89  C   UNL A   1      49.126  27.042  29.778  1.00  0.00     0.135 A 
ATOM     90  C   UNL A   1      48.325  26.353  31.939  1.00  0.00     0.135 A 
ATOM     91  F   UNL A   1      48.919  27.547  28.552  1.00  0.00    -0.206 F 
ATOM     92  C   UNL A   1      50.414  26.640  30.118  1.00  0.00     0.059 A 
ATOM     93  C   UNL A   1      49.610  25.974  32.311  1.00  0.00     0.059 A 
ATOM     94  F   UNL A   1      47.337  26.200  32.835  1.00  0.00    -0.206 F 
ATOM     95  C   UNL A   1      50.646  26.105  31.387  1.00  0.00     0.060 A 
BRANCH  95  96
ATOM     96  S   UNL A   1      52.324  25.604  31.821  1.00  0.00     0.124 S 
ATOM     97  O   UNL A   1      53.053  25.928  30.600  1.00  0.00    -0.237 OA
ATOM     98  O   UNL A   1      52.614  26.449  32.975  1.00  0.00    -0.237 OA
ATOM     99  O   UNL A   1      52.189  24.180  32.113  1.00  0.00    -0.744 OA
ENDBRANCH  95  96
ENDBRANCH  63  88
ENDBRANCH  37  38
ENDBRANCH  29  32
ENDBRANCH  27  28
ENDBRANCH  26  27
ENDBRANCH   1  26
TORSDOF 19
ENDMDL
MODEL 2
REMARK VINA RESULT:      -8.7      1.084      2.044
REMARK SMILES COc1cc(OC)cc(-c2cnc(Cl)c(C(=O)NCCCCCCNC(=O)c3ccc(-c4c5nc(c(-c6c(F)cc(S(=O)(=O)[O-])cc6F)c6ccc([nH]6)c(-c6c(F)cc(S(=O)(=O)[O-])cc6F)c6nc(c(-c7c(F)cc(S(=O)(=O)[O-])cc7F)c7ccc4[nH]7)C=C6)C=C5)cc3)c2)c1
REMARK SMILES IDX 22 1 21 2 20 3 19 4 18 5 16 6 17 7 15 9 10 10 11 11 94 12
REMARK SMILES IDX 12 13 13 14 14 15 9 16 3 17 4 18 95 19 5 20 8 21 2 22 1 23
REMARK SMILES IDX 6 24 7 25 23 26 24 27 25 28 26 29 27 31 28 32 29 33 93 34
REMARK SMILES IDX 30 35 92 36 31 37 32 38 33 39 86 40 34 41 91 42 85 43 87 44
REMARK SMILES IDX 35 45 90 46 84 47 83 48 36 50 70 51 49 52 69 53 50 54 53 55
REMARK SMILES IDX 68 56 88 57 51 58 52 59 67 61 89 62 54 63 37 64 38 65 47 66
REMARK SMILES IDX 39 67 40 68 46 69 48 70 41 71 42 72 43 73 44 74 45 75 71 76
REMARK SMILES IDX 72 77 81 78 73 79 74 80 80 81 82 82 75 83 76 84 77 85 78 86
REMARK SMILES IDX 79 87 55 88 56 89 65 90 57 91 58 92 64 93 66 94 59 95 60 96
REMARK SMILES IDX 61 97 62 98 63 99
REMARK H PARENT 18 8 25 30 87 49 53 60
REMARK Flexibility Score: inf
ROOT
ATOM      1  C   UNL A   1      35.913  32.796  30.410  1.00  0.00     0.002 C 
ENDROOT
BRANCH   1   2
ATOM      2  C   UNL A   1      36.898  33.971  30.328  1.00  0.00     0.002 C 
BRANCH   2   3
ATOM      3  C   UNL A   1      38.088  33.875  31.293  1.00  0.00     0.021 C 
BRANCH   3   4
ATOM      4  C   UNL A   1      37.668  33.994  32.761  1.00  0.00     0.116 C 
BRANCH   4   5
ATOM      5  N   UNL A   1      38.787  33.739  33.627  1.00  0.00    -0.352 N 
ATOM      6  C   UNL A   1      39.559  32.683  33.989  1.00  0.00     0.254 C 
ATOM      7  O   UNL A   1      40.443  33.011  34.796  1.00  0.00    -0.269 OA
ATOM      8  H   UNL A   1      39.073  34.561  34.088  1.00  0.00     0.163 HD
BRANCH   6   9
ATOM      9  C   UNL A   1      39.520  31.252  33.557  1.00  0.00     0.077 A 
ATOM     10  C   UNL A   1      41.020  29.291  33.331  1.00  0.00     0.001 A 
ATOM     11  C   UNL A   1      39.936  28.584  32.850  1.00  0.00     0.121 A 
ATOM     12  C   UNL A   1      40.788  30.627  33.672  1.00  0.00     0.027 A 
ATOM     13  N   UNL A   1      38.707  29.110  32.728  1.00  0.00    -0.243 NA
ATOM     14  C   UNL A   1      38.514  30.411  33.097  1.00  0.00     0.141 A 
ATOM     15  Cl  UNL A   1      36.833  30.709  32.982  1.00  0.00    -0.061 Cl
BRANCH  10  16
ATOM     16  C   UNL A   1      42.347  28.696  33.430  1.00  0.00    -0.009 A 
ATOM     17  C   UNL A   1      44.672  28.786  34.128  1.00  0.00     0.123 A 
ATOM     18  C   UNL A   1      44.868  27.510  33.591  1.00  0.00     0.092 A 
ATOM     19  C   UNL A   1      43.415  29.382  34.032  1.00  0.00     0.055 A 
ATOM     20  C   UNL A   1      43.823  26.820  32.972  1.00  0.00     0.123 A 
ATOM     21  C   UNL A   1      42.568  27.415  32.902  1.00  0.00     0.055 A 
BRANCH  17  22
ATOM     22  O   UNL A   1      45.781  29.353  34.696  1.00  0.00    -0.497 OA
ATOM     23  C   UNL A   1      45.586  30.595  35.367  1.00  0.00     0.278 C 
ENDBRANCH  17  22
BRANCH  20  24
ATOM     24  O   UNL A   1      44.138  25.581  32.483  1.00  0.00    -0.497 OA
ATOM     25  C   UNL A   1      44.559  24.613  33.440  1.00  0.00     0.278 C 
ENDBRANCH  20  24
ENDBRANCH  10  16
ENDBRANCH   6   9
ENDBRANCH   4   5
ENDBRANCH   3   4
ENDBRANCH   2   3
ENDBRANCH   1   2
BRANCH   1  26
ATOM     26  C   UNL A   1      34.560  33.048  29.739  1.00  0.00     0.021 C 
BRANCH  26  27
ATOM     27  C   UNL A   1      34.517  32.642  28.271  1.00  0.00     0.116 C 
BRANCH  27  28
ATOM     28  N   UNL A   1      33.806  31.386  28.093  1.00  0.00    -0.352 N 
ATOM     29  C   UNL A   1      34.309  30.131  27.903  1.00  0.00     0.251 C 
ATOM     30  H   UNL A   1      32.823  31.450  28.111  1.00  0.00     0.163 HD
ATOM     31  O   UNL A   1      33.570  29.228  27.495  1.00  0.00    -0.269 OA
BRANCH  29  32
ATOM     32  C   UNL A   1      35.730  29.859  28.184  1.00  0.00     0.039 A 
ATOM     33  C   UNL A   1      36.095  29.379  29.444  1.00  0.00     0.014 A 
ATOM     34  C   UNL A   1      36.705  30.099  27.209  1.00  0.00     0.014 A 
ATOM     35  C   UNL A   1      37.436  29.103  29.712  1.00  0.00     0.010 A 
ATOM     36  C   UNL A   1      38.029  29.752  27.454  1.00  0.00     0.010 A 
ATOM     37  C   UNL A   1      38.410  29.264  28.711  1.00  0.00    -0.014 A 
BRANCH  37  38
ATOM     38  C   UNL A   1      39.836  28.945  28.973  1.00  0.00     0.031 A 
ATOM     39  C   UNL A   1      40.743  29.992  29.563  1.00  0.00     0.074 A 
ATOM     40  C   UNL A   1      40.318  27.732  28.641  1.00  0.00     0.049 A 
ATOM     41  N   UNL A   1      42.026  29.929  29.808  1.00  0.00    -0.248 NA
ATOM     42  C   UNL A   1      40.132  31.289  29.900  1.00  0.00     0.031 C 
ATOM     43  C   UNL A   1      39.543  26.652  28.022  1.00  0.00     0.029 A 
ATOM     44  N   UNL A   1      41.576  27.202  28.769  1.00  0.00    -0.354 N 
ATOM     45  C   UNL A   1      42.374  31.169  30.329  1.00  0.00     0.074 A 
ATOM     46  C   UNL A   1      41.183  31.989  30.300  1.00  0.00     0.031 C 
ATOM     47  C   UNL A   1      40.337  25.585  27.847  1.00  0.00     0.029 A 
ATOM     48  C   UNL A   1      41.684  25.913  28.303  1.00  0.00     0.049 A 
ATOM     49  H   UNL A   1      42.332  27.698  29.160  1.00  0.00     0.167 HD
ATOM     50  C   UNL A   1      43.569  31.576  30.819  1.00  0.00     0.037 A 
ATOM     51  C   UNL A   1      42.751  25.094  28.243  1.00  0.00     0.037 A 
ATOM     52  C   UNL A   1      44.747  30.749  30.857  1.00  0.00     0.049 A 
ATOM     53  C   UNL A   1      44.073  25.580  28.776  1.00  0.00     0.074 A 
ATOM     54  C   UNL A   1      46.005  31.062  31.341  1.00  0.00     0.029 A 
ATOM     55  N   UNL A   1      44.809  29.441  30.398  1.00  0.00    -0.354 N 
ATOM     56  N   UNL A   1      44.373  26.743  29.302  1.00  0.00    -0.248 NA
ATOM     57  C   UNL A   1      45.197  24.636  28.721  1.00  0.00     0.031 C 
ATOM     58  C   UNL A   1      46.837  29.954  31.146  1.00  0.00     0.029 A 
ATOM     59  C   UNL A   1      46.084  28.933  30.587  1.00  0.00     0.049 A 
ATOM     60  H   UNL A   1      44.059  28.946  29.998  1.00  0.00     0.167 HD
ATOM     61  C   UNL A   1      45.710  26.656  29.677  1.00  0.00     0.074 A 
ATOM     62  C   UNL A   1      46.155  25.324  29.327  1.00  0.00     0.031 C 
ATOM     63  C   UNL A   1      46.500  27.594  30.257  1.00  0.00     0.037 A 
BRANCH  50  64
ATOM     64  C   UNL A   1      43.655  32.970  31.382  1.00  0.00     0.058 A 
ATOM     65  C   UNL A   1      43.550  33.207  32.762  1.00  0.00     0.135 A 
ATOM     66  C   UNL A   1      43.893  34.072  30.545  1.00  0.00     0.135 A 
ATOM     67  F   UNL A   1      43.304  32.193  33.606  1.00  0.00    -0.206 F 
ATOM     68  C   UNL A   1      43.657  34.489  33.291  1.00  0.00     0.059 A 
ATOM     69  C   UNL A   1      44.033  35.360  31.057  1.00  0.00     0.059 A 
ATOM     70  F   UNL A   1      44.000  33.904  29.218  1.00  0.00    -0.206 F 
ATOM     71  C   UNL A   1      43.903  35.559  32.429  1.00  0.00     0.060 A 
BRANCH  71  72
ATOM     72  S   UNL A   1      44.063  37.211  33.139  1.00  0.00     0.124 S 
ATOM     73  O   UNL A   1      42.905  37.263  34.025  1.00  0.00    -0.237 OA
ATOM     74  O   UNL A   1      45.363  37.142  33.799  1.00  0.00    -0.237 OA
ATOM     75  O   UNL A   1      44.001  38.089  31.974  1.00  0.00    -0.744 OA
ENDBRANCH  71  72
ENDBRANCH  50  64
BRANCH  51  76
ATOM     76  C   UNL A   1      42.620  23.726  27.670  1.00  0.00     0.058 A 
ATOM     77  C   UNL A   1      42.453  22.606  28.499  1.00  0.00     0.135 A 
ATOM     78  C   UNL A   1      42.690  23.507  26.286  1.00  0.00     0.135 A 
ATOM     79  F   UNL A   1      42.378  22.763  29.830  1.00  0.00    -0.206 F 
ATOM     80  C   UNL A   1      42.405  21.316  27.982  1.00  0.00     0.059 A 
ATOM     81  C   UNL A   1      42.613  22.228  25.742  1.00  0.00     0.059 A 
ATOM     82  F   UNL A   1      42.826  24.545  25.446  1.00  0.00    -0.206 F 
ATOM     83  C   UNL A   1      42.493  21.137  26.602  1.00  0.00     0.060 A 
BRANCH  83  84
ATOM     84  S   UNL A   1      42.434  19.459  25.938  1.00  0.00     0.124 S 
ATOM     85  O   UNL A   1      42.953  18.683  27.059  1.00  0.00    -0.237 OA
ATOM     86  O   UNL A   1      41.014  19.292  25.647  1.00  0.00    -0.237 OA
ATOM     87  O   UNL A   1      43.301  19.531  24.765  1.00  0.00    -0.744 OA
ENDBRANCH  83  84
ENDBRANCH  51  76
BRANCH  63  88
ATOM     88  C   UNL A   1      47.905  27.190  30.611  1.00  0.00     0.058 A 
ATOM     89  C   UNL A   1      48.230  26.646  31.862  1.00  0.00     0.135 A 
ATOM     90  C   UNL A   1      48.935  27.321  29.664  1.00  0.00     0.135 A 
ATOM     91  F   UNL A   1      47.284  26.503  32.804  1.00  0.00    -0.206 F 
ATOM     92  C   UNL A   1      49.534  26.277  32.177  1.00  0.00     0.059 A 
ATOM     93  C   UNL A   1      50.239  26.930  29.947  1.00  0.00     0.059 A 
ATOM     94  F   UNL A   1      48.676  27.824  28.447  1.00  0.00    -0.206 F 
ATOM     95  C   UNL A   1      50.533  26.425  31.212  1.00  0.00     0.060 A 
BRANCH  95  96
ATOM     96  S   UNL A   1      52.217  25.926  31.627  1.00  0.00     0.124 S 
ATOM     97  O   UNL A   1      52.029  24.524  31.984  1.00  0.00    -0.237 OA
ATOM     98  O   UNL A   1      52.932  26.173  30.379  1.00  0.00    -0.237 OA
ATOM     99  O   UNL A   1      52.572  26.814  32.731  1.00  0.00    -0.744 OA
ENDBRANCH  95  96
ENDBRANCH  63  88
ENDBRANCH  37  38
ENDBRANCH  29  32
ENDBRANCH  27  28
ENDBRANCH  26  27
ENDBRANCH   1  26
TORSDOF 19
ENDMDL
MODEL 3
REMARK VINA RESULT:      -8.5      1.347      8.260
REMARK SMILES COc1cc(OC)cc(-c2cnc(Cl)c(C(=O)NCCCCCCNC(=O)c3ccc(-c4c5nc(c(-c6c(F)cc(S(=O)(=O)[O-])cc6F)c6ccc([nH]6)c(-c6c(F)cc(S(=O)(=O)[O-])cc6F)c6nc(c(-c7c(F)cc(S(=O)(=O)[O-])cc7F)c7ccc4[nH]7)C=C6)C=C5)cc3)c2)c1
REMARK SMILES IDX 22 1 21 2 20 3 19 4 18 5 16 6 17 7 15 9 10 10 11 11 94 12
REMARK SMILES IDX 12 13 13 14 14 15 9 16 3 17 4 18 95 19 5 20 8 21 2 22 1 23
REMARK SMILES IDX 6 24 7 25 23 26 24 27 25 28 26 29 27 31 28 32 29 33 93 34
REMARK SMILES IDX 30 35 92 36 31 37 32 38 33 39 86 40 34 41 91 42 85 43 87 44
REMARK SMILES IDX 35 45 90 46 84 47 83 48 36 50 70 51 49 52 69 53 50 54 53 55
REMARK SMILES IDX 68 56 88 57 51 58 52 59 67 61 89 62 54 63 37 64 38 65 47 66
REMARK SMILES IDX 39 67 40 68 46 69 48 70 41 71 42 72 43 73 44 74 45 75 71 76
REMARK SMILES IDX 72 77 81 78 73 79 74 80 80 81 82 82 75 83 76 84 77 85 78 86
REMARK SMILES IDX 79 87 55 88 56 89 65 90 57 91 58 92 64 93 66 94 59 95 60 96
REMARK SMILES IDX 61 97 62 98 63 99
REMARK H PARENT 18 8 25 30 87 49 53 60
REMARK Flexibility Score: inf
ROOT
ATOM      1  C   UNL A   1      36.766  33.865  28.964  1.00  0.00     0.002 C 
ENDROOT
BRANCH   1   2
ATOM      2  C   UNL A   1      37.782  32.953  29.668  1.00  0.00     0.002 C 
BRANCH   2   3
ATOM      3  C   UNL A   1      38.923  33.696  30.377  1.00  0.00     0.021 C 
BRANCH   3   4
ATOM      4  C   UNL A   1      38.429  34.564  31.538  1.00  0.00     0.116 C 
BRANCH   4   5
ATOM      5  N   UNL A   1      39.260  34.374  32.697  1.00  0.00    -0.352 N 
ATOM      6  C   UNL A   1      39.742  33.339  33.431  1.00  0.00     0.254 C 
ATOM      7  O   UNL A   1      40.456  33.728  34.367  1.00  0.00    -0.269 OA
ATOM      8  H   UNL A   1      39.563  35.238  33.062  1.00  0.00     0.163 HD
BRANCH   6   9
ATOM      9  C   UNL A   1      39.569  31.863  33.268  1.00  0.00     0.077 A 
ATOM     10  C   UNL A   1      40.920  29.786  33.180  1.00  0.00     0.001 A 
ATOM     11  C   UNL A   1      39.742  29.091  32.991  1.00  0.00     0.121 A 
ATOM     12  C   UNL A   1      40.807  31.173  33.309  1.00  0.00     0.027 A 
ATOM     13  N   UNL A   1      38.535  29.678  32.953  1.00  0.00    -0.243 NA
ATOM     14  C   UNL A   1      38.464  31.034  33.111  1.00  0.00     0.141 A 
ATOM     15  Cl  UNL A   1      36.802  31.431  33.185  1.00  0.00    -0.061 Cl
BRANCH  10  16
ATOM     16  C   UNL A   1      42.216  29.119  33.192  1.00  0.00    -0.009 A 
ATOM     17  C   UNL A   1      43.729  27.396  32.393  1.00  0.00     0.123 A 
ATOM     18  C   UNL A   1      44.715  27.880  33.258  1.00  0.00     0.092 A 
ATOM     19  C   UNL A   1      42.476  28.007  32.374  1.00  0.00     0.055 A 
ATOM     20  C   UNL A   1      44.469  28.972  34.092  1.00  0.00     0.123 A 
ATOM     21  C   UNL A   1      43.222  29.589  34.049  1.00  0.00     0.055 A 
BRANCH  17  22
ATOM     22  O   UNL A   1      44.098  26.314  31.639  1.00  0.00    -0.497 OA
ATOM     23  C   UNL A   1      44.554  25.168  32.352  1.00  0.00     0.278 C 
ENDBRANCH  17  22
BRANCH  20  24
ATOM     24  O   UNL A   1      45.510  29.352  34.895  1.00  0.00    -0.497 OA
ATOM     25  C   UNL A   1      46.425  30.293  34.340  1.00  0.00     0.278 C 
ENDBRANCH  20  24
ENDBRANCH  10  16
ENDBRANCH   6   9
ENDBRANCH   4   5
ENDBRANCH   3   4
ENDBRANCH   2   3
ENDBRANCH   1   2
BRANCH   1  26
ATOM     26  C   UNL A   1      35.447  33.184  28.593  1.00  0.00     0.021 C 
BRANCH  26  27
ATOM     27  C   UNL A   1      35.055  32.049  29.532  1.00  0.00     0.116 C 
BRANCH  27  28
ATOM     28  N   UNL A   1      34.486  30.930  28.796  1.00  0.00    -0.352 N 
ATOM     29  C   UNL A   1      35.124  29.940  28.106  1.00  0.00     0.251 C 
ATOM     30  H   UNL A   1      33.502  30.881  28.795  1.00  0.00     0.163 HD
ATOM     31  O   UNL A   1      34.489  29.235  27.315  1.00  0.00    -0.269 OA
BRANCH  29  32
ATOM     32  C   UNL A   1      36.567  29.716  28.307  1.00  0.00     0.039 A 
ATOM     33  C   UNL A   1      37.018  29.246  29.542  1.00  0.00     0.014 A 
ATOM     34  C   UNL A   1      37.478  29.993  27.281  1.00  0.00     0.014 A 
ATOM     35  C   UNL A   1      38.381  29.016  29.734  1.00  0.00     0.010 A 
ATOM     36  C   UNL A   1      38.824  29.692  27.450  1.00  0.00     0.010 A 
ATOM     37  C   UNL A   1      39.291  29.213  28.682  1.00  0.00    -0.014 A 
BRANCH  37  38
ATOM     38  C   UNL A   1      40.739  28.944  28.863  1.00  0.00     0.031 A 
ATOM     39  C   UNL A   1      41.294  27.579  28.552  1.00  0.00     0.074 A 
ATOM     40  C   UNL A   1      41.541  29.914  29.345  1.00  0.00     0.049 A 
ATOM     41  N   UNL A   1      42.513  27.130  28.703  1.00  0.00    -0.248 NA
ATOM     42  C   UNL A   1      40.348  26.579  28.026  1.00  0.00     0.031 C 
ATOM     43  C   UNL A   1      41.107  31.262  29.722  1.00  0.00     0.029 A 
ATOM     44  N   UNL A   1      42.887  29.916  29.606  1.00  0.00    -0.354 N 
ATOM     45  C   UNL A   1      42.483  25.804  28.288  1.00  0.00     0.074 A 
ATOM     46  C   UNL A   1      41.110  25.499  27.947  1.00  0.00     0.031 C 
ATOM     47  C   UNL A   1      42.170  31.964  30.145  1.00  0.00     0.029 A 
ATOM     48  C   UNL A   1      43.352  31.109  30.106  1.00  0.00     0.049 A 
ATOM     49  H   UNL A   1      43.467  29.135  29.451  1.00  0.00     0.167 HD
ATOM     50  C   UNL A   1      43.510  24.930  28.170  1.00  0.00     0.037 A 
ATOM     51  C   UNL A   1      44.590  31.469  30.496  1.00  0.00     0.037 A 
ATOM     52  C   UNL A   1      44.875  25.244  28.500  1.00  0.00     0.049 A 
ATOM     53  C   UNL A   1      45.711  30.470  30.373  1.00  0.00     0.074 A 
ATOM     54  C   UNL A   1      45.993  24.434  28.408  1.00  0.00     0.029 A 
ATOM     55  N   UNL A   1      45.310  26.472  28.979  1.00  0.00    -0.354 N 
ATOM     56  N   UNL A   1      45.669  29.232  29.941  1.00  0.00    -0.248 NA
ATOM     57  C   UNL A   1      47.048  30.921  30.777  1.00  0.00     0.031 C 
ATOM     58  C   UNL A   1      47.100  25.161  28.861  1.00  0.00     0.029 A 
ATOM     59  C   UNL A   1      46.679  26.441  29.187  1.00  0.00     0.049 A 
ATOM     60  H   UNL A   1      44.732  27.251  29.145  1.00  0.00     0.167 HD
ATOM     61  C   UNL A   1      46.981  28.771  29.984  1.00  0.00     0.074 A 
ATOM     62  C   UNL A   1      47.791  29.867  30.473  1.00  0.00     0.031 C 
ATOM     63  C   UNL A   1      47.472  27.552  29.650  1.00  0.00     0.037 A 
BRANCH  50  64
ATOM     64  C   UNL A   1      43.201  23.557  27.635  1.00  0.00     0.058 A 
ATOM     65  C   UNL A   1      42.713  22.541  28.473  1.00  0.00     0.135 A 
ATOM     66  C   UNL A   1      43.344  23.265  26.269  1.00  0.00     0.135 A 
ATOM     67  F   UNL A   1      42.574  22.759  29.790  1.00  0.00    -0.206 F 
ATOM     68  C   UNL A   1      42.399  21.279  27.980  1.00  0.00     0.059 A 
ATOM     69  C   UNL A   1      43.008  22.018  25.750  1.00  0.00     0.059 A 
ATOM     70  F   UNL A   1      43.809  24.198  25.424  1.00  0.00    -0.206 F 
ATOM     71  C   UNL A   1      42.545  21.029  26.615  1.00  0.00     0.060 A 
BRANCH  71  72
ATOM     72  S   UNL A   1      42.108  19.392  25.992  1.00  0.00     0.124 S 
ATOM     73  O   UNL A   1      42.915  19.316  24.778  1.00  0.00    -0.237 OA
ATOM     74  O   UNL A   1      42.526  18.521  27.086  1.00  0.00    -0.237 OA
ATOM     75  O   UNL A   1      40.667  19.481  25.782  1.00  0.00    -0.744 OA
ENDBRANCH  71  72
ENDBRANCH  50  64
BRANCH  51  76
ATOM     76  C   UNL A   1      44.846  32.835  31.027  1.00  0.00     0.058 A 
ATOM     77  C   UNL A   1      44.534  33.167  32.354  1.00  0.00     0.135 A 
ATOM     78  C   UNL A   1      45.380  33.845  30.211  1.00  0.00     0.135 A 
ATOM     79  F   UNL A   1      44.022  32.237  33.175  1.00  0.00    -0.206 F 
ATOM     80  C   UNL A   1      44.697  34.459  32.841  1.00  0.00     0.059 A 
ATOM     81  C   UNL A   1      45.583  35.138  30.684  1.00  0.00     0.059 A 
ATOM     82  F   UNL A   1      45.718  33.576  28.940  1.00  0.00    -0.206 F 
ATOM     83  C   UNL A   1      45.217  35.440  31.995  1.00  0.00     0.060 A 
BRANCH  83  84
ATOM     84  S   UNL A   1      45.423  37.117  32.633  1.00  0.00     0.124 S 
ATOM     85  O   UNL A   1      44.040  37.571  32.712  1.00  0.00    -0.237 OA
ATOM     86  O   UNL A   1      46.093  36.881  33.908  1.00  0.00    -0.237 OA
ATOM     87  O   UNL A   1      46.243  37.765  31.613  1.00  0.00    -0.744 OA
ENDBRANCH  83  84
ENDBRANCH  51  76
BRANCH  63  88
ATOM     88  C   UNL A   1      48.961  27.359  29.739  1.00  0.00     0.058 A 
ATOM     89  C   UNL A   1      49.582  26.879  30.902  1.00  0.00     0.135 A 
ATOM     90  C   UNL A   1      49.775  27.631  28.626  1.00  0.00     0.135 A 
ATOM     91  F   UNL A   1      48.851  26.608  31.995  1.00  0.00    -0.206 F 
ATOM     92  C   UNL A   1      50.961  26.707  30.971  1.00  0.00     0.059 A 
ATOM     93  C   UNL A   1      51.151  27.437  28.662  1.00  0.00     0.059 A 
ATOM     94  F   UNL A   1      49.231  28.081  27.484  1.00  0.00    -0.206 F 
ATOM     95  C   UNL A   1      51.737  26.990  29.845  1.00  0.00     0.060 A 
BRANCH  95  96
ATOM     96  S   UNL A   1      53.523  26.746  29.943  1.00  0.00     0.124 S 
ATOM     97  O   UNL A   1      53.818  26.205  28.620  1.00  0.00    -0.237 OA
ATOM     98  O   UNL A   1      54.009  28.098  30.198  1.00  0.00    -0.237 OA
ATOM     99  O   UNL A   1      53.678  25.810  31.053  1.00  0.00    -0.744 OA
ENDBRANCH  95  96
ENDBRANCH  63  88
ENDBRANCH  37  38
ENDBRANCH  29  32
ENDBRANCH  27  28
ENDBRANCH  26  27
ENDBRANCH   1  26
TORSDOF 19
ENDMDL
