MODEL 1
REMARK VINA RESULT:     -10.8      0.000      0.000
REMARK SMILES C[C@H](CC(=O)NCCCCCCNC(=O)c1ccc(-c2c3nc(c(-c4c(F)cc(S(=O)(=O)[O-])cc4F)c4ccc([nH]4)c(-c4c(F)cc(S(=O)(=O)[O-])cc4F)c4nc(c(-c5c(F)cc(S(=O)(=O)[O-])cc5F)c5ccc2[nH]5)C=C4)C=C3)cc1)NC(=O)Cc1cn2ccsc2n1
REMARK SMILES IDX 9 1 8 2 7 3 6 4 4 5 5 6 3 8 2 9 1 10 82 11 83 12 84 14 85 15
REMARK SMILES IDX 86 16 87 17 93 18 88 19 92 20 89 21 91 22 90 23 10 24 11 25
REMARK SMILES IDX 12 26 13 27 14 28 15 30 16 31 17 32 81 33 18 34 80 35 19 36
REMARK SMILES IDX 20 37 21 38 74 39 22 40 79 41 73 42 75 43 23 44 78 45 72 46
REMARK SMILES IDX 71 47 24 49 58 50 37 51 57 52 38 53 41 54 56 55 76 56 39 57
REMARK SMILES IDX 40 58 55 60 77 61 42 62 25 63 26 64 35 65 27 66 28 67 34 68
REMARK SMILES IDX 36 69 29 70 30 71 31 72 32 73 33 74 59 75 60 76 69 77 61 78
REMARK SMILES IDX 62 79 68 80 70 81 63 82 64 83 65 84 66 85 67 86 43 87 44 88
REMARK SMILES IDX 53 89 45 90 46 91 52 92 54 93 47 94 48 95 49 96 50 97 51 98
REMARK H PARENT 6 7 82 13 13 29 75 48 41 59
REMARK Flexibility Score: inf
ROOT
ATOM      1  C   UNL A   1      32.893  28.875  23.966  1.00  0.00     0.002 C 
ENDROOT
BRANCH   1   2
ATOM      2  C   UNL A   1      32.143  28.959  22.634  1.00  0.00     0.021 C 
BRANCH   2   3
ATOM      3  C   UNL A   1      31.219  27.770  22.357  1.00  0.00     0.116 C 
BRANCH   3   4
ATOM      4  N   UNL A   1      31.888  26.802  21.513  1.00  0.00    -0.356 N 
ATOM      5  C   UNL A   1      32.633  25.714  21.851  1.00  0.00     0.222 C 
ATOM      6  O   UNL A   1      33.197  25.113  20.934  1.00  0.00    -0.275 OA
ATOM      7  H   UNL A   1      31.787  26.954  20.545  1.00  0.00     0.163 HD
BRANCH   5   8
ATOM      8  C   UNL A   1      32.740  25.252  23.299  1.00  0.00     0.124 C 
BRANCH   8   9
ATOM      9  C   UNL A   1      31.728  24.155  23.671  1.00  0.00     0.088 C 
ATOM     10  C   UNL A   1      30.276  24.608  23.489  1.00  0.00     0.031 C 
BRANCH   9  11
ATOM     11  N   UNL A   1      31.865  22.975  22.812  1.00  0.00    -0.353 N 
ATOM     12  C   UNL A   1      32.277  21.712  23.136  1.00  0.00     0.226 C 
ATOM     13  H   UNL A   1      31.626  23.110  21.866  1.00  0.00     0.163 HD
ATOM     14  O   UNL A   1      32.045  20.796  22.343  1.00  0.00    -0.275 OA
BRANCH  12  15
ATOM     15  C   UNL A   1      32.979  21.465  24.457  1.00  0.00     0.157 C 
BRANCH  15  16
ATOM     16  C   UNL A   1      33.245  20.015  24.675  1.00  0.00     0.070 A 
ATOM     17  C   UNL A   1      34.430  19.314  24.467  1.00  0.00     0.118 A 
ATOM     18  N   UNL A   1      32.247  19.168  25.140  1.00  0.00    -0.223 NA
ATOM     19  N   UNL A   1      34.119  18.022  24.769  1.00  0.00    -0.297 N 
ATOM     20  C   UNL A   1      32.815  17.997  25.153  1.00  0.00     0.193 A 
ATOM     21  C   UNL A   1      34.765  16.808  24.789  1.00  0.00     0.104 A 
ATOM     22  S   UNL A   1      32.308  16.392  25.568  1.00  0.00    -0.105 S 
ATOM     23  C   UNL A   1      33.943  15.821  25.187  1.00  0.00     0.087 A 
ENDBRANCH  15  16
ENDBRANCH  12  15
ENDBRANCH   9  11
ENDBRANCH   8   9
ENDBRANCH   5   8
ENDBRANCH   3   4
ENDBRANCH   2   3
ENDBRANCH   1   2
BRANCH   1  24
ATOM     24  C   UNL A   1      32.000  28.684  25.198  1.00  0.00     0.002 C 
BRANCH  24  25
ATOM     25  C   UNL A   1      32.528  27.706  26.255  1.00  0.00     0.021 C 
BRANCH  25  26
ATOM     26  C   UNL A   1      33.675  28.236  27.111  1.00  0.00     0.116 C 
BRANCH  26  27
ATOM     27  N   UNL A   1      33.521  29.652  27.405  1.00  0.00    -0.352 N 
ATOM     28  C   UNL A   1      34.381  30.504  28.047  1.00  0.00     0.251 C 
ATOM     29  H   UNL A   1      32.678  30.055  27.099  1.00  0.00     0.163 HD
ATOM     30  O   UNL A   1      33.980  31.611  28.414  1.00  0.00    -0.269 OA
BRANCH  28  31
ATOM     31  C   UNL A   1      35.779  30.102  28.307  1.00  0.00     0.039 A 
ATOM     32  C   UNL A   1      36.709  30.165  27.266  1.00  0.00     0.014 A 
ATOM     33  C   UNL A   1      36.166  29.629  29.565  1.00  0.00     0.014 A 
ATOM     34  C   UNL A   1      38.038  29.800  27.498  1.00  0.00     0.010 A 
ATOM     35  C   UNL A   1      37.504  29.323  29.810  1.00  0.00     0.010 A 
ATOM     36  C   UNL A   1      38.452  29.398  28.778  1.00  0.00    -0.014 A 
BRANCH  36  37
ATOM     37  C   UNL A   1      39.867  29.047  29.054  1.00  0.00     0.031 A 
ATOM     38  C   UNL A   1      40.805  30.075  29.628  1.00  0.00     0.074 A 
ATOM     39  C   UNL A   1      40.326  27.824  28.727  1.00  0.00     0.049 A 
ATOM     40  N   UNL A   1      42.087  29.980  29.871  1.00  0.00    -0.248 NA
ATOM     41  C   UNL A   1      40.229  31.391  29.948  1.00  0.00     0.031 C 
ATOM     42  C   UNL A   1      39.529  26.757  28.120  1.00  0.00     0.029 A 
ATOM     43  N   UNL A   1      41.579  27.275  28.845  1.00  0.00    -0.354 N 
ATOM     44  C   UNL A   1      42.475  31.226  30.351  1.00  0.00     0.074 A 
ATOM     45  C   UNL A   1      41.302  32.072  30.326  1.00  0.00     0.031 C 
ATOM     46  C   UNL A   1      40.307  25.678  27.930  1.00  0.00     0.029 A 
ATOM     47  C   UNL A   1      41.664  25.986  28.373  1.00  0.00     0.049 A 
ATOM     48  H   UNL A   1      42.344  27.758  29.231  1.00  0.00     0.167 HD
ATOM     49  C   UNL A   1      43.694  31.622  30.791  1.00  0.00     0.037 A 
ATOM     50  C   UNL A   1      42.717  25.150  28.298  1.00  0.00     0.037 A 
ATOM     51  C   UNL A   1      44.851  30.768  30.842  1.00  0.00     0.049 A 
ATOM     52  C   UNL A   1      44.055  25.603  28.812  1.00  0.00     0.074 A 
ATOM     53  C   UNL A   1      46.113  31.054  31.333  1.00  0.00     0.029 A 
ATOM     54  N   UNL A   1      44.889  29.457  30.387  1.00  0.00    -0.354 N 
ATOM     55  N   UNL A   1      44.389  26.765  29.322  1.00  0.00    -0.248 NA
ATOM     56  C   UNL A   1      45.157  24.634  28.747  1.00  0.00     0.031 C 
ATOM     57  C   UNL A   1      46.923  29.930  31.143  1.00  0.00     0.029 A 
ATOM     58  C   UNL A   1      46.156  28.928  30.570  1.00  0.00     0.049 A 
ATOM     59  H   UNL A   1      44.127  28.976  29.992  1.00  0.00     0.167 HD
ATOM     60  C   UNL A   1      45.734  26.658  29.660  1.00  0.00     0.074 A 
ATOM     61  C   UNL A   1      46.149  25.316  29.306  1.00  0.00     0.031 C 
ATOM     62  C   UNL A   1      46.551  27.588  30.215  1.00  0.00     0.037 A 
BRANCH  49  63
ATOM     63  C   UNL A   1      43.835  33.047  31.254  1.00  0.00     0.058 A 
ATOM     64  C   UNL A   1      43.692  33.400  32.606  1.00  0.00     0.135 A 
ATOM     65  C   UNL A   1      44.137  34.068  30.339  1.00  0.00     0.135 A 
ATOM     66  F   UNL A   1      43.390  32.465  33.520  1.00  0.00    -0.206 F 
ATOM     67  C   UNL A   1      43.808  34.719  33.030  1.00  0.00     0.059 A 
ATOM     68  C   UNL A   1      44.284  35.392  30.745  1.00  0.00     0.059 A 
ATOM     69  F   UNL A   1      44.286  33.787  29.036  1.00  0.00    -0.206 F 
ATOM     70  C   UNL A   1      44.099  35.710  32.090  1.00  0.00     0.060 A 
BRANCH  70  71
ATOM     71  S   UNL A   1      44.235  37.420  32.652  1.00  0.00     0.124 S 
ATOM     72  O   UNL A   1      45.612  37.457  33.139  1.00  0.00    -0.237 OA
ATOM     73  O   UNL A   1      43.975  38.174  31.430  1.00  0.00    -0.237 OA
ATOM     74  O   UNL A   1      43.204  37.523  33.679  1.00  0.00    -0.744 OA
ENDBRANCH  70  71
ENDBRANCH  49  63
BRANCH  50  75
ATOM     75  C   UNL A   1      42.535  23.785  27.737  1.00  0.00     0.058 A 
ATOM     76  C   UNL A   1      42.573  23.565  26.353  1.00  0.00     0.135 A 
ATOM     77  C   UNL A   1      42.351  22.673  28.574  1.00  0.00     0.135 A 
ATOM     78  F   UNL A   1      42.740  24.598  25.515  1.00  0.00    -0.206 F 
ATOM     79  C   UNL A   1      42.429  22.290  25.815  1.00  0.00     0.059 A 
ATOM     80  C   UNL A   1      42.226  21.386  28.060  1.00  0.00     0.059 A 
ATOM     81  F   UNL A   1      42.326  22.831  29.907  1.00  0.00    -0.206 F 
ATOM     82  C   UNL A   1      42.259  21.206  26.678  1.00  0.00     0.060 A 
BRANCH  82  83
ATOM     83  S   UNL A   1      42.143  19.547  25.973  1.00  0.00     0.124 S 
ATOM     84  O   UNL A   1      40.717  19.449  25.690  1.00  0.00    -0.237 OA
ATOM     85  O   UNL A   1      43.021  19.643  24.811  1.00  0.00    -0.237 OA
ATOM     86  O   UNL A   1      42.635  18.692  27.050  1.00  0.00    -0.744 OA
ENDBRANCH  82  83
ENDBRANCH  50  75
BRANCH  62  87
ATOM     87  C   UNL A   1      47.969  27.179  30.498  1.00  0.00     0.058 A 
ATOM     88  C   UNL A   1      49.006  27.445  29.592  1.00  0.00     0.135 A 
ATOM     89  C   UNL A   1      48.300  26.562  31.714  1.00  0.00     0.135 A 
ATOM     90  F   UNL A   1      48.740  28.028  28.412  1.00  0.00    -0.206 F 
ATOM     91  C   UNL A   1      50.322  27.094  29.872  1.00  0.00     0.059 A 
ATOM     92  C   UNL A   1      49.613  26.223  32.026  1.00  0.00     0.059 A 
ATOM     93  F   UNL A   1      47.345  26.294  32.620  1.00  0.00    -0.206 F 
ATOM     94  C   UNL A   1      50.617  26.483  31.094  1.00  0.00     0.060 A 
BRANCH  94  95
ATOM     95  S   UNL A   1      52.333  26.063  31.463  1.00  0.00     0.124 S 
ATOM     96  O   UNL A   1      52.946  26.148  30.141  1.00  0.00    -0.237 OA
ATOM     97  O   UNL A   1      52.716  27.107  32.408  1.00  0.00    -0.237 OA
ATOM     98  O   UNL A   1      52.239  24.720  32.028  1.00  0.00    -0.744 OA
ENDBRANCH  94  95
ENDBRANCH  62  87
ENDBRANCH  36  37
ENDBRANCH  28  31
ENDBRANCH  26  27
ENDBRANCH  25  26
ENDBRANCH  24  25
ENDBRANCH   1  24
TORSDOF 20
ENDMDL
MODEL 2
REMARK VINA RESULT:     -10.7      2.942      3.945
REMARK SMILES C[C@H](CC(=O)NCCCCCCNC(=O)c1ccc(-c2c3nc(c(-c4c(F)cc(S(=O)(=O)[O-])cc4F)c4ccc([nH]4)c(-c4c(F)cc(S(=O)(=O)[O-])cc4F)c4nc(c(-c5c(F)cc(S(=O)(=O)[O-])cc5F)c5ccc2[nH]5)C=C4)C=C3)cc1)NC(=O)Cc1cn2ccsc2n1
REMARK SMILES IDX 9 1 8 2 7 3 6 4 4 5 5 6 3 8 2 9 1 10 82 11 83 12 84 14 85 15
REMARK SMILES IDX 86 16 87 17 93 18 88 19 92 20 89 21 91 22 90 23 10 24 11 25
REMARK SMILES IDX 12 26 13 27 14 28 15 30 16 31 17 32 81 33 18 34 80 35 19 36
REMARK SMILES IDX 20 37 21 38 74 39 22 40 79 41 73 42 75 43 23 44 78 45 72 46
REMARK SMILES IDX 71 47 24 49 58 50 37 51 57 52 38 53 41 54 56 55 76 56 39 57
REMARK SMILES IDX 40 58 55 60 77 61 42 62 25 63 26 64 35 65 27 66 28 67 34 68
REMARK SMILES IDX 36 69 29 70 30 71 31 72 32 73 33 74 59 75 60 76 69 77 61 78
REMARK SMILES IDX 62 79 68 80 70 81 63 82 64 83 65 84 66 85 67 86 43 87 44 88
REMARK SMILES IDX 53 89 45 90 46 91 52 92 54 93 47 94 48 95 49 96 50 97 51 98
REMARK H PARENT 6 7 82 13 13 29 75 48 41 59
REMARK Flexibility Score: inf
ROOT
ATOM      1  C   UNL A   1      32.848  30.579  26.992  1.00  0.00     0.002 C 
ENDROOT
BRANCH   1   2
ATOM      2  C   UNL A   1      31.701  30.652  25.980  1.00  0.00     0.021 C 
BRANCH   2   3
ATOM      3  C   UNL A   1      31.456  29.349  25.214  1.00  0.00     0.116 C 
BRANCH   3   4
ATOM      4  N   UNL A   1      31.010  29.637  23.867  1.00  0.00    -0.356 N 
ATOM      5  C   UNL A   1      30.304  28.863  22.996  1.00  0.00     0.222 C 
ATOM      6  O   UNL A   1      30.153  29.300  21.853  1.00  0.00    -0.275 OA
ATOM      7  H   UNL A   1      31.254  30.529  23.528  1.00  0.00     0.163 HD
BRANCH   5   8
ATOM      8  C   UNL A   1      29.711  27.529  23.430  1.00  0.00     0.124 C 
BRANCH   8   9
ATOM      9  C   UNL A   1      30.721  26.369  23.401  1.00  0.00     0.088 C 
ATOM     10  C   UNL A   1      30.042  24.996  23.425  1.00  0.00     0.031 C 
BRANCH   9  11
ATOM     11  N   UNL A   1      31.518  26.372  22.170  1.00  0.00    -0.353 N 
ATOM     12  C   UNL A   1      32.850  26.113  22.001  1.00  0.00     0.226 C 
ATOM     13  H   UNL A   1      31.025  26.594  21.347  1.00  0.00     0.163 HD
ATOM     14  O   UNL A   1      33.265  25.882  20.863  1.00  0.00    -0.275 OA
BRANCH  12  15
ATOM     15  C   UNL A   1      33.771  26.091  23.205  1.00  0.00     0.157 C 
BRANCH  15  16
ATOM     16  C   UNL A   1      34.040  24.700  23.667  1.00  0.00     0.070 A 
ATOM     17  C   UNL A   1      33.366  23.531  23.324  1.00  0.00     0.118 A 
ATOM     18  N   UNL A   1      35.071  24.432  24.559  1.00  0.00    -0.223 NA
ATOM     19  N   UNL A   1      33.976  22.559  24.059  1.00  0.00    -0.297 N 
ATOM     20  C   UNL A   1      34.970  23.151  24.773  1.00  0.00     0.193 A 
ATOM     21  C   UNL A   1      33.848  21.201  24.238  1.00  0.00     0.104 A 
ATOM     22  S   UNL A   1      35.823  21.999  25.748  1.00  0.00    -0.105 S 
ATOM     23  C   UNL A   1      34.752  20.734  25.116  1.00  0.00     0.087 A 
ENDBRANCH  15  16
ENDBRANCH  12  15
ENDBRANCH   9  11
ENDBRANCH   8   9
ENDBRANCH   5   8
ENDBRANCH   3   4
ENDBRANCH   2   3
ENDBRANCH   1   2
BRANCH   1  24
ATOM     24  C   UNL A   1      33.657  29.277  26.957  1.00  0.00     0.002 C 
BRANCH  24  25
ATOM     25  C   UNL A   1      35.001  29.311  27.695  1.00  0.00     0.021 C 
BRANCH  25  26
ATOM     26  C   UNL A   1      35.447  30.695  28.163  1.00  0.00     0.116 C 
BRANCH  26  27
ATOM     27  N   UNL A   1      35.410  30.813  29.611  1.00  0.00    -0.352 N 
ATOM     28  C   UNL A   1      36.352  30.448  30.536  1.00  0.00     0.251 C 
ATOM     29  H   UNL A   1      34.589  31.213  29.979  1.00  0.00     0.163 HD
ATOM     30  O   UNL A   1      36.047  30.406  31.731  1.00  0.00    -0.269 OA
BRANCH  28  31
ATOM     31  C   UNL A   1      37.723  30.099  30.112  1.00  0.00     0.039 A 
ATOM     32  C   UNL A   1      38.624  29.611  31.062  1.00  0.00     0.014 A 
ATOM     33  C   UNL A   1      38.134  30.287  28.788  1.00  0.00     0.014 A 
ATOM     34  C   UNL A   1      39.922  29.265  30.675  1.00  0.00     0.010 A 
ATOM     35  C   UNL A   1      39.408  29.886  28.393  1.00  0.00     0.010 A 
ATOM     36  C   UNL A   1      40.318  29.378  29.333  1.00  0.00    -0.014 A 
BRANCH  36  37
ATOM     37  C   UNL A   1      41.678  28.976  28.895  1.00  0.00     0.031 A 
ATOM     38  C   UNL A   1      42.780  29.998  28.814  1.00  0.00     0.074 A 
ATOM     39  C   UNL A   1      41.906  27.706  28.508  1.00  0.00     0.049 A 
ATOM     40  N   UNL A   1      44.010  29.855  28.389  1.00  0.00    -0.248 NA
ATOM     41  C   UNL A   1      42.449  31.366  29.244  1.00  0.00     0.031 C 
ATOM     42  C   UNL A   1      40.907  26.635  28.494  1.00  0.00     0.029 A 
ATOM     43  N   UNL A   1      43.045  27.103  28.037  1.00  0.00    -0.354 N 
ATOM     44  C   UNL A   1      44.592  31.114  28.480  1.00  0.00     0.074 A 
ATOM     45  C   UNL A   1      43.568  32.017  28.962  1.00  0.00     0.031 C 
ATOM     46  C   UNL A   1      41.481  25.504  28.051  1.00  0.00     0.029 A 
ATOM     47  C   UNL A   1      42.877  25.776  27.719  1.00  0.00     0.049 A 
ATOM     48  H   UNL A   1      43.902  27.575  27.935  1.00  0.00     0.167 HD
ATOM     49  C   UNL A   1      45.867  31.481  28.206  1.00  0.00     0.037 A 
ATOM     50  C   UNL A   1      43.745  24.880  27.211  1.00  0.00     0.037 A 
ATOM     51  C   UNL A   1      46.889  30.573  27.757  1.00  0.00     0.049 A 
ATOM     52  C   UNL A   1      45.161  25.304  26.936  1.00  0.00     0.074 A 
ATOM     53  C   UNL A   1      48.227  30.832  27.517  1.00  0.00     0.029 A 
ATOM     54  N   UNL A   1      46.688  29.228  27.479  1.00  0.00    -0.354 N 
ATOM     55  N   UNL A   1      45.711  26.485  27.088  1.00  0.00    -0.248 NA
ATOM     56  C   UNL A   1      46.076  24.274  26.426  1.00  0.00     0.031 C 
ATOM     57  C   UNL A   1      48.827  29.653  27.061  1.00  0.00     0.029 A 
ATOM     58  C   UNL A   1      47.872  28.649  27.055  1.00  0.00     0.049 A 
ATOM     59  H   UNL A   1      45.829  28.756  27.571  1.00  0.00     0.167 HD
ATOM     60  C   UNL A   1      47.041  26.335  26.715  1.00  0.00     0.074 A 
ATOM     61  C   UNL A   1      47.217  24.947  26.339  1.00  0.00     0.031 C 
ATOM     62  C   UNL A   1      48.030  27.264  26.688  1.00  0.00     0.037 A 
BRANCH  49  63
ATOM     63  C   UNL A   1      46.226  32.930  28.389  1.00  0.00     0.058 A 
ATOM     64  C   UNL A   1      46.098  33.859  27.343  1.00  0.00     0.135 A 
ATOM     65  C   UNL A   1      46.683  33.402  29.630  1.00  0.00     0.135 A 
ATOM     66  F   UNL A   1      45.678  33.460  26.133  1.00  0.00    -0.206 F 
ATOM     67  C   UNL A   1      46.444  35.196  27.510  1.00  0.00     0.059 A 
ATOM     68  C   UNL A   1      47.010  34.741  29.828  1.00  0.00     0.059 A 
ATOM     69  F   UNL A   1      46.823  32.558  30.665  1.00  0.00    -0.206 F 
ATOM     70  C   UNL A   1      46.904  35.626  28.756  1.00  0.00     0.060 A 
BRANCH  70  71
ATOM     71  S   UNL A   1      47.361  37.362  28.955  1.00  0.00     0.124 S 
ATOM     72  O   UNL A   1      46.676  37.701  30.199  1.00  0.00    -0.237 OA
ATOM     73  O   UNL A   1      48.817  37.296  29.032  1.00  0.00    -0.237 OA
ATOM     74  O   UNL A   1      46.828  37.993  27.753  1.00  0.00    -0.744 OA
ENDBRANCH  70  71
ENDBRANCH  49  63
BRANCH  50  75
ATOM     75  C   UNL A   1      43.300  23.484  26.959  1.00  0.00     0.058 A 
ATOM     76  C   UNL A   1      43.042  23.035  25.656  1.00  0.00     0.135 A 
ATOM     77  C   UNL A   1      43.157  22.565  28.011  1.00  0.00     0.135 A 
ATOM     78  F   UNL A   1      43.160  23.880  24.621  1.00  0.00    -0.206 F 
ATOM     79  C   UNL A   1      42.650  21.725  25.403  1.00  0.00     0.059 A 
ATOM     80  C   UNL A   1      42.785  21.245  27.780  1.00  0.00     0.059 A 
ATOM     81  F   UNL A   1      43.409  22.943  29.273  1.00  0.00    -0.206 F 
ATOM     82  C   UNL A   1      42.528  20.836  26.472  1.00  0.00     0.060 A 
BRANCH  82  83
ATOM     83  S   UNL A   1      42.085  19.119  26.125  1.00  0.00     0.124 S 
ATOM     84  O   UNL A   1      42.466  18.461  27.369  1.00  0.00    -0.237 OA
ATOM     85  O   UNL A   1      40.652  19.216  25.867  1.00  0.00    -0.237 OA
ATOM     86  O   UNL A   1      42.902  18.793  24.960  1.00  0.00    -0.744 OA
ENDBRANCH  82  83
ENDBRANCH  50  75
BRANCH  62  87
ATOM     87  C   UNL A   1      49.396  26.805  26.261  1.00  0.00     0.058 A 
ATOM     88  C   UNL A   1      49.860  26.997  24.951  1.00  0.00     0.135 A 
ATOM     89  C   UNL A   1      50.268  26.215  27.189  1.00  0.00     0.135 A 
ATOM     90  F   UNL A   1      49.062  27.551  24.025  1.00  0.00    -0.206 F 
ATOM     91  C   UNL A   1      51.137  26.600  24.569  1.00  0.00     0.059 A 
ATOM     92  C   UNL A   1      51.558  25.831  26.835  1.00  0.00     0.059 A 
ATOM     93  F   UNL A   1      49.875  26.018  28.458  1.00  0.00    -0.206 F 
ATOM     94  C   UNL A   1      51.980  26.018  25.520  1.00  0.00     0.060 A 
BRANCH  94  95
ATOM     95  S   UNL A   1      53.648  25.538  25.022  1.00  0.00     0.124 S 
ATOM     96  O   UNL A   1      53.615  25.807  23.588  1.00  0.00    -0.237 OA
ATOM     97  O   UNL A   1      54.483  26.435  25.816  1.00  0.00    -0.237 OA
ATOM     98  O   UNL A   1      53.722  24.129  25.398  1.00  0.00    -0.744 OA
ENDBRANCH  94  95
ENDBRANCH  62  87
ENDBRANCH  36  37
ENDBRANCH  28  31
ENDBRANCH  26  27
ENDBRANCH  25  26
ENDBRANCH  24  25
ENDBRANCH   1  24
TORSDOF 20
ENDMDL
MODEL 3
REMARK VINA RESULT:     -10.6      1.279      2.094
REMARK SMILES C[C@H](CC(=O)NCCCCCCNC(=O)c1ccc(-c2c3nc(c(-c4c(F)cc(S(=O)(=O)[O-])cc4F)c4ccc([nH]4)c(-c4c(F)cc(S(=O)(=O)[O-])cc4F)c4nc(c(-c5c(F)cc(S(=O)(=O)[O-])cc5F)c5ccc2[nH]5)C=C4)C=C3)cc1)NC(=O)Cc1cn2ccsc2n1
REMARK SMILES IDX 9 1 8 2 7 3 6 4 4 5 5 6 3 8 2 9 1 10 82 11 83 12 84 14 85 15
REMARK SMILES IDX 86 16 87 17 93 18 88 19 92 20 89 21 91 22 90 23 10 24 11 25
REMARK SMILES IDX 12 26 13 27 14 28 15 30 16 31 17 32 81 33 18 34 80 35 19 36
REMARK SMILES IDX 20 37 21 38 74 39 22 40 79 41 73 42 75 43 23 44 78 45 72 46
REMARK SMILES IDX 71 47 24 49 58 50 37 51 57 52 38 53 41 54 56 55 76 56 39 57
REMARK SMILES IDX 40 58 55 60 77 61 42 62 25 63 26 64 35 65 27 66 28 67 34 68
REMARK SMILES IDX 36 69 29 70 30 71 31 72 32 73 33 74 59 75 60 76 69 77 61 78
REMARK SMILES IDX 62 79 68 80 70 81 63 82 64 83 65 84 66 85 67 86 43 87 44 88
REMARK SMILES IDX 53 89 45 90 46 91 52 92 54 93 47 94 48 95 49 96 50 97 51 98
REMARK H PARENT 6 7 82 13 13 29 75 48 41 59
REMARK Flexibility Score: inf
ROOT
ATOM      1  C   UNL A   1      32.770  28.596  23.692  1.00  0.00     0.002 C 
ENDROOT
BRANCH   1   2
ATOM      2  C   UNL A   1      31.764  28.808  22.557  1.00  0.00     0.021 C 
BRANCH   2   3
ATOM      3  C   UNL A   1      30.920  27.575  22.227  1.00  0.00     0.116 C 
BRANCH   3   4
ATOM      4  N   UNL A   1      31.639  26.704  21.321  1.00  0.00    -0.356 N 
ATOM      5  C   UNL A   1      32.491  25.675  21.588  1.00  0.00     0.222 C 
ATOM      6  O   UNL A   1      33.070  25.163  20.628  1.00  0.00    -0.275 OA
ATOM      7  H   UNL A   1      31.488  26.882  20.364  1.00  0.00     0.163 HD
BRANCH   5   8
ATOM      8  C   UNL A   1      32.695  25.171  23.011  1.00  0.00     0.124 C 
BRANCH   8   9
ATOM      9  C   UNL A   1      31.828  23.948  23.360  1.00  0.00     0.088 C 
ATOM     10  C   UNL A   1      30.331  24.269  23.363  1.00  0.00     0.031 C 
BRANCH   9  11
ATOM     11  N   UNL A   1      31.981  22.874  22.373  1.00  0.00    -0.353 N 
ATOM     12  C   UNL A   1      32.108  21.528  22.573  1.00  0.00     0.226 C 
ATOM     13  H   UNL A   1      31.996  23.163  21.432  1.00  0.00     0.163 HD
ATOM     14  O   UNL A   1      31.932  20.771  21.615  1.00  0.00    -0.275 OA
BRANCH  12  15
ATOM     15  C   UNL A   1      32.433  20.999  23.957  1.00  0.00     0.157 C 
BRANCH  15  16
ATOM     16  C   UNL A   1      33.876  21.173  24.287  1.00  0.00     0.070 A 
ATOM     17  C   UNL A   1      34.764  20.230  24.798  1.00  0.00     0.118 A 
ATOM     18  N   UNL A   1      34.508  22.396  24.101  1.00  0.00    -0.223 NA
ATOM     19  N   UNL A   1      35.930  20.916  24.962  1.00  0.00    -0.297 N 
ATOM     20  C   UNL A   1      35.716  22.190  24.540  1.00  0.00     0.193 A 
ATOM     21  C   UNL A   1      37.202  20.648  25.413  1.00  0.00     0.104 A 
ATOM     22  S   UNL A   1      37.145  23.159  24.699  1.00  0.00    -0.105 S 
ATOM     23  C   UNL A   1      37.985  21.739  25.351  1.00  0.00     0.087 A 
ENDBRANCH  15  16
ENDBRANCH  12  15
ENDBRANCH   9  11
ENDBRANCH   8   9
ENDBRANCH   5   8
ENDBRANCH   3   4
ENDBRANCH   2   3
ENDBRANCH   1   2
BRANCH   1  24
ATOM     24  C   UNL A   1      32.146  28.282  25.057  1.00  0.00     0.002 C 
BRANCH  24  25
ATOM     25  C   UNL A   1      32.954  27.337  25.954  1.00  0.00     0.021 C 
BRANCH  25  26
ATOM     26  C   UNL A   1      34.108  27.991  26.710  1.00  0.00     0.116 C 
BRANCH  26  27
ATOM     27  N   UNL A   1      33.804  29.364  27.078  1.00  0.00    -0.352 N 
ATOM     28  C   UNL A   1      34.536  30.244  27.831  1.00  0.00     0.251 C 
ATOM     29  H   UNL A   1      32.948  29.711  26.737  1.00  0.00     0.163 HD
ATOM     30  O   UNL A   1      34.010  31.283  28.236  1.00  0.00    -0.269 OA
BRANCH  28  31
ATOM     31  C   UNL A   1      35.946  29.952  28.165  1.00  0.00     0.039 A 
ATOM     32  C   UNL A   1      36.254  29.462  29.437  1.00  0.00     0.014 A 
ATOM     33  C   UNL A   1      36.967  30.194  27.240  1.00  0.00     0.014 A 
ATOM     34  C   UNL A   1      37.581  29.169  29.766  1.00  0.00     0.010 A 
ATOM     35  C   UNL A   1      38.280  29.846  27.549  1.00  0.00     0.010 A 
ATOM     36  C   UNL A   1      38.602  29.337  28.816  1.00  0.00    -0.014 A 
BRANCH  36  37
ATOM     37  C   UNL A   1      40.011  28.992  29.133  1.00  0.00     0.031 A 
ATOM     38  C   UNL A   1      40.921  30.018  29.752  1.00  0.00     0.074 A 
ATOM     39  C   UNL A   1      40.490  27.777  28.804  1.00  0.00     0.049 A 
ATOM     40  N   UNL A   1      42.196  29.929  30.034  1.00  0.00    -0.248 NA
ATOM     41  C   UNL A   1      40.325  31.326  30.072  1.00  0.00     0.031 C 
ATOM     42  C   UNL A   1      39.720  26.713  28.156  1.00  0.00     0.029 A 
ATOM     43  N   UNL A   1      41.742  27.235  28.954  1.00  0.00    -0.354 N 
ATOM     44  C   UNL A   1      42.559  31.170  30.545  1.00  0.00     0.074 A 
ATOM     45  C   UNL A   1      41.380  32.008  30.494  1.00  0.00     0.031 C 
ATOM     46  C   UNL A   1      40.513  25.643  27.976  1.00  0.00     0.029 A 
ATOM     47  C   UNL A   1      41.852  25.954  28.467  1.00  0.00     0.049 A 
ATOM     48  H   UNL A   1      42.490  27.718  29.372  1.00  0.00     0.167 HD
ATOM     49  C   UNL A   1      43.760  31.569  31.030  1.00  0.00     0.037 A 
ATOM     50  C   UNL A   1      42.913  25.126  28.415  1.00  0.00     0.037 A 
ATOM     51  C   UNL A   1      44.921  30.722  31.106  1.00  0.00     0.049 A 
ATOM     52  C   UNL A   1      44.230  25.582  28.978  1.00  0.00     0.074 A 
ATOM     53  C   UNL A   1      46.164  31.010  31.642  1.00  0.00     0.029 A 
ATOM     54  N   UNL A   1      44.984  29.418  30.634  1.00  0.00    -0.354 N 
ATOM     55  N   UNL A   1      44.539  26.738  29.515  1.00  0.00    -0.248 NA
ATOM     56  C   UNL A   1      45.341  24.621  28.935  1.00  0.00     0.031 C 
ATOM     57  C   UNL A   1      46.988  29.894  31.462  1.00  0.00     0.029 A 
ATOM     58  C   UNL A   1      46.248  28.896  30.850  1.00  0.00     0.049 A 
ATOM     59  H   UNL A   1      44.238  28.937  30.207  1.00  0.00     0.167 HD
ATOM     60  C   UNL A   1      45.873  26.636  29.895  1.00  0.00     0.074 A 
ATOM     61  C   UNL A   1      46.309  25.302  29.535  1.00  0.00     0.031 C 
ATOM     62  C   UNL A   1      46.664  27.564  30.489  1.00  0.00     0.037 A 
BRANCH  49  63
ATOM     63  C   UNL A   1      43.874  32.987  31.517  1.00  0.00     0.058 A 
ATOM     64  C   UNL A   1      43.654  33.324  32.863  1.00  0.00     0.135 A 
ATOM     65  C   UNL A   1      44.230  34.019  30.634  1.00  0.00     0.135 A 
ATOM     66  F   UNL A   1      43.299  32.379  33.747  1.00  0.00    -0.206 F 
ATOM     67  C   UNL A   1      43.746  34.638  33.308  1.00  0.00     0.059 A 
ATOM     68  C   UNL A   1      44.354  35.338  31.064  1.00  0.00     0.059 A 
ATOM     69  F   UNL A   1      44.454  33.754  29.338  1.00  0.00    -0.206 F 
ATOM     70  C   UNL A   1      44.093  35.640  32.399  1.00  0.00     0.060 A 
BRANCH  70  71
ATOM     71  S   UNL A   1      44.197  37.343  32.989  1.00  0.00     0.124 S 
ATOM     72  O   UNL A   1      42.958  37.462  33.752  1.00  0.00    -0.237 OA
ATOM     73  O   UNL A   1      45.426  37.328  33.776  1.00  0.00    -0.237 OA
ATOM     74  O   UNL A   1      44.254  38.125  31.759  1.00  0.00    -0.744 OA
ENDBRANCH  70  71
ENDBRANCH  49  63
BRANCH  50  75
ATOM     75  C   UNL A   1      42.759  23.768  27.829  1.00  0.00     0.058 A 
ATOM     76  C   UNL A   1      42.595  22.644  28.651  1.00  0.00     0.135 A 
ATOM     77  C   UNL A   1      42.742  23.573  26.438  1.00  0.00     0.135 A 
ATOM     78  F   UNL A   1      42.612  22.782  29.985  1.00  0.00    -0.206 F 
ATOM     79  C   UNL A   1      42.425  21.371  28.116  1.00  0.00     0.059 A 
ATOM     80  C   UNL A   1      42.552  22.313  25.881  1.00  0.00     0.059 A 
ATOM     81  F   UNL A   1      42.877  24.621  25.611  1.00  0.00    -0.206 F 
ATOM     82  C   UNL A   1      42.401  21.216  26.729  1.00  0.00     0.060 A 
BRANCH  82  83
ATOM     83  S   UNL A   1      42.111  19.570  26.046  1.00  0.00     0.124 S 
ATOM     84  O   UNL A   1      42.501  18.717  27.161  1.00  0.00    -0.237 OA
ATOM     85  O   UNL A   1      40.684  19.610  25.740  1.00  0.00    -0.237 OA
ATOM     86  O   UNL A   1      42.991  19.532  24.882  1.00  0.00    -0.744 OA
ENDBRANCH  82  83
ENDBRANCH  50  75
BRANCH  62  87
ATOM     87  C   UNL A   1      48.075  27.161  30.813  1.00  0.00     0.058 A 
ATOM     88  C   UNL A   1      48.378  26.385  31.942  1.00  0.00     0.135 A 
ATOM     89  C   UNL A   1      49.128  27.510  29.953  1.00  0.00     0.135 A 
ATOM     90  F   UNL A   1      47.407  26.030  32.798  1.00  0.00    -0.206 F 
ATOM     91  C   UNL A   1      49.681  25.987  32.220  1.00  0.00     0.059 A 
ATOM     92  C   UNL A   1      50.436  27.103  30.199  1.00  0.00     0.059 A 
ATOM     93  F   UNL A   1      48.889  28.244  28.854  1.00  0.00    -0.206 F 
ATOM     94  C   UNL A   1      50.705  26.351  31.341  1.00  0.00     0.060 A 
BRANCH  94  95
ATOM     95  S   UNL A   1      52.387  25.799  31.693  1.00  0.00     0.124 S 
ATOM     96  O   UNL A   1      53.017  25.924  30.382  1.00  0.00    -0.237 OA
ATOM     97  O   UNL A   1      52.828  26.756  32.701  1.00  0.00    -0.237 OA
ATOM     98  O   UNL A   1      52.202  24.433  32.174  1.00  0.00    -0.744 OA
ENDBRANCH  94  95
ENDBRANCH  62  87
ENDBRANCH  36  37
ENDBRANCH  28  31
ENDBRANCH  26  27
ENDBRANCH  25  26
ENDBRANCH  24  25
ENDBRANCH   1  24
TORSDOF 20
ENDMDL
