MODEL 1
REMARK VINA RESULT:     -12.4      0.000      0.000
REMARK SMILES O=C(NCCCCCCNC(=O)[C@H]1C[C@](O)(c2ccccc2Cl)[C@@H](c2ccccc2Cl)O1)c1ccc(-c2c3nc(c(-c4c(F)cc(S(=O)(=O)[O-])cc4F)c4ccc([nH]4)c(-c4c(F)cc(S(=O)(=O)[O-])cc4F)c4nc(c(-c5c(F)cc(S(=O)(=O)[O-])cc5F)c5ccc2[nH]5)C=C4)C=C3)cc1
REMARK SMILES IDX 5 1 4 2 3 3 1 4 2 5 33 7 34 8 98 9 35 10 97 11 36 12 37 13
REMARK SMILES IDX 38 14 91 15 39 16 96 17 90 18 92 19 40 20 95 21 89 22 88 23
REMARK SMILES IDX 41 25 75 26 54 27 74 28 55 29 58 30 73 31 93 32 56 33 57 34
REMARK SMILES IDX 72 36 94 37 59 38 42 39 43 40 52 41 44 42 45 43 51 44 53 45
REMARK SMILES IDX 46 46 47 47 48 48 49 49 50 50 76 51 77 52 86 53 78 54 79 55
REMARK SMILES IDX 85 56 87 57 80 58 81 59 82 60 83 61 84 62 60 63 61 64 70 65
REMARK SMILES IDX 62 66 63 67 69 68 71 69 64 70 65 71 66 72 67 73 68 74 6 75
REMARK SMILES IDX 7 76 8 77 9 78 10 79 11 80 12 82 13 83 14 84 32 85 15 86
REMARK SMILES IDX 24 87 17 88 18 89 22 90 19 91 21 92 23 93 20 94 16 95 25 97
REMARK SMILES IDX 26 98 30 99 27 100 29 101 31 102 28 103
REMARK H PARENT 3 6 92 24 58 35 10 81 16 96
REMARK Flexibility Score: inf
ROOT
ATOM      1  C   UNL A   1      39.038  22.575  26.371  1.00  0.00     0.021 C 
ENDROOT
BRANCH   1   2
ATOM      2  C   UNL A   1      40.119  23.461  26.981  1.00  0.00     0.116 C 
BRANCH   2   3
ATOM      3  N   UNL A   1      40.999  24.069  25.998  1.00  0.00    -0.352 N 
ATOM      4  O   UNL A   1      42.153  25.731  24.998  1.00  0.00    -0.269 OA
ATOM      5  C   UNL A   1      41.483  25.358  25.951  1.00  0.00     0.251 C 
ATOM      6  H   UNL A   1      41.290  23.480  25.265  1.00  0.00     0.163 HD
BRANCH   5   7
ATOM      7  C   UNL A   1      41.148  26.303  27.044  1.00  0.00     0.039 A 
ATOM      8  C   UNL A   1      41.825  27.517  27.174  1.00  0.00     0.014 A 
ATOM      9  C   UNL A   1      40.161  25.949  27.967  1.00  0.00     0.014 A 
ATOM     10  C   UNL A   1      41.632  28.295  28.311  1.00  0.00     0.010 A 
ATOM     11  C   UNL A   1      39.907  26.777  29.066  1.00  0.00     0.010 A 
ATOM     12  C   UNL A   1      40.672  27.935  29.271  1.00  0.00    -0.014 A 
BRANCH  12  13
ATOM     13  C   UNL A   1      40.474  28.802  30.464  1.00  0.00     0.031 A 
ATOM     14  C   UNL A   1      41.369  28.685  31.671  1.00  0.00     0.074 A 
ATOM     15  C   UNL A   1      39.501  29.734  30.434  1.00  0.00     0.049 A 
ATOM     16  N   UNL A   1      41.362  29.394  32.772  1.00  0.00    -0.248 NA
ATOM     17  C   UNL A   1      42.396  27.633  31.645  1.00  0.00     0.031 C 
ATOM     18  C   UNL A   1      38.559  29.932  29.328  1.00  0.00     0.029 A 
ATOM     19  N   UNL A   1      39.153  30.703  31.341  1.00  0.00    -0.354 N 
ATOM     20  C   UNL A   1      42.361  28.860  33.579  1.00  0.00     0.074 A 
ATOM     21  C   UNL A   1      42.941  27.753  32.849  1.00  0.00     0.031 C 
ATOM     22  C   UNL A   1      37.781  30.990  29.595  1.00  0.00     0.029 A 
ATOM     23  C   UNL A   1      38.128  31.512  30.912  1.00  0.00     0.049 A 
ATOM     24  H   UNL A   1      39.596  30.809  32.213  1.00  0.00     0.167 HD
ATOM     25  C   UNL A   1      42.760  29.260  34.812  1.00  0.00     0.037 A 
ATOM     26  C   UNL A   1      37.526  32.556  31.514  1.00  0.00     0.037 A 
ATOM     27  C   UNL A   1      42.196  30.381  35.521  1.00  0.00     0.049 A 
ATOM     28  C   UNL A   1      37.998  32.988  32.872  1.00  0.00     0.074 A 
ATOM     29  C   UNL A   1      42.559  30.890  36.756  1.00  0.00     0.029 A 
ATOM     30  N   UNL A   1      41.148  31.167  35.060  1.00  0.00    -0.354 N 
ATOM     31  N   UNL A   1      38.964  32.488  33.604  1.00  0.00    -0.248 NA
ATOM     32  C   UNL A   1      37.298  34.122  33.486  1.00  0.00     0.031 C 
ATOM     33  C   UNL A   1      41.709  31.960  37.058  1.00  0.00     0.029 A 
ATOM     34  C   UNL A   1      40.844  32.146  35.991  1.00  0.00     0.049 A 
ATOM     35  H   UNL A   1      40.690  31.046  34.197  1.00  0.00     0.167 HD
ATOM     36  C   UNL A   1      39.003  33.262  34.758  1.00  0.00     0.074 A 
ATOM     37  C   UNL A   1      37.972  34.272  34.618  1.00  0.00     0.031 C 
ATOM     38  C   UNL A   1      39.819  33.148  35.835  1.00  0.00     0.037 A 
BRANCH  25  39
ATOM     39  C   UNL A   1      43.850  28.471  35.486  1.00  0.00     0.058 A 
ATOM     40  C   UNL A   1      45.209  28.756  35.279  1.00  0.00     0.135 A 
ATOM     41  C   UNL A   1      43.528  27.439  36.383  1.00  0.00     0.135 A 
ATOM     42  F   UNL A   1      45.575  29.723  34.423  1.00  0.00    -0.206 F 
ATOM     43  C   UNL A   1      46.210  28.028  35.917  1.00  0.00     0.059 A 
ATOM     44  C   UNL A   1      44.512  26.714  37.051  1.00  0.00     0.059 A 
ATOM     45  F   UNL A   1      42.245  27.126  36.620  1.00  0.00    -0.206 F 
ATOM     46  C   UNL A   1      45.851  27.006  36.798  1.00  0.00     0.060 A 
BRANCH  46  47
ATOM     47  S   UNL A   1      47.162  26.069  37.615  1.00  0.00     0.124 S 
ATOM     48  O   UNL A   1      47.266  24.901  36.745  1.00  0.00    -0.237 OA
ATOM     49  O   UNL A   1      48.288  26.995  37.566  1.00  0.00    -0.237 OA
ATOM     50  O   UNL A   1      46.619  25.814  38.946  1.00  0.00    -0.744 OA
ENDBRANCH  46  47
ENDBRANCH  25  39
BRANCH  26  51
ATOM     51  C   UNL A   1      36.426  33.272  30.819  1.00  0.00     0.058 A 
ATOM     52  C   UNL A   1      35.093  33.116  31.227  1.00  0.00     0.135 A 
ATOM     53  C   UNL A   1      36.687  34.149  29.754  1.00  0.00     0.135 A 
ATOM     54  F   UNL A   1      34.793  32.287  32.238  1.00  0.00    -0.206 F 
ATOM     55  C   UNL A   1      34.055  33.795  30.597  1.00  0.00     0.059 A 
ATOM     56  C   UNL A   1      35.669  34.859  29.127  1.00  0.00     0.059 A 
ATOM     57  F   UNL A   1      37.948  34.347  29.341  1.00  0.00    -0.206 F 
ATOM     58  C   UNL A   1      34.355  34.667  29.549  1.00  0.00     0.060 A 
BRANCH  58  59
ATOM     59  S   UNL A   1      33.008  35.588  28.774  1.00  0.00     0.124 S 
ATOM     60  O   UNL A   1      32.355  34.546  27.991  1.00  0.00    -0.237 OA
ATOM     61  O   UNL A   1      32.266  36.080  29.931  1.00  0.00    -0.237 OA
ATOM     62  O   UNL A   1      33.706  36.615  28.005  1.00  0.00    -0.744 OA
ENDBRANCH  58  59
ENDBRANCH  26  51
BRANCH  38  63
ATOM     63  C   UNL A   1      39.653  34.165  36.928  1.00  0.00     0.058 A 
ATOM     64  C   UNL A   1      38.854  33.916  38.054  1.00  0.00     0.135 A 
ATOM     65  C   UNL A   1      40.318  35.399  36.855  1.00  0.00     0.135 A 
ATOM     66  F   UNL A   1      38.191  32.754  38.169  1.00  0.00    -0.206 F 
ATOM     67  C   UNL A   1      38.694  34.868  39.055  1.00  0.00     0.059 A 
ATOM     68  C   UNL A   1      40.193  36.356  37.856  1.00  0.00     0.059 A 
ATOM     69  F   UNL A   1      41.102  35.683  35.802  1.00  0.00    -0.206 F 
ATOM     70  C   UNL A   1      39.364  36.088  38.944  1.00  0.00     0.060 A 
BRANCH  70  71
ATOM     71  S   UNL A   1      39.159  37.315  40.252  1.00  0.00     0.124 S 
ATOM     72  O   UNL A   1      38.530  36.521  41.303  1.00  0.00    -0.237 OA
ATOM     73  O   UNL A   1      40.533  37.735  40.510  1.00  0.00    -0.237 OA
ATOM     74  O   UNL A   1      38.308  38.328  39.635  1.00  0.00    -0.744 OA
ENDBRANCH  70  71
ENDBRANCH  38  63
ENDBRANCH  12  13
ENDBRANCH   5   7
ENDBRANCH   2   3
ENDBRANCH   1   2
BRANCH   1  75
ATOM     75  C   UNL A   1      37.853  23.303  25.734  1.00  0.00     0.002 C 
BRANCH  75  76
ATOM     76  C   UNL A   1      36.841  22.427  24.989  1.00  0.00     0.002 C 
BRANCH  76  77
ATOM     77  C   UNL A   1      36.501  22.860  23.559  1.00  0.00     0.021 C 
BRANCH  77  78
ATOM     78  C   UNL A   1      35.111  23.469  23.381  1.00  0.00     0.116 C 
BRANCH  78  79
ATOM     79  N   UNL A   1      34.602  24.015  24.621  1.00  0.00    -0.354 N 
ATOM     80  C   UNL A   1      33.878  25.119  24.920  1.00  0.00     0.249 C 
ATOM     81  H   UNL A   1      34.829  23.470  25.410  1.00  0.00     0.163 HD
ATOM     82  O   UNL A   1      33.615  25.256  26.126  1.00  0.00    -0.272 OA
BRANCH  80  83
ATOM     83  C   UNL A   1      33.302  26.143  23.912  1.00  0.00     0.211 C 
ATOM     84  C   UNL A   1      31.824  26.341  23.711  1.00  0.00     0.085 C 
ATOM     85  O   UNL A   1      33.897  27.429  24.055  1.00  0.00    -0.357 OA
ATOM     86  C   UNL A   1      31.488  27.729  24.281  1.00  0.00     0.124 C 
ATOM     87  C   UNL A   1      32.890  28.429  24.342  1.00  0.00     0.187 C 
BRANCH  86  88
ATOM     88  C   UNL A   1      30.277  28.223  23.463  1.00  0.00     0.005 A 
ATOM     89  C   UNL A   1      30.452  29.458  22.773  1.00  0.00     0.008 A 
ATOM     90  C   UNL A   1      28.970  27.701  23.457  1.00  0.00     0.047 A 
ATOM     91  C   UNL A   1      29.414  30.114  22.107  1.00  0.00     0.001 A 
ATOM     92  C   UNL A   1      27.933  28.352  22.758  1.00  0.00     0.021 A 
ATOM     93  Cl  UNL A   1      28.455  26.328  24.362  1.00  0.00    -0.084 Cl
ATOM     94  C   UNL A   1      28.150  29.554  22.093  1.00  0.00     0.002 A 
ENDBRANCH  86  88
BRANCH  86  95
ATOM     95  O   UNL A   1      31.016  27.547  25.632  1.00  0.00    -0.382 OA
ATOM     96  H   UNL A   1      30.354  28.225  25.837  1.00  0.00     0.212 HD
ENDBRANCH  86  95
BRANCH  87  97
ATOM     97  C   UNL A   1      33.309  29.104  25.650  1.00  0.00     0.003 A 
ATOM     98  C   UNL A   1      34.429  28.629  26.368  1.00  0.00     0.008 A 
ATOM     99  C   UNL A   1      32.660  30.239  26.158  1.00  0.00     0.046 A 
ATOM    100  C   UNL A   1      34.891  29.259  27.524  1.00  0.00     0.000 A 
ATOM    101  C   UNL A   1      33.135  30.884  27.310  1.00  0.00     0.021 A 
ATOM    102  Cl  UNL A   1      31.259  30.907  25.402  1.00  0.00    -0.084 Cl
ATOM    103  C   UNL A   1      34.250  30.397  27.991  1.00  0.00     0.002 A 
ENDBRANCH  87  97
ENDBRANCH  80  83
ENDBRANCH  78  79
ENDBRANCH  77  78
ENDBRANCH  76  77
ENDBRANCH  75  76
ENDBRANCH   1  75
TORSDOF 19
ENDMDL
MODEL 2
REMARK VINA RESULT:     -12.4      2.306      4.238
REMARK SMILES O=C(NCCCCCCNC(=O)[C@H]1C[C@](O)(c2ccccc2Cl)[C@@H](c2ccccc2Cl)O1)c1ccc(-c2c3nc(c(-c4c(F)cc(S(=O)(=O)[O-])cc4F)c4ccc([nH]4)c(-c4c(F)cc(S(=O)(=O)[O-])cc4F)c4nc(c(-c5c(F)cc(S(=O)(=O)[O-])cc5F)c5ccc2[nH]5)C=C4)C=C3)cc1
REMARK SMILES IDX 5 1 4 2 3 3 1 4 2 5 33 7 34 8 98 9 35 10 97 11 36 12 37 13
REMARK SMILES IDX 38 14 91 15 39 16 96 17 90 18 92 19 40 20 95 21 89 22 88 23
REMARK SMILES IDX 41 25 75 26 54 27 74 28 55 29 58 30 73 31 93 32 56 33 57 34
REMARK SMILES IDX 72 36 94 37 59 38 42 39 43 40 52 41 44 42 45 43 51 44 53 45
REMARK SMILES IDX 46 46 47 47 48 48 49 49 50 50 76 51 77 52 86 53 78 54 79 55
REMARK SMILES IDX 85 56 87 57 80 58 81 59 82 60 83 61 84 62 60 63 61 64 70 65
REMARK SMILES IDX 62 66 63 67 69 68 71 69 64 70 65 71 66 72 67 73 68 74 6 75
REMARK SMILES IDX 7 76 8 77 9 78 10 79 11 80 12 82 13 83 14 84 32 85 15 86
REMARK SMILES IDX 24 87 17 88 18 89 22 90 19 91 21 92 23 93 20 94 16 95 25 97
REMARK SMILES IDX 26 98 30 99 27 100 29 101 31 102 28 103
REMARK H PARENT 3 6 92 24 58 35 10 81 16 96
REMARK Flexibility Score: inf
ROOT
ATOM      1  C   UNL A   1      44.210  22.653  26.532  1.00  0.00     0.021 C 
ENDROOT
BRANCH   1   2
ATOM      2  C   UNL A   1      43.615  24.034  26.787  1.00  0.00     0.116 C 
BRANCH   2   3
ATOM      3  N   UNL A   1      42.551  24.391  25.864  1.00  0.00    -0.352 N 
ATOM      4  O   UNL A   1      40.651  25.401  25.184  1.00  0.00    -0.269 OA
ATOM      5  C   UNL A   1      41.514  25.281  26.042  1.00  0.00     0.251 C 
ATOM      6  H   UNL A   1      42.574  23.935  24.992  1.00  0.00     0.163 HD
BRANCH   5   7
ATOM      7  C   UNL A   1      41.431  26.060  27.301  1.00  0.00     0.039 A 
ATOM      8  C   UNL A   1      40.555  25.683  28.321  1.00  0.00     0.014 A 
ATOM      9  C   UNL A   1      42.222  27.203  27.444  1.00  0.00     0.014 A 
ATOM     10  C   UNL A   1      40.352  26.531  29.404  1.00  0.00     0.010 A 
ATOM     11  C   UNL A   1      42.077  28.011  28.578  1.00  0.00     0.010 A 
ATOM     12  C   UNL A   1      41.110  27.706  29.547  1.00  0.00    -0.014 A 
BRANCH  12  13
ATOM     13  C   UNL A   1      40.884  28.579  30.729  1.00  0.00     0.031 A 
ATOM     14  C   UNL A   1      41.774  28.495  31.942  1.00  0.00     0.074 A 
ATOM     15  C   UNL A   1      39.889  29.487  30.684  1.00  0.00     0.049 A 
ATOM     16  N   UNL A   1      41.743  29.215  33.036  1.00  0.00    -0.248 NA
ATOM     17  C   UNL A   1      42.825  27.468  31.934  1.00  0.00     0.031 C 
ATOM     18  C   UNL A   1      38.951  29.653  29.570  1.00  0.00     0.029 A 
ATOM     19  N   UNL A   1      39.513  30.457  31.579  1.00  0.00    -0.354 N 
ATOM     20  C   UNL A   1      42.749  28.712  33.855  1.00  0.00     0.074 A 
ATOM     21  C   UNL A   1      43.360  27.613  33.140  1.00  0.00     0.031 C 
ATOM     22  C   UNL A   1      38.146  30.695  29.822  1.00  0.00     0.029 A 
ATOM     23  C   UNL A   1      38.472  31.237  31.136  1.00  0.00     0.049 A 
ATOM     24  H   UNL A   1      39.948  30.581  32.453  1.00  0.00     0.167 HD
ATOM     25  C   UNL A   1      43.131  29.134  35.086  1.00  0.00     0.037 A 
ATOM     26  C   UNL A   1      37.842  32.273  31.723  1.00  0.00     0.037 A 
ATOM     27  C   UNL A   1      42.536  30.248  35.781  1.00  0.00     0.049 A 
ATOM     28  C   UNL A   1      38.295  32.729  33.081  1.00  0.00     0.074 A 
ATOM     29  C   UNL A   1      42.880  30.778  37.013  1.00  0.00     0.029 A 
ATOM     30  N   UNL A   1      41.473  31.004  35.305  1.00  0.00    -0.354 N 
ATOM     31  N   UNL A   1      39.268  32.259  33.823  1.00  0.00    -0.248 NA
ATOM     32  C   UNL A   1      37.565  33.852  33.679  1.00  0.00     0.031 C 
ATOM     33  C   UNL A   1      42.002  31.830  37.299  1.00  0.00     0.029 A 
ATOM     34  C   UNL A   1      41.141  31.985  36.225  1.00  0.00     0.049 A 
ATOM     35  H   UNL A   1      41.024  30.865  34.441  1.00  0.00     0.167 HD
ATOM     36  C   UNL A   1      39.281  33.045  34.969  1.00  0.00     0.074 A 
ATOM     37  C   UNL A   1      38.228  34.029  34.813  1.00  0.00     0.031 C 
ATOM     38  C   UNL A   1      40.093  32.961  36.053  1.00  0.00     0.037 A 
BRANCH  25  39
ATOM     39  C   UNL A   1      44.235  28.378  35.775  1.00  0.00     0.058 A 
ATOM     40  C   UNL A   1      45.586  28.725  35.614  1.00  0.00     0.135 A 
ATOM     41  C   UNL A   1      43.933  27.312  36.640  1.00  0.00     0.135 A 
ATOM     42  F   UNL A   1      45.933  29.726  34.790  1.00  0.00    -0.206 F 
ATOM     43  C   UNL A   1      46.599  28.027  36.265  1.00  0.00     0.059 A 
ATOM     44  C   UNL A   1      44.929  26.615  37.320  1.00  0.00     0.059 A 
ATOM     45  F   UNL A   1      42.659  26.939  36.833  1.00  0.00    -0.206 F 
ATOM     46  C   UNL A   1      46.261  26.971  37.114  1.00  0.00     0.060 A 
BRANCH  46  47
ATOM     47  S   UNL A   1      47.587  26.073  37.947  1.00  0.00     0.124 S 
ATOM     48  O   UNL A   1      48.228  27.142  38.706  1.00  0.00    -0.237 OA
ATOM     49  O   UNL A   1      46.854  25.089  38.736  1.00  0.00    -0.237 OA
ATOM     50  O   UNL A   1      48.374  25.528  36.845  1.00  0.00    -0.744 OA
ENDBRANCH  46  47
ENDBRANCH  25  39
BRANCH  26  51
ATOM     51  C   UNL A   1      36.729  32.955  31.015  1.00  0.00     0.058 A 
ATOM     52  C   UNL A   1      35.399  32.783  31.424  1.00  0.00     0.135 A 
ATOM     53  C   UNL A   1      36.976  33.818  29.935  1.00  0.00     0.135 A 
ATOM     54  F   UNL A   1      35.114  31.966  32.450  1.00  0.00    -0.206 F 
ATOM     55  C   UNL A   1      34.350  33.430  30.781  1.00  0.00     0.059 A 
ATOM     56  C   UNL A   1      35.946  34.498  29.294  1.00  0.00     0.059 A 
ATOM     57  F   UNL A   1      38.234  34.031  29.519  1.00  0.00    -0.206 F 
ATOM     58  C   UNL A   1      34.635  34.290  29.718  1.00  0.00     0.060 A 
BRANCH  58  59
ATOM     59  S   UNL A   1      33.273  35.171  28.925  1.00  0.00     0.124 S 
ATOM     60  O   UNL A   1      32.407  35.454  30.062  1.00  0.00    -0.237 OA
ATOM     61  O   UNL A   1      33.952  36.322  28.336  1.00  0.00    -0.237 OA
ATOM     62  O   UNL A   1      32.761  34.197  27.964  1.00  0.00    -0.744 OA
ENDBRANCH  58  59
ENDBRANCH  26  51
BRANCH  38  63
ATOM     63  C   UNL A   1      39.896  33.985  37.135  1.00  0.00     0.058 A 
ATOM     64  C   UNL A   1      40.477  35.259  37.059  1.00  0.00     0.135 A 
ATOM     65  C   UNL A   1      39.100  33.691  38.252  1.00  0.00     0.135 A 
ATOM     66  F   UNL A   1      41.254  35.588  36.015  1.00  0.00    -0.206 F 
ATOM     67  C   UNL A   1      40.303  36.197  38.072  1.00  0.00     0.059 A 
ATOM     68  C   UNL A   1      38.890  34.621  39.264  1.00  0.00     0.059 A 
ATOM     69  F   UNL A   1      38.513  32.488  38.367  1.00  0.00    -0.206 F 
ATOM     70  C   UNL A   1      39.510  35.866  39.173  1.00  0.00     0.060 A 
BRANCH  70  71
ATOM     71  S   UNL A   1      39.280  37.092  40.478  1.00  0.00     0.124 S 
ATOM     72  O   UNL A   1      38.451  38.085  39.804  1.00  0.00    -0.237 OA
ATOM     73  O   UNL A   1      38.619  36.318  41.525  1.00  0.00    -0.237 OA
ATOM     74  O   UNL A   1      40.642  37.516  40.788  1.00  0.00    -0.744 OA
ENDBRANCH  70  71
ENDBRANCH  38  63
ENDBRANCH  12  13
ENDBRANCH   5   7
ENDBRANCH   2   3
ENDBRANCH   1   2
BRANCH   1  75
ATOM     75  C   UNL A   1      43.207  21.521  26.307  1.00  0.00     0.002 C 
BRANCH  75  76
ATOM     76  C   UNL A   1      42.447  21.032  27.546  1.00  0.00     0.002 C 
BRANCH  76  77
ATOM     77  C   UNL A   1      41.120  21.737  27.843  1.00  0.00     0.021 C 
BRANCH  77  78
ATOM     78  C   UNL A   1      40.048  21.578  26.767  1.00  0.00     0.116 C 
BRANCH  78  79
ATOM     79  N   UNL A   1      39.185  22.739  26.694  1.00  0.00    -0.354 N 
ATOM     80  C   UNL A   1      38.095  23.039  25.948  1.00  0.00     0.249 C 
ATOM     81  H   UNL A   1      39.444  23.458  27.315  1.00  0.00     0.163 HD
ATOM     82  O   UNL A   1      37.604  24.156  26.175  1.00  0.00    -0.272 OA
BRANCH  80  83
ATOM     83  C   UNL A   1      37.391  22.108  24.932  1.00  0.00     0.211 C 
ATOM     84  C   UNL A   1      36.485  20.982  25.356  1.00  0.00     0.085 C 
ATOM     85  O   UNL A   1      36.724  22.838  23.907  1.00  0.00    -0.357 OA
ATOM     86  C   UNL A   1      35.061  21.390  24.947  1.00  0.00     0.124 C 
ATOM     87  C   UNL A   1      35.312  22.519  23.887  1.00  0.00     0.187 C 
BRANCH  86  88
ATOM     88  C   UNL A   1      34.317  20.064  24.682  1.00  0.00     0.005 A 
ATOM     89  C   UNL A   1      35.128  18.892  24.641  1.00  0.00     0.008 A 
ATOM     90  C   UNL A   1      32.974  19.891  24.302  1.00  0.00     0.047 A 
ATOM     91  C   UNL A   1      34.636  17.637  24.273  1.00  0.00     0.001 A 
ATOM     92  C   UNL A   1      32.476  18.617  23.960  1.00  0.00     0.021 A 
ATOM     93  Cl  UNL A   1      31.838  21.170  24.091  1.00  0.00    -0.084 Cl
ATOM     94  C   UNL A   1      33.301  17.498  23.938  1.00  0.00     0.002 A 
ENDBRANCH  86  88
BRANCH  86  95
ATOM     95  O   UNL A   1      34.427  21.987  26.097  1.00  0.00    -0.382 OA
ATOM     96  H   UNL A   1      33.879  22.735  25.812  1.00  0.00     0.212 HD
ENDBRANCH  86  95
BRANCH  87  97
ATOM     97  C   UNL A   1      34.565  23.844  24.044  1.00  0.00     0.003 A 
ATOM     98  C   UNL A   1      34.785  24.654  25.181  1.00  0.00     0.008 A 
ATOM     99  C   UNL A   1      33.692  24.342  23.066  1.00  0.00     0.046 A 
ATOM    100  C   UNL A   1      34.183  25.904  25.330  1.00  0.00     0.000 A 
ATOM    101  C   UNL A   1      33.100  25.607  23.206  1.00  0.00     0.021 A 
ATOM    102  Cl  UNL A   1      33.304  23.445  21.643  1.00  0.00    -0.084 Cl
ATOM    103  C   UNL A   1      33.347  26.387  24.335  1.00  0.00     0.002 A 
ENDBRANCH  87  97
ENDBRANCH  80  83
ENDBRANCH  78  79
ENDBRANCH  77  78
ENDBRANCH  76  77
ENDBRANCH  75  76
ENDBRANCH   1  75
TORSDOF 19
ENDMDL
MODEL 3
REMARK VINA RESULT:     -12.3      4.871     10.486
REMARK SMILES O=C(NCCCCCCNC(=O)[C@H]1C[C@](O)(c2ccccc2Cl)[C@@H](c2ccccc2Cl)O1)c1ccc(-c2c3nc(c(-c4c(F)cc(S(=O)(=O)[O-])cc4F)c4ccc([nH]4)c(-c4c(F)cc(S(=O)(=O)[O-])cc4F)c4nc(c(-c5c(F)cc(S(=O)(=O)[O-])cc5F)c5ccc2[nH]5)C=C4)C=C3)cc1
REMARK SMILES IDX 5 1 4 2 3 3 1 4 2 5 33 7 34 8 98 9 35 10 97 11 36 12 37 13
REMARK SMILES IDX 38 14 91 15 39 16 96 17 90 18 92 19 40 20 95 21 89 22 88 23
REMARK SMILES IDX 41 25 75 26 54 27 74 28 55 29 58 30 73 31 93 32 56 33 57 34
REMARK SMILES IDX 72 36 94 37 59 38 42 39 43 40 52 41 44 42 45 43 51 44 53 45
REMARK SMILES IDX 46 46 47 47 48 48 49 49 50 50 76 51 77 52 86 53 78 54 79 55
REMARK SMILES IDX 85 56 87 57 80 58 81 59 82 60 83 61 84 62 60 63 61 64 70 65
REMARK SMILES IDX 62 66 63 67 69 68 71 69 64 70 65 71 66 72 67 73 68 74 6 75
REMARK SMILES IDX 7 76 8 77 9 78 10 79 11 80 12 82 13 83 14 84 32 85 15 86
REMARK SMILES IDX 24 87 17 88 18 89 22 90 19 91 21 92 23 93 20 94 16 95 25 97
REMARK SMILES IDX 26 98 30 99 27 100 29 101 31 102 28 103
REMARK H PARENT 3 6 92 24 58 35 10 81 16 96
REMARK Flexibility Score: inf
ROOT
ATOM      1  C   UNL A   1      32.914  28.031  25.825  1.00  0.00     0.021 C 
ENDROOT
BRANCH   1   2
ATOM      2  C   UNL A   1      33.715  28.350  27.082  1.00  0.00     0.116 C 
BRANCH   2   3
ATOM      3  N   UNL A   1      33.551  29.717  27.548  1.00  0.00    -0.352 N 
ATOM      4  O   UNL A   1      34.140  31.643  28.566  1.00  0.00    -0.269 OA
ATOM      5  C   UNL A   1      34.473  30.538  28.159  1.00  0.00     0.251 C 
ATOM      6  H   UNL A   1      32.660  30.109  27.408  1.00  0.00     0.163 HD
BRANCH   5   7
ATOM      7  C   UNL A   1      35.861  30.056  28.358  1.00  0.00     0.039 A 
ATOM      8  C   UNL A   1      36.277  29.561  29.595  1.00  0.00     0.014 A 
ATOM      9  C   UNL A   1      36.764  30.131  27.293  1.00  0.00     0.014 A 
ATOM     10  C   UNL A   1      37.625  29.296  29.813  1.00  0.00     0.010 A 
ATOM     11  C   UNL A   1      38.104  29.782  27.493  1.00  0.00     0.010 A 
ATOM     12  C   UNL A   1      38.556  29.404  28.766  1.00  0.00    -0.014 A 
BRANCH  12  13
ATOM     13  C   UNL A   1      39.986  29.092  29.028  1.00  0.00     0.031 A 
ATOM     14  C   UNL A   1      40.885  30.078  29.728  1.00  0.00     0.074 A 
ATOM     15  C   UNL A   1      40.463  27.884  28.666  1.00  0.00     0.049 A 
ATOM     16  N   UNL A   1      42.141  29.945  30.074  1.00  0.00    -0.248 NA
ATOM     17  C   UNL A   1      40.307  31.385  30.075  1.00  0.00     0.031 C 
ATOM     18  C   UNL A   1      39.693  26.851  27.968  1.00  0.00     0.029 A 
ATOM     19  N   UNL A   1      41.694  27.309  28.854  1.00  0.00    -0.354 N 
ATOM     20  C   UNL A   1      42.511  31.154  30.654  1.00  0.00     0.074 A 
ATOM     21  C   UNL A   1      41.350  32.018  30.595  1.00  0.00     0.031 C 
ATOM     22  C   UNL A   1      40.449  25.751  27.836  1.00  0.00     0.029 A 
ATOM     23  C   UNL A   1      41.772  26.018  28.388  1.00  0.00     0.049 A 
ATOM     24  H   UNL A   1      42.448  27.775  29.281  1.00  0.00     0.167 HD
ATOM     25  C   UNL A   1      43.704  31.508  31.191  1.00  0.00     0.037 A 
ATOM     26  C   UNL A   1      42.797  25.143  28.399  1.00  0.00     0.037 A 
ATOM     27  C   UNL A   1      44.847  30.634  31.271  1.00  0.00     0.049 A 
ATOM     28  C   UNL A   1      44.103  25.556  29.012  1.00  0.00     0.074 A 
ATOM     29  C   UNL A   1      46.087  30.885  31.833  1.00  0.00     0.029 A 
ATOM     30  N   UNL A   1      44.891  29.338  30.775  1.00  0.00    -0.354 N 
ATOM     31  N   UNL A   1      44.421  26.693  29.583  1.00  0.00    -0.248 NA
ATOM     32  C   UNL A   1      45.189  24.569  28.984  1.00  0.00     0.031 C 
ATOM     33  C   UNL A   1      46.893  29.756  31.644  1.00  0.00     0.029 A 
ATOM     34  C   UNL A   1      46.141  28.784  31.005  1.00  0.00     0.049 A 
ATOM     35  H   UNL A   1      44.145  28.879  30.326  1.00  0.00     0.167 HD
ATOM     36  C   UNL A   1      45.739  26.551  30.000  1.00  0.00     0.074 A 
ATOM     37  C   UNL A   1      46.152  25.212  29.630  1.00  0.00     0.031 C 
ATOM     38  C   UNL A   1      46.534  27.447  30.635  1.00  0.00     0.037 A 
BRANCH  25  39
ATOM     39  C   UNL A   1      43.847  32.910  31.720  1.00  0.00     0.058 A 
ATOM     40  C   UNL A   1      44.325  33.960  30.921  1.00  0.00     0.135 A 
ATOM     41  C   UNL A   1      43.461  33.215  33.037  1.00  0.00     0.135 A 
ATOM     42  F   UNL A   1      44.719  33.725  29.659  1.00  0.00    -0.206 F 
ATOM     43  C   UNL A   1      44.442  35.257  31.416  1.00  0.00     0.059 A 
ATOM     44  C   UNL A   1      43.546  34.509  33.545  1.00  0.00     0.059 A 
ATOM     45  F   UNL A   1      42.995  32.249  33.844  1.00  0.00    -0.206 F 
ATOM     46  C   UNL A   1      44.053  35.520  32.731  1.00  0.00     0.060 A 
BRANCH  46  47
ATOM     47  S   UNL A   1      44.214  37.206  33.359  1.00  0.00     0.124 S 
ATOM     48  O   UNL A   1      45.635  37.256  33.688  1.00  0.00    -0.237 OA
ATOM     49  O   UNL A   1      43.801  38.009  32.213  1.00  0.00    -0.237 OA
ATOM     50  O   UNL A   1      43.304  37.231  34.500  1.00  0.00    -0.744 OA
ENDBRANCH  46  47
ENDBRANCH  25  39
BRANCH  26  51
ATOM     51  C   UNL A   1      42.612  23.787  27.823  1.00  0.00     0.058 A 
ATOM     52  C   UNL A   1      42.412  22.672  28.650  1.00  0.00     0.135 A 
ATOM     53  C   UNL A   1      42.601  23.582  26.434  1.00  0.00     0.135 A 
ATOM     54  F   UNL A   1      42.418  22.817  29.984  1.00  0.00    -0.206 F 
ATOM     55  C   UNL A   1      42.220  21.399  28.123  1.00  0.00     0.059 A 
ATOM     56  C   UNL A   1      42.383  22.324  25.883  1.00  0.00     0.059 A 
ATOM     57  F   UNL A   1      42.768  24.621  25.601  1.00  0.00    -0.206 F 
ATOM     58  C   UNL A   1      42.204  21.237  26.736  1.00  0.00     0.060 A 
BRANCH  58  59
ATOM     59  S   UNL A   1      41.897  19.592  26.059  1.00  0.00     0.124 S 
ATOM     60  O   UNL A   1      40.458  19.634  25.828  1.00  0.00    -0.237 OA
ATOM     61  O   UNL A   1      42.736  19.589  24.863  1.00  0.00    -0.237 OA
ATOM     62  O   UNL A   1      42.343  18.703  27.128  1.00  0.00    -0.744 OA
ENDBRANCH  58  59
ENDBRANCH  26  51
BRANCH  38  63
ATOM     63  C   UNL A   1      47.919  26.992  31.002  1.00  0.00     0.058 A 
ATOM     64  C   UNL A   1      48.981  27.049  30.087  1.00  0.00     0.135 A 
ATOM     65  C   UNL A   1      48.187  26.510  32.292  1.00  0.00     0.135 A 
ATOM     66  F   UNL A   1      48.775  27.495  28.838  1.00  0.00    -0.206 F 
ATOM     67  C   UNL A   1      50.257  26.612  30.430  1.00  0.00     0.059 A 
ATOM     68  C   UNL A   1      49.460  26.092  32.665  1.00  0.00     0.059 A 
ATOM     69  F   UNL A   1      47.207  26.443  33.207  1.00  0.00    -0.206 F 
ATOM     70  C   UNL A   1      50.485  26.131  31.720  1.00  0.00     0.060 A 
BRANCH  70  71
ATOM     71  S   UNL A   1      52.145  25.575  32.160  1.00  0.00     0.124 S 
ATOM     72  O   UNL A   1      52.003  24.126  32.069  1.00  0.00    -0.237 OA
ATOM     73  O   UNL A   1      52.970  26.198  31.129  1.00  0.00    -0.237 OA
ATOM     74  O   UNL A   1      52.333  26.104  33.507  1.00  0.00    -0.744 OA
ENDBRANCH  70  71
ENDBRANCH  38  63
ENDBRANCH  12  13
ENDBRANCH   5   7
ENDBRANCH   2   3
ENDBRANCH   1   2
BRANCH   1  75
ATOM     75  C   UNL A   1      33.696  28.039  24.510  1.00  0.00     0.002 C 
BRANCH  75  76
ATOM     76  C   UNL A   1      33.314  26.964  23.487  1.00  0.00     0.002 C 
BRANCH  76  77
ATOM     77  C   UNL A   1      33.849  25.555  23.760  1.00  0.00     0.021 C 
BRANCH  77  78
ATOM     78  C   UNL A   1      32.783  24.504  24.061  1.00  0.00     0.116 C 
BRANCH  78  79
ATOM     79  N   UNL A   1      32.192  24.699  25.369  1.00  0.00    -0.354 N 
ATOM     80  C   UNL A   1      31.871  23.854  26.378  1.00  0.00     0.249 C 
ATOM     81  H   UNL A   1      31.980  25.641  25.565  1.00  0.00     0.163 HD
ATOM     82  O   UNL A   1      31.377  24.403  27.375  1.00  0.00    -0.272 OA
BRANCH  80  83
ATOM     83  C   UNL A   1      32.136  22.330  26.419  1.00  0.00     0.211 C 
ATOM     84  C   UNL A   1      31.952  21.441  25.218  1.00  0.00     0.085 C 
ATOM     85  O   UNL A   1      33.400  22.020  26.999  1.00  0.00    -0.357 OA
ATOM     86  C   UNL A   1      33.357  20.992  24.788  1.00  0.00     0.124 C 
ATOM     87  C   UNL A   1      34.221  21.276  26.067  1.00  0.00     0.187 C 
BRANCH  86  88
ATOM     88  C   UNL A   1      33.160  19.610  24.131  1.00  0.00     0.005 A 
ATOM     89  C   UNL A   1      33.857  18.525  24.740  1.00  0.00     0.008 A 
ATOM     90  C   UNL A   1      32.526  19.319  22.909  1.00  0.00     0.047 A 
ATOM     91  C   UNL A   1      33.901  17.242  24.190  1.00  0.00     0.001 A 
ATOM     92  C   UNL A   1      32.549  18.015  22.373  1.00  0.00     0.021 A 
ATOM     93  Cl  UNL A   1      31.778  20.487  21.886  1.00  0.00    -0.084 Cl
ATOM     94  C   UNL A   1      33.237  16.984  23.004  1.00  0.00     0.002 A 
ENDBRANCH  86  88
BRANCH  86  95
ATOM     95  O   UNL A   1      33.801  21.878  23.740  1.00  0.00    -0.382 OA
ATOM     96  H   UNL A   1      34.625  22.311  24.011  1.00  0.00     0.212 HD
ENDBRANCH  86  95
BRANCH  87  97
ATOM     97  C   UNL A   1      35.521  22.067  25.906  1.00  0.00     0.003 A 
ATOM     98  C   UNL A   1      35.571  23.433  26.263  1.00  0.00     0.008 A 
ATOM     99  C   UNL A   1      36.715  21.478  25.466  1.00  0.00     0.046 A 
ATOM    100  C   UNL A   1      36.752  24.172  26.204  1.00  0.00     0.000 A 
ATOM    101  C   UNL A   1      37.908  22.216  25.423  1.00  0.00     0.021 A 
ATOM    102  Cl  UNL A   1      36.792  19.828  24.965  1.00  0.00    -0.084 Cl
ATOM    103  C   UNL A   1      37.927  23.561  25.793  1.00  0.00     0.002 A 
ENDBRANCH  87  97
ENDBRANCH  80  83
ENDBRANCH  78  79
ENDBRANCH  77  78
ENDBRANCH  76  77
ENDBRANCH  75  76
ENDBRANCH   1  75
TORSDOF 19
ENDMDL
