MODEL 1
REMARK VINA RESULT:     -10.3      0.000      0.000
REMARK SMILES C=CCN(CC(=O)NCCCCCCNC(=O)c1ccc(-c2c3nc(c(-c4c(F)cc(S(=O)(=O)[O-])cc4F)c4ccc([nH]4)c(-c4c(F)cc(S(=O)(=O)[O-])cc4F)c4nc(c(-c5c(F)cc(S(=O)(=O)[O-])cc5F)c5ccc2[nH]5)C=C4)C=C3)cc1)C(=O)c1cc(OC)ccc1Br
REMARK SMILES IDX 11 1 10 2 9 3 8 4 6 5 7 6 5 8 4 9 3 10 2 11 1 12 84 13 85 14
REMARK SMILES IDX 86 15 87 16 93 17 88 18 92 19 94 20 91 21 89 22 90 23 12 24
REMARK SMILES IDX 13 25 14 26 15 27 16 28 17 30 18 31 19 32 83 33 20 34 82 35
REMARK SMILES IDX 21 36 22 37 23 38 76 39 24 40 81 41 75 42 77 43 25 44 80 45
REMARK SMILES IDX 74 46 73 47 26 49 60 50 39 51 59 52 40 53 43 54 58 55 78 56
REMARK SMILES IDX 41 57 42 58 57 60 79 61 44 62 27 63 28 64 37 65 29 66 30 67
REMARK SMILES IDX 36 68 38 69 31 70 32 71 33 72 34 73 35 74 61 75 62 76 71 77
REMARK SMILES IDX 63 78 64 79 70 80 72 81 65 82 66 83 67 84 68 85 69 86 45 87
REMARK SMILES IDX 46 88 55 89 47 90 48 91 54 92 56 93 49 94 50 95 51 96 52 97
REMARK SMILES IDX 53 98
REMARK H PARENT 8 7 15 29 77 48 43 59
REMARK Flexibility Score: inf
ROOT
ATOM      1  C   UNL A   1      32.502  30.406  26.276  1.00  0.00     0.002 C 
ENDROOT
BRANCH   1   2
ATOM      2  C   UNL A   1      33.163  29.395  25.328  1.00  0.00     0.021 C 
BRANCH   2   3
ATOM      3  C   UNL A   1      32.214  28.755  24.315  1.00  0.00     0.116 C 
BRANCH   3   4
ATOM      4  N   UNL A   1      32.865  28.331  23.092  1.00  0.00    -0.355 N 
ATOM      5  C   UNL A   1      33.439  27.149  22.731  1.00  0.00     0.239 C 
ATOM      6  O   UNL A   1      33.728  27.016  21.535  1.00  0.00    -0.273 OA
ATOM      7  H   UNL A   1      32.899  29.023  22.393  1.00  0.00     0.163 HD
BRANCH   5   8
ATOM      8  C   UNL A   1      33.608  25.956  23.690  1.00  0.00     0.220 C 
BRANCH   8   9
ATOM      9  N   UNL A   1      32.949  24.693  23.332  1.00  0.00    -0.326 N 
BRANCH   9  10
ATOM     10  C   UNL A   1      31.494  24.633  23.471  1.00  0.00     0.147 C 
BRANCH  10  11
ATOM     11  C   UNL A   1      31.087  23.909  24.718  1.00  0.00    -0.014 C 
ATOM     12  C   UNL A   1      31.099  24.485  25.928  1.00  0.00     0.006 C 
ENDBRANCH  10  11
ENDBRANCH   9  10
BRANCH   9  13
ATOM     13  C   UNL A   1      33.614  23.576  22.799  1.00  0.00     0.255 C 
ATOM     14  O   UNL A   1      33.680  23.344  21.594  1.00  0.00    -0.269 OA
BRANCH  13  15
ATOM     15  C   UNL A   1      34.349  22.648  23.698  1.00  0.00     0.057 A 
ATOM     16  C   UNL A   1      35.709  22.903  23.928  1.00  0.00     0.061 A 
ATOM     17  C   UNL A   1      33.809  21.458  24.190  1.00  0.00     0.031 A 
ATOM     18  C   UNL A   1      36.462  22.018  24.708  1.00  0.00     0.119 A 
ATOM     19  C   UNL A   1      34.508  20.691  25.124  1.00  0.00     0.020 A 
ATOM     20  Br  UNL A   1      32.295  20.617  23.452  1.00  0.00    -0.050 Br
ATOM     21  C   UNL A   1      35.834  20.984  25.400  1.00  0.00     0.047 A 
BRANCH  18  22
ATOM     22  O   UNL A   1      37.822  22.189  24.724  1.00  0.00    -0.497 OA
ATOM     23  C   UNL A   1      38.298  22.701  25.975  1.00  0.00     0.278 C 
ENDBRANCH  18  22
ENDBRANCH  13  15
ENDBRANCH   9  13
ENDBRANCH   8   9
ENDBRANCH   5   8
ENDBRANCH   3   4
ENDBRANCH   2   3
ENDBRANCH   1   2
BRANCH   1  24
ATOM     24  C   UNL A   1      33.224  30.651  27.599  1.00  0.00     0.002 C 
BRANCH  24  25
ATOM     25  C   UNL A   1      34.731  30.846  27.478  1.00  0.00     0.021 C 
BRANCH  25  26
ATOM     26  C   UNL A   1      35.552  29.985  28.431  1.00  0.00     0.116 C 
BRANCH  26  27
ATOM     27  N   UNL A   1      35.521  30.495  29.794  1.00  0.00    -0.352 N 
ATOM     28  C   UNL A   1      36.530  30.543  30.722  1.00  0.00     0.251 C 
ATOM     29  H   UNL A   1      34.655  30.855  30.092  1.00  0.00     0.163 HD
ATOM     30  O   UNL A   1      36.275  30.804  31.899  1.00  0.00    -0.269 OA
BRANCH  28  31
ATOM     31  C   UNL A   1      37.920  30.258  30.310  1.00  0.00     0.039 A 
ATOM     32  C   UNL A   1      38.796  29.671  31.226  1.00  0.00     0.014 A 
ATOM     33  C   UNL A   1      38.354  30.561  29.016  1.00  0.00     0.014 A 
ATOM     34  C   UNL A   1      40.089  29.329  30.823  1.00  0.00     0.010 A 
ATOM     35  C   UNL A   1      39.613  30.146  28.593  1.00  0.00     0.010 A 
ATOM     36  C   UNL A   1      40.496  29.529  29.492  1.00  0.00    -0.014 A 
BRANCH  36  37
ATOM     37  C   UNL A   1      41.839  29.101  29.024  1.00  0.00     0.031 A 
ATOM     38  C   UNL A   1      42.964  30.098  28.941  1.00  0.00     0.074 A 
ATOM     39  C   UNL A   1      42.029  27.830  28.617  1.00  0.00     0.049 A 
ATOM     40  N   UNL A   1      44.184  29.931  28.500  1.00  0.00    -0.248 NA
ATOM     41  C   UNL A   1      42.671  31.470  29.388  1.00  0.00     0.031 C 
ATOM     42  C   UNL A   1      41.004  26.784  28.603  1.00  0.00     0.029 A 
ATOM     43  N   UNL A   1      43.147  27.203  28.125  1.00  0.00    -0.354 N 
ATOM     44  C   UNL A   1      44.799  31.174  28.605  1.00  0.00     0.074 A 
ATOM     45  C   UNL A   1      43.801  32.098  29.099  1.00  0.00     0.031 C 
ATOM     46  C   UNL A   1      41.546  25.642  28.149  1.00  0.00     0.029 A 
ATOM     47  C   UNL A   1      42.943  25.882  27.801  1.00  0.00     0.049 A 
ATOM     48  H   UNL A   1      44.014  27.657  28.014  1.00  0.00     0.167 HD
ATOM     49  C   UNL A   1      46.084  31.508  28.338  1.00  0.00     0.037 A 
ATOM     50  C   UNL A   1      43.783  24.969  27.275  1.00  0.00     0.037 A 
ATOM     51  C   UNL A   1      47.076  30.577  27.868  1.00  0.00     0.049 A 
ATOM     52  C   UNL A   1      45.204  25.367  26.980  1.00  0.00     0.074 A 
ATOM     53  C   UNL A   1      48.420  30.804  27.623  1.00  0.00     0.029 A 
ATOM     54  N   UNL A   1      46.836  29.244  27.568  1.00  0.00    -0.354 N 
ATOM     55  N   UNL A   1      45.787  26.531  27.149  1.00  0.00    -0.248 NA
ATOM     56  C   UNL A   1      46.085  24.329  26.426  1.00  0.00     0.031 C 
ATOM     57  C   UNL A   1      48.979  29.621  27.129  1.00  0.00     0.029 A 
ATOM     58  C   UNL A   1      47.999  28.643  27.117  1.00  0.00     0.049 A 
ATOM     59  H   UNL A   1      45.966  28.793  27.661  1.00  0.00     0.167 HD
ATOM     60  C   UNL A   1      47.107  26.357  26.749  1.00  0.00     0.074 A 
ATOM     61  C   UNL A   1      47.241  24.974  26.344  1.00  0.00     0.031 C 
ATOM     62  C   UNL A   1      48.118  27.261  26.722  1.00  0.00     0.037 A 
BRANCH  49  63
ATOM     63  C   UNL A   1      46.493  32.940  28.552  1.00  0.00     0.058 A 
ATOM     64  C   UNL A   1      46.404  33.895  27.525  1.00  0.00     0.135 A 
ATOM     65  C   UNL A   1      46.940  33.376  29.810  1.00  0.00     0.135 A 
ATOM     66  F   UNL A   1      45.998  33.532  26.297  1.00  0.00    -0.206 F 
ATOM     67  C   UNL A   1      46.770  35.221  27.729  1.00  0.00     0.059 A 
ATOM     68  C   UNL A   1      47.282  34.705  30.045  1.00  0.00     0.059 A 
ATOM     69  F   UNL A   1      47.044  32.508  30.828  1.00  0.00    -0.206 F 
ATOM     70  C   UNL A   1      47.206  35.618  28.994  1.00  0.00     0.060 A 
BRANCH  70  71
ATOM     71  S   UNL A   1      47.664  37.345  29.243  1.00  0.00     0.124 S 
ATOM     72  O   UNL A   1      48.152  37.711  27.917  1.00  0.00    -0.237 OA
ATOM     73  O   UNL A   1      46.397  37.950  29.640  1.00  0.00    -0.237 OA
ATOM     74  O   UNL A   1      48.680  37.281  30.289  1.00  0.00    -0.744 OA
ENDBRANCH  70  71
ENDBRANCH  49  63
BRANCH  50  75
ATOM     75  C   UNL A   1      43.307  23.584  27.009  1.00  0.00     0.058 A 
ATOM     76  C   UNL A   1      43.104  23.130  25.699  1.00  0.00     0.135 A 
ATOM     77  C   UNL A   1      43.054  22.687  28.058  1.00  0.00     0.135 A 
ATOM     78  F   UNL A   1      43.325  23.953  24.661  1.00  0.00    -0.206 F 
ATOM     79  C   UNL A   1      42.646  21.843  25.435  1.00  0.00     0.059 A 
ATOM     80  C   UNL A   1      42.624  21.386  27.820  1.00  0.00     0.059 A 
ATOM     81  F   UNL A   1      43.251  23.065  29.331  1.00  0.00    -0.206 F 
ATOM     82  C   UNL A   1      42.411  20.976  26.504  1.00  0.00     0.060 A 
BRANCH  82  83
ATOM     83  S   UNL A   1      41.859  19.294  26.150  1.00  0.00     0.124 S 
ATOM     84  O   UNL A   1      42.233  18.597  27.376  1.00  0.00    -0.237 OA
ATOM     85  O   UNL A   1      40.427  19.482  25.933  1.00  0.00    -0.237 OA
ATOM     86  O   UNL A   1      42.622  18.934  24.960  1.00  0.00    -0.744 OA
ENDBRANCH  82  83
ENDBRANCH  50  75
BRANCH  62  87
ATOM     87  C   UNL A   1      49.469  26.777  26.269  1.00  0.00     0.058 A 
ATOM     88  C   UNL A   1      49.936  27.004  24.965  1.00  0.00     0.135 A 
ATOM     89  C   UNL A   1      50.328  26.125  27.168  1.00  0.00     0.135 A 
ATOM     90  F   UNL A   1      49.152  27.616  24.062  1.00  0.00    -0.206 F 
ATOM     91  C   UNL A   1      51.198  26.579  24.561  1.00  0.00     0.059 A 
ATOM     92  C   UNL A   1      51.605  25.718  26.796  1.00  0.00     0.059 A 
ATOM     93  F   UNL A   1      49.935  25.893  28.431  1.00  0.00    -0.206 F 
ATOM     94  C   UNL A   1      52.027  25.939  25.486  1.00  0.00     0.060 A 
BRANCH  94  95
ATOM     95  S   UNL A   1      53.674  25.424  24.958  1.00  0.00     0.124 S 
ATOM     96  O   UNL A   1      53.643  23.994  25.250  1.00  0.00    -0.237 OA
ATOM     97  O   UNL A   1      53.675  25.781  23.543  1.00  0.00    -0.237 OA
ATOM     98  O   UNL A   1      54.565  26.217  25.799  1.00  0.00    -0.744 OA
ENDBRANCH  94  95
ENDBRANCH  62  87
ENDBRANCH  36  37
ENDBRANCH  28  31
ENDBRANCH  26  27
ENDBRANCH  25  26
ENDBRANCH  24  25
ENDBRANCH   1  24
TORSDOF 22
ENDMDL
MODEL 2
REMARK VINA RESULT:     -10.1      4.703     10.365
REMARK SMILES C=CCN(CC(=O)NCCCCCCNC(=O)c1ccc(-c2c3nc(c(-c4c(F)cc(S(=O)(=O)[O-])cc4F)c4ccc([nH]4)c(-c4c(F)cc(S(=O)(=O)[O-])cc4F)c4nc(c(-c5c(F)cc(S(=O)(=O)[O-])cc5F)c5ccc2[nH]5)C=C4)C=C3)cc1)C(=O)c1cc(OC)ccc1Br
REMARK SMILES IDX 11 1 10 2 9 3 8 4 6 5 7 6 5 8 4 9 3 10 2 11 1 12 84 13 85 14
REMARK SMILES IDX 86 15 87 16 93 17 88 18 92 19 94 20 91 21 89 22 90 23 12 24
REMARK SMILES IDX 13 25 14 26 15 27 16 28 17 30 18 31 19 32 83 33 20 34 82 35
REMARK SMILES IDX 21 36 22 37 23 38 76 39 24 40 81 41 75 42 77 43 25 44 80 45
REMARK SMILES IDX 74 46 73 47 26 49 60 50 39 51 59 52 40 53 43 54 58 55 78 56
REMARK SMILES IDX 41 57 42 58 57 60 79 61 44 62 27 63 28 64 37 65 29 66 30 67
REMARK SMILES IDX 36 68 38 69 31 70 32 71 33 72 34 73 35 74 61 75 62 76 71 77
REMARK SMILES IDX 63 78 64 79 70 80 72 81 65 82 66 83 67 84 68 85 69 86 45 87
REMARK SMILES IDX 46 88 55 89 47 90 48 91 54 92 56 93 49 94 50 95 51 96 52 97
REMARK SMILES IDX 53 98
REMARK H PARENT 8 7 15 29 77 48 43 59
REMARK Flexibility Score: inf
ROOT
ATOM      1  C   UNL A   1      33.698  22.901  24.584  1.00  0.00     0.002 C 
ENDROOT
BRANCH   1   2
ATOM      2  C   UNL A   1      32.310  23.349  25.063  1.00  0.00     0.021 C 
BRANCH   2   3
ATOM      3  C   UNL A   1      32.204  23.602  26.567  1.00  0.00     0.116 C 
BRANCH   3   4
ATOM      4  N   UNL A   1      31.492  24.818  26.905  1.00  0.00    -0.355 N 
ATOM      5  C   UNL A   1      31.754  26.128  26.638  1.00  0.00     0.239 C 
ATOM      6  O   UNL A   1      30.845  26.934  26.876  1.00  0.00    -0.273 OA
ATOM      7  H   UNL A   1      30.668  24.671  27.422  1.00  0.00     0.163 HD
BRANCH   5   8
ATOM      8  C   UNL A   1      33.038  26.617  25.944  1.00  0.00     0.220 C 
BRANCH   8   9
ATOM      9  N   UNL A   1      32.917  27.714  24.975  1.00  0.00    -0.326 N 
BRANCH   9  10
ATOM     10  C   UNL A   1      33.550  28.986  25.320  1.00  0.00     0.147 C 
BRANCH  10  11
ATOM     11  C   UNL A   1      34.306  28.897  26.611  1.00  0.00    -0.014 C 
ATOM     12  C   UNL A   1      34.428  29.933  27.453  1.00  0.00     0.006 C 
ENDBRANCH  10  11
ENDBRANCH   9  10
BRANCH   9  13
ATOM     13  C   UNL A   1      32.302  27.595  23.718  1.00  0.00     0.255 C 
ATOM     14  O   UNL A   1      32.809  26.993  22.774  1.00  0.00    -0.269 OA
BRANCH  13  15
ATOM     15  C   UNL A   1      30.939  28.147  23.500  1.00  0.00     0.057 A 
ATOM     16  C   UNL A   1      30.758  29.527  23.672  1.00  0.00     0.061 A 
ATOM     17  C   UNL A   1      29.808  27.354  23.296  1.00  0.00     0.031 A 
ATOM     18  C   UNL A   1      29.479  30.083  23.550  1.00  0.00     0.119 A 
ATOM     19  C   UNL A   1      28.578  27.935  22.980  1.00  0.00     0.020 A 
ATOM     20  Br  UNL A   1      29.729  25.521  23.718  1.00  0.00    -0.050 Br
ATOM     21  C   UNL A   1      28.418  29.307  23.088  1.00  0.00     0.047 A 
BRANCH  18  22
ATOM     22  O   UNL A   1      29.318  31.388  23.939  1.00  0.00    -0.497 OA
ATOM     23  C   UNL A   1      28.070  31.942  23.500  1.00  0.00     0.278 C 
ENDBRANCH  18  22
ENDBRANCH  13  15
ENDBRANCH   9  13
ENDBRANCH   8   9
ENDBRANCH   5   8
ENDBRANCH   3   4
ENDBRANCH   2   3
ENDBRANCH   1   2
BRANCH   1  24
ATOM     24  C   UNL A   1      34.757  22.731  25.671  1.00  0.00     0.002 C 
BRANCH  24  25
ATOM     25  C   UNL A   1      35.686  23.926  25.852  1.00  0.00     0.021 C 
BRANCH  25  26
ATOM     26  C   UNL A   1      36.928  23.893  24.969  1.00  0.00     0.116 C 
BRANCH  26  27
ATOM     27  N   UNL A   1      37.848  22.835  25.358  1.00  0.00    -0.352 N 
ATOM     28  C   UNL A   1      39.002  22.919  26.095  1.00  0.00     0.251 C 
ATOM     29  H   UNL A   1      37.610  21.932  25.047  1.00  0.00     0.163 HD
ATOM     30  O   UNL A   1      39.774  21.961  26.144  1.00  0.00    -0.269 OA
BRANCH  28  31
ATOM     31  C   UNL A   1      39.325  24.171  26.811  1.00  0.00     0.039 A 
ATOM     32  C   UNL A   1      38.837  24.361  28.105  1.00  0.00     0.014 A 
ATOM     33  C   UNL A   1      40.120  25.150  26.207  1.00  0.00     0.014 A 
ATOM     34  C   UNL A   1      39.200  25.506  28.818  1.00  0.00     0.010 A 
ATOM     35  C   UNL A   1      40.546  26.249  26.946  1.00  0.00     0.010 A 
ATOM     36  C   UNL A   1      40.087  26.441  28.258  1.00  0.00    -0.014 A 
BRANCH  36  37
ATOM     37  C   UNL A   1      40.546  27.626  29.029  1.00  0.00     0.031 A 
ATOM     38  C   UNL A   1      41.888  27.610  29.712  1.00  0.00     0.074 A 
ATOM     39  C   UNL A   1      39.731  28.690  29.164  1.00  0.00     0.049 A 
ATOM     40  N   UNL A   1      42.435  28.517  30.478  1.00  0.00    -0.248 NA
ATOM     41  C   UNL A   1      42.712  26.404  29.529  1.00  0.00     0.031 C 
ATOM     42  C   UNL A   1      38.387  28.804  28.592  1.00  0.00     0.029 A 
ATOM     43  N   UNL A   1      39.904  29.875  29.835  1.00  0.00    -0.354 N 
ATOM     44  C   UNL A   1      43.657  27.990  30.878  1.00  0.00     0.074 A 
ATOM     45  C   UNL A   1      43.748  26.661  30.316  1.00  0.00     0.031 C 
ATOM     46  C   UNL A   1      37.869  30.000  28.916  1.00  0.00     0.029 A 
ATOM     47  C   UNL A   1      38.824  30.721  29.753  1.00  0.00     0.049 A 
ATOM     48  H   UNL A   1      40.726  30.097  30.330  1.00  0.00     0.167 HD
ATOM     49  C   UNL A   1      44.626  28.570  31.626  1.00  0.00     0.037 A 
ATOM     50  C   UNL A   1      38.621  31.938  30.296  1.00  0.00     0.037 A 
ATOM     51  C   UNL A   1      44.537  29.903  32.164  1.00  0.00     0.049 A 
ATOM     52  C   UNL A   1      39.709  32.559  31.129  1.00  0.00     0.074 A 
ATOM     53  C   UNL A   1      45.490  30.603  32.885  1.00  0.00     0.029 A 
ATOM     54  N   UNL A   1      43.435  30.735  32.045  1.00  0.00    -0.354 N 
ATOM     55  N   UNL A   1      40.887  32.072  31.441  1.00  0.00    -0.248 NA
ATOM     56  C   UNL A   1      39.446  33.894  31.681  1.00  0.00     0.031 C 
ATOM     57  C   UNL A   1      44.942  31.840  33.244  1.00  0.00     0.029 A 
ATOM     58  C   UNL A   1      43.672  31.933  32.699  1.00  0.00     0.049 A 
ATOM     59  H   UNL A   1      42.605  30.508  31.566  1.00  0.00     0.167 HD
ATOM     60  C   UNL A   1      41.515  33.053  32.202  1.00  0.00     0.074 A 
ATOM     61  C   UNL A   1      40.592  34.164  32.291  1.00  0.00     0.031 C 
ATOM     62  C   UNL A   1      42.744  33.034  32.774  1.00  0.00     0.037 A 
BRANCH  49  63
ATOM     63  C   UNL A   1      45.870  27.769  31.903  1.00  0.00     0.058 A 
ATOM     64  C   UNL A   1      46.976  27.802  31.039  1.00  0.00     0.135 A 
ATOM     65  C   UNL A   1      45.975  26.991  33.067  1.00  0.00     0.135 A 
ATOM     66  F   UNL A   1      46.927  28.517  29.903  1.00  0.00    -0.206 F 
ATOM     67  C   UNL A   1      48.130  27.072  31.304  1.00  0.00     0.059 A 
ATOM     68  C   UNL A   1      47.131  26.277  33.368  1.00  0.00     0.059 A 
ATOM     69  F   UNL A   1      44.949  26.922  33.930  1.00  0.00    -0.206 F 
ATOM     70  C   UNL A   1      48.199  26.313  32.473  1.00  0.00     0.060 A 
BRANCH  70  71
ATOM     71  S   UNL A   1      49.709  25.382  32.807  1.00  0.00     0.124 S 
ATOM     72  O   UNL A   1      50.538  26.395  33.451  1.00  0.00    -0.237 OA
ATOM     73  O   UNL A   1      49.230  24.311  33.674  1.00  0.00    -0.237 OA
ATOM     74  O   UNL A   1      50.151  24.962  31.481  1.00  0.00    -0.744 OA
ENDBRANCH  70  71
ENDBRANCH  49  63
BRANCH  50  75
ATOM     75  C   UNL A   1      37.340  32.657  30.055  1.00  0.00     0.058 A 
ATOM     76  C   UNL A   1      37.206  33.558  28.990  1.00  0.00     0.135 A 
ATOM     77  C   UNL A   1      36.223  32.451  30.880  1.00  0.00     0.135 A 
ATOM     78  F   UNL A   1      38.248  33.795  28.176  1.00  0.00    -0.206 F 
ATOM     79  C   UNL A   1      36.020  34.248  28.762  1.00  0.00     0.059 A 
ATOM     80  C   UNL A   1      35.017  33.107  30.656  1.00  0.00     0.059 A 
ATOM     81  F   UNL A   1      36.291  31.585  31.904  1.00  0.00    -0.206 F 
ATOM     82  C   UNL A   1      34.928  34.012  29.599  1.00  0.00     0.060 A 
BRANCH  82  83
ATOM     83  S   UNL A   1      33.379  34.879  29.269  1.00  0.00     0.124 S 
ATOM     84  O   UNL A   1      32.700  34.769  30.555  1.00  0.00    -0.237 OA
ATOM     85  O   UNL A   1      33.847  36.213  28.903  1.00  0.00    -0.237 OA
ATOM     86  O   UNL A   1      32.791  34.110  28.176  1.00  0.00    -0.744 OA
ENDBRANCH  82  83
ENDBRANCH  50  75
BRANCH  62  87
ATOM     87  C   UNL A   1      43.180  34.266  33.520  1.00  0.00     0.058 A 
ATOM     88  C   UNL A   1      43.047  34.372  34.914  1.00  0.00     0.135 A 
ATOM     89  C   UNL A   1      43.787  35.332  32.838  1.00  0.00     0.135 A 
ATOM     90  F   UNL A   1      42.467  33.384  35.615  1.00  0.00    -0.206 F 
ATOM     91  C   UNL A   1      43.479  35.502  35.601  1.00  0.00     0.059 A 
ATOM     92  C   UNL A   1      44.254  36.459  33.507  1.00  0.00     0.059 A 
ATOM     93  F   UNL A   1      43.950  35.278  31.506  1.00  0.00    -0.206 F 
ATOM     94  C   UNL A   1      44.084  36.540  34.888  1.00  0.00     0.060 A 
BRANCH  94  95
ATOM     95  S   UNL A   1      44.670  37.985  35.797  1.00  0.00     0.124 S 
ATOM     96  O   UNL A   1      44.516  39.041  34.802  1.00  0.00    -0.237 OA
ATOM     97  O   UNL A   1      43.746  38.039  36.926  1.00  0.00    -0.237 OA
ATOM     98  O   UNL A   1      46.046  37.638  36.138  1.00  0.00    -0.744 OA
ENDBRANCH  94  95
ENDBRANCH  62  87
ENDBRANCH  36  37
ENDBRANCH  28  31
ENDBRANCH  26  27
ENDBRANCH  25  26
ENDBRANCH  24  25
ENDBRANCH   1  24
TORSDOF 22
ENDMDL
MODEL 3
REMARK VINA RESULT:     -10.1      6.418     11.929
REMARK SMILES C=CCN(CC(=O)NCCCCCCNC(=O)c1ccc(-c2c3nc(c(-c4c(F)cc(S(=O)(=O)[O-])cc4F)c4ccc([nH]4)c(-c4c(F)cc(S(=O)(=O)[O-])cc4F)c4nc(c(-c5c(F)cc(S(=O)(=O)[O-])cc5F)c5ccc2[nH]5)C=C4)C=C3)cc1)C(=O)c1cc(OC)ccc1Br
REMARK SMILES IDX 11 1 10 2 9 3 8 4 6 5 7 6 5 8 4 9 3 10 2 11 1 12 84 13 85 14
REMARK SMILES IDX 86 15 87 16 93 17 88 18 92 19 94 20 91 21 89 22 90 23 12 24
REMARK SMILES IDX 13 25 14 26 15 27 16 28 17 30 18 31 19 32 83 33 20 34 82 35
REMARK SMILES IDX 21 36 22 37 23 38 76 39 24 40 81 41 75 42 77 43 25 44 80 45
REMARK SMILES IDX 74 46 73 47 26 49 60 50 39 51 59 52 40 53 43 54 58 55 78 56
REMARK SMILES IDX 41 57 42 58 57 60 79 61 44 62 27 63 28 64 37 65 29 66 30 67
REMARK SMILES IDX 36 68 38 69 31 70 32 71 33 72 34 73 35 74 61 75 62 76 71 77
REMARK SMILES IDX 63 78 64 79 70 80 72 81 65 82 66 83 67 84 68 85 69 86 45 87
REMARK SMILES IDX 46 88 55 89 47 90 48 91 54 92 56 93 49 94 50 95 51 96 52 97
REMARK SMILES IDX 53 98
REMARK H PARENT 8 7 15 29 77 48 43 59
REMARK Flexibility Score: inf
ROOT
ATOM      1  C   UNL A   1      36.810  23.370  24.312  1.00  0.00     0.002 C 
ENDROOT
BRANCH   1   2
ATOM      2  C   UNL A   1      35.693  22.473  23.761  1.00  0.00     0.021 C 
BRANCH   2   3
ATOM      3  C   UNL A   1      34.330  23.154  23.637  1.00  0.00     0.116 C 
BRANCH   3   4
ATOM      4  N   UNL A   1      33.767  23.568  24.906  1.00  0.00    -0.355 N 
ATOM      5  C   UNL A   1      33.651  24.793  25.493  1.00  0.00     0.239 C 
ATOM      6  O   UNL A   1      32.928  24.861  26.494  1.00  0.00    -0.273 OA
ATOM      7  H   UNL A   1      33.401  22.830  25.444  1.00  0.00     0.163 HD
BRANCH   5   8
ATOM      8  C   UNL A   1      34.249  26.081  24.899  1.00  0.00     0.220 C 
BRANCH   8   9
ATOM      9  N   UNL A   1      33.327  27.032  24.263  1.00  0.00    -0.326 N 
BRANCH   9  10
ATOM     10  C   UNL A   1      33.427  27.197  22.814  1.00  0.00     0.147 C 
BRANCH  10  11
ATOM     11  C   UNL A   1      32.973  25.969  22.084  1.00  0.00    -0.014 C 
ATOM     12  C   UNL A   1      31.887  25.953  21.297  1.00  0.00     0.006 C 
ENDBRANCH  10  11
ENDBRANCH   9  10
BRANCH   9  13
ATOM     13  C   UNL A   1      32.315  27.730  24.944  1.00  0.00     0.255 C 
ATOM     14  O   UNL A   1      32.463  28.202  26.069  1.00  0.00    -0.269 OA
BRANCH  13  15
ATOM     15  C   UNL A   1      31.015  27.997  24.275  1.00  0.00     0.057 A 
ATOM     16  C   UNL A   1      30.774  29.299  23.813  1.00  0.00     0.061 A 
ATOM     17  C   UNL A   1      29.967  27.075  24.226  1.00  0.00     0.031 A 
ATOM     18  C   UNL A   1      29.537  29.618  23.242  1.00  0.00     0.119 A 
ATOM     19  C   UNL A   1      28.817  27.342  23.481  1.00  0.00     0.020 A 
ATOM     20  Br  UNL A   1      29.842  25.578  25.361  1.00  0.00    -0.050 Br
ATOM     21  C   UNL A   1      28.610  28.613  22.969  1.00  0.00     0.047 A 
BRANCH  18  22
ATOM     22  O   UNL A   1      29.271  30.942  23.007  1.00  0.00    -0.497 OA
ATOM     23  C   UNL A   1      28.735  31.173  21.698  1.00  0.00     0.278 C 
ENDBRANCH  18  22
ENDBRANCH  13  15
ENDBRANCH   9  13
ENDBRANCH   8   9
ENDBRANCH   5   8
ENDBRANCH   3   4
ENDBRANCH   2   3
ENDBRANCH   1   2
BRANCH   1  24
ATOM     24  C   UNL A   1      37.366  22.982  25.680  1.00  0.00     0.002 C 
BRANCH  24  25
ATOM     25  C   UNL A   1      38.162  24.077  26.382  1.00  0.00     0.021 C 
BRANCH  25  26
ATOM     26  C   UNL A   1      39.474  23.602  26.996  1.00  0.00     0.116 C 
BRANCH  26  27
ATOM     27  N   UNL A   1      40.618  23.922  26.155  1.00  0.00    -0.352 N 
ATOM     28  C   UNL A   1      41.466  24.998  26.221  1.00  0.00     0.251 C 
ATOM     29  H   UNL A   1      40.811  23.275  25.438  1.00  0.00     0.163 HD
ATOM     30  O   UNL A   1      42.248  25.226  25.297  1.00  0.00    -0.269 OA
BRANCH  28  31
ATOM     31  C   UNL A   1      41.422  25.896  27.393  1.00  0.00     0.039 A 
ATOM     32  C   UNL A   1      42.222  27.041  27.406  1.00  0.00     0.014 A 
ATOM     33  C   UNL A   1      40.581  25.613  28.474  1.00  0.00     0.014 A 
ATOM     34  C   UNL A   1      42.131  27.934  28.476  1.00  0.00     0.010 A 
ATOM     35  C   UNL A   1      40.431  26.544  29.498  1.00  0.00     0.010 A 
ATOM     36  C   UNL A   1      41.207  27.713  29.512  1.00  0.00    -0.014 A 
BRANCH  36  37
ATOM     37  C   UNL A   1      41.040  28.690  30.618  1.00  0.00     0.031 A 
ATOM     38  C   UNL A   1      41.912  28.603  31.842  1.00  0.00     0.074 A 
ATOM     39  C   UNL A   1      40.064  29.617  30.546  1.00  0.00     0.049 A 
ATOM     40  N   UNL A   1      41.876  29.323  32.934  1.00  0.00    -0.248 NA
ATOM     41  C   UNL A   1      42.943  27.553  31.850  1.00  0.00     0.031 C 
ATOM     42  C   UNL A   1      39.123  29.770  29.435  1.00  0.00     0.029 A 
ATOM     43  N   UNL A   1      39.692  30.599  31.431  1.00  0.00    -0.354 N 
ATOM     44  C   UNL A   1      42.867  28.807  33.761  1.00  0.00     0.074 A 
ATOM     45  C   UNL A   1      43.449  27.678  33.069  1.00  0.00     0.031 C 
ATOM     46  C   UNL A   1      38.298  30.798  29.693  1.00  0.00     0.029 A 
ATOM     47  C   UNL A   1      38.623  31.351  31.004  1.00  0.00     0.049 A 
ATOM     48  H   UNL A   1      40.148  30.749  32.290  1.00  0.00     0.167 HD
ATOM     49  C   UNL A   1      43.270  29.248  34.976  1.00  0.00     0.037 A 
ATOM     50  C   UNL A   1      37.972  32.368  31.604  1.00  0.00     0.037 A 
ATOM     51  C   UNL A   1      42.700  30.386  35.649  1.00  0.00     0.049 A 
ATOM     52  C   UNL A   1      38.434  32.835  32.958  1.00  0.00     0.074 A 
ATOM     53  C   UNL A   1      43.078  30.949  36.856  1.00  0.00     0.029 A 
ATOM     54  N   UNL A   1      41.630  31.133  35.178  1.00  0.00    -0.354 N 
ATOM     55  N   UNL A   1      39.418  32.378  33.696  1.00  0.00    -0.248 NA
ATOM     56  C   UNL A   1      37.704  33.959  33.559  1.00  0.00     0.031 C 
ATOM     57  C   UNL A   1      42.205  32.006  37.137  1.00  0.00     0.029 A 
ATOM     58  C   UNL A   1      41.319  32.137  36.081  1.00  0.00     0.049 A 
ATOM     59  H   UNL A   1      41.162  30.973  34.327  1.00  0.00     0.167 HD
ATOM     60  C   UNL A   1      39.441  33.176  34.835  1.00  0.00     0.074 A 
ATOM     61  C   UNL A   1      38.383  34.152  34.681  1.00  0.00     0.031 C 
ATOM     62  C   UNL A   1      40.265  33.106  35.910  1.00  0.00     0.037 A 
BRANCH  49  63
ATOM     63  C   UNL A   1      44.387  28.502  35.656  1.00  0.00     0.058 A 
ATOM     64  C   UNL A   1      44.133  27.450  36.552  1.00  0.00     0.135 A 
ATOM     65  C   UNL A   1      45.727  28.814  35.380  1.00  0.00     0.135 A 
ATOM     66  F   UNL A   1      42.870  27.118  36.866  1.00  0.00    -0.206 F 
ATOM     67  C   UNL A   1      45.166  26.753  37.169  1.00  0.00     0.059 A 
ATOM     68  C   UNL A   1      46.778  28.110  35.962  1.00  0.00     0.059 A 
ATOM     69  F   UNL A   1      46.030  29.810  34.532  1.00  0.00    -0.206 F 
ATOM     70  C   UNL A   1      46.487  27.089  36.866  1.00  0.00     0.060 A 
BRANCH  70  71
ATOM     71  S   UNL A   1      47.815  26.165  37.666  1.00  0.00     0.124 S 
ATOM     72  O   UNL A   1      48.275  25.313  36.574  1.00  0.00    -0.237 OA
ATOM     73  O   UNL A   1      48.732  27.225  38.071  1.00  0.00    -0.237 OA
ATOM     74  O   UNL A   1      47.139  25.473  38.758  1.00  0.00    -0.744 OA
ENDBRANCH  70  71
ENDBRANCH  49  63
BRANCH  50  75
ATOM     75  C   UNL A   1      36.822  33.023  30.922  1.00  0.00     0.058 A 
ATOM     76  C   UNL A   1      37.021  33.863  29.817  1.00  0.00     0.135 A 
ATOM     77  C   UNL A   1      35.504  32.815  31.356  1.00  0.00     0.135 A 
ATOM     78  F   UNL A   1      38.264  34.098  29.369  1.00  0.00    -0.206 F 
ATOM     79  C   UNL A   1      35.957  34.492  29.179  1.00  0.00     0.059 A 
ATOM     80  C   UNL A   1      34.421  33.410  30.717  1.00  0.00     0.059 A 
ATOM     81  F   UNL A   1      35.256  32.006  32.398  1.00  0.00    -0.206 F 
ATOM     82  C   UNL A   1      34.659  34.257  29.635  1.00  0.00     0.060 A 
BRANCH  82  83
ATOM     83  S   UNL A   1      33.282  35.044  28.772  1.00  0.00     0.124 S 
ATOM     84  O   UNL A   1      32.316  35.212  29.852  1.00  0.00    -0.237 OA
ATOM     85  O   UNL A   1      33.896  36.269  28.268  1.00  0.00    -0.237 OA
ATOM     86  O   UNL A   1      32.924  34.066  27.749  1.00  0.00    -0.744 OA
ENDBRANCH  82  83
ENDBRANCH  50  75
BRANCH  62  87
ATOM     87  C   UNL A   1      40.079  34.134  36.993  1.00  0.00     0.058 A 
ATOM     88  C   UNL A   1      40.763  35.359  36.975  1.00  0.00     0.135 A 
ATOM     89  C   UNL A   1      39.164  33.910  38.035  1.00  0.00     0.135 A 
ATOM     90  F   UNL A   1      41.655  35.622  36.006  1.00  0.00    -0.206 F 
ATOM     91  C   UNL A   1      40.565  36.317  37.964  1.00  0.00     0.059 A 
ATOM     92  C   UNL A   1      38.927  34.866  39.018  1.00  0.00     0.059 A 
ATOM     93  F   UNL A   1      38.474  32.760  38.094  1.00  0.00    -0.206 F 
ATOM     94  C   UNL A   1      39.642  36.062  38.981  1.00  0.00     0.060 A 
BRANCH  94  95
ATOM     95  S   UNL A   1      39.370  37.327  40.240  1.00  0.00     0.124 S 
ATOM     96  O   UNL A   1      38.741  36.553  41.305  1.00  0.00    -0.237 OA
ATOM     97  O   UNL A   1      40.726  37.793  40.511  1.00  0.00    -0.237 OA
ATOM     98  O   UNL A   1      38.505  38.293  39.569  1.00  0.00    -0.744 OA
ENDBRANCH  94  95
ENDBRANCH  62  87
ENDBRANCH  36  37
ENDBRANCH  28  31
ENDBRANCH  26  27
ENDBRANCH  25  26
ENDBRANCH  24  25
ENDBRANCH   1  24
TORSDOF 22
ENDMDL
