MODEL 1
REMARK VINA RESULT:     -13.3      0.000      0.000
REMARK SMILES Cc1ccccc1/C=C1\SC(=O)N(CC(=O)Nc2ccccc2C(=O)NCCCCCCNC(=O)c2ccc(-c3c4nc(c(-c5c(F)cc(S(=O)(=O)[O-])cc5F)c5ccc([nH]5)c(-c5c(F)cc(S(=O)(=O)[O-])cc5F)c5nc(c(-c6c(F)cc(S(=O)(=O)[O-])cc6F)c6ccc3[nH]6)C=C5)C=C4)cc2)C1=O
REMARK SMILES IDX 29 1 28 2 27 3 26 4 24 5 25 6 23 8 18 9 19 10 20 11 22 12
REMARK SMILES IDX 21 13 17 14 15 15 16 16 14 18 13 19 8 20 9 21 10 22 102 23
REMARK SMILES IDX 11 24 103 25 12 26 7 27 1 28 2 29 3 30 4 31 6 32 5 33 30 34
REMARK SMILES IDX 31 35 32 36 33 37 34 38 35 40 36 41 37 42 101 43 38 44
REMARK SMILES IDX 100 45 39 46 40 47 41 48 94 49 42 50 99 51 93 52 95 53 43 54
REMARK SMILES IDX 98 55 92 56 91 57 44 59 78 60 57 61 77 62 58 63 61 64 76 65
REMARK SMILES IDX 96 66 59 67 60 68 75 70 97 71 62 72 45 73 46 74 55 75 47 76
REMARK SMILES IDX 48 77 54 78 56 79 49 80 50 81 51 82 52 83 53 84 79 85 80 86
REMARK SMILES IDX 89 87 81 88 82 89 88 90 90 91 83 92 84 93 85 94 86 95 87 96
REMARK SMILES IDX 63 97 64 98 73 99 65 100 66 101 72 102 74 103 67 104 68 105
REMARK SMILES IDX 69 106 70 107 71 108
REMARK H PARENT 26 7 17 17 33 39 95 58 61 69
REMARK Flexibility Score: inf
ROOT
ATOM      1  C   UNL A   1      33.420  27.731  26.276  1.00  0.00     0.002 C 
ENDROOT
BRANCH   1   2
ATOM      2  C   UNL A   1      31.908  27.952  26.121  1.00  0.00     0.021 C 
BRANCH   2   3
ATOM      3  C   UNL A   1      31.358  29.286  25.659  1.00  0.00     0.116 C 
BRANCH   3   4
ATOM      4  N   UNL A   1      30.416  29.237  24.541  1.00  0.00    -0.352 N 
ATOM      5  C   UNL A   1      30.482  28.654  23.296  1.00  0.00     0.253 C 
ATOM      6  O   UNL A   1      29.457  28.579  22.622  1.00  0.00    -0.269 OA
ATOM      7  H   UNL A   1      29.572  29.714  24.713  1.00  0.00     0.163 HD
BRANCH   5   8
ATOM      8  C   UNL A   1      31.743  28.114  22.747  1.00  0.00     0.063 A 
ATOM      9  C   UNL A   1      31.934  26.764  22.387  1.00  0.00     0.054 A 
ATOM     10  C   UNL A   1      33.227  26.363  21.984  1.00  0.00     0.027 A 
ATOM     11  C   UNL A   1      34.296  27.259  21.918  1.00  0.00     0.002 A 
ATOM     12  C   UNL A   1      32.870  28.961  22.810  1.00  0.00     0.016 A 
ATOM     13  C   UNL A   1      34.122  28.560  22.352  1.00  0.00     0.001 A 
BRANCH   9  14
ATOM     14  N   UNL A   1      31.049  25.679  22.556  1.00  0.00    -0.324 N 
ATOM     15  C   UNL A   1      30.859  24.667  23.446  1.00  0.00     0.244 C 
ATOM     16  O   UNL A   1      30.080  23.770  23.093  1.00  0.00    -0.273 OA
ATOM     17  H   UNL A   1      30.387  25.643  21.828  1.00  0.00     0.170 HD
BRANCH  15  18
ATOM     18  C   UNL A   1      31.341  24.726  24.889  1.00  0.00     0.230 C 
BRANCH  18  19
ATOM     19  N   UNL A   1      32.518  23.995  25.290  1.00  0.00    -0.259 N 
ATOM     20  C   UNL A   1      35.809  22.900  24.724  1.00  0.00     0.029 C 
ATOM     21  C   UNL A   1      34.555  22.852  25.203  1.00  0.00     0.083 C 
ATOM     22  S   UNL A   1      33.988  22.525  26.777  1.00  0.00    -0.022 SA
ATOM     23  C   UNL A   1      33.409  23.410  24.412  1.00  0.00     0.268 C 
ATOM     24  C   UNL A   1      32.611  23.572  26.579  1.00  0.00     0.294 C 
ATOM     25  O   UNL A   1      33.310  23.315  23.200  1.00  0.00    -0.268 OA
ATOM     26  O   UNL A   1      31.814  23.814  27.495  1.00  0.00    -0.261 OA
BRANCH  20  27
ATOM     27  C   UNL A   1      37.136  22.809  25.390  1.00  0.00    -0.021 A 
ATOM     28  C   UNL A   1      37.718  20.333  24.929  1.00  0.00     0.045 C 
ATOM     29  C   UNL A   1      38.022  21.713  25.451  1.00  0.00    -0.044 A 
ATOM     30  C   UNL A   1      39.236  21.856  26.164  1.00  0.00     0.004 A 
ATOM     31  C   UNL A   1      39.573  23.039  26.826  1.00  0.00     0.000 A 
ATOM     32  C   UNL A   1      37.521  24.008  26.043  1.00  0.00     0.008 A 
ATOM     33  C   UNL A   1      38.708  24.117  26.773  1.00  0.00     0.001 A 
ENDBRANCH  20  27
ENDBRANCH  18  19
ENDBRANCH  15  18
ENDBRANCH   9  14
ENDBRANCH   5   8
ENDBRANCH   3   4
ENDBRANCH   2   3
ENDBRANCH   1   2
BRANCH   1  34
ATOM     34  C   UNL A   1      34.342  28.648  27.165  1.00  0.00     0.002 C 
BRANCH  34  35
ATOM     35  C   UNL A   1      34.578  30.292  26.991  1.00  0.00     0.021 C 
BRANCH  35  36
ATOM     36  C   UNL A   1      35.918  30.925  27.736  1.00  0.00     0.116 C 
BRANCH  36  37
ATOM     37  N   UNL A   1      37.377  30.353  28.471  1.00  0.00    -0.352 N 
ATOM     38  C   UNL A   1      38.836  29.770  28.423  1.00  0.00     0.251 C 
ATOM     39  H   UNL A   1      37.196  30.440  29.435  1.00  0.00     0.163 HD
ATOM     40  O   UNL A   1      39.487  30.227  29.395  1.00  0.00    -0.269 OA
BRANCH  38  41
ATOM     41  C   UNL A   1      39.914  28.880  27.365  1.00  0.00     0.039 A 
ATOM     42  C   UNL A   1      40.098  27.466  27.433  1.00  0.00     0.014 A 
ATOM     43  C   UNL A   1      40.894  29.368  26.530  1.00  0.00     0.014 A 
ATOM     44  C   UNL A   1      41.443  26.923  27.557  1.00  0.00     0.010 A 
ATOM     45  C   UNL A   1      42.218  28.932  26.773  1.00  0.00     0.010 A 
ATOM     46  C   UNL A   1      42.518  27.805  27.522  1.00  0.00    -0.014 A 
BRANCH  46  47
ATOM     47  C   UNL A   1      43.904  27.669  28.102  1.00  0.00     0.031 A 
ATOM     48  C   UNL A   1      44.690  28.889  28.146  1.00  0.00     0.074 A 
ATOM     49  C   UNL A   1      44.495  26.624  28.753  1.00  0.00     0.049 A 
ATOM     50  N   UNL A   1      45.774  29.115  27.491  1.00  0.00    -0.248 NA
ATOM     51  C   UNL A   1      44.213  30.014  28.935  1.00  0.00     0.031 C 
ATOM     52  C   UNL A   1      45.843  26.403  29.317  1.00  0.00     0.029 A 
ATOM     53  N   UNL A   1      43.968  25.374  28.969  1.00  0.00    -0.354 N 
ATOM     54  C   UNL A   1      46.290  30.254  28.077  1.00  0.00     0.074 A 
ATOM     55  C   UNL A   1      45.158  30.912  28.677  1.00  0.00     0.031 C 
ATOM     56  C   UNL A   1      46.113  25.072  29.316  1.00  0.00     0.029 A 
ATOM     57  C   UNL A   1      44.956  24.404  28.762  1.00  0.00     0.049 A 
ATOM     58  H   UNL A   1      43.037  25.188  29.231  1.00  0.00     0.167 HD
ATOM     59  C   UNL A   1      47.620  30.342  28.379  1.00  0.00     0.037 A 
ATOM     60  C   UNL A   1      44.833  23.647  27.625  1.00  0.00     0.037 A 
ATOM     61  C   UNL A   1      48.286  29.039  28.162  1.00  0.00     0.049 A 
ATOM     62  C   UNL A   1      45.835  24.121  26.571  1.00  0.00     0.074 A 
ATOM     63  C   UNL A   1      48.855  28.085  28.995  1.00  0.00     0.029 A 
ATOM     64  N   UNL A   1      48.132  28.397  26.944  1.00  0.00    -0.354 N 
ATOM     65  N   UNL A   1      46.718  25.053  26.816  1.00  0.00    -0.248 NA
ATOM     66  C   UNL A   1      45.948  23.646  25.190  1.00  0.00     0.031 C 
ATOM     67  C   UNL A   1      49.016  26.870  28.255  1.00  0.00     0.029 A 
ATOM     68  C   UNL A   1      48.566  27.087  26.966  1.00  0.00     0.049 A 
ATOM     69  H   UNL A   1      47.752  28.830  26.146  1.00  0.00     0.167 HD
ATOM     70  C   UNL A   1      47.465  25.342  25.712  1.00  0.00     0.074 A 
ATOM     71  C   UNL A   1      46.932  24.434  24.707  1.00  0.00     0.031 C 
ATOM     72  C   UNL A   1      48.445  26.303  25.737  1.00  0.00     0.037 A 
BRANCH  59  73
ATOM     73  C   UNL A   1      48.239  31.497  29.160  1.00  0.00     0.058 A 
ATOM     74  C   UNL A   1      48.209  31.513  30.570  1.00  0.00     0.135 A 
ATOM     75  C   UNL A   1      48.940  32.590  28.594  1.00  0.00     0.135 A 
ATOM     76  F   UNL A   1      47.703  30.488  31.269  1.00  0.00    -0.206 F 
ATOM     77  C   UNL A   1      48.741  32.556  31.336  1.00  0.00     0.059 A 
ATOM     78  C   UNL A   1      49.416  33.676  29.332  1.00  0.00     0.059 A 
ATOM     79  F   UNL A   1      49.298  32.618  27.306  1.00  0.00    -0.206 F 
ATOM     80  C   UNL A   1      49.322  33.648  30.709  1.00  0.00     0.060 A 
BRANCH  80  81
ATOM     81  S   UNL A   1      50.037  34.965  31.707  1.00  0.00     0.124 S 
ATOM     82  O   UNL A   1      49.986  36.103  30.794  1.00  0.00    -0.237 OA
ATOM     83  O   UNL A   1      49.121  35.018  32.842  1.00  0.00    -0.237 OA
ATOM     84  O   UNL A   1      51.379  34.476  32.014  1.00  0.00    -0.744 OA
ENDBRANCH  80  81
ENDBRANCH  59  73
BRANCH  60  85
ATOM     85  C   UNL A   1      43.362  23.224  27.446  1.00  0.00     0.058 A 
ATOM     86  C   UNL A   1      42.946  23.143  26.097  1.00  0.00     0.135 A 
ATOM     87  C   UNL A   1      42.946  22.128  28.160  1.00  0.00     0.135 A 
ATOM     88  F   UNL A   1      42.809  24.269  25.387  1.00  0.00    -0.206 F 
ATOM     89  C   UNL A   1      42.898  21.905  25.399  1.00  0.00     0.059 A 
ATOM     90  C   UNL A   1      42.671  20.924  27.474  1.00  0.00     0.059 A 
ATOM     91  F   UNL A   1      42.972  22.126  29.504  1.00  0.00    -0.206 F 
ATOM     92  C   UNL A   1      42.936  20.710  26.118  1.00  0.00     0.060 A 
BRANCH  92  93
ATOM     93  S   UNL A   1      43.600  18.890  25.249  1.00  0.00     0.124 S 
ATOM     94  O   UNL A   1      44.940  18.597  25.669  1.00  0.00    -0.237 OA
ATOM     95  O   UNL A   1      42.688  17.922  25.826  1.00  0.00    -0.237 OA
ATOM     96  O   UNL A   1      43.685  19.025  23.812  1.00  0.00    -0.744 OA
ENDBRANCH  92  93
ENDBRANCH  60  85
BRANCH  72  97
ATOM     97  C   UNL A   1      49.370  26.639  24.586  1.00  0.00     0.058 A 
ATOM     98  C   UNL A   1      50.760  26.468  24.645  1.00  0.00     0.135 A 
ATOM     99  C   UNL A   1      48.895  27.257  23.399  1.00  0.00     0.135 A 
ATOM    100  F   UNL A   1      51.364  26.079  25.778  1.00  0.00    -0.206 F 
ATOM    101  C   UNL A   1      51.593  26.741  23.557  1.00  0.00     0.059 A 
ATOM    102  C   UNL A   1      49.707  27.580  22.322  1.00  0.00     0.059 A 
ATOM    103  F   UNL A   1      47.612  27.587  23.214  1.00  0.00    -0.206 F 
ATOM    104  C   UNL A   1      51.050  27.276  22.391  1.00  0.00     0.060 A 
BRANCH 104 105
ATOM    105  S   UNL A   1      52.115  27.609  20.983  1.00  0.00     0.124 S 
ATOM    106  O   UNL A   1      51.150  27.954  19.943  1.00  0.00    -0.237 OA
ATOM    107  O   UNL A   1      52.924  28.714  21.487  1.00  0.00    -0.237 OA
ATOM    108  O   UNL A   1      52.825  26.351  20.781  1.00  0.00    -0.744 OA
ENDBRANCH 104 105
ENDBRANCH  72  97
ENDBRANCH  46  47
ENDBRANCH  38  41
ENDBRANCH  36  37
ENDBRANCH  35  36
ENDBRANCH  34  35
ENDBRANCH   1  34
TORSDOF 20
ENDMDL
MODEL 2
REMARK VINA RESULT:     -13.0      1.907      2.809
REMARK SMILES Cc1ccccc1/C=C1\SC(=O)N(CC(=O)Nc2ccccc2C(=O)NCCCCCCNC(=O)c2ccc(-c3c4nc(c(-c5c(F)cc(S(=O)(=O)[O-])cc5F)c5ccc([nH]5)c(-c5c(F)cc(S(=O)(=O)[O-])cc5F)c5nc(c(-c6c(F)cc(S(=O)(=O)[O-])cc6F)c6ccc3[nH]6)C=C5)C=C4)cc2)C1=O
REMARK SMILES IDX 29 1 28 2 27 3 26 4 24 5 25 6 23 8 18 9 19 10 20 11 22 12
REMARK SMILES IDX 21 13 17 14 15 15 16 16 14 18 13 19 8 20 9 21 10 22 102 23
REMARK SMILES IDX 11 24 103 25 12 26 7 27 1 28 2 29 3 30 4 31 6 32 5 33 30 34
REMARK SMILES IDX 31 35 32 36 33 37 34 38 35 40 36 41 37 42 101 43 38 44
REMARK SMILES IDX 100 45 39 46 40 47 41 48 94 49 42 50 99 51 93 52 95 53 43 54
REMARK SMILES IDX 98 55 92 56 91 57 44 59 78 60 57 61 77 62 58 63 61 64 76 65
REMARK SMILES IDX 96 66 59 67 60 68 75 70 97 71 62 72 45 73 46 74 55 75 47 76
REMARK SMILES IDX 48 77 54 78 56 79 49 80 50 81 51 82 52 83 53 84 79 85 80 86
REMARK SMILES IDX 89 87 81 88 82 89 88 90 90 91 83 92 84 93 85 94 86 95 87 96
REMARK SMILES IDX 63 97 64 98 73 99 65 100 66 101 72 102 74 103 67 104 68 105
REMARK SMILES IDX 69 106 70 107 71 108
REMARK H PARENT 26 7 17 17 33 39 95 58 61 69
REMARK Flexibility Score: inf
ROOT
ATOM      1  C   UNL A   1      33.554  26.959  25.983  1.00  0.00     0.002 C 
ENDROOT
BRANCH   1   2
ATOM      2  C   UNL A   1      32.556  25.869  26.401  1.00  0.00     0.021 C 
BRANCH   2   3
ATOM      3  C   UNL A   1      31.085  26.185  26.580  1.00  0.00     0.116 C 
BRANCH   3   4
ATOM      4  N   UNL A   1      30.191  25.680  25.538  1.00  0.00    -0.352 N 
ATOM      5  C   UNL A   1      30.101  25.934  24.188  1.00  0.00     0.253 C 
ATOM      6  O   UNL A   1      29.392  25.207  23.495  1.00  0.00    -0.269 OA
ATOM      7  H   UNL A   1      29.525  25.033  25.866  1.00  0.00     0.163 HD
BRANCH   5   8
ATOM      8  C   UNL A   1      30.830  27.048  23.548  1.00  0.00     0.063 A 
ATOM      9  C   UNL A   1      31.730  26.890  22.473  1.00  0.00     0.054 A 
ATOM     10  C   UNL A   1      32.444  28.027  22.036  1.00  0.00     0.027 A 
ATOM     11  C   UNL A   1      32.271  29.284  22.619  1.00  0.00     0.002 A 
ATOM     12  C   UNL A   1      30.784  28.293  24.211  1.00  0.00     0.016 A 
ATOM     13  C   UNL A   1      31.452  29.414  23.725  1.00  0.00     0.001 A 
BRANCH   9  14
ATOM     14  N   UNL A   1      32.179  25.694  21.876  1.00  0.00    -0.324 N 
ATOM     15  C   UNL A   1      33.152  24.768  22.093  1.00  0.00     0.244 C 
ATOM     16  O   UNL A   1      33.351  23.961  21.173  1.00  0.00    -0.273 OA
ATOM     17  H   UNL A   1      31.641  25.468  21.082  1.00  0.00     0.170 HD
BRANCH  15  18
ATOM     18  C   UNL A   1      33.792  24.533  23.454  1.00  0.00     0.230 C 
BRANCH  18  19
ATOM     19  N   UNL A   1      33.859  23.201  24.003  1.00  0.00    -0.259 N 
ATOM     20  C   UNL A   1      32.400  20.087  24.728  1.00  0.00     0.029 C 
ATOM     21  C   UNL A   1      33.225  21.136  24.893  1.00  0.00     0.083 C 
ATOM     22  S   UNL A   1      34.907  21.183  25.170  1.00  0.00    -0.022 SA
ATOM     23  C   UNL A   1      32.782  22.524  24.540  1.00  0.00     0.268 C 
ATOM     24  C   UNL A   1      35.080  22.689  24.315  1.00  0.00     0.294 C 
ATOM     25  O   UNL A   1      31.655  22.948  24.735  1.00  0.00    -0.268 OA
ATOM     26  O   UNL A   1      36.179  23.220  24.106  1.00  0.00    -0.261 OA
BRANCH  20  27
ATOM     27  C   UNL A   1      32.655  18.627  24.607  1.00  0.00    -0.021 A 
ATOM     28  C   UNL A   1      32.548  18.346  22.040  1.00  0.00     0.045 C 
ATOM     29  C   UNL A   1      32.781  17.843  23.442  1.00  0.00    -0.044 A 
ATOM     30  C   UNL A   1      33.010  16.454  23.575  1.00  0.00     0.004 A 
ATOM     31  C   UNL A   1      33.095  15.832  24.822  1.00  0.00     0.000 A 
ATOM     32  C   UNL A   1      32.781  17.973  25.860  1.00  0.00     0.008 A 
ATOM     33  C   UNL A   1      32.971  16.593  25.970  1.00  0.00     0.001 A 
ENDBRANCH  20  27
ENDBRANCH  18  19
ENDBRANCH  15  18
ENDBRANCH   9  14
ENDBRANCH   5   8
ENDBRANCH   3   4
ENDBRANCH   2   3
ENDBRANCH   1   2
BRANCH   1  34
ATOM     34  C   UNL A   1      34.233  27.946  27.005  1.00  0.00     0.002 C 
BRANCH  34  35
ATOM     35  C   UNL A   1      33.877  29.564  27.215  1.00  0.00     0.021 C 
BRANCH  35  36
ATOM     36  C   UNL A   1      35.117  30.527  27.754  1.00  0.00     0.116 C 
BRANCH  36  37
ATOM     37  N   UNL A   1      36.729  30.338  28.354  1.00  0.00    -0.352 N 
ATOM     38  C   UNL A   1      38.234  29.899  28.220  1.00  0.00     0.251 C 
ATOM     39  H   UNL A   1      36.675  30.697  29.269  1.00  0.00     0.163 HD
ATOM     40  O   UNL A   1      38.945  30.687  28.891  1.00  0.00    -0.269 OA
BRANCH  38  41
ATOM     41  C   UNL A   1      39.263  28.829  27.289  1.00  0.00     0.039 A 
ATOM     42  C   UNL A   1      39.492  27.461  27.628  1.00  0.00     0.014 A 
ATOM     43  C   UNL A   1      40.171  29.150  26.305  1.00  0.00     0.014 A 
ATOM     44  C   UNL A   1      40.857  26.975  27.763  1.00  0.00     0.010 A 
ATOM     45  C   UNL A   1      41.519  28.793  26.536  1.00  0.00     0.010 A 
ATOM     46  C   UNL A   1      41.902  27.846  27.474  1.00  0.00    -0.014 A 
BRANCH  46  47
ATOM     47  C   UNL A   1      43.327  27.852  27.968  1.00  0.00     0.031 A 
ATOM     48  C   UNL A   1      44.019  29.125  27.880  1.00  0.00     0.074 A 
ATOM     49  C   UNL A   1      44.035  26.900  28.646  1.00  0.00     0.049 A 
ATOM     50  N   UNL A   1      45.041  29.383  27.142  1.00  0.00    -0.248 NA
ATOM     51  C   UNL A   1      43.506  30.266  28.624  1.00  0.00     0.031 C 
ATOM     52  C   UNL A   1      45.428  26.817  29.133  1.00  0.00     0.029 A 
ATOM     53  N   UNL A   1      43.619  25.633  28.977  1.00  0.00    -0.354 N 
ATOM     54  C   UNL A   1      45.502  30.594  27.617  1.00  0.00     0.074 A 
ATOM     55  C   UNL A   1      44.362  31.209  28.246  1.00  0.00     0.031 C 
ATOM     56  C   UNL A   1      45.797  25.512  29.201  1.00  0.00     0.029 A 
ATOM     57  C   UNL A   1      44.664  24.726  28.769  1.00  0.00     0.049 A 
ATOM     58  H   UNL A   1      42.723  25.400  29.312  1.00  0.00     0.167 HD
ATOM     59  C   UNL A   1      46.838  30.799  27.825  1.00  0.00     0.037 A 
ATOM     60  C   UNL A   1      44.530  23.884  27.695  1.00  0.00     0.037 A 
ATOM     61  C   UNL A   1      47.587  29.535  27.650  1.00  0.00     0.049 A 
ATOM     62  C   UNL A   1      45.427  24.354  26.548  1.00  0.00     0.074 A 
ATOM     63  C   UNL A   1      48.277  28.686  28.504  1.00  0.00     0.029 A 
ATOM     64  N   UNL A   1      47.409  28.800  26.489  1.00  0.00    -0.354 N 
ATOM     65  N   UNL A   1      46.249  25.362  26.673  1.00  0.00    -0.248 NA
ATOM     66  C   UNL A   1      45.491  23.793  25.197  1.00  0.00     0.031 C 
ATOM     67  C   UNL A   1      48.485  27.437  27.835  1.00  0.00     0.029 A 
ATOM     68  C   UNL A   1      47.942  27.529  26.568  1.00  0.00     0.049 A 
ATOM     69  H   UNL A   1      46.949  29.148  25.692  1.00  0.00     0.167 HD
ATOM     70  C   UNL A   1      46.903  25.627  25.506  1.00  0.00     0.074 A 
ATOM     71  C   UNL A   1      46.381  24.614  24.599  1.00  0.00     0.031 C 
ATOM     72  C   UNL A   1      47.807  26.655  25.404  1.00  0.00     0.037 A 
BRANCH  59  73
ATOM     73  C   UNL A   1      47.413  32.047  28.487  1.00  0.00     0.058 A 
ATOM     74  C   UNL A   1      47.898  33.118  27.708  1.00  0.00     0.135 A 
ATOM     75  C   UNL A   1      47.459  32.292  29.881  1.00  0.00     0.135 A 
ATOM     76  F   UNL A   1      47.805  33.108  26.371  1.00  0.00    -0.206 F 
ATOM     77  C   UNL A   1      48.455  34.277  28.260  1.00  0.00     0.059 A 
ATOM     78  C   UNL A   1      48.073  33.406  30.457  1.00  0.00     0.059 A 
ATOM     79  F   UNL A   1      46.816  31.518  30.762  1.00  0.00    -0.206 F 
ATOM     80  C   UNL A   1      48.563  34.404  29.638  1.00  0.00     0.060 A 
BRANCH  80  81
ATOM     81  S   UNL A   1      49.246  35.915  30.337  1.00  0.00     0.124 S 
ATOM     82  O   UNL A   1      49.640  35.483  31.675  1.00  0.00    -0.237 OA
ATOM     83  O   UNL A   1      50.339  36.209  29.416  1.00  0.00    -0.237 OA
ATOM     84  O   UNL A   1      48.127  36.853  30.292  1.00  0.00    -0.744 OA
ENDBRANCH  80  81
ENDBRANCH  59  73
BRANCH  60  85
ATOM     85  C   UNL A   1      43.087  23.344  27.641  1.00  0.00     0.058 A 
ATOM     86  C   UNL A   1      42.565  23.226  26.332  1.00  0.00     0.135 A 
ATOM     87  C   UNL A   1      42.823  22.221  28.385  1.00  0.00     0.135 A 
ATOM     88  F   UNL A   1      42.278  24.335  25.641  1.00  0.00    -0.206 F 
ATOM     89  C   UNL A   1      42.556  21.986  25.637  1.00  0.00     0.059 A 
ATOM     90  C   UNL A   1      42.587  20.996  27.720  1.00  0.00     0.059 A 
ATOM     91  F   UNL A   1      42.964  22.226  29.721  1.00  0.00    -0.206 F 
ATOM     92  C   UNL A   1      42.750  20.800  26.345  1.00  0.00     0.060 A 
BRANCH  92  93
ATOM     93  S   UNL A   1      43.481  19.036  25.417  1.00  0.00     0.124 S 
ATOM     94  O   UNL A   1      44.647  18.557  26.102  1.00  0.00    -0.237 OA
ATOM     95  O   UNL A   1      42.385  18.106  25.615  1.00  0.00    -0.237 OA
ATOM     96  O   UNL A   1      43.936  19.330  24.076  1.00  0.00    -0.744 OA
ENDBRANCH  92  93
ENDBRANCH  60  85
BRANCH  72  97
ATOM     97  C   UNL A   1      48.631  26.975  24.174  1.00  0.00     0.058 A 
ATOM     98  C   UNL A   1      50.013  26.753  24.100  1.00  0.00     0.135 A 
ATOM     99  C   UNL A   1      48.070  27.629  23.045  1.00  0.00     0.135 A 
ATOM    100  F   UNL A   1      50.706  26.323  25.165  1.00  0.00    -0.206 F 
ATOM    101  C   UNL A   1      50.749  27.013  22.941  1.00  0.00     0.059 A 
ATOM    102  C   UNL A   1      48.790  27.939  21.901  1.00  0.00     0.059 A 
ATOM    103  F   UNL A   1      46.789  28.009  22.986  1.00  0.00    -0.206 F 
ATOM    104  C   UNL A   1      50.121  27.586  21.838  1.00  0.00     0.060 A 
BRANCH 104 105
ATOM    105  S   UNL A   1      51.060  27.903  20.341  1.00  0.00     0.124 S 
ATOM    106  O   UNL A   1      51.277  29.345  20.412  1.00  0.00    -0.237 OA
ATOM    107  O   UNL A   1      52.241  27.073  20.558  1.00  0.00    -0.237 OA
ATOM    108  O   UNL A   1      50.169  27.460  19.273  1.00  0.00    -0.744 OA
ENDBRANCH 104 105
ENDBRANCH  72  97
ENDBRANCH  46  47
ENDBRANCH  38  41
ENDBRANCH  36  37
ENDBRANCH  35  36
ENDBRANCH  34  35
ENDBRANCH   1  34
TORSDOF 20
ENDMDL
MODEL 3
REMARK VINA RESULT:     -12.8      5.739      8.847
REMARK SMILES Cc1ccccc1/C=C1\SC(=O)N(CC(=O)Nc2ccccc2C(=O)NCCCCCCNC(=O)c2ccc(-c3c4nc(c(-c5c(F)cc(S(=O)(=O)[O-])cc5F)c5ccc([nH]5)c(-c5c(F)cc(S(=O)(=O)[O-])cc5F)c5nc(c(-c6c(F)cc(S(=O)(=O)[O-])cc6F)c6ccc3[nH]6)C=C5)C=C4)cc2)C1=O
REMARK SMILES IDX 29 1 28 2 27 3 26 4 24 5 25 6 23 8 18 9 19 10 20 11 22 12
REMARK SMILES IDX 21 13 17 14 15 15 16 16 14 18 13 19 8 20 9 21 10 22 102 23
REMARK SMILES IDX 11 24 103 25 12 26 7 27 1 28 2 29 3 30 4 31 6 32 5 33 30 34
REMARK SMILES IDX 31 35 32 36 33 37 34 38 35 40 36 41 37 42 101 43 38 44
REMARK SMILES IDX 100 45 39 46 40 47 41 48 94 49 42 50 99 51 93 52 95 53 43 54
REMARK SMILES IDX 98 55 92 56 91 57 44 59 78 60 57 61 77 62 58 63 61 64 76 65
REMARK SMILES IDX 96 66 59 67 60 68 75 70 97 71 62 72 45 73 46 74 55 75 47 76
REMARK SMILES IDX 48 77 54 78 56 79 49 80 50 81 51 82 52 83 53 84 79 85 80 86
REMARK SMILES IDX 89 87 81 88 82 89 88 90 90 91 83 92 84 93 85 94 86 95 87 96
REMARK SMILES IDX 63 97 64 98 73 99 65 100 66 101 72 102 74 103 67 104 68 105
REMARK SMILES IDX 69 106 70 107 71 108
REMARK H PARENT 26 7 17 17 33 39 95 58 61 69
REMARK Flexibility Score: inf
ROOT
ATOM      1  C   UNL A   1      32.014  27.083  27.254  1.00  0.00     0.002 C 
ENDROOT
BRANCH   1   2
ATOM      2  C   UNL A   1      31.456  25.844  26.537  1.00  0.00     0.021 C 
BRANCH   2   3
ATOM      3  C   UNL A   1      29.998  25.767  26.133  1.00  0.00     0.116 C 
BRANCH   3   4
ATOM      4  N   UNL A   1      29.719  25.088  24.867  1.00  0.00    -0.352 N 
ATOM      5  C   UNL A   1      30.079  25.363  23.567  1.00  0.00     0.253 C 
ATOM      6  O   UNL A   1      29.892  24.505  22.708  1.00  0.00    -0.269 OA
ATOM      7  H   UNL A   1      29.168  24.278  24.965  1.00  0.00     0.163 HD
BRANCH   5   8
ATOM      8  C   UNL A   1      30.683  26.653  23.175  1.00  0.00     0.063 A 
ATOM      9  C   UNL A   1      31.961  26.782  22.593  1.00  0.00     0.054 A 
ATOM     10  C   UNL A   1      32.460  28.085  22.376  1.00  0.00     0.027 A 
ATOM     11  C   UNL A   1      31.725  29.227  22.701  1.00  0.00     0.002 A 
ATOM     12  C   UNL A   1      30.027  27.818  23.627  1.00  0.00     0.016 A 
ATOM     13  C   UNL A   1      30.511  29.094  23.348  1.00  0.00     0.001 A 
BRANCH   9  14
ATOM     14  N   UNL A   1      32.924  25.778  22.364  1.00  0.00    -0.324 N 
ATOM     15  C   UNL A   1      33.700  24.943  23.107  1.00  0.00     0.244 C 
ATOM     16  O   UNL A   1      34.603  24.351  22.496  1.00  0.00    -0.273 OA
ATOM     17  H   UNL A   1      33.079  25.646  21.400  1.00  0.00     0.170 HD
BRANCH  15  18
ATOM     18  C   UNL A   1      33.355  24.530  24.530  1.00  0.00     0.230 C 
BRANCH  18  19
ATOM     19  N   UNL A   1      33.433  23.144  24.922  1.00  0.00    -0.259 N 
ATOM     20  C   UNL A   1      32.200  19.853  24.879  1.00  0.00     0.029 C 
ATOM     21  C   UNL A   1      32.834  20.931  25.373  1.00  0.00     0.083 C 
ATOM     22  S   UNL A   1      34.378  21.072  26.083  1.00  0.00    -0.022 SA
ATOM     23  C   UNL A   1      32.340  22.315  25.077  1.00  0.00     0.268 C 
ATOM     24  C   UNL A   1      34.588  22.692  25.481  1.00  0.00     0.294 C 
ATOM     25  O   UNL A   1      31.160  22.617  25.018  1.00  0.00    -0.268 OA
ATOM     26  O   UNL A   1      35.638  23.333  25.628  1.00  0.00    -0.261 OA
BRANCH  20  27
ATOM     27  C   UNL A   1      32.640  18.449  24.664  1.00  0.00    -0.021 A 
ATOM     28  C   UNL A   1      32.630  18.350  22.081  1.00  0.00     0.045 C 
ATOM     29  C   UNL A   1      32.891  17.777  23.450  1.00  0.00    -0.044 A 
ATOM     30  C   UNL A   1      33.290  16.420  23.491  1.00  0.00     0.004 A 
ATOM     31  C   UNL A   1      33.423  15.722  24.693  1.00  0.00     0.000 A 
ATOM     32  C   UNL A   1      32.817  17.724  25.870  1.00  0.00     0.008 A 
ATOM     33  C   UNL A   1      33.177  16.374  25.887  1.00  0.00     0.001 A 
ENDBRANCH  20  27
ENDBRANCH  18  19
ENDBRANCH  15  18
ENDBRANCH   9  14
ENDBRANCH   5   8
ENDBRANCH   3   4
ENDBRANCH   2   3
ENDBRANCH   1   2
BRANCH   1  34
ATOM     34  C   UNL A   1      31.202  28.422  27.423  1.00  0.00     0.002 C 
BRANCH  34  35
ATOM     35  C   UNL A   1      31.420  29.835  26.560  1.00  0.00     0.021 C 
BRANCH  35  36
ATOM     36  C   UNL A   1      32.946  30.108  25.968  1.00  0.00     0.116 C 
BRANCH  36  37
ATOM     37  N   UNL A   1      34.549  30.321  26.583  1.00  0.00    -0.352 N 
ATOM     38  C   UNL A   1      35.589  30.868  27.628  1.00  0.00     0.251 C 
ATOM     39  H   UNL A   1      35.110  29.845  25.928  1.00  0.00     0.163 HD
ATOM     40  O   UNL A   1      36.536  30.048  27.723  1.00  0.00    -0.269 OA
BRANCH  38  41
ATOM     41  C   UNL A   1      35.767  32.111  28.851  1.00  0.00     0.039 A 
ATOM     42  C   UNL A   1      36.824  33.071  28.853  1.00  0.00     0.014 A 
ATOM     43  C   UNL A   1      35.136  32.214  30.071  1.00  0.00     0.014 A 
ATOM     44  C   UNL A   1      37.645  33.230  30.044  1.00  0.00     0.010 A 
ATOM     45  C   UNL A   1      35.960  32.217  31.220  1.00  0.00     0.010 A 
ATOM     46  C   UNL A   1      37.318  32.494  31.178  1.00  0.00    -0.014 A 
BRANCH  46  47
ATOM     47  C   UNL A   1      38.184  32.044  32.327  1.00  0.00     0.031 A 
ATOM     48  C   UNL A   1      38.454  33.047  33.342  1.00  0.00     0.074 A 
ATOM     49  C   UNL A   1      38.628  30.799  32.671  1.00  0.00     0.049 A 
ATOM     50  N   UNL A   1      39.605  33.552  33.621  1.00  0.00    -0.248 NA
ATOM     51  C   UNL A   1      37.345  33.618  34.091  1.00  0.00     0.031 C 
ATOM     52  C   UNL A   1      39.496  30.286  33.751  1.00  0.00     0.029 A 
ATOM     53  N   UNL A   1      38.443  29.629  31.973  1.00  0.00    -0.354 N 
ATOM     54  C   UNL A   1      39.401  34.212  34.816  1.00  0.00     0.074 A 
ATOM     55  C   UNL A   1      37.989  34.496  34.852  1.00  0.00     0.031 C 
ATOM     56  C   UNL A   1      40.092  29.139  33.334  1.00  0.00     0.029 A 
ATOM     57  C   UNL A   1      39.626  28.881  31.990  1.00  0.00     0.049 A 
ATOM     58  H   UNL A   1      37.607  29.359  31.530  1.00  0.00     0.167 HD
ATOM     59  C   UNL A   1      40.301  34.099  35.839  1.00  0.00     0.037 A 
ATOM     60  C   UNL A   1      40.321  28.820  30.809  1.00  0.00     0.037 A 
ATOM     61  C   UNL A   1      41.322  33.078  35.517  1.00  0.00     0.049 A 
ATOM     62  C   UNL A   1      41.539  29.744  30.873  1.00  0.00     0.074 A 
ATOM     63  C   UNL A   1      41.628  31.817  36.012  1.00  0.00     0.029 A 
ATOM     64  N   UNL A   1      42.001  33.158  34.312  1.00  0.00    -0.354 N 
ATOM     65  N   UNL A   1      41.866  30.395  31.958  1.00  0.00    -0.248 NA
ATOM     66  C   UNL A   1      42.470  30.045  29.784  1.00  0.00     0.031 C 
ATOM     67  C   UNL A   1      42.482  31.153  35.073  1.00  0.00     0.029 A 
ATOM     68  C   UNL A   1      42.713  32.013  34.016  1.00  0.00     0.049 A 
ATOM     69  H   UNL A   1      41.978  33.950  33.727  1.00  0.00     0.167 HD
ATOM     70  C   UNL A   1      42.954  31.192  31.759  1.00  0.00     0.074 A 
ATOM     71  C   UNL A   1      43.293  30.945  30.364  1.00  0.00     0.031 C 
ATOM     72  C   UNL A   1      43.465  31.977  32.762  1.00  0.00     0.037 A 
BRANCH  59  73
ATOM     73  C   UNL A   1      40.077  34.671  37.235  1.00  0.00     0.058 A 
ATOM     74  C   UNL A   1      39.323  33.962  38.193  1.00  0.00     0.135 A 
ATOM     75  C   UNL A   1      40.630  35.879  37.727  1.00  0.00     0.135 A 
ATOM     76  F   UNL A   1      38.842  32.738  37.936  1.00  0.00    -0.206 F 
ATOM     77  C   UNL A   1      39.068  34.448  39.480  1.00  0.00     0.059 A 
ATOM     78  C   UNL A   1      40.332  36.419  38.980  1.00  0.00     0.059 A 
ATOM     79  F   UNL A   1      41.574  36.554  37.063  1.00  0.00    -0.206 F 
ATOM     80  C   UNL A   1      39.555  35.690  39.860  1.00  0.00     0.060 A 
BRANCH  80  81
ATOM     81  S   UNL A   1      39.252  36.287  41.531  1.00  0.00     0.124 S 
ATOM     82  O   UNL A   1      39.175  37.731  41.331  1.00  0.00    -0.237 OA
ATOM     83  O   UNL A   1      37.997  35.623  41.868  1.00  0.00    -0.237 OA
ATOM     84  O   UNL A   1      40.419  35.826  42.278  1.00  0.00    -0.744 OA
ENDBRANCH  80  81
ENDBRANCH  59  73
BRANCH  60  85
ATOM     85  C   UNL A   1      39.338  28.587  29.645  1.00  0.00     0.058 A 
ATOM     86  C   UNL A   1      39.463  29.521  28.591  1.00  0.00     0.135 A 
ATOM     87  C   UNL A   1      39.249  27.304  29.164  1.00  0.00     0.135 A 
ATOM     88  F   UNL A   1      39.076  30.787  28.791  1.00  0.00    -0.206 F 
ATOM     89  C   UNL A   1      40.199  29.228  27.410  1.00  0.00     0.059 A 
ATOM     90  C   UNL A   1      39.778  27.011  27.887  1.00  0.00     0.059 A 
ATOM     91  F   UNL A   1      38.838  26.296  29.952  1.00  0.00    -0.206 F 
ATOM     92  C   UNL A   1      40.531  27.904  27.119  1.00  0.00     0.060 A 
BRANCH  92  93
ATOM     93  S   UNL A   1      42.176  27.400  25.876  1.00  0.00     0.124 S 
ATOM     94  O   UNL A   1      41.854  26.268  25.056  1.00  0.00    -0.237 OA
ATOM     95  O   UNL A   1      42.308  28.580  25.045  1.00  0.00    -0.237 OA
ATOM     96  O   UNL A   1      43.295  26.963  26.682  1.00  0.00    -0.744 OA
ENDBRANCH  92  93
ENDBRANCH  60  85
BRANCH  72  97
ATOM     97  C   UNL A   1      44.708  32.835  32.654  1.00  0.00     0.058 A 
ATOM     98  C   UNL A   1      45.997  32.353  32.924  1.00  0.00     0.135 A 
ATOM     99  C   UNL A   1      44.638  34.226  32.375  1.00  0.00     0.135 A 
ATOM    100  F   UNL A   1      46.190  31.111  33.391  1.00  0.00    -0.206 F 
ATOM    101  C   UNL A   1      47.137  33.147  32.775  1.00  0.00     0.059 A 
ATOM    102  C   UNL A   1      45.752  35.046  32.266  1.00  0.00     0.059 A 
ATOM    103  F   UNL A   1      43.482  34.874  32.192  1.00  0.00    -0.206 F 
ATOM    104  C   UNL A   1      47.003  34.488  32.423  1.00  0.00     0.060 A 
BRANCH 104 105
ATOM    105  S   UNL A   1      48.467  35.506  32.211  1.00  0.00     0.124 S 
ATOM    106  O   UNL A   1      48.068  36.756  32.851  1.00  0.00    -0.237 OA
ATOM    107  O   UNL A   1      49.471  34.722  32.924  1.00  0.00    -0.237 OA
ATOM    108  O   UNL A   1      48.635  35.573  30.764  1.00  0.00    -0.744 OA
ENDBRANCH 104 105
ENDBRANCH  72  97
ENDBRANCH  46  47
ENDBRANCH  38  41
ENDBRANCH  36  37
ENDBRANCH  35  36
ENDBRANCH  34  35
ENDBRANCH   1  34
TORSDOF 20
ENDMDL
