MODEL 1
REMARK VINA RESULT:     -12.7      0.000      0.000
REMARK SMILES Cc1ccc(C(=O)N2CCC3(CCC(=O)N(CC(=O)NCCCCCCNC(=O)c4ccc(-c5c6nc(c(-c7c(F)cc(S(=O)(=O)[O-])cc7F)c7ccc([nH]7)c(-c7c(F)cc(S(=O)(=O)[O-])cc7F)c7nc(c(-c8c(F)cc(S(=O)(=O)[O-])cc8F)c8ccc5[nH]8)C=C7)C=C6)cc4)C3)CC2)cc1O
REMARK SMILES IDX 23 1 22 2 21 3 20 4 18 5 19 6 17 8 16 9 6 10 7 11 8 12 9 13
REMARK SMILES IDX 98 14 10 15 97 16 11 17 12 18 96 19 13 20 14 21 15 22 5 23
REMARK SMILES IDX 1 24 2 25 3 26 100 27 4 28 99 29 101 30 24 32 25 33 26 34
REMARK SMILES IDX 27 35 28 36 29 38 30 39 31 40 95 41 32 42 94 43 33 44 34 45
REMARK SMILES IDX 35 46 88 47 36 48 93 49 87 50 89 51 37 52 92 53 86 54 85 55
REMARK SMILES IDX 38 57 72 58 51 59 71 60 52 61 55 62 70 63 90 64 53 65 54 66
REMARK SMILES IDX 69 68 91 69 56 70 39 71 40 72 49 73 41 74 42 75 48 76 50 77
REMARK SMILES IDX 43 78 44 79 45 80 46 81 47 82 73 83 74 84 83 85 75 86 76 87
REMARK SMILES IDX 82 88 84 89 77 90 78 91 79 92 80 93 81 94 57 95 58 96 67 97
REMARK SMILES IDX 59 98 60 99 66 100 68 101 61 102 62 103 63 104 64 105 65 106
REMARK H PARENT 20 7 101 31 27 37 89 56 55 67
REMARK Flexibility Score: inf
ROOT
ATOM      1  C   UNL A   1      34.866  30.292  27.379  1.00  0.00     0.002 C 
ENDROOT
BRANCH   1   2
ATOM      2  C   UNL A   1      33.832  29.160  27.297  1.00  0.00     0.021 C 
BRANCH   2   3
ATOM      3  C   UNL A   1      33.003  29.187  26.018  1.00  0.00     0.116 C 
BRANCH   3   4
ATOM      4  N   UNL A   1      33.808  28.867  24.865  1.00  0.00    -0.355 N 
ATOM      5  C   UNL A   1      33.437  28.775  23.558  1.00  0.00     0.239 C 
ATOM      6  O   UNL A   1      34.334  28.650  22.719  1.00  0.00    -0.273 OA
ATOM      7  H   UNL A   1      34.759  28.689  25.048  1.00  0.00     0.163 HD
BRANCH   5   8
ATOM      8  C   UNL A   1      31.984  29.034  23.138  1.00  0.00     0.219 C 
BRANCH   8   9
ATOM      9  N   UNL A   1      31.087  27.889  22.945  1.00  0.00    -0.333 N 
ATOM     10  C   UNL A   1      32.446  22.878  26.730  1.00  0.00     0.253 C 
ATOM     11  O   UNL A   1      32.185  22.976  27.930  1.00  0.00    -0.269 OA
ATOM     12  N   UNL A   1      31.712  23.572  25.772  1.00  0.00    -0.339 N 
ATOM     13  C   UNL A   1      31.084  24.818  26.173  1.00  0.00     0.120 C 
ATOM     14  C   UNL A   1      31.319  23.065  24.460  1.00  0.00     0.120 C 
ATOM     15  C   UNL A   1      31.449  25.894  25.161  1.00  0.00     0.030 C 
ATOM     16  C   UNL A   1      31.574  24.107  23.364  1.00  0.00     0.030 C 
ATOM     17  C   UNL A   1      31.031  25.521  23.715  1.00  0.00    -0.008 C 
ATOM     18  C   UNL A   1      29.507  25.563  23.490  1.00  0.00     0.019 C 
ATOM     19  C   UNL A   1      31.633  26.551  22.747  1.00  0.00     0.127 C 
ATOM     20  C   UNL A   1      28.919  26.953  23.677  1.00  0.00     0.101 C 
ATOM     21  C   UNL A   1      29.731  28.108  23.119  1.00  0.00     0.223 C 
ATOM     22  O   UNL A   1      29.221  29.220  23.001  1.00  0.00    -0.275 OA
BRANCH  10  23
ATOM     23  C   UNL A   1      33.678  22.129  26.337  1.00  0.00     0.043 A 
ATOM     24  C   UNL A   1      37.268  20.343  24.702  1.00  0.00     0.048 C 
ATOM     25  C   UNL A   1      36.045  20.970  25.305  1.00  0.00    -0.009 A 
ATOM     26  C   UNL A   1      34.803  20.357  25.108  1.00  0.00     0.008 A 
ATOM     27  C   UNL A   1      36.083  22.171  26.021  1.00  0.00     0.119 A 
ATOM     28  C   UNL A   1      33.633  20.943  25.597  1.00  0.00     0.014 A 
ATOM     29  C   UNL A   1      34.920  22.740  26.542  1.00  0.00     0.060 A 
BRANCH  27  30
ATOM     30  O   UNL A   1      37.239  22.872  26.222  1.00  0.00    -0.508 OA
ATOM     31  H   UNL A   1      37.286  23.776  25.980  1.00  0.00     0.293 HD
ENDBRANCH  27  30
ENDBRANCH  10  23
ENDBRANCH   8   9
ENDBRANCH   5   8
ENDBRANCH   3   4
ENDBRANCH   2   3
ENDBRANCH   1   2
BRANCH   1  32
ATOM     32  C   UNL A   1      34.359  31.580  28.039  1.00  0.00     0.002 C 
BRANCH  32  33
ATOM     33  C   UNL A   1      35.351  32.745  28.018  1.00  0.00     0.021 C 
BRANCH  33  34
ATOM     34  C   UNL A   1      36.343  32.743  29.175  1.00  0.00     0.116 C 
BRANCH  34  35
ATOM     35  N   UNL A   1      35.958  31.803  30.216  1.00  0.00    -0.352 N 
ATOM     36  C   UNL A   1      36.583  30.650  30.616  1.00  0.00     0.251 C 
ATOM     37  H   UNL A   1      35.130  32.025  30.700  1.00  0.00     0.163 HD
ATOM     38  O   UNL A   1      36.000  29.859  31.356  1.00  0.00    -0.269 OA
BRANCH  36  39
ATOM     39  C   UNL A   1      37.951  30.355  30.141  1.00  0.00     0.039 A 
ATOM     40  C   UNL A   1      38.997  30.317  31.066  1.00  0.00     0.014 A 
ATOM     41  C   UNL A   1      38.200  30.117  28.786  1.00  0.00     0.014 A 
ATOM     42  C   UNL A   1      40.283  29.984  30.639  1.00  0.00     0.010 A 
ATOM     43  C   UNL A   1      39.466  29.711  28.375  1.00  0.00     0.010 A 
ATOM     44  C   UNL A   1      40.522  29.644  29.297  1.00  0.00    -0.014 A 
BRANCH  44  45
ATOM     45  C   UNL A   1      41.869  29.214  28.839  1.00  0.00     0.031 A 
ATOM     46  C   UNL A   1      42.985  30.219  28.724  1.00  0.00     0.074 A 
ATOM     47  C   UNL A   1      42.069  27.934  28.469  1.00  0.00     0.049 A 
ATOM     48  N   UNL A   1      44.204  30.049  28.280  1.00  0.00    -0.248 NA
ATOM     49  C   UNL A   1      42.684  31.599  29.137  1.00  0.00     0.031 C 
ATOM     50  C   UNL A   1      41.053  26.879  28.491  1.00  0.00     0.029 A 
ATOM     51  N   UNL A   1      43.189  27.302  27.989  1.00  0.00    -0.354 N 
ATOM     52  C   UNL A   1      44.809  31.299  28.350  1.00  0.00     0.074 A 
ATOM     53  C   UNL A   1      43.808  32.228  28.826  1.00  0.00     0.031 C 
ATOM     54  C   UNL A   1      41.602  25.729  28.068  1.00  0.00     0.029 A 
ATOM     55  C   UNL A   1      42.995  25.971  27.703  1.00  0.00     0.049 A 
ATOM     56  H   UNL A   1      44.052  27.759  27.863  1.00  0.00     0.167 HD
ATOM     57  C   UNL A   1      46.091  31.635  28.067  1.00  0.00     0.037 A 
ATOM     58  C   UNL A   1      43.837  25.051  27.193  1.00  0.00     0.037 A 
ATOM     59  C   UNL A   1      47.088  30.699  27.616  1.00  0.00     0.049 A 
ATOM     60  C   UNL A   1      45.253  25.454  26.875  1.00  0.00     0.074 A 
ATOM     61  C   UNL A   1      48.427  30.930  27.357  1.00  0.00     0.029 A 
ATOM     62  N   UNL A   1      46.856  29.357  27.353  1.00  0.00    -0.354 N 
ATOM     63  N   UNL A   1      45.826  26.626  27.008  1.00  0.00    -0.248 NA
ATOM     64  C   UNL A   1      46.138  24.409  26.343  1.00  0.00     0.031 C 
ATOM     65  C   UNL A   1      48.992  29.741  26.884  1.00  0.00     0.029 A 
ATOM     66  C   UNL A   1      48.020  28.753  26.908  1.00  0.00     0.049 A 
ATOM     67  H   UNL A   1      45.991  28.901  27.466  1.00  0.00     0.167 HD
ATOM     68  C   UNL A   1      47.147  26.451  26.607  1.00  0.00     0.074 A 
ATOM     69  C   UNL A   1      47.289  25.059  26.238  1.00  0.00     0.031 C 
ATOM     70  C   UNL A   1      48.150  27.362  26.551  1.00  0.00     0.037 A 
BRANCH  57  71
ATOM     71  C   UNL A   1      46.493  33.076  28.239  1.00  0.00     0.058 A 
ATOM     72  C   UNL A   1      47.026  33.556  29.446  1.00  0.00     0.135 A 
ATOM     73  C   UNL A   1      46.388  33.978  27.167  1.00  0.00     0.135 A 
ATOM     74  F   UNL A   1      47.134  32.743  30.509  1.00  0.00    -0.206 F 
ATOM     75  C   UNL A   1      47.416  34.883  29.593  1.00  0.00     0.059 A 
ATOM     76  C   UNL A   1      46.801  35.302  27.282  1.00  0.00     0.059 A 
ATOM     77  F   UNL A   1      45.883  33.574  25.990  1.00  0.00    -0.206 F 
ATOM     78  C   UNL A   1      47.302  35.748  28.503  1.00  0.00     0.060 A 
BRANCH  78  79
ATOM     79  S   UNL A   1      47.826  37.463  28.708  1.00  0.00     0.124 S 
ATOM     80  O   UNL A   1      49.184  37.418  28.174  1.00  0.00    -0.237 OA
ATOM     81  O   UNL A   1      46.851  38.185  27.897  1.00  0.00    -0.237 OA
ATOM     82  O   UNL A   1      47.726  37.681  30.148  1.00  0.00    -0.744 OA
ENDBRANCH  78  79
ENDBRANCH  57  71
BRANCH  58  83
ATOM     83  C   UNL A   1      43.369  23.659  26.960  1.00  0.00     0.058 A 
ATOM     84  C   UNL A   1      43.233  22.753  28.023  1.00  0.00     0.135 A 
ATOM     85  C   UNL A   1      43.044  23.205  25.672  1.00  0.00     0.135 A 
ATOM     86  F   UNL A   1      43.535  23.135  29.273  1.00  0.00    -0.206 F 
ATOM     87  C   UNL A   1      42.815  21.442  27.815  1.00  0.00     0.059 A 
ATOM     88  C   UNL A   1      42.596  21.908  25.442  1.00  0.00     0.059 A 
ATOM     89  F   UNL A   1      43.140  24.037  24.622  1.00  0.00    -0.206 F 
ATOM     90  C   UNL A   1      42.496  21.030  26.520  1.00  0.00     0.060 A 
BRANCH  90  91
ATOM     91  S   UNL A   1      41.918  19.338  26.266  1.00  0.00     0.124 S 
ATOM     92  O   UNL A   1      42.298  18.707  27.524  1.00  0.00    -0.237 OA
ATOM     93  O   UNL A   1      40.488  19.533  26.052  1.00  0.00    -0.237 OA
ATOM     94  O   UNL A   1      42.667  18.903  25.090  1.00  0.00    -0.744 OA
ENDBRANCH  90  91
ENDBRANCH  58  83
BRANCH  70  95
ATOM     95  C   UNL A   1      49.505  26.877  26.111  1.00  0.00     0.058 A 
ATOM     96  C   UNL A   1      49.937  26.991  24.781  1.00  0.00     0.135 A 
ATOM     97  C   UNL A   1      50.405  26.343  27.049  1.00  0.00     0.135 A 
ATOM     98  F   UNL A   1      49.114  27.487  23.844  1.00  0.00    -0.206 F 
ATOM     99  C   UNL A   1      51.204  26.570  24.390  1.00  0.00     0.059 A 
ATOM    100  C   UNL A   1      51.688  25.946  26.686  1.00  0.00     0.059 A 
ATOM    101  F   UNL A   1      50.047  26.223  28.337  1.00  0.00    -0.206 F 
ATOM    102  C   UNL A   1      52.074  26.052  25.352  1.00  0.00     0.060 A 
BRANCH 102 103
ATOM    103  S   UNL A   1      53.728  25.545  24.836  1.00  0.00     0.124 S 
ATOM    104  O   UNL A   1      54.561  26.191  25.845  1.00  0.00    -0.237 OA
ATOM    105  O   UNL A   1      53.647  24.091  24.916  1.00  0.00    -0.237 OA
ATOM    106  O   UNL A   1      53.844  26.089  23.486  1.00  0.00    -0.744 OA
ENDBRANCH 102 103
ENDBRANCH  70  95
ENDBRANCH  44  45
ENDBRANCH  36  39
ENDBRANCH  34  35
ENDBRANCH  33  34
ENDBRANCH  32  33
ENDBRANCH   1  32
TORSDOF 19
ENDMDL
MODEL 2
REMARK VINA RESULT:     -12.7      3.018      5.269
REMARK SMILES Cc1ccc(C(=O)N2CCC3(CCC(=O)N(CC(=O)NCCCCCCNC(=O)c4ccc(-c5c6nc(c(-c7c(F)cc(S(=O)(=O)[O-])cc7F)c7ccc([nH]7)c(-c7c(F)cc(S(=O)(=O)[O-])cc7F)c7nc(c(-c8c(F)cc(S(=O)(=O)[O-])cc8F)c8ccc5[nH]8)C=C7)C=C6)cc4)C3)CC2)cc1O
REMARK SMILES IDX 23 1 22 2 21 3 20 4 18 5 19 6 17 8 16 9 6 10 7 11 8 12 9 13
REMARK SMILES IDX 98 14 10 15 97 16 11 17 12 18 96 19 13 20 14 21 15 22 5 23
REMARK SMILES IDX 1 24 2 25 3 26 100 27 4 28 99 29 101 30 24 32 25 33 26 34
REMARK SMILES IDX 27 35 28 36 29 38 30 39 31 40 95 41 32 42 94 43 33 44 34 45
REMARK SMILES IDX 35 46 88 47 36 48 93 49 87 50 89 51 37 52 92 53 86 54 85 55
REMARK SMILES IDX 38 57 72 58 51 59 71 60 52 61 55 62 70 63 90 64 53 65 54 66
REMARK SMILES IDX 69 68 91 69 56 70 39 71 40 72 49 73 41 74 42 75 48 76 50 77
REMARK SMILES IDX 43 78 44 79 45 80 46 81 47 82 73 83 74 84 83 85 75 86 76 87
REMARK SMILES IDX 82 88 84 89 77 90 78 91 79 92 80 93 81 94 57 95 58 96 67 97
REMARK SMILES IDX 59 98 60 99 66 100 68 101 61 102 62 103 63 104 64 105 65 106
REMARK H PARENT 20 7 101 31 27 37 89 56 55 67
REMARK Flexibility Score: inf
ROOT
ATOM      1  C   UNL A   1      34.149  24.807  26.130  1.00  0.00     0.002 C 
ENDROOT
BRANCH   1   2
ATOM      2  C   UNL A   1      35.454  24.647  25.337  1.00  0.00     0.021 C 
BRANCH   2   3
ATOM      3  C   UNL A   1      36.514  23.833  26.071  1.00  0.00     0.116 C 
BRANCH   3   4
ATOM      4  N   UNL A   1      37.043  22.785  25.233  1.00  0.00    -0.355 N 
ATOM      5  C   UNL A   1      36.660  21.482  25.144  1.00  0.00     0.239 C 
ATOM      6  O   UNL A   1      37.149  20.806  24.233  1.00  0.00    -0.273 OA
ATOM      7  H   UNL A   1      37.786  23.050  24.643  1.00  0.00     0.163 HD
BRANCH   5   8
ATOM      8  C   UNL A   1      35.510  20.944  26.005  1.00  0.00     0.219 C 
BRANCH   8   9
ATOM      9  N   UNL A   1      34.196  20.739  25.384  1.00  0.00    -0.333 N 
ATOM     10  C   UNL A   1      32.384  25.546  21.525  1.00  0.00     0.253 C 
ATOM     11  O   UNL A   1      32.960  25.664  20.443  1.00  0.00    -0.269 OA
ATOM     12  N   UNL A   1      32.250  24.305  22.142  1.00  0.00    -0.339 N 
ATOM     13  C   UNL A   1      33.257  23.298  21.860  1.00  0.00     0.120 C 
ATOM     14  C   UNL A   1      31.076  23.832  22.871  1.00  0.00     0.120 C 
ATOM     15  C   UNL A   1      33.761  22.731  23.179  1.00  0.00     0.030 C 
ATOM     16  C   UNL A   1      31.476  23.167  24.194  1.00  0.00     0.030 C 
ATOM     17  C   UNL A   1      32.623  22.128  24.044  1.00  0.00    -0.008 C 
ATOM     18  C   UNL A   1      32.059  20.810  23.479  1.00  0.00     0.019 C 
ATOM     19  C   UNL A   1      33.186  21.790  25.433  1.00  0.00     0.127 C 
ATOM     20  C   UNL A   1      33.092  19.696  23.433  1.00  0.00     0.101 C 
ATOM     21  C   UNL A   1      34.023  19.592  24.628  1.00  0.00     0.223 C 
ATOM     22  O   UNL A   1      34.708  18.584  24.790  1.00  0.00    -0.275 OA
BRANCH  10  23
ATOM     23  C   UNL A   1      31.979  26.791  22.246  1.00  0.00     0.043 A 
ATOM     24  C   UNL A   1      31.067  30.137  24.840  1.00  0.00     0.048 C 
ATOM     25  C   UNL A   1      31.404  29.004  23.915  1.00  0.00    -0.009 A 
ATOM     26  C   UNL A   1      30.417  28.059  23.615  1.00  0.00     0.008 A 
ATOM     27  C   UNL A   1      32.680  28.823  23.372  1.00  0.00     0.119 A 
ATOM     28  C   UNL A   1      30.709  26.954  22.811  1.00  0.00     0.014 A 
ATOM     29  C   UNL A   1      32.965  27.740  22.538  1.00  0.00     0.060 A 
BRANCH  27  30
ATOM     30  O   UNL A   1      33.724  29.661  23.647  1.00  0.00    -0.508 OA
ATOM     31  H   UNL A   1      34.197  30.065  22.947  1.00  0.00     0.293 HD
ENDBRANCH  27  30
ENDBRANCH  10  23
ENDBRANCH   8   9
ENDBRANCH   5   8
ENDBRANCH   3   4
ENDBRANCH   2   3
ENDBRANCH   1   2
BRANCH   1  32
ATOM     32  C   UNL A   1      33.198  25.885  25.595  1.00  0.00     0.002 C 
BRANCH  32  33
ATOM     33  C   UNL A   1      33.000  27.085  26.523  1.00  0.00     0.021 C 
BRANCH  33  34
ATOM     34  C   UNL A   1      34.190  28.036  26.580  1.00  0.00     0.116 C 
BRANCH  34  35
ATOM     35  N   UNL A   1      33.791  29.376  26.980  1.00  0.00    -0.352 N 
ATOM     36  C   UNL A   1      34.459  30.279  27.769  1.00  0.00     0.251 C 
ATOM     37  H   UNL A   1      32.919  29.677  26.637  1.00  0.00     0.163 HD
ATOM     38  O   UNL A   1      33.875  31.277  28.189  1.00  0.00    -0.269 OA
BRANCH  36  39
ATOM     39  C   UNL A   1      35.873  30.038  28.123  1.00  0.00     0.039 A 
ATOM     40  C   UNL A   1      36.180  29.552  29.396  1.00  0.00     0.014 A 
ATOM     41  C   UNL A   1      36.892  30.293  27.201  1.00  0.00     0.014 A 
ATOM     42  C   UNL A   1      37.507  29.268  29.723  1.00  0.00     0.010 A 
ATOM     43  C   UNL A   1      38.203  29.937  27.503  1.00  0.00     0.010 A 
ATOM     44  C   UNL A   1      38.525  29.424  28.768  1.00  0.00    -0.014 A 
BRANCH  44  45
ATOM     45  C   UNL A   1      39.932  29.055  29.075  1.00  0.00     0.031 A 
ATOM     46  C   UNL A   1      40.865  30.070  29.679  1.00  0.00     0.074 A 
ATOM     47  C   UNL A   1      40.383  27.827  28.751  1.00  0.00     0.049 A 
ATOM     48  N   UNL A   1      42.140  29.958  29.953  1.00  0.00    -0.248 NA
ATOM     49  C   UNL A   1      40.299  31.391  29.994  1.00  0.00     0.031 C 
ATOM     50  C   UNL A   1      39.587  26.773  28.118  1.00  0.00     0.029 A 
ATOM     51  N   UNL A   1      41.624  27.259  28.897  1.00  0.00    -0.354 N 
ATOM     52  C   UNL A   1      42.528  31.192  30.459  1.00  0.00     0.074 A 
ATOM     53  C   UNL A   1      41.370  32.056  30.403  1.00  0.00     0.031 C 
ATOM     54  C   UNL A   1      40.351  25.682  27.953  1.00  0.00     0.029 A 
ATOM     55  C   UNL A   1      41.702  25.970  28.425  1.00  0.00     0.049 A 
ATOM     56  H   UNL A   1      42.387  27.730  29.303  1.00  0.00     0.167 HD
ATOM     57  C   UNL A   1      43.736  31.564  30.950  1.00  0.00     0.037 A 
ATOM     58  C   UNL A   1      42.745  25.118  28.368  1.00  0.00     0.037 A 
ATOM     59  C   UNL A   1      44.878  30.690  31.023  1.00  0.00     0.049 A 
ATOM     60  C   UNL A   1      44.080  25.560  28.908  1.00  0.00     0.074 A 
ATOM     61  C   UNL A   1      46.128  30.954  31.554  1.00  0.00     0.029 A 
ATOM     62  N   UNL A   1      44.913  29.387  30.549  1.00  0.00    -0.354 N 
ATOM     63  N   UNL A   1      44.412  26.710  29.441  1.00  0.00    -0.248 NA
ATOM     64  C   UNL A   1      45.178  24.587  28.843  1.00  0.00     0.031 C 
ATOM     65  C   UNL A   1      46.935  29.830  31.352  1.00  0.00     0.029 A 
ATOM     66  C   UNL A   1      46.170  28.842  30.751  1.00  0.00     0.049 A 
ATOM     67  H   UNL A   1      44.155  28.917  30.131  1.00  0.00     0.167 HD
ATOM     68  C   UNL A   1      45.750  26.588  29.806  1.00  0.00     0.074 A 
ATOM     69  C   UNL A   1      46.159  25.248  29.441  1.00  0.00     0.031 C 
ATOM     70  C   UNL A   1      46.562  27.503  30.390  1.00  0.00     0.037 A 
BRANCH  57  71
ATOM     71  C   UNL A   1      43.886  32.976  31.449  1.00  0.00     0.058 A 
ATOM     72  C   UNL A   1      44.292  34.020  30.601  1.00  0.00     0.135 A 
ATOM     73  C   UNL A   1      43.574  33.300  32.780  1.00  0.00     0.135 A 
ATOM     74  F   UNL A   1      44.618  33.767  29.324  1.00  0.00    -0.206 F 
ATOM     75  C   UNL A   1      44.408  35.327  31.062  1.00  0.00     0.059 A 
ATOM     76  C   UNL A   1      43.653  34.606  33.253  1.00  0.00     0.059 A 
ATOM     77  F   UNL A   1      43.183  32.341  33.635  1.00  0.00    -0.206 F 
ATOM     78  C   UNL A   1      44.084  35.611  32.389  1.00  0.00     0.060 A 
BRANCH  78  79
ATOM     79  S   UNL A   1      44.227  37.316  32.965  1.00  0.00     0.124 S 
ATOM     80  O   UNL A   1      44.067  38.058  31.718  1.00  0.00    -0.237 OA
ATOM     81  O   UNL A   1      43.119  37.419  33.909  1.00  0.00    -0.237 OA
ATOM     82  O   UNL A   1      45.560  37.365  33.557  1.00  0.00    -0.744 OA
ENDBRANCH  78  79
ENDBRANCH  57  71
BRANCH  58  83
ATOM     83  C   UNL A   1      42.568  23.761  27.786  1.00  0.00     0.058 A 
ATOM     84  C   UNL A   1      42.420  22.633  28.608  1.00  0.00     0.135 A 
ATOM     85  C   UNL A   1      42.539  23.561  26.397  1.00  0.00     0.135 A 
ATOM     86  F   UNL A   1      42.446  22.769  29.943  1.00  0.00    -0.206 F 
ATOM     87  C   UNL A   1      42.274  21.356  28.077  1.00  0.00     0.059 A 
ATOM     88  C   UNL A   1      42.364  22.298  25.841  1.00  0.00     0.059 A 
ATOM     89  F   UNL A   1      42.658  24.608  25.564  1.00  0.00    -0.206 F 
ATOM     90  C   UNL A   1      42.245  21.199  26.690  1.00  0.00     0.060 A 
BRANCH  90  91
ATOM     91  S   UNL A   1      42.017  19.543  26.009  1.00  0.00     0.124 S 
ATOM     92  O   UNL A   1      42.452  18.706  27.121  1.00  0.00    -0.237 OA
ATOM     93  O   UNL A   1      40.587  19.527  25.717  1.00  0.00    -0.237 OA
ATOM     94  O   UNL A   1      42.888  19.540  24.838  1.00  0.00    -0.744 OA
ENDBRANCH  90  91
ENDBRANCH  58  83
BRANCH  70  95
ATOM     95  C   UNL A   1      47.970  27.076  30.710  1.00  0.00     0.058 A 
ATOM     96  C   UNL A   1      49.024  27.255  29.800  1.00  0.00     0.135 A 
ATOM     97  C   UNL A   1      48.277  26.534  31.970  1.00  0.00     0.135 A 
ATOM     98  F   UNL A   1      48.784  27.762  28.581  1.00  0.00    -0.206 F 
ATOM     99  C   UNL A   1      50.328  26.888  30.118  1.00  0.00     0.059 A 
ATOM    100  C   UNL A   1      49.578  26.191  32.320  1.00  0.00     0.059 A 
ATOM    101  F   UNL A   1      47.309  26.353  32.881  1.00  0.00    -0.206 F 
ATOM    102  C   UNL A   1      50.595  26.361  31.383  1.00  0.00     0.060 A 
BRANCH 102 103
ATOM    103  S   UNL A   1      52.298  25.925  31.794  1.00  0.00     0.124 S 
ATOM    104  O   UNL A   1      52.577  26.839  32.896  1.00  0.00    -0.237 OA
ATOM    105  O   UNL A   1      52.181  24.515  32.153  1.00  0.00    -0.237 OA
ATOM    106  O   UNL A   1      53.025  26.194  30.557  1.00  0.00    -0.744 OA
ENDBRANCH 102 103
ENDBRANCH  70  95
ENDBRANCH  44  45
ENDBRANCH  36  39
ENDBRANCH  34  35
ENDBRANCH  33  34
ENDBRANCH  32  33
ENDBRANCH   1  32
TORSDOF 19
ENDMDL
MODEL 3
REMARK VINA RESULT:     -12.4      6.182      8.371
REMARK SMILES Cc1ccc(C(=O)N2CCC3(CCC(=O)N(CC(=O)NCCCCCCNC(=O)c4ccc(-c5c6nc(c(-c7c(F)cc(S(=O)(=O)[O-])cc7F)c7ccc([nH]7)c(-c7c(F)cc(S(=O)(=O)[O-])cc7F)c7nc(c(-c8c(F)cc(S(=O)(=O)[O-])cc8F)c8ccc5[nH]8)C=C7)C=C6)cc4)C3)CC2)cc1O
REMARK SMILES IDX 23 1 22 2 21 3 20 4 18 5 19 6 17 8 16 9 6 10 7 11 8 12 9 13
REMARK SMILES IDX 98 14 10 15 97 16 11 17 12 18 96 19 13 20 14 21 15 22 5 23
REMARK SMILES IDX 1 24 2 25 3 26 100 27 4 28 99 29 101 30 24 32 25 33 26 34
REMARK SMILES IDX 27 35 28 36 29 38 30 39 31 40 95 41 32 42 94 43 33 44 34 45
REMARK SMILES IDX 35 46 88 47 36 48 93 49 87 50 89 51 37 52 92 53 86 54 85 55
REMARK SMILES IDX 38 57 72 58 51 59 71 60 52 61 55 62 70 63 90 64 53 65 54 66
REMARK SMILES IDX 69 68 91 69 56 70 39 71 40 72 49 73 41 74 42 75 48 76 50 77
REMARK SMILES IDX 43 78 44 79 45 80 46 81 47 82 73 83 74 84 83 85 75 86 76 87
REMARK SMILES IDX 82 88 84 89 77 90 78 91 79 92 80 93 81 94 57 95 58 96 67 97
REMARK SMILES IDX 59 98 60 99 66 100 68 101 61 102 62 103 63 104 64 105 65 106
REMARK H PARENT 20 7 101 31 27 37 89 56 55 67
REMARK Flexibility Score: inf
ROOT
ATOM      1  C   UNL A   1      35.224  31.362  27.628  1.00  0.00     0.002 C 
ENDROOT
BRANCH   1   2
ATOM      2  C   UNL A   1      35.532  29.869  27.802  1.00  0.00     0.021 C 
BRANCH   2   3
ATOM      3  C   UNL A   1      34.707  28.969  26.889  1.00  0.00     0.116 C 
BRANCH   3   4
ATOM      4  N   UNL A   1      33.439  28.633  27.489  1.00  0.00    -0.355 N 
ATOM      5  C   UNL A   1      32.182  28.941  27.068  1.00  0.00     0.239 C 
ATOM      6  O   UNL A   1      31.238  28.403  27.654  1.00  0.00    -0.273 OA
ATOM      7  H   UNL A   1      33.491  28.109  28.321  1.00  0.00     0.163 HD
BRANCH   5   8
ATOM      8  C   UNL A   1      31.964  29.749  25.781  1.00  0.00     0.219 C 
BRANCH   8   9
ATOM      9  N   UNL A   1      31.707  29.030  24.528  1.00  0.00    -0.333 N 
ATOM     10  C   UNL A   1      31.898  22.636  25.132  1.00  0.00     0.253 C 
ATOM     11  O   UNL A   1      30.970  22.086  25.725  1.00  0.00    -0.269 OA
ATOM     12  N   UNL A   1      31.710  23.833  24.446  1.00  0.00    -0.339 N 
ATOM     13  C   UNL A   1      30.654  24.717  24.906  1.00  0.00     0.120 C 
ATOM     14  C   UNL A   1      32.317  24.193  23.168  1.00  0.00     0.120 C 
ATOM     15  C   UNL A   1      31.231  26.115  25.075  1.00  0.00     0.030 C 
ATOM     16  C   UNL A   1      32.869  25.624  23.199  1.00  0.00     0.030 C 
ATOM     17  C   UNL A   1      31.862  26.664  23.768  1.00  0.00    -0.008 C 
ATOM     18  C   UNL A   1      30.820  27.021  22.690  1.00  0.00     0.019 C 
ATOM     19  C   UNL A   1      32.606  27.969  24.090  1.00  0.00     0.127 C 
ATOM     20  C   UNL A   1      29.881  28.137  23.121  1.00  0.00     0.101 C 
ATOM     21  C   UNL A   1      30.511  29.290  23.881  1.00  0.00     0.223 C 
ATOM     22  O   UNL A   1      29.886  30.336  24.043  1.00  0.00    -0.275 OA
BRANCH  10  23
ATOM     23  C   UNL A   1      33.274  22.078  25.306  1.00  0.00     0.043 A 
ATOM     24  C   UNL A   1      37.420  20.829  25.331  1.00  0.00     0.048 C 
ATOM     25  C   UNL A   1      35.987  21.274  25.363  1.00  0.00    -0.009 A 
ATOM     26  C   UNL A   1      35.015  20.469  24.761  1.00  0.00     0.008 A 
ATOM     27  C   UNL A   1      35.582  22.486  25.931  1.00  0.00     0.119 A 
ATOM     28  C   UNL A   1      33.679  20.879  24.712  1.00  0.00     0.014 A 
ATOM     29  C   UNL A   1      34.243  22.881  25.917  1.00  0.00     0.060 A 
BRANCH  27  30
ATOM     30  O   UNL A   1      36.463  23.365  26.496  1.00  0.00    -0.508 OA
ATOM     31  H   UNL A   1      37.384  23.250  26.372  1.00  0.00     0.293 HD
ENDBRANCH  27  30
ENDBRANCH  10  23
ENDBRANCH   8   9
ENDBRANCH   5   8
ENDBRANCH   3   4
ENDBRANCH   2   3
ENDBRANCH   1   2
BRANCH   1  32
ATOM     32  C   UNL A   1      34.045  31.879  28.461  1.00  0.00     0.002 C 
BRANCH  32  33
ATOM     33  C   UNL A   1      33.110  32.840  27.724  1.00  0.00     0.021 C 
BRANCH  33  34
ATOM     34  C   UNL A   1      33.632  34.269  27.626  1.00  0.00     0.116 C 
BRANCH  34  35
ATOM     35  N   UNL A   1      32.921  35.166  28.523  1.00  0.00    -0.352 N 
ATOM     36  C   UNL A   1      33.047  35.312  29.881  1.00  0.00     0.251 C 
ATOM     37  H   UNL A   1      32.256  35.752  28.095  1.00  0.00     0.163 HD
ATOM     38  O   UNL A   1      32.210  35.957  30.510  1.00  0.00    -0.269 OA
BRANCH  36  39
ATOM     39  C   UNL A   1      34.180  34.677  30.585  1.00  0.00     0.039 A 
ATOM     40  C   UNL A   1      33.922  33.843  31.674  1.00  0.00     0.014 A 
ATOM     41  C   UNL A   1      35.496  34.907  30.170  1.00  0.00     0.014 A 
ATOM     42  C   UNL A   1      34.980  33.193  32.312  1.00  0.00     0.010 A 
ATOM     43  C   UNL A   1      36.541  34.199  30.757  1.00  0.00     0.010 A 
ATOM     44  C   UNL A   1      36.294  33.337  31.837  1.00  0.00    -0.014 A 
BRANCH  44  45
ATOM     45  C   UNL A   1      37.423  32.595  32.455  1.00  0.00     0.031 A 
ATOM     46  C   UNL A   1      37.996  33.049  33.771  1.00  0.00     0.074 A 
ATOM     47  C   UNL A   1      37.971  31.551  31.802  1.00  0.00     0.049 A 
ATOM     48  N   UNL A   1      39.021  32.575  34.432  1.00  0.00    -0.248 NA
ATOM     49  C   UNL A   1      37.350  34.203  34.417  1.00  0.00     0.031 C 
ATOM     50  C   UNL A   1      37.533  31.046  30.498  1.00  0.00     0.029 A 
ATOM     51  N   UNL A   1      39.021  30.733  32.136  1.00  0.00    -0.354 N 
ATOM     52  C   UNL A   1      39.148  33.376  35.561  1.00  0.00     0.074 A 
ATOM     53  C   UNL A   1      38.133  34.401  35.468  1.00  0.00     0.031 C 
ATOM     54  C   UNL A   1      38.292  29.993  30.156  1.00  0.00     0.029 A 
ATOM     55  C   UNL A   1      39.299  29.774  31.191  1.00  0.00     0.049 A 
ATOM     56  H   UNL A   1      39.528  30.824  32.975  1.00  0.00     0.167 HD
ATOM     57  C   UNL A   1      40.017  33.253  36.593  1.00  0.00     0.037 A 
ATOM     58  C   UNL A   1      40.261  28.831  31.154  1.00  0.00     0.037 A 
ATOM     59  C   UNL A   1      41.011  32.215  36.688  1.00  0.00     0.049 A 
ATOM     60  C   UNL A   1      41.222  28.723  32.308  1.00  0.00     0.074 A 
ATOM     61  C   UNL A   1      41.900  31.971  37.720  1.00  0.00     0.029 A 
ATOM     62  N   UNL A   1      41.250  31.253  35.719  1.00  0.00    -0.354 N 
ATOM     63  N   UNL A   1      41.287  29.450  33.397  1.00  0.00    -0.248 NA
ATOM     64  C   UNL A   1      42.238  27.664  32.230  1.00  0.00     0.031 C 
ATOM     65  C   UNL A   1      42.714  30.895  37.349  1.00  0.00     0.029 A 
ATOM     66  C   UNL A   1      42.291  30.429  36.114  1.00  0.00     0.049 A 
ATOM     67  H   UNL A   1      40.753  31.167  34.873  1.00  0.00     0.167 HD
ATOM     68  C   UNL A   1      42.328  28.916  34.150  1.00  0.00     0.074 A 
ATOM     69  C   UNL A   1      42.856  27.798  33.396  1.00  0.00     0.031 C 
ATOM     70  C   UNL A   1      42.802  29.314  35.356  1.00  0.00     0.037 A 
BRANCH  57  71
ATOM     71  C   UNL A   1      39.933  34.264  37.706  1.00  0.00     0.058 A 
ATOM     72  C   UNL A   1      39.119  34.058  38.831  1.00  0.00     0.135 A 
ATOM     73  C   UNL A   1      40.715  35.430  37.670  1.00  0.00     0.135 A 
ATOM     74  F   UNL A   1      38.338  32.969  38.911  1.00  0.00    -0.206 F 
ATOM     75  C   UNL A   1      39.061  34.985  39.866  1.00  0.00     0.059 A 
ATOM     76  C   UNL A   1      40.697  36.355  38.709  1.00  0.00     0.059 A 
ATOM     77  F   UNL A   1      41.511  35.679  36.617  1.00  0.00    -0.206 F 
ATOM     78  C   UNL A   1      39.857  36.130  39.797  1.00  0.00     0.060 A 
BRANCH  78  79
ATOM     79  S   UNL A   1      39.780  37.314  41.158  1.00  0.00     0.124 S 
ATOM     80  O   UNL A   1      39.222  36.492  42.228  1.00  0.00    -0.237 OA
ATOM     81  O   UNL A   1      41.180  37.696  41.317  1.00  0.00    -0.237 OA
ATOM     82  O   UNL A   1      38.900  38.361  40.648  1.00  0.00    -0.744 OA
ENDBRANCH  78  79
ENDBRANCH  57  71
BRANCH  58  83
ATOM     83  C   UNL A   1      40.356  27.909  29.991  1.00  0.00     0.058 A 
ATOM     84  C   UNL A   1      41.335  28.088  29.002  1.00  0.00     0.135 A 
ATOM     85  C   UNL A   1      39.473  26.827  29.844  1.00  0.00     0.135 A 
ATOM     86  F   UNL A   1      42.201  29.110  29.093  1.00  0.00    -0.206 F 
ATOM     87  C   UNL A   1      41.422  27.244  27.899  1.00  0.00     0.059 A 
ATOM     88  C   UNL A   1      39.558  25.952  28.767  1.00  0.00     0.059 A 
ATOM     89  F   UNL A   1      38.529  26.599  30.771  1.00  0.00    -0.206 F 
ATOM     90  C   UNL A   1      40.529  26.176  27.792  1.00  0.00     0.060 A 
BRANCH  90  91
ATOM     91  S   UNL A   1      40.674  25.064  26.377  1.00  0.00     0.124 S 
ATOM     92  O   UNL A   1      41.129  25.974  25.334  1.00  0.00    -0.237 OA
ATOM     93  O   UNL A   1      41.653  24.091  26.852  1.00  0.00    -0.237 OA
ATOM     94  O   UNL A   1      39.317  24.550  26.217  1.00  0.00    -0.744 OA
ENDBRANCH  90  91
ENDBRANCH  58  83
BRANCH  70  95
ATOM     95  C   UNL A   1      43.926  28.515  35.959  1.00  0.00     0.058 A 
ATOM     96  C   UNL A   1      45.270  28.874  35.780  1.00  0.00     0.135 A 
ATOM     97  C   UNL A   1      43.647  27.407  36.777  1.00  0.00     0.135 A 
ATOM     98  F   UNL A   1      45.592  29.920  35.002  1.00  0.00    -0.206 F 
ATOM     99  C   UNL A   1      46.301  28.149  36.369  1.00  0.00     0.059 A 
ATOM    100  C   UNL A   1      44.660  26.687  37.402  1.00  0.00     0.059 A 
ATOM    101  F   UNL A   1      42.378  27.027  36.991  1.00  0.00    -0.206 F 
ATOM    102  C   UNL A   1      45.985  27.058  37.182  1.00  0.00     0.060 A 
BRANCH 102 103
ATOM    103  S   UNL A   1      47.331  26.150  37.970  1.00  0.00     0.124 S 
ATOM    104  O   UNL A   1      47.222  24.846  37.325  1.00  0.00    -0.237 OA
ATOM    105  O   UNL A   1      48.499  26.943  37.601  1.00  0.00    -0.237 OA
ATOM    106  O   UNL A   1      46.979  26.182  39.386  1.00  0.00    -0.744 OA
ENDBRANCH 102 103
ENDBRANCH  70  95
ENDBRANCH  44  45
ENDBRANCH  36  39
ENDBRANCH  34  35
ENDBRANCH  33  34
ENDBRANCH  32  33
ENDBRANCH   1  32
TORSDOF 19
ENDMDL
