MODEL 1
REMARK VINA RESULT:     -11.1      0.000      0.000
REMARK SMILES CCN(Cc1ccccn1)c1nc(C)cc(C)c1C(=O)NCCCCCCNC(=O)c1ccc(-c2c3nc(c(-c4c(F)cc(S(=O)(=O)[O-])cc4F)c4ccc([nH]4)c(-c4c(F)cc(S(=O)(=O)[O-])cc4F)c4nc(c(-c5c(F)cc(S(=O)(=O)[O-])cc5F)c5ccc2[nH]5)C=C4)C=C3)cc1
REMARK SMILES IDX 24 1 23 2 22 3 21 4 19 5 20 6 18 8 11 9 12 10 13 11 16 12
REMARK SMILES IDX 14 13 15 14 17 15 3 16 2 17 1 18 4 19 5 20 6 21 10 22 7 23
REMARK SMILES IDX 9 24 8 25 25 26 26 27 27 28 28 29 29 30 30 32 31 33 32 34
REMARK SMILES IDX 96 35 33 36 95 37 34 38 35 39 36 40 89 41 37 42 94 43 88 44
REMARK SMILES IDX 90 45 38 46 93 47 87 48 86 49 39 51 73 52 52 53 72 54 53 55
REMARK SMILES IDX 56 56 71 57 91 58 54 59 55 60 70 62 92 63 57 64 40 65 41 66
REMARK SMILES IDX 50 67 42 68 43 69 49 70 51 71 44 72 45 73 46 74 47 75 48 76
REMARK SMILES IDX 74 77 75 78 84 79 76 80 77 81 83 82 85 83 78 84 79 85 80 86
REMARK SMILES IDX 81 87 82 88 58 89 59 90 68 91 60 92 61 93 67 94 69 95 62 96
REMARK SMILES IDX 63 97 64 98 65 99 66 100
REMARK H PARENT 21 7 28 31 90 50 56 61
REMARK Flexibility Score: inf
ROOT
ATOM      1  C   UNL A   1      38.505  20.945  25.586  1.00  0.00     0.002 C 
ENDROOT
BRANCH   1   2
ATOM      2  C   UNL A   1      37.357  21.218  24.608  1.00  0.00     0.021 C 
BRANCH   2   3
ATOM      3  C   UNL A   1      35.986  20.626  24.913  1.00  0.00     0.116 C 
BRANCH   3   4
ATOM      4  N   UNL A   1      35.431  20.893  26.220  1.00  0.00    -0.352 N 
ATOM      5  C   UNL A   1      34.499  21.848  26.594  1.00  0.00     0.255 C 
ATOM      6  O   UNL A   1      33.941  21.703  27.681  1.00  0.00    -0.269 OA
ATOM      7  H   UNL A   1      35.759  20.314  26.945  1.00  0.00     0.163 HD
BRANCH   5   8
ATOM      8  C   UNL A   1      34.165  23.028  25.740  1.00  0.00     0.085 A 
ATOM      9  C   UNL A   1      32.999  22.978  24.942  1.00  0.00     0.142 A 
ATOM     10  N   UNL A   1      32.712  23.978  24.070  1.00  0.00    -0.235 NA
ATOM     11  C   UNL A   1      33.534  25.030  23.926  1.00  0.00     0.040 A 
ATOM     12  C   UNL A   1      35.048  24.121  25.555  1.00  0.00    -0.033 A 
ATOM     13  C   UNL A   1      33.192  26.002  22.840  1.00  0.00     0.067 C 
ATOM     14  C   UNL A   1      34.692  25.145  24.663  1.00  0.00     0.028 A 
ATOM     15  C   UNL A   1      36.388  24.280  26.214  1.00  0.00     0.045 C 
BRANCH   9  16
ATOM     16  N   UNL A   1      32.087  21.925  24.946  1.00  0.00    -0.350 N 
BRANCH  16  17
ATOM     17  C   UNL A   1      30.755  22.196  25.474  1.00  0.00     0.115 C 
ATOM     18  C   UNL A   1      30.838  22.932  26.804  1.00  0.00     0.027 C 
ENDBRANCH  16  17
BRANCH  16  19
ATOM     19  C   UNL A   1      32.176  20.974  23.821  1.00  0.00     0.174 C 
BRANCH  19  20
ATOM     20  C   UNL A   1      32.511  19.522  24.176  1.00  0.00     0.060 A 
ATOM     21  C   UNL A   1      32.734  18.605  23.144  1.00  0.00     0.026 A 
ATOM     22  N   UNL A   1      32.558  19.154  25.488  1.00  0.00    -0.259 NA
ATOM     23  C   UNL A   1      32.938  17.264  23.454  1.00  0.00     0.004 A 
ATOM     24  C   UNL A   1      32.718  17.837  25.751  1.00  0.00     0.111 A 
ATOM     25  C   UNL A   1      32.908  16.865  24.782  1.00  0.00     0.020 A 
ENDBRANCH  19  20
ENDBRANCH  16  19
ENDBRANCH   9  16
ENDBRANCH   5   8
ENDBRANCH   3   4
ENDBRANCH   2   3
ENDBRANCH   1   2
BRANCH   1  26
ATOM     26  C   UNL A   1      39.250  22.132  26.201  1.00  0.00     0.002 C 
BRANCH  26  27
ATOM     27  C   UNL A   1      40.385  21.842  27.186  1.00  0.00     0.021 C 
BRANCH  27  28
ATOM     28  C   UNL A   1      41.368  22.974  27.461  1.00  0.00     0.116 C 
BRANCH  28  29
ATOM     29  N   UNL A   1      41.770  23.687  26.262  1.00  0.00    -0.352 N 
ATOM     30  C   UNL A   1      41.850  25.039  26.020  1.00  0.00     0.251 C 
ATOM     31  H   UNL A   1      42.025  23.114  25.504  1.00  0.00     0.163 HD
ATOM     32  O   UNL A   1      42.089  25.435  24.884  1.00  0.00    -0.269 OA
BRANCH  30  33
ATOM     33  C   UNL A   1      41.625  26.020  27.110  1.00  0.00     0.039 A 
ATOM     34  C   UNL A   1      40.561  25.810  27.992  1.00  0.00     0.014 A 
ATOM     35  C   UNL A   1      42.431  27.153  27.252  1.00  0.00     0.014 A 
ATOM     36  C   UNL A   1      40.341  26.699  29.048  1.00  0.00     0.010 A 
ATOM     37  C   UNL A   1      42.254  28.001  28.346  1.00  0.00     0.010 A 
ATOM     38  C   UNL A   1      41.207  27.785  29.255  1.00  0.00    -0.014 A 
BRANCH  38  39
ATOM     39  C   UNL A   1      41.032  28.699  30.417  1.00  0.00     0.031 A 
ATOM     40  C   UNL A   1      41.901  28.551  31.638  1.00  0.00     0.074 A 
ATOM     41  C   UNL A   1      40.053  29.625  30.394  1.00  0.00     0.049 A 
ATOM     42  N   UNL A   1      41.854  29.208  32.769  1.00  0.00    -0.248 NA
ATOM     43  C   UNL A   1      42.941  27.512  31.592  1.00  0.00     0.031 C 
ATOM     44  C   UNL A   1      39.117  29.838  29.288  1.00  0.00     0.029 A 
ATOM     45  N   UNL A   1      39.672  30.553  31.332  1.00  0.00    -0.354 N 
ATOM     46  C   UNL A   1      42.846  28.655  33.571  1.00  0.00     0.074 A 
ATOM     47  C   UNL A   1      43.444  27.575  32.816  1.00  0.00     0.031 C 
ATOM     48  C   UNL A   1      38.285  30.845  29.603  1.00  0.00     0.029 A 
ATOM     49  C   UNL A   1      38.599  31.322  30.946  1.00  0.00     0.049 A 
ATOM     50  H   UNL A   1      40.124  30.657  32.200  1.00  0.00     0.167 HD
ATOM     51  C   UNL A   1      43.239  29.028  34.814  1.00  0.00     0.037 A 
ATOM     52  C   UNL A   1      37.937  32.296  31.601  1.00  0.00     0.037 A 
ATOM     53  C   UNL A   1      42.654  30.118  35.551  1.00  0.00     0.049 A 
ATOM     54  C   UNL A   1      38.388  32.689  32.982  1.00  0.00     0.074 A 
ATOM     55  C   UNL A   1      43.018  30.610  36.793  1.00  0.00     0.029 A 
ATOM     56  N   UNL A   1      41.582  30.886  35.117  1.00  0.00    -0.354 N 
ATOM     57  N   UNL A   1      39.368  32.195  33.700  1.00  0.00    -0.248 NA
ATOM     58  C   UNL A   1      37.649  33.777  33.638  1.00  0.00     0.031 C 
ATOM     59  C   UNL A   1      42.136  31.642  37.130  1.00  0.00     0.029 A 
ATOM     60  C   UNL A   1      41.257  31.832  36.076  1.00  0.00     0.049 A 
ATOM     61  H   UNL A   1      41.120  30.775  34.255  1.00  0.00     0.167 HD
ATOM     62  C   UNL A   1      39.381  32.930  34.881  1.00  0.00     0.074 A 
ATOM     63  C   UNL A   1      38.319  33.909  34.776  1.00  0.00     0.031 C 
ATOM     64  C   UNL A   1      40.200  32.806  35.955  1.00  0.00     0.037 A 
BRANCH  51  65
ATOM     65  C   UNL A   1      44.356  28.250  35.457  1.00  0.00     0.058 A 
ATOM     66  C   UNL A   1      44.104  27.140  36.279  1.00  0.00     0.135 A 
ATOM     67  C   UNL A   1      45.697  28.594  35.218  1.00  0.00     0.135 A 
ATOM     68  F   UNL A   1      42.842  26.774  36.553  1.00  0.00    -0.206 F 
ATOM     69  C   UNL A   1      45.139  26.419  36.868  1.00  0.00     0.059 A 
ATOM     70  C   UNL A   1      46.749  27.869  35.771  1.00  0.00     0.059 A 
ATOM     71  F   UNL A   1      45.997  29.644  34.438  1.00  0.00    -0.206 F 
ATOM     72  C   UNL A   1      46.458  26.792  36.607  1.00  0.00     0.060 A 
BRANCH  72  73
ATOM     73  S   UNL A   1      47.788  25.844  37.377  1.00  0.00     0.124 S 
ATOM     74  O   UNL A   1      48.969  26.466  36.785  1.00  0.00    -0.237 OA
ATOM     75  O   UNL A   1      47.579  26.109  38.797  1.00  0.00    -0.237 OA
ATOM     76  O   UNL A   1      47.521  24.475  36.951  1.00  0.00    -0.744 OA
ENDBRANCH  72  73
ENDBRANCH  51  65
BRANCH  52  77
ATOM     77  C   UNL A   1      36.787  32.980  30.949  1.00  0.00     0.058 A 
ATOM     78  C   UNL A   1      35.467  32.697  31.329  1.00  0.00     0.135 A 
ATOM     79  C   UNL A   1      36.985  33.941  29.944  1.00  0.00     0.135 A 
ATOM     80  F   UNL A   1      35.227  31.780  32.279  1.00  0.00    -0.206 F 
ATOM     81  C   UNL A   1      34.383  33.327  30.727  1.00  0.00     0.059 A 
ATOM     82  C   UNL A   1      35.918  34.605  29.347  1.00  0.00     0.059 A 
ATOM     83  F   UNL A   1      38.229  34.262  29.555  1.00  0.00    -0.206 F 
ATOM     84  C   UNL A   1      34.619  34.282  29.738  1.00  0.00     0.060 A 
BRANCH  84  85
ATOM     85  S   UNL A   1      33.207  35.130  28.998  1.00  0.00     0.124 S 
ATOM     86  O   UNL A   1      32.366  35.373  30.164  1.00  0.00    -0.237 OA
ATOM     87  O   UNL A   1      33.834  36.307  28.405  1.00  0.00    -0.237 OA
ATOM     88  O   UNL A   1      32.694  34.155  28.040  1.00  0.00    -0.744 OA
ENDBRANCH  84  85
ENDBRANCH  52  77
BRANCH  64  89
ATOM     89  C   UNL A   1      40.007  33.773  37.090  1.00  0.00     0.058 A 
ATOM     90  C   UNL A   1      39.123  33.506  38.146  1.00  0.00     0.135 A 
ATOM     91  C   UNL A   1      40.758  34.960  37.148  1.00  0.00     0.135 A 
ATOM     92  F   UNL A   1      38.377  32.390  38.138  1.00  0.00    -0.206 F 
ATOM     93  C   UNL A   1      38.972  34.392  39.209  1.00  0.00     0.059 A 
ATOM     94  C   UNL A   1      40.644  35.846  38.214  1.00  0.00     0.059 A 
ATOM     95  F   UNL A   1      41.626  35.258  36.168  1.00  0.00    -0.206 F 
ATOM     96  C   UNL A   1      39.739  35.559  39.235  1.00  0.00     0.060 A 
BRANCH  96  97
ATOM     97  S   UNL A   1      39.558  36.683  40.636  1.00  0.00     0.124 S 
ATOM     98  O   UNL A   1      38.403  37.475  40.230  1.00  0.00    -0.237 OA
ATOM     99  O   UNL A   1      39.338  35.763  41.748  1.00  0.00    -0.237 OA
ATOM    100  O   UNL A   1      40.831  37.398  40.664  1.00  0.00    -0.744 OA
ENDBRANCH  96  97
ENDBRANCH  64  89
ENDBRANCH  38  39
ENDBRANCH  30  33
ENDBRANCH  28  29
ENDBRANCH  27  28
ENDBRANCH  26  27
ENDBRANCH   1  26
TORSDOF 20
ENDMDL
MODEL 2
REMARK VINA RESULT:     -11.1      1.026      8.228
REMARK SMILES CCN(Cc1ccccn1)c1nc(C)cc(C)c1C(=O)NCCCCCCNC(=O)c1ccc(-c2c3nc(c(-c4c(F)cc(S(=O)(=O)[O-])cc4F)c4ccc([nH]4)c(-c4c(F)cc(S(=O)(=O)[O-])cc4F)c4nc(c(-c5c(F)cc(S(=O)(=O)[O-])cc5F)c5ccc2[nH]5)C=C4)C=C3)cc1
REMARK SMILES IDX 24 1 23 2 22 3 21 4 19 5 20 6 18 8 11 9 12 10 13 11 16 12
REMARK SMILES IDX 14 13 15 14 17 15 3 16 2 17 1 18 4 19 5 20 6 21 10 22 7 23
REMARK SMILES IDX 9 24 8 25 25 26 26 27 27 28 28 29 29 30 30 32 31 33 32 34
REMARK SMILES IDX 96 35 33 36 95 37 34 38 35 39 36 40 89 41 37 42 94 43 88 44
REMARK SMILES IDX 90 45 38 46 93 47 87 48 86 49 39 51 73 52 52 53 72 54 53 55
REMARK SMILES IDX 56 56 71 57 91 58 54 59 55 60 70 62 92 63 57 64 40 65 41 66
REMARK SMILES IDX 50 67 42 68 43 69 49 70 51 71 44 72 45 73 46 74 47 75 48 76
REMARK SMILES IDX 74 77 75 78 84 79 76 80 77 81 83 82 85 83 78 84 79 85 80 86
REMARK SMILES IDX 81 87 82 88 58 89 59 90 68 91 60 92 61 93 67 94 69 95 62 96
REMARK SMILES IDX 63 97 64 98 65 99 66 100
REMARK H PARENT 21 7 28 31 90 50 56 61
REMARK Flexibility Score: inf
ROOT
ATOM      1  C   UNL A   1      38.465  22.046  25.805  1.00  0.00     0.002 C 
ENDROOT
BRANCH   1   2
ATOM      2  C   UNL A   1      38.027  23.480  26.117  1.00  0.00     0.021 C 
BRANCH   2   3
ATOM      3  C   UNL A   1      36.704  23.977  25.545  1.00  0.00     0.116 C 
BRANCH   3   4
ATOM      4  N   UNL A   1      36.244  23.360  24.322  1.00  0.00    -0.352 N 
ATOM      5  C   UNL A   1      34.982  23.390  23.751  1.00  0.00     0.255 C 
ATOM      6  O   UNL A   1      34.885  23.063  22.568  1.00  0.00    -0.269 OA
ATOM      7  H   UNL A   1      36.922  22.850  23.824  1.00  0.00     0.163 HD
BRANCH   5   8
ATOM      8  C   UNL A   1      33.760  23.789  24.513  1.00  0.00     0.085 A 
ATOM      9  C   UNL A   1      33.033  22.789  25.199  1.00  0.00     0.142 A 
ATOM     10  N   UNL A   1      31.859  23.083  25.813  1.00  0.00    -0.235 NA
ATOM     11  C   UNL A   1      31.345  24.322  25.770  1.00  0.00     0.040 A 
ATOM     12  C   UNL A   1      33.192  25.086  24.437  1.00  0.00    -0.033 A 
ATOM     13  C   UNL A   1      29.981  24.502  26.360  1.00  0.00     0.067 C 
ATOM     14  C   UNL A   1      31.991  25.347  25.114  1.00  0.00     0.028 A 
ATOM     15  C   UNL A   1      33.750  26.236  23.649  1.00  0.00     0.045 C 
BRANCH   9  16
ATOM     16  N   UNL A   1      33.418  21.453  25.279  1.00  0.00    -0.350 N 
BRANCH  16  17
ATOM     17  C   UNL A   1      34.432  21.106  26.268  1.00  0.00     0.115 C 
ATOM     18  C   UNL A   1      34.186  21.842  27.578  1.00  0.00     0.027 C 
ENDBRANCH  16  17
BRANCH  16  19
ATOM     19  C   UNL A   1      32.364  20.449  25.027  1.00  0.00     0.174 C 
BRANCH  19  20
ATOM     20  C   UNL A   1      32.824  18.994  24.891  1.00  0.00     0.060 A 
ATOM     21  C   UNL A   1      33.745  18.664  23.893  1.00  0.00     0.026 A 
ATOM     22  N   UNL A   1      32.303  18.053  25.729  1.00  0.00    -0.259 NA
ATOM     23  C   UNL A   1      34.091  17.330  23.696  1.00  0.00     0.004 A 
ATOM     24  C   UNL A   1      32.629  16.764  25.483  1.00  0.00     0.111 A 
ATOM     25  C   UNL A   1      33.506  16.356  24.491  1.00  0.00     0.020 A 
ENDBRANCH  19  20
ENDBRANCH  16  19
ENDBRANCH   9  16
ENDBRANCH   5   8
ENDBRANCH   3   4
ENDBRANCH   2   3
ENDBRANCH   1   2
BRANCH   1  26
ATOM     26  C   UNL A   1      39.855  21.584  26.249  1.00  0.00     0.002 C 
BRANCH  26  27
ATOM     27  C   UNL A   1      40.455  22.208  27.511  1.00  0.00     0.021 C 
BRANCH  27  28
ATOM     28  C   UNL A   1      41.696  23.075  27.331  1.00  0.00     0.116 C 
BRANCH  28  29
ATOM     29  N   UNL A   1      41.609  23.969  26.190  1.00  0.00    -0.352 N 
ATOM     30  C   UNL A   1      41.332  25.314  26.139  1.00  0.00     0.251 C 
ATOM     31  H   UNL A   1      41.775  23.545  25.318  1.00  0.00     0.163 HD
ATOM     32  O   UNL A   1      41.177  25.857  25.049  1.00  0.00    -0.269 OA
BRANCH  30  33
ATOM     33  C   UNL A   1      41.195  26.110  27.383  1.00  0.00     0.039 A 
ATOM     34  C   UNL A   1      42.191  27.040  27.697  1.00  0.00     0.014 A 
ATOM     35  C   UNL A   1      40.117  25.928  28.254  1.00  0.00     0.014 A 
ATOM     36  C   UNL A   1      42.076  27.829  28.846  1.00  0.00     0.010 A 
ATOM     37  C   UNL A   1      39.969  26.763  29.362  1.00  0.00     0.010 A 
ATOM     38  C   UNL A   1      40.947  27.721  29.672  1.00  0.00    -0.014 A 
BRANCH  38  39
ATOM     39  C   UNL A   1      40.772  28.602  30.858  1.00  0.00     0.031 A 
ATOM     40  C   UNL A   1      39.725  29.684  30.854  1.00  0.00     0.074 A 
ATOM     41  C   UNL A   1      41.596  28.466  31.916  1.00  0.00     0.049 A 
ATOM     42  N   UNL A   1      39.469  30.589  31.765  1.00  0.00    -0.248 NA
ATOM     43  C   UNL A   1      38.870  29.777  29.661  1.00  0.00     0.031 C 
ATOM     44  C   UNL A   1      42.678  27.485  32.023  1.00  0.00     0.029 A 
ATOM     45  N   UNL A   1      41.662  29.160  33.100  1.00  0.00    -0.354 N 
ATOM     46  C   UNL A   1      38.436  31.365  31.250  1.00  0.00     0.074 A 
ATOM     47  C   UNL A   1      38.147  30.856  29.926  1.00  0.00     0.031 C 
ATOM     48  C   UNL A   1      43.286  27.627  33.213  1.00  0.00     0.029 A 
ATOM     49  C   UNL A   1      42.666  28.732  33.937  1.00  0.00     0.049 A 
ATOM     50  H   UNL A   1      41.048  29.895  33.327  1.00  0.00     0.167 HD
ATOM     51  C   UNL A   1      37.772  32.392  31.835  1.00  0.00     0.037 A 
ATOM     52  C   UNL A   1      43.050  29.184  35.148  1.00  0.00     0.037 A 
ATOM     53  C   UNL A   1      38.050  32.879  33.162  1.00  0.00     0.049 A 
ATOM     54  C   UNL A   1      42.302  30.329  35.775  1.00  0.00     0.074 A 
ATOM     55  C   UNL A   1      37.398  33.877  33.866  1.00  0.00     0.029 A 
ATOM     56  N   UNL A   1      39.062  32.406  33.986  1.00  0.00    -0.354 N 
ATOM     57  N   UNL A   1      41.288  31.010  35.298  1.00  0.00    -0.248 NA
ATOM     58  C   UNL A   1      42.745  30.761  37.108  1.00  0.00     0.031 C 
ATOM     59  C   UNL A   1      38.045  34.040  35.095  1.00  0.00     0.029 A 
ATOM     60  C   UNL A   1      39.066  33.107  35.181  1.00  0.00     0.049 A 
ATOM     61  H   UNL A   1      39.685  31.680  33.756  1.00  0.00     0.167 HD
ATOM     62  C   UNL A   1      40.953  31.933  36.283  1.00  0.00     0.074 A 
ATOM     63  C   UNL A   1      41.865  31.715  37.387  1.00  0.00     0.031 C 
ATOM     64  C   UNL A   1      39.977  32.875  36.275  1.00  0.00     0.037 A 
BRANCH  51  65
ATOM     65  C   UNL A   1      36.679  33.059  31.044  1.00  0.00     0.058 A 
ATOM     66  C   UNL A   1      36.963  34.018  30.057  1.00  0.00     0.135 A 
ATOM     67  C   UNL A   1      35.334  32.710  31.247  1.00  0.00     0.135 A 
ATOM     68  F   UNL A   1      38.230  34.400  29.830  1.00  0.00    -0.206 F 
ATOM     69  C   UNL A   1      35.951  34.629  29.323  1.00  0.00     0.059 A 
ATOM     70  C   UNL A   1      34.308  33.286  30.503  1.00  0.00     0.059 A 
ATOM     71  F   UNL A   1      35.005  31.798  32.175  1.00  0.00    -0.206 F 
ATOM     72  C   UNL A   1      34.626  34.256  29.555  1.00  0.00     0.060 A 
BRANCH  72  73
ATOM     73  S   UNL A   1      33.326  35.058  28.592  1.00  0.00     0.124 S 
ATOM     74  O   UNL A   1      32.752  33.923  27.876  1.00  0.00    -0.237 OA
ATOM     75  O   UNL A   1      32.484  35.644  29.629  1.00  0.00    -0.237 OA
ATOM     76  O   UNL A   1      34.056  36.015  27.765  1.00  0.00    -0.744 OA
ENDBRANCH  72  73
ENDBRANCH  51  65
BRANCH  52  77
ATOM     77  C   UNL A   1      44.189  28.538  35.853  1.00  0.00     0.058 A 
ATOM     78  C   UNL A   1      43.978  27.489  36.760  1.00  0.00     0.135 A 
ATOM     79  C   UNL A   1      45.514  28.945  35.624  1.00  0.00     0.135 A 
ATOM     80  F   UNL A   1      42.729  27.069  37.018  1.00  0.00    -0.206 F 
ATOM     81  C   UNL A   1      45.033  26.877  37.428  1.00  0.00     0.059 A 
ATOM     82  C   UNL A   1      46.588  28.329  36.260  1.00  0.00     0.059 A 
ATOM     83  F   UNL A   1      45.774  29.932  34.753  1.00  0.00    -0.206 F 
ATOM     84  C   UNL A   1      46.336  27.303  37.169  1.00  0.00     0.060 A 
BRANCH  84  85
ATOM     85  S   UNL A   1      47.703  26.469  38.004  1.00  0.00     0.124 S 
ATOM     86  O   UNL A   1      47.298  26.568  39.401  1.00  0.00    -0.237 OA
ATOM     87  O   UNL A   1      47.652  25.134  37.416  1.00  0.00    -0.237 OA
ATOM     88  O   UNL A   1      48.865  27.267  37.624  1.00  0.00    -0.744 OA
ENDBRANCH  84  85
ENDBRANCH  52  77
BRANCH  64  89
ATOM     89  C   UNL A   1      39.818  33.720  37.509  1.00  0.00     0.058 A 
ATOM     90  C   UNL A   1      40.621  34.847  37.742  1.00  0.00     0.135 A 
ATOM     91  C   UNL A   1      38.812  33.427  38.445  1.00  0.00     0.135 A 
ATOM     92  F   UNL A   1      41.601  35.168  36.883  1.00  0.00    -0.206 F 
ATOM     93  C   UNL A   1      40.448  35.641  38.872  1.00  0.00     0.059 A 
ATOM     94  C   UNL A   1      38.603  34.223  39.567  1.00  0.00     0.059 A 
ATOM     95  F   UNL A   1      38.010  32.366  38.265  1.00  0.00    -0.206 F 
ATOM     96  C   UNL A   1      39.434  35.323  39.777  1.00  0.00     0.060 A 
BRANCH  96  97
ATOM     97  S   UNL A   1      39.198  36.382  41.220  1.00  0.00     0.124 S 
ATOM     98  O   UNL A   1      38.112  35.697  41.912  1.00  0.00    -0.237 OA
ATOM     99  O   UNL A   1      40.504  36.318  41.870  1.00  0.00    -0.237 OA
ATOM    100  O   UNL A   1      38.856  37.677  40.640  1.00  0.00    -0.744 OA
ENDBRANCH  96  97
ENDBRANCH  64  89
ENDBRANCH  38  39
ENDBRANCH  30  33
ENDBRANCH  28  29
ENDBRANCH  27  28
ENDBRANCH  26  27
ENDBRANCH   1  26
TORSDOF 20
ENDMDL
MODEL 3
REMARK VINA RESULT:     -11.1      2.336      4.318
REMARK SMILES CCN(Cc1ccccn1)c1nc(C)cc(C)c1C(=O)NCCCCCCNC(=O)c1ccc(-c2c3nc(c(-c4c(F)cc(S(=O)(=O)[O-])cc4F)c4ccc([nH]4)c(-c4c(F)cc(S(=O)(=O)[O-])cc4F)c4nc(c(-c5c(F)cc(S(=O)(=O)[O-])cc5F)c5ccc2[nH]5)C=C4)C=C3)cc1
REMARK SMILES IDX 24 1 23 2 22 3 21 4 19 5 20 6 18 8 11 9 12 10 13 11 16 12
REMARK SMILES IDX 14 13 15 14 17 15 3 16 2 17 1 18 4 19 5 20 6 21 10 22 7 23
REMARK SMILES IDX 9 24 8 25 25 26 26 27 27 28 28 29 29 30 30 32 31 33 32 34
REMARK SMILES IDX 96 35 33 36 95 37 34 38 35 39 36 40 89 41 37 42 94 43 88 44
REMARK SMILES IDX 90 45 38 46 93 47 87 48 86 49 39 51 73 52 52 53 72 54 53 55
REMARK SMILES IDX 56 56 71 57 91 58 54 59 55 60 70 62 92 63 57 64 40 65 41 66
REMARK SMILES IDX 50 67 42 68 43 69 49 70 51 71 44 72 45 73 46 74 47 75 48 76
REMARK SMILES IDX 74 77 75 78 84 79 76 80 77 81 83 82 85 83 78 84 79 85 80 86
REMARK SMILES IDX 81 87 82 88 58 89 59 90 68 91 60 92 61 93 67 94 69 95 62 96
REMARK SMILES IDX 63 97 64 98 65 99 66 100
REMARK H PARENT 21 7 28 31 90 50 56 61
REMARK Flexibility Score: inf
ROOT
ATOM      1  C   UNL A   1      34.881  23.026  25.029  1.00  0.00     0.002 C 
ENDROOT
BRANCH   1   2
ATOM      2  C   UNL A   1      34.722  23.400  23.552  1.00  0.00     0.021 C 
BRANCH   2   3
ATOM      3  C   UNL A   1      33.862  24.607  23.196  1.00  0.00     0.116 C 
BRANCH   3   4
ATOM      4  N   UNL A   1      32.437  24.393  23.100  1.00  0.00    -0.352 N 
ATOM      5  C   UNL A   1      31.403  25.164  23.607  1.00  0.00     0.255 C 
ATOM      6  O   UNL A   1      30.275  24.972  23.153  1.00  0.00    -0.269 OA
ATOM      7  H   UNL A   1      32.162  23.589  22.604  1.00  0.00     0.163 HD
BRANCH   5   8
ATOM      8  C   UNL A   1      31.609  26.193  24.671  1.00  0.00     0.085 A 
ATOM      9  C   UNL A   1      31.765  27.544  24.286  1.00  0.00     0.142 A 
ATOM     10  N   UNL A   1      32.062  28.497  25.205  1.00  0.00    -0.235 NA
ATOM     11  C   UNL A   1      32.236  28.183  26.499  1.00  0.00     0.040 A 
ATOM     12  C   UNL A   1      31.832  25.862  26.031  1.00  0.00    -0.033 A 
ATOM     13  C   UNL A   1      32.697  29.287  27.399  1.00  0.00     0.067 C 
ATOM     14  C   UNL A   1      32.108  26.888  26.949  1.00  0.00     0.028 A 
ATOM     15  C   UNL A   1      31.839  24.472  26.600  1.00  0.00     0.045 C 
BRANCH   9  16
ATOM     16  N   UNL A   1      31.668  28.004  22.975  1.00  0.00    -0.350 N 
BRANCH  16  17
ATOM     17  C   UNL A   1      32.754  27.662  22.063  1.00  0.00     0.115 C 
ATOM     18  C   UNL A   1      34.035  28.387  22.451  1.00  0.00     0.027 C 
ENDBRANCH  16  17
BRANCH  16  19
ATOM     19  C   UNL A   1      30.310  28.065  22.398  1.00  0.00     0.174 C 
BRANCH  19  20
ATOM     20  C   UNL A   1      29.625  29.435  22.404  1.00  0.00     0.060 A 
ATOM     21  C   UNL A   1      29.482  30.116  23.617  1.00  0.00     0.026 A 
ATOM     22  N   UNL A   1      29.149  29.944  21.233  1.00  0.00    -0.259 NA
ATOM     23  C   UNL A   1      28.771  31.313  23.649  1.00  0.00     0.004 A 
ATOM     24  C   UNL A   1      28.429  31.087  21.307  1.00  0.00     0.111 A 
ATOM     25  C   UNL A   1      28.214  31.799  22.475  1.00  0.00     0.020 A 
ENDBRANCH  19  20
ENDBRANCH  16  19
ENDBRANCH   9  16
ENDBRANCH   5   8
ENDBRANCH   3   4
ENDBRANCH   2   3
ENDBRANCH   1   2
BRANCH   1  26
ATOM     26  C   UNL A   1      35.883  23.803  25.885  1.00  0.00     0.002 C 
BRANCH  26  27
ATOM     27  C   UNL A   1      37.366  23.720  25.517  1.00  0.00     0.021 C 
BRANCH  27  28
ATOM     28  C   UNL A   1      38.371  23.977  26.634  1.00  0.00     0.116 C 
BRANCH  28  29
ATOM     29  N   UNL A   1      39.750  23.950  26.181  1.00  0.00    -0.352 N 
ATOM     30  C   UNL A   1      40.799  24.783  26.491  1.00  0.00     0.251 C 
ATOM     31  H   UNL A   1      39.968  23.223  25.555  1.00  0.00     0.163 HD
ATOM     32  O   UNL A   1      41.863  24.662  25.890  1.00  0.00    -0.269 OA
BRANCH  30  33
ATOM     33  C   UNL A   1      40.653  25.838  27.523  1.00  0.00     0.039 A 
ATOM     34  C   UNL A   1      39.684  25.673  28.517  1.00  0.00     0.014 A 
ATOM     35  C   UNL A   1      41.436  26.996  27.503  1.00  0.00     0.014 A 
ATOM     36  C   UNL A   1      39.542  26.634  29.523  1.00  0.00     0.010 A 
ATOM     37  C   UNL A   1      41.341  27.919  28.545  1.00  0.00     0.010 A 
ATOM     38  C   UNL A   1      40.392  27.750  29.565  1.00  0.00    -0.014 A 
BRANCH  38  39
ATOM     39  C   UNL A   1      40.304  28.745  30.669  1.00  0.00     0.031 A 
ATOM     40  C   UNL A   1      41.176  28.607  31.888  1.00  0.00     0.074 A 
ATOM     41  C   UNL A   1      39.398  29.740  30.597  1.00  0.00     0.049 A 
ATOM     42  N   UNL A   1      41.195  29.334  32.977  1.00  0.00    -0.248 NA
ATOM     43  C   UNL A   1      42.134  27.490  31.898  1.00  0.00     0.031 C 
ATOM     44  C   UNL A   1      38.466  29.956  29.489  1.00  0.00     0.029 A 
ATOM     45  N   UNL A   1      39.102  30.751  31.478  1.00  0.00    -0.354 N 
ATOM     46  C   UNL A   1      42.154  28.757  33.803  1.00  0.00     0.074 A 
ATOM     47  C   UNL A   1      42.658  27.590  33.111  1.00  0.00     0.031 C 
ATOM     48  C   UNL A   1      37.717  31.041  29.747  1.00  0.00     0.029 A 
ATOM     49  C   UNL A   1      38.085  31.575  31.055  1.00  0.00     0.049 A 
ATOM     50  H   UNL A   1      39.573  30.874  32.334  1.00  0.00     0.167 HD
ATOM     51  C   UNL A   1      42.591  29.175  35.016  1.00  0.00     0.037 A 
ATOM     52  C   UNL A   1      37.508  32.636  31.654  1.00  0.00     0.037 A 
ATOM     53  C   UNL A   1      42.102  30.351  35.689  1.00  0.00     0.049 A 
ATOM     54  C   UNL A   1      38.007  33.078  33.003  1.00  0.00     0.074 A 
ATOM     55  C   UNL A   1      42.519  30.888  36.894  1.00  0.00     0.029 A 
ATOM     56  N   UNL A   1      41.085  31.170  35.217  1.00  0.00    -0.354 N 
ATOM     57  N   UNL A   1      38.957  32.555  33.742  1.00  0.00    -0.248 NA
ATOM     58  C   UNL A   1      37.362  34.257  33.597  1.00  0.00     0.031 C 
ATOM     59  C   UNL A   1      41.724  32.004  37.174  1.00  0.00     0.029 A 
ATOM     60  C   UNL A   1      40.847  32.195  36.118  1.00  0.00     0.049 A 
ATOM     61  H   UNL A   1      40.604  31.041  34.368  1.00  0.00     0.167 HD
ATOM     62  C   UNL A   1      39.042  33.358  34.874  1.00  0.00     0.074 A 
ATOM     63  C   UNL A   1      38.057  34.407  34.718  1.00  0.00     0.031 C 
ATOM     64  C   UNL A   1      39.865  33.238  35.946  1.00  0.00     0.037 A 
BRANCH  51  65
ATOM     65  C   UNL A   1      43.655  28.355  35.696  1.00  0.00     0.058 A 
ATOM     66  C   UNL A   1      43.331  27.324  36.593  1.00  0.00     0.135 A 
ATOM     67  C   UNL A   1      45.014  28.575  35.419  1.00  0.00     0.135 A 
ATOM     68  F   UNL A   1      42.049  27.077  36.905  1.00  0.00    -0.206 F 
ATOM     69  C   UNL A   1      44.316  26.564  37.216  1.00  0.00     0.059 A 
ATOM     70  C   UNL A   1      46.016  27.807  36.006  1.00  0.00     0.059 A 
ATOM     71  F   UNL A   1      45.382  29.546  34.567  1.00  0.00    -0.206 F 
ATOM     72  C   UNL A   1      45.656  26.814  36.916  1.00  0.00     0.060 A 
BRANCH  72  73
ATOM     73  S   UNL A   1      46.921  25.816  37.731  1.00  0.00     0.124 S 
ATOM     74  O   UNL A   1      46.585  24.477  37.258  1.00  0.00    -0.237 OA
ATOM     75  O   UNL A   1      48.156  26.383  37.201  1.00  0.00    -0.237 OA
ATOM     76  O   UNL A   1      46.682  26.057  39.150  1.00  0.00    -0.744 OA
ENDBRANCH  72  73
ENDBRANCH  51  65
BRANCH  52  77
ATOM     77  C   UNL A   1      36.405  33.364  30.971  1.00  0.00     0.058 A 
ATOM     78  C   UNL A   1      35.080  33.249  31.415  1.00  0.00     0.135 A 
ATOM     79  C   UNL A   1      36.655  34.201  29.872  1.00  0.00     0.135 A 
ATOM     80  F   UNL A   1      34.789  32.456  32.457  1.00  0.00    -0.206 F 
ATOM     81  C   UNL A   1      34.038  33.923  30.785  1.00  0.00     0.059 A 
ATOM     82  C   UNL A   1      35.634  34.907  29.242  1.00  0.00     0.059 A 
ATOM     83  F   UNL A   1      37.908  34.360  29.417  1.00  0.00    -0.206 F 
ATOM     84  C   UNL A   1      34.326  34.752  29.701  1.00  0.00     0.060 A 
BRANCH  84  85
ATOM     85  S   UNL A   1      32.974  35.661  28.921  1.00  0.00     0.124 S 
ATOM     86  O   UNL A   1      33.694  36.729  28.238  1.00  0.00    -0.237 OA
ATOM     87  O   UNL A   1      32.376  34.643  28.063  1.00  0.00    -0.237 OA
ATOM     88  O   UNL A   1      32.152  36.076  30.054  1.00  0.00    -0.744 OA
ENDBRANCH  84  85
ENDBRANCH  52  77
BRANCH  64  89
ATOM     89  C   UNL A   1      39.762  34.286  37.020  1.00  0.00     0.058 A 
ATOM     90  C   UNL A   1      40.455  35.503  36.935  1.00  0.00     0.135 A 
ATOM     91  C   UNL A   1      38.915  34.090  38.124  1.00  0.00     0.135 A 
ATOM     92  F   UNL A   1      41.283  35.739  35.905  1.00  0.00    -0.206 F 
ATOM     93  C   UNL A   1      40.331  36.480  37.918  1.00  0.00     0.059 A 
ATOM     94  C   UNL A   1      38.754  35.064  39.104  1.00  0.00     0.059 A 
ATOM     95  F   UNL A   1      38.221  32.948  38.248  1.00  0.00    -0.206 F 
ATOM     96  C   UNL A   1      39.475  36.252  38.997  1.00  0.00     0.060 A 
BRANCH  96  97
ATOM     97  S   UNL A   1      39.297  37.542  40.248  1.00  0.00     0.124 S 
ATOM     98  O   UNL A   1      38.203  38.335  39.698  1.00  0.00    -0.237 OA
ATOM     99  O   UNL A   1      38.982  36.772  41.447  1.00  0.00    -0.237 OA
ATOM    100  O   UNL A   1      40.604  38.193  40.254  1.00  0.00    -0.744 OA
ENDBRANCH  96  97
ENDBRANCH  64  89
ENDBRANCH  38  39
ENDBRANCH  30  33
ENDBRANCH  28  29
ENDBRANCH  27  28
ENDBRANCH  26  27
ENDBRANCH   1  26
TORSDOF 20
ENDMDL
