MODEL 1
REMARK VINA RESULT:     -12.3      0.000      0.000
REMARK SMILES C[C@@H]1CCc2sc(NC(=O)/C=C/C(=O)NCCCCCCNC(=O)c3ccc(-c4c5nc(c(-c6c(F)cc(S(=O)(=O)[O-])cc6F)c6ccc([nH]6)c(-c6c(F)cc(S(=O)(=O)[O-])cc6F)c6nc(c(-c7c(F)cc(S(=O)(=O)[O-])cc7F)c7ccc4[nH]7)C=C6)C=C5)cc3)c(C#N)c2C1
REMARK SMILES IDX 18 1 17 2 16 3 15 4 13 5 14 6 12 8 11 9 9 10 8 11 10 13 7 14
REMARK SMILES IDX 1 15 2 16 3 17 95 18 4 19 94 20 5 21 91 22 6 23 92 24 93 25
REMARK SMILES IDX 19 26 20 27 21 28 22 29 23 30 24 32 25 33 26 34 90 35 27 36
REMARK SMILES IDX 89 37 28 38 29 39 30 40 83 41 31 42 88 43 82 44 84 45 32 46
REMARK SMILES IDX 87 47 81 48 80 49 33 51 67 52 46 53 66 54 47 55 50 56 65 57
REMARK SMILES IDX 85 58 48 59 49 60 64 62 86 63 51 64 34 65 35 66 44 67 36 68
REMARK SMILES IDX 37 69 43 70 45 71 38 72 39 73 40 74 41 75 42 76 68 77 69 78
REMARK SMILES IDX 78 79 70 80 71 81 77 82 79 83 72 84 73 85 74 86 75 87 76 88
REMARK SMILES IDX 52 89 53 90 62 91 54 92 55 93 61 94 63 95 56 96 57 97 58 98
REMARK SMILES IDX 59 99 60 100
REMARK H PARENT 15 7 8 12 22 31 84 50 50 61
REMARK Flexibility Score: inf
ROOT
ATOM      1  C   UNL A   1      40.170  22.197  26.422  1.00  0.00     0.002 C 
ENDROOT
BRANCH   1   2
ATOM      2  C   UNL A   1      38.744  21.717  26.149  1.00  0.00     0.021 C 
BRANCH   2   3
ATOM      3  C   UNL A   1      37.768  22.860  25.899  1.00  0.00     0.116 C 
BRANCH   3   4
ATOM      4  N   UNL A   1      37.698  23.134  24.479  1.00  0.00    -0.353 N 
ATOM      5  C   UNL A   1      36.567  23.231  23.733  1.00  0.00     0.244 C 
ATOM      6  O   UNL A   1      36.572  22.967  22.535  1.00  0.00    -0.270 OA
ATOM      7  H   UNL A   1      38.554  23.262  24.009  1.00  0.00     0.163 HD
BRANCH   5   8
ATOM      8  C   UNL A   1      35.329  23.730  24.369  1.00  0.00     0.077 C 
ATOM      9  C   UNL A   1      34.349  24.202  23.584  1.00  0.00     0.077 C 
BRANCH   9  10
ATOM     10  C   UNL A   1      32.997  24.456  24.083  1.00  0.00     0.249 C 
ATOM     11  N   UNL A   1      32.214  23.421  24.490  1.00  0.00    -0.313 N 
ATOM     12  H   UNL A   1      31.340  23.688  24.857  1.00  0.00     0.171 HD
ATOM     13  O   UNL A   1      32.569  25.607  24.086  1.00  0.00    -0.270 OA
BRANCH  11  14
ATOM     14  C   UNL A   1      32.439  22.064  24.475  1.00  0.00     0.114 A 
ATOM     15  C   UNL A   1      34.914  17.815  24.375  1.00  0.00     0.008 C 
ATOM     16  C   UNL A   1      33.439  17.445  24.590  1.00  0.00    -0.009 C 
ATOM     17  C   UNL A   1      32.636  17.342  23.267  1.00  0.00     0.009 C 
ATOM     18  C   UNL A   1      32.759  18.464  25.518  1.00  0.00     0.041 C 
ATOM     19  C   UNL A   1      32.444  18.677  22.519  1.00  0.00     0.047 C 
ATOM     20  C   UNL A   1      32.622  19.780  24.815  1.00  0.00    -0.014 A 
ATOM     21  C   UNL A   1      32.369  19.837  23.460  1.00  0.00     0.011 A 
ATOM     22  C   UNL A   1      32.916  21.083  25.325  1.00  0.00     0.090 A 
ATOM     23  S   UNL A   1      32.088  21.420  22.926  1.00  0.00    -0.121 S 
BRANCH  22  24
ATOM     24  C   UNL A   1      33.699  21.269  26.518  1.00  0.00     0.103 C 
ATOM     25  N   UNL A   1      34.249  21.421  27.524  1.00  0.00    -0.192 NA
ENDBRANCH  22  24
ENDBRANCH  11  14
ENDBRANCH   9  10
ENDBRANCH   5   8
ENDBRANCH   3   4
ENDBRANCH   2   3
ENDBRANCH   1   2
BRANCH   1  26
ATOM     26  C   UNL A   1      40.861  21.537  27.625  1.00  0.00     0.002 C 
BRANCH  26  27
ATOM     27  C   UNL A   1      41.711  20.293  27.321  1.00  0.00     0.021 C 
BRANCH  27  28
ATOM     28  C   UNL A   1      41.809  19.980  25.842  1.00  0.00     0.116 C 
BRANCH  28  29
ATOM     29  N   UNL A   1      43.181  19.669  25.443  1.00  0.00    -0.352 N 
ATOM     30  C   UNL A   1      44.162  20.552  25.036  1.00  0.00     0.251 C 
ATOM     31  H   UNL A   1      43.436  18.719  25.469  1.00  0.00     0.163 HD
ATOM     32  O   UNL A   1      45.101  20.175  24.346  1.00  0.00    -0.269 OA
BRANCH  30  33
ATOM     33  C   UNL A   1      44.060  21.950  25.485  1.00  0.00     0.039 A 
ATOM     34  C   UNL A   1      43.326  22.914  24.792  1.00  0.00     0.014 A 
ATOM     35  C   UNL A   1      44.712  22.266  26.674  1.00  0.00     0.014 A 
ATOM     36  C   UNL A   1      43.239  24.195  25.335  1.00  0.00     0.010 A 
ATOM     37  C   UNL A   1      44.420  23.432  27.315  1.00  0.00     0.010 A 
ATOM     38  C   UNL A   1      43.795  24.439  26.602  1.00  0.00    -0.014 A 
BRANCH  38  39
ATOM     39  C   UNL A   1      43.629  25.703  27.305  1.00  0.00     0.031 A 
ATOM     40  C   UNL A   1      44.675  26.688  26.938  1.00  0.00     0.074 A 
ATOM     41  C   UNL A   1      42.496  26.000  27.986  1.00  0.00     0.049 A 
ATOM     42  N   UNL A   1      45.690  27.058  27.646  1.00  0.00    -0.248 NA
ATOM     43  C   UNL A   1      44.751  27.127  25.530  1.00  0.00     0.031 C 
ATOM     44  C   UNL A   1      41.283  25.182  28.137  1.00  0.00     0.029 A 
ATOM     45  N   UNL A   1      42.143  27.152  28.622  1.00  0.00    -0.354 N 
ATOM     46  C   UNL A   1      46.335  28.024  26.881  1.00  0.00     0.074 A 
ATOM     47  C   UNL A   1      45.905  27.798  25.529  1.00  0.00     0.031 C 
ATOM     48  C   UNL A   1      40.269  25.938  28.616  1.00  0.00     0.029 A 
ATOM     49  C   UNL A   1      40.790  27.245  28.965  1.00  0.00     0.049 A 
ATOM     50  H   UNL A   1      42.792  27.865  28.825  1.00  0.00     0.167 HD
ATOM     51  C   UNL A   1      46.859  29.130  27.480  1.00  0.00     0.037 A 
ATOM     52  C   UNL A   1      40.154  28.325  29.499  1.00  0.00     0.037 A 
ATOM     53  C   UNL A   1      46.993  28.906  28.905  1.00  0.00     0.049 A 
ATOM     54  C   UNL A   1      41.215  29.174  30.104  1.00  0.00     0.074 A 
ATOM     55  C   UNL A   1      47.656  27.987  29.696  1.00  0.00     0.029 A 
ATOM     56  N   UNL A   1      46.029  29.467  29.710  1.00  0.00    -0.354 N 
ATOM     57  N   UNL A   1      41.953  28.789  31.112  1.00  0.00    -0.248 NA
ATOM     58  C   UNL A   1      41.797  30.206  29.262  1.00  0.00     0.031 C 
ATOM     59  C   UNL A   1      46.765  27.718  30.780  1.00  0.00     0.029 A 
ATOM     60  C   UNL A   1      45.650  28.548  30.652  1.00  0.00     0.049 A 
ATOM     61  H   UNL A   1      45.670  30.379  29.622  1.00  0.00     0.167 HD
ATOM     62  C   UNL A   1      43.240  29.193  30.786  1.00  0.00     0.074 A 
ATOM     63  C   UNL A   1      43.068  30.119  29.664  1.00  0.00     0.031 C 
ATOM     64  C   UNL A   1      44.331  28.509  31.250  1.00  0.00     0.037 A 
BRANCH  51  65
ATOM     65  C   UNL A   1      46.787  30.535  26.896  1.00  0.00     0.058 A 
ATOM     66  C   UNL A   1      47.959  31.323  26.911  1.00  0.00     0.135 A 
ATOM     67  C   UNL A   1      45.597  31.244  26.611  1.00  0.00     0.135 A 
ATOM     68  F   UNL A   1      49.158  30.762  27.139  1.00  0.00    -0.206 F 
ATOM     69  C   UNL A   1      47.934  32.712  26.784  1.00  0.00     0.059 A 
ATOM     70  C   UNL A   1      45.556  32.623  26.437  1.00  0.00     0.059 A 
ATOM     71  F   UNL A   1      44.394  30.668  26.557  1.00  0.00    -0.206 F 
ATOM     72  C   UNL A   1      46.721  33.355  26.572  1.00  0.00     0.060 A 
BRANCH  72  73
ATOM     73  S   UNL A   1      46.666  35.152  26.510  1.00  0.00     0.124 S 
ATOM     74  O   UNL A   1      45.397  35.379  25.829  1.00  0.00    -0.237 OA
ATOM     75  O   UNL A   1      46.705  35.499  27.927  1.00  0.00    -0.237 OA
ATOM     76  O   UNL A   1      47.864  35.499  25.752  1.00  0.00    -0.744 OA
ENDBRANCH  72  73
ENDBRANCH  51  65
BRANCH  52  77
ATOM     77  C   UNL A   1      38.789  28.848  29.189  1.00  0.00     0.058 A 
ATOM     78  C   UNL A   1      37.820  29.056  30.192  1.00  0.00     0.135 A 
ATOM     79  C   UNL A   1      38.503  29.429  27.938  1.00  0.00     0.135 A 
ATOM     80  F   UNL A   1      38.014  28.568  31.427  1.00  0.00    -0.206 F 
ATOM     81  C   UNL A   1      36.660  29.819  29.976  1.00  0.00     0.059 A 
ATOM     82  C   UNL A   1      37.357  30.190  27.697  1.00  0.00     0.059 A 
ATOM     83  F   UNL A   1      39.382  29.348  26.927  1.00  0.00    -0.206 F 
ATOM     84  C   UNL A   1      36.445  30.398  28.726  1.00  0.00     0.060 A 
BRANCH  84  85
ATOM     85  S   UNL A   1      35.031  31.503  28.470  1.00  0.00     0.124 S 
ATOM     86  O   UNL A   1      34.769  31.980  29.824  1.00  0.00    -0.237 OA
ATOM     87  O   UNL A   1      35.570  32.491  27.542  1.00  0.00    -0.237 OA
ATOM     88  O   UNL A   1      34.007  30.623  27.913  1.00  0.00    -0.744 OA
ENDBRANCH  84  85
ENDBRANCH  52  77
BRANCH  64  89
ATOM     89  C   UNL A   1      44.121  27.497  32.354  1.00  0.00     0.058 A 
ATOM     90  C   UNL A   1      43.871  27.811  33.703  1.00  0.00     0.135 A 
ATOM     91  C   UNL A   1      44.013  26.147  31.988  1.00  0.00     0.135 A 
ATOM     92  F   UNL A   1      43.863  29.082  34.124  1.00  0.00    -0.206 F 
ATOM     93  C   UNL A   1      43.556  26.827  34.647  1.00  0.00     0.059 A 
ATOM     94  C   UNL A   1      43.673  25.155  32.902  1.00  0.00     0.059 A 
ATOM     95  F   UNL A   1      44.181  25.786  30.705  1.00  0.00    -0.206 F 
ATOM     96  C   UNL A   1      43.456  25.499  34.234  1.00  0.00     0.060 A 
BRANCH  96  97
ATOM     97  S   UNL A   1      42.981  24.232  35.431  1.00  0.00     0.124 S 
ATOM     98  O   UNL A   1      43.664  24.678  36.640  1.00  0.00    -0.237 OA
ATOM     99  O   UNL A   1      41.526  24.341  35.449  1.00  0.00    -0.237 OA
ATOM    100  O   UNL A   1      43.496  22.997  34.844  1.00  0.00    -0.744 OA
ENDBRANCH  96  97
ENDBRANCH  64  89
ENDBRANCH  38  39
ENDBRANCH  30  33
ENDBRANCH  28  29
ENDBRANCH  27  28
ENDBRANCH  26  27
ENDBRANCH   1  26
TORSDOF 19
ENDMDL
MODEL 2
REMARK VINA RESULT:     -12.3      1.443      3.209
REMARK SMILES C[C@@H]1CCc2sc(NC(=O)/C=C/C(=O)NCCCCCCNC(=O)c3ccc(-c4c5nc(c(-c6c(F)cc(S(=O)(=O)[O-])cc6F)c6ccc([nH]6)c(-c6c(F)cc(S(=O)(=O)[O-])cc6F)c6nc(c(-c7c(F)cc(S(=O)(=O)[O-])cc7F)c7ccc4[nH]7)C=C6)C=C5)cc3)c(C#N)c2C1
REMARK SMILES IDX 18 1 17 2 16 3 15 4 13 5 14 6 12 8 11 9 9 10 8 11 10 13 7 14
REMARK SMILES IDX 1 15 2 16 3 17 95 18 4 19 94 20 5 21 91 22 6 23 92 24 93 25
REMARK SMILES IDX 19 26 20 27 21 28 22 29 23 30 24 32 25 33 26 34 90 35 27 36
REMARK SMILES IDX 89 37 28 38 29 39 30 40 83 41 31 42 88 43 82 44 84 45 32 46
REMARK SMILES IDX 87 47 81 48 80 49 33 51 67 52 46 53 66 54 47 55 50 56 65 57
REMARK SMILES IDX 85 58 48 59 49 60 64 62 86 63 51 64 34 65 35 66 44 67 36 68
REMARK SMILES IDX 37 69 43 70 45 71 38 72 39 73 40 74 41 75 42 76 68 77 69 78
REMARK SMILES IDX 78 79 70 80 71 81 77 82 79 83 72 84 73 85 74 86 75 87 76 88
REMARK SMILES IDX 52 89 53 90 62 91 54 92 55 93 61 94 63 95 56 96 57 97 58 98
REMARK SMILES IDX 59 99 60 100
REMARK H PARENT 15 7 8 12 22 31 84 50 50 61
REMARK Flexibility Score: inf
ROOT
ATOM      1  C   UNL A   1      40.212  22.175  26.456  1.00  0.00     0.002 C 
ENDROOT
BRANCH   1   2
ATOM      2  C   UNL A   1      38.852  21.660  25.983  1.00  0.00     0.021 C 
BRANCH   2   3
ATOM      3  C   UNL A   1      37.787  22.749  25.931  1.00  0.00     0.116 C 
BRANCH   3   4
ATOM      4  N   UNL A   1      37.645  23.223  24.571  1.00  0.00    -0.353 N 
ATOM      5  C   UNL A   1      36.630  22.926  23.718  1.00  0.00     0.244 C 
ATOM      6  O   UNL A   1      36.801  22.926  22.503  1.00  0.00    -0.270 OA
ATOM      7  H   UNL A   1      38.353  23.817  24.231  1.00  0.00     0.163 HD
BRANCH   5   8
ATOM      8  C   UNL A   1      35.282  22.668  24.269  1.00  0.00     0.077 C 
ATOM      9  C   UNL A   1      34.242  22.615  23.424  1.00  0.00     0.077 C 
BRANCH   9  10
ATOM     10  C   UNL A   1      32.932  22.098  23.822  1.00  0.00     0.249 C 
ATOM     11  N   UNL A   1      31.948  22.955  24.206  1.00  0.00    -0.313 N 
ATOM     12  H   UNL A   1      31.086  22.525  24.408  1.00  0.00     0.171 HD
ATOM     13  O   UNL A   1      32.753  20.884  23.846  1.00  0.00    -0.270 OA
BRANCH  11  14
ATOM     14  C   UNL A   1      31.956  24.323  24.359  1.00  0.00     0.114 A 
ATOM     15  C   UNL A   1      33.719  28.901  24.697  1.00  0.00     0.008 C 
ATOM     16  C   UNL A   1      32.190  29.032  24.691  1.00  0.00    -0.009 C 
ATOM     17  C   UNL A   1      31.556  28.864  26.096  1.00  0.00     0.009 C 
ATOM     18  C   UNL A   1      31.567  28.010  23.727  1.00  0.00     0.041 C 
ATOM     19  C   UNL A   1      31.675  27.447  26.695  1.00  0.00     0.047 C 
ATOM     20  C   UNL A   1      31.730  26.626  24.277  1.00  0.00    -0.014 A 
ATOM     21  C   UNL A   1      31.665  26.391  25.635  1.00  0.00     0.011 A 
ATOM     22  C   UNL A   1      32.159  25.450  23.586  1.00  0.00     0.090 A 
ATOM     23  S   UNL A   1      31.708  24.738  26.003  1.00  0.00    -0.121 S 
BRANCH  22  24
ATOM     24  C   UNL A   1      32.803  25.522  22.301  1.00  0.00     0.103 C 
ATOM     25  N   UNL A   1      33.243  25.543  21.231  1.00  0.00    -0.192 NA
ENDBRANCH  22  24
ENDBRANCH  11  14
ENDBRANCH   9  10
ENDBRANCH   5   8
ENDBRANCH   3   4
ENDBRANCH   2   3
ENDBRANCH   1   2
BRANCH   1  26
ATOM     26  C   UNL A   1      40.810  21.428  27.658  1.00  0.00     0.002 C 
BRANCH  26  27
ATOM     27  C   UNL A   1      41.818  20.315  27.332  1.00  0.00     0.021 C 
BRANCH  27  28
ATOM     28  C   UNL A   1      41.883  19.977  25.857  1.00  0.00     0.116 C 
BRANCH  28  29
ATOM     29  N   UNL A   1      43.252  19.697  25.424  1.00  0.00    -0.352 N 
ATOM     30  C   UNL A   1      44.202  20.601  24.994  1.00  0.00     0.251 C 
ATOM     31  H   UNL A   1      43.528  18.752  25.443  1.00  0.00     0.163 HD
ATOM     32  O   UNL A   1      45.132  20.246  24.281  1.00  0.00    -0.269 OA
BRANCH  30  33
ATOM     33  C   UNL A   1      44.080  21.997  25.447  1.00  0.00     0.039 A 
ATOM     34  C   UNL A   1      43.302  22.943  24.777  1.00  0.00     0.014 A 
ATOM     35  C   UNL A   1      44.761  22.329  26.615  1.00  0.00     0.014 A 
ATOM     36  C   UNL A   1      43.200  24.221  25.323  1.00  0.00     0.010 A 
ATOM     37  C   UNL A   1      44.461  23.488  27.265  1.00  0.00     0.010 A 
ATOM     38  C   UNL A   1      43.790  24.479  26.572  1.00  0.00    -0.014 A 
BRANCH  38  39
ATOM     39  C   UNL A   1      43.615  25.739  27.281  1.00  0.00     0.031 A 
ATOM     40  C   UNL A   1      44.660  26.730  26.925  1.00  0.00     0.074 A 
ATOM     41  C   UNL A   1      42.476  26.029  27.956  1.00  0.00     0.049 A 
ATOM     42  N   UNL A   1      45.669  27.099  27.642  1.00  0.00    -0.248 NA
ATOM     43  C   UNL A   1      44.743  27.176  25.520  1.00  0.00     0.031 C 
ATOM     44  C   UNL A   1      41.264  25.206  28.095  1.00  0.00     0.029 A 
ATOM     45  N   UNL A   1      42.115  27.177  28.595  1.00  0.00    -0.354 N 
ATOM     46  C   UNL A   1      46.315  28.071  26.886  1.00  0.00     0.074 A 
ATOM     47  C   UNL A   1      45.895  27.850  25.530  1.00  0.00     0.031 C 
ATOM     48  C   UNL A   1      40.245  25.956  28.571  1.00  0.00     0.029 A 
ATOM     49  C   UNL A   1      40.759  27.263  28.930  1.00  0.00     0.049 A 
ATOM     50  H   UNL A   1      42.760  27.891  28.806  1.00  0.00     0.167 HD
ATOM     51  C   UNL A   1      46.831  29.176  27.494  1.00  0.00     0.037 A 
ATOM     52  C   UNL A   1      40.116  28.338  29.465  1.00  0.00     0.037 A 
ATOM     53  C   UNL A   1      46.957  28.945  28.919  1.00  0.00     0.049 A 
ATOM     54  C   UNL A   1      41.171  29.187  30.081  1.00  0.00     0.074 A 
ATOM     55  C   UNL A   1      47.618  28.024  29.709  1.00  0.00     0.029 A 
ATOM     56  N   UNL A   1      45.986  29.498  29.720  1.00  0.00    -0.354 N 
ATOM     57  N   UNL A   1      41.903  28.800  31.092  1.00  0.00    -0.248 NA
ATOM     58  C   UNL A   1      41.754  30.226  29.248  1.00  0.00     0.031 C 
ATOM     59  C   UNL A   1      46.721  27.747  30.786  1.00  0.00     0.029 A 
ATOM     60  C   UNL A   1      45.604  28.574  30.655  1.00  0.00     0.049 A 
ATOM     61  H   UNL A   1      45.624  30.410  29.635  1.00  0.00     0.167 HD
ATOM     62  C   UNL A   1      43.191  29.210  30.776  1.00  0.00     0.074 A 
ATOM     63  C   UNL A   1      43.023  30.141  29.658  1.00  0.00     0.031 C 
ATOM     64  C   UNL A   1      44.281  28.527  31.245  1.00  0.00     0.037 A 
BRANCH  51  65
ATOM     65  C   UNL A   1      46.759  30.584  26.917  1.00  0.00     0.058 A 
ATOM     66  C   UNL A   1      47.928  31.376  26.944  1.00  0.00     0.135 A 
ATOM     67  C   UNL A   1      45.568  31.290  26.626  1.00  0.00     0.135 A 
ATOM     68  F   UNL A   1      49.127  30.818  27.177  1.00  0.00    -0.206 F 
ATOM     69  C   UNL A   1      47.898  32.766  26.823  1.00  0.00     0.059 A 
ATOM     70  C   UNL A   1      45.523  32.670  26.460  1.00  0.00     0.059 A 
ATOM     71  F   UNL A   1      44.368  30.709  26.561  1.00  0.00    -0.206 F 
ATOM     72  C   UNL A   1      46.684  33.405  26.606  1.00  0.00     0.060 A 
BRANCH  72  73
ATOM     73  S   UNL A   1      46.623  35.202  26.553  1.00  0.00     0.124 S 
ATOM     74  O   UNL A   1      47.574  35.492  25.487  1.00  0.00    -0.237 OA
ATOM     75  O   UNL A   1      45.218  35.442  26.243  1.00  0.00    -0.237 OA
ATOM     76  O   UNL A   1      47.039  35.591  27.897  1.00  0.00    -0.744 OA
ENDBRANCH  72  73
ENDBRANCH  51  65
BRANCH  52  77
ATOM     77  C   UNL A   1      38.751  28.858  29.149  1.00  0.00     0.058 A 
ATOM     78  C   UNL A   1      37.776  29.058  30.146  1.00  0.00     0.135 A 
ATOM     79  C   UNL A   1      38.472  29.444  27.898  1.00  0.00     0.135 A 
ATOM     80  F   UNL A   1      37.964  28.565  31.381  1.00  0.00    -0.206 F 
ATOM     81  C   UNL A   1      36.614  29.818  29.927  1.00  0.00     0.059 A 
ATOM     82  C   UNL A   1      37.325  30.201  27.654  1.00  0.00     0.059 A 
ATOM     83  F   UNL A   1      39.357  29.370  26.893  1.00  0.00    -0.206 F 
ATOM     84  C   UNL A   1      36.406  30.402  28.678  1.00  0.00     0.060 A 
BRANCH  84  85
ATOM     85  S   UNL A   1      34.989  31.504  28.417  1.00  0.00     0.124 S 
ATOM     86  O   UNL A   1      35.549  32.512  27.523  1.00  0.00    -0.237 OA
ATOM     87  O   UNL A   1      34.001  30.609  27.827  1.00  0.00    -0.237 OA
ATOM     88  O   UNL A   1      34.673  31.976  29.763  1.00  0.00    -0.744 OA
ENDBRANCH  84  85
ENDBRANCH  52  77
BRANCH  64  89
ATOM     89  C   UNL A   1      44.068  27.509  32.342  1.00  0.00     0.058 A 
ATOM     90  C   UNL A   1      43.977  26.118  32.147  1.00  0.00     0.135 A 
ATOM     91  C   UNL A   1      44.119  27.960  33.668  1.00  0.00     0.135 A 
ATOM     92  F   UNL A   1      44.014  25.591  30.916  1.00  0.00    -0.206 F 
ATOM     93  C   UNL A   1      43.912  25.222  33.220  1.00  0.00     0.059 A 
ATOM     94  C   UNL A   1      44.084  27.087  34.752  1.00  0.00     0.059 A 
ATOM     95  F   UNL A   1      44.265  29.271  33.925  1.00  0.00    -0.206 F 
ATOM     96  C   UNL A   1      43.969  25.719  34.522  1.00  0.00     0.060 A 
BRANCH  96  97
ATOM     97  S   UNL A   1      43.956  24.564  35.913  1.00  0.00     0.124 S 
ATOM     98  O   UNL A   1      45.379  24.323  36.126  1.00  0.00    -0.237 OA
ATOM     99  O   UNL A   1      43.280  25.330  36.954  1.00  0.00    -0.237 OA
ATOM    100  O   UNL A   1      43.201  23.423  35.401  1.00  0.00    -0.744 OA
ENDBRANCH  96  97
ENDBRANCH  64  89
ENDBRANCH  38  39
ENDBRANCH  30  33
ENDBRANCH  28  29
ENDBRANCH  27  28
ENDBRANCH  26  27
ENDBRANCH   1  26
TORSDOF 19
ENDMDL
MODEL 3
REMARK VINA RESULT:     -11.8      2.634      4.263
REMARK SMILES C[C@@H]1CCc2sc(NC(=O)/C=C/C(=O)NCCCCCCNC(=O)c3ccc(-c4c5nc(c(-c6c(F)cc(S(=O)(=O)[O-])cc6F)c6ccc([nH]6)c(-c6c(F)cc(S(=O)(=O)[O-])cc6F)c6nc(c(-c7c(F)cc(S(=O)(=O)[O-])cc7F)c7ccc4[nH]7)C=C6)C=C5)cc3)c(C#N)c2C1
REMARK SMILES IDX 18 1 17 2 16 3 15 4 13 5 14 6 12 8 11 9 9 10 8 11 10 13 7 14
REMARK SMILES IDX 1 15 2 16 3 17 95 18 4 19 94 20 5 21 91 22 6 23 92 24 93 25
REMARK SMILES IDX 19 26 20 27 21 28 22 29 23 30 24 32 25 33 26 34 90 35 27 36
REMARK SMILES IDX 89 37 28 38 29 39 30 40 83 41 31 42 88 43 82 44 84 45 32 46
REMARK SMILES IDX 87 47 81 48 80 49 33 51 67 52 46 53 66 54 47 55 50 56 65 57
REMARK SMILES IDX 85 58 48 59 49 60 64 62 86 63 51 64 34 65 35 66 44 67 36 68
REMARK SMILES IDX 37 69 43 70 45 71 38 72 39 73 40 74 41 75 42 76 68 77 69 78
REMARK SMILES IDX 78 79 70 80 71 81 77 82 79 83 72 84 73 85 74 86 75 87 76 88
REMARK SMILES IDX 52 89 53 90 62 91 54 92 55 93 61 94 63 95 56 96 57 97 58 98
REMARK SMILES IDX 59 99 60 100
REMARK H PARENT 15 7 8 12 22 31 84 50 50 61
REMARK Flexibility Score: inf
ROOT
ATOM      1  C   UNL A   1      35.878  23.205  25.159  1.00  0.00     0.002 C 
ENDROOT
BRANCH   1   2
ATOM      2  C   UNL A   1      35.254  22.982  26.538  1.00  0.00     0.021 C 
BRANCH   2   3
ATOM      3  C   UNL A   1      34.472  21.678  26.633  1.00  0.00     0.116 C 
BRANCH   3   4
ATOM      4  N   UNL A   1      35.083  20.684  25.776  1.00  0.00    -0.353 N 
ATOM      5  C   UNL A   1      34.437  19.868  24.903  1.00  0.00     0.244 C 
ATOM      6  O   UNL A   1      34.895  18.769  24.603  1.00  0.00    -0.270 OA
ATOM      7  H   UNL A   1      36.062  20.591  25.832  1.00  0.00     0.163 HD
BRANCH   5   8
ATOM      8  C   UNL A   1      33.197  20.347  24.256  1.00  0.00     0.077 C 
ATOM      9  C   UNL A   1      33.255  21.446  23.489  1.00  0.00     0.077 C 
BRANCH   9  10
ATOM     10  C   UNL A   1      32.166  21.838  22.595  1.00  0.00     0.249 C 
ATOM     11  N   UNL A   1      31.740  23.129  22.564  1.00  0.00    -0.313 N 
ATOM     12  H   UNL A   1      31.038  23.313  21.898  1.00  0.00     0.171 HD
ATOM     13  O   UNL A   1      31.617  20.978  21.911  1.00  0.00    -0.270 OA
BRANCH  11  14
ATOM     14  C   UNL A   1      32.125  24.221  23.306  1.00  0.00     0.114 A 
ATOM     15  C   UNL A   1      31.746  28.164  26.221  1.00  0.00     0.008 C 
ATOM     16  C   UNL A   1      33.250  27.906  26.045  1.00  0.00    -0.009 C 
ATOM     17  C   UNL A   1      33.835  28.552  24.763  1.00  0.00     0.009 C 
ATOM     18  C   UNL A   1      33.538  26.396  26.030  1.00  0.00     0.041 C 
ATOM     19  C   UNL A   1      33.328  27.941  23.440  1.00  0.00     0.047 C 
ATOM     20  C   UNL A   1      32.997  25.788  24.773  1.00  0.00    -0.014 A 
ATOM     21  C   UNL A   1      33.017  26.485  23.582  1.00  0.00     0.011 A 
ATOM     22  C   UNL A   1      32.238  24.583  24.635  1.00  0.00     0.090 A 
ATOM     23  S   UNL A   1      32.511  25.534  22.274  1.00  0.00    -0.121 S 
BRANCH  22  24
ATOM     24  C   UNL A   1      31.618  23.947  25.767  1.00  0.00     0.103 C 
ATOM     25  N   UNL A   1      31.203  23.404  26.701  1.00  0.00    -0.192 NA
ENDBRANCH  22  24
ENDBRANCH  11  14
ENDBRANCH   9  10
ENDBRANCH   5   8
ENDBRANCH   3   4
ENDBRANCH   2   3
ENDBRANCH   1   2
BRANCH   1  26
ATOM     26  C   UNL A   1      37.392  23.472  25.165  1.00  0.00     0.002 C 
BRANCH  26  27
ATOM     27  C   UNL A   1      38.284  22.308  25.622  1.00  0.00     0.021 C 
BRANCH  27  28
ATOM     28  C   UNL A   1      39.335  22.717  26.633  1.00  0.00     0.116 C 
BRANCH  28  29
ATOM     29  N   UNL A   1      40.678  22.322  26.210  1.00  0.00    -0.352 N 
ATOM     30  C   UNL A   1      41.733  23.146  25.873  1.00  0.00     0.251 C 
ATOM     31  H   UNL A   1      40.850  21.354  26.161  1.00  0.00     0.163 HD
ATOM     32  O   UNL A   1      42.640  22.747  25.155  1.00  0.00    -0.269 OA
BRANCH  30  33
ATOM     33  C   UNL A   1      41.747  24.509  26.431  1.00  0.00     0.039 A 
ATOM     34  C   UNL A   1      41.149  25.594  25.789  1.00  0.00     0.014 A 
ATOM     35  C   UNL A   1      42.368  24.663  27.667  1.00  0.00     0.014 A 
ATOM     36  C   UNL A   1      41.162  26.831  26.431  1.00  0.00     0.010 A 
ATOM     37  C   UNL A   1      42.161  25.799  28.389  1.00  0.00     0.010 A 
ATOM     38  C   UNL A   1      41.676  26.918  27.736  1.00  0.00    -0.014 A 
BRANCH  38  39
ATOM     39  C   UNL A   1      41.601  28.134  28.533  1.00  0.00     0.031 A 
ATOM     40  C   UNL A   1      42.745  29.042  28.275  1.00  0.00     0.074 A 
ATOM     41  C   UNL A   1      40.477  28.483  29.203  1.00  0.00     0.049 A 
ATOM     42  N   UNL A   1      43.764  29.259  29.039  1.00  0.00    -0.248 NA
ATOM     43  C   UNL A   1      42.910  29.579  26.910  1.00  0.00     0.031 C 
ATOM     44  C   UNL A   1      39.189  27.773  29.255  1.00  0.00     0.029 A 
ATOM     45  N   UNL A   1      40.208  29.611  29.919  1.00  0.00    -0.354 N 
ATOM     46  C   UNL A   1      44.521  30.216  28.372  1.00  0.00     0.074 A 
ATOM     47  C   UNL A   1      44.121  30.136  26.995  1.00  0.00     0.031 C 
ATOM     48  C   UNL A   1      38.232  28.582  29.763  1.00  0.00     0.029 A 
ATOM     49  C   UNL A   1      38.857  29.803  30.231  1.00  0.00     0.049 A 
ATOM     50  H   UNL A   1      40.911  30.242  30.197  1.00  0.00     0.167 HD
ATOM     51  C   UNL A   1      45.122  31.219  29.072  1.00  0.00     0.037 A 
ATOM     52  C   UNL A   1      38.304  30.894  30.831  1.00  0.00     0.037 A 
ATOM     53  C   UNL A   1      45.184  30.874  30.478  1.00  0.00     0.049 A 
ATOM     54  C   UNL A   1      39.417  31.590  31.531  1.00  0.00     0.074 A 
ATOM     55  C   UNL A   1      45.732  29.839  31.211  1.00  0.00     0.029 A 
ATOM     56  N   UNL A   1      44.248  31.459  31.298  1.00  0.00    -0.354 N 
ATOM     57  N   UNL A   1      40.079  31.061  32.526  1.00  0.00    -0.248 NA
ATOM     58  C   UNL A   1      40.119  32.625  30.791  1.00  0.00     0.031 C 
ATOM     59  C   UNL A   1      44.783  29.572  32.245  1.00  0.00     0.029 A 
ATOM     60  C   UNL A   1      43.754  30.511  32.152  1.00  0.00     0.049 A 
ATOM     61  H   UNL A   1      43.977  32.405  31.274  1.00  0.00     0.167 HD
ATOM     62  C   UNL A   1      41.410  31.366  32.270  1.00  0.00     0.074 A 
ATOM     63  C   UNL A   1      41.363  32.388  31.221  1.00  0.00     0.031 C 
ATOM     64  C   UNL A   1      42.416  30.550  32.708  1.00  0.00     0.037 A 
BRANCH  51  65
ATOM     65  C   UNL A   1      45.200  32.665  28.601  1.00  0.00     0.058 A 
ATOM     66  C   UNL A   1      46.465  33.293  28.583  1.00  0.00     0.135 A 
ATOM     67  C   UNL A   1      44.099  33.542  28.462  1.00  0.00     0.135 A 
ATOM     68  F   UNL A   1      47.590  32.566  28.674  1.00  0.00    -0.206 F 
ATOM     69  C   UNL A   1      46.617  34.680  28.561  1.00  0.00     0.059 A 
ATOM     70  C   UNL A   1      44.231  34.925  28.395  1.00  0.00     0.059 A 
ATOM     71  F   UNL A   1      42.829  33.131  28.460  1.00  0.00    -0.206 F 
ATOM     72  C   UNL A   1      45.490  35.487  28.492  1.00  0.00     0.060 A 
BRANCH  72  73
ATOM     73  S   UNL A   1      45.671  37.276  28.567  1.00  0.00     0.124 S 
ATOM     74  O   UNL A   1      47.107  37.411  28.780  1.00  0.00    -0.237 OA
ATOM     75  O   UNL A   1      45.176  37.680  27.256  1.00  0.00    -0.237 OA
ATOM     76  O   UNL A   1      44.825  37.652  29.695  1.00  0.00    -0.744 OA
ENDBRANCH  72  73
ENDBRANCH  51  65
BRANCH  52  77
ATOM     77  C   UNL A   1      37.005  31.565  30.526  1.00  0.00     0.058 A 
ATOM     78  C   UNL A   1      36.197  32.129  31.534  1.00  0.00     0.135 A 
ATOM     79  C   UNL A   1      36.667  31.922  29.205  1.00  0.00     0.135 A 
ATOM     80  F   UNL A   1      36.456  31.873  32.826  1.00  0.00    -0.206 F 
ATOM     81  C   UNL A   1      35.144  33.016  31.252  1.00  0.00     0.059 A 
ATOM     82  C   UNL A   1      35.625  32.800  28.898  1.00  0.00     0.059 A 
ATOM     83  F   UNL A   1      37.404  31.494  28.169  1.00  0.00    -0.206 F 
ATOM     84  C   UNL A   1      34.877  33.360  29.927  1.00  0.00     0.060 A 
BRANCH  84  85
ATOM     85  S   UNL A   1      33.620  34.612  29.552  1.00  0.00     0.124 S 
ATOM     86  O   UNL A   1      33.159  34.989  30.885  1.00  0.00    -0.237 OA
ATOM     87  O   UNL A   1      34.390  35.623  28.836  1.00  0.00    -0.237 OA
ATOM     88  O   UNL A   1      32.646  33.885  28.742  1.00  0.00    -0.744 OA
ENDBRANCH  84  85
ENDBRANCH  52  77
BRANCH  64  89
ATOM     89  C   UNL A   1      42.076  29.479  33.721  1.00  0.00     0.058 A 
ATOM     90  C   UNL A   1      41.735  28.150  33.409  1.00  0.00     0.135 A 
ATOM     91  C   UNL A   1      42.262  29.783  35.077  1.00  0.00     0.135 A 
ATOM     92  F   UNL A   1      41.625  27.748  32.136  1.00  0.00    -0.206 F 
ATOM     93  C   UNL A   1      41.561  27.177  34.400  1.00  0.00     0.059 A 
ATOM     94  C   UNL A   1      42.123  28.827  36.079  1.00  0.00     0.059 A 
ATOM     95  F   UNL A   1      42.647  31.018  35.440  1.00  0.00    -0.206 F 
ATOM     96  C   UNL A   1      41.761  27.527  35.735  1.00  0.00     0.060 A 
BRANCH  96  97
ATOM     97  S   UNL A   1      41.607  26.261  37.016  1.00  0.00     0.124 S 
ATOM     98  O   UNL A   1      42.827  26.457  37.791  1.00  0.00    -0.237 OA
ATOM     99  O   UNL A   1      40.364  26.634  37.684  1.00  0.00    -0.237 OA
ATOM    100  O   UNL A   1      41.544  25.014  36.257  1.00  0.00    -0.744 OA
ENDBRANCH  96  97
ENDBRANCH  64  89
ENDBRANCH  38  39
ENDBRANCH  30  33
ENDBRANCH  28  29
ENDBRANCH  27  28
ENDBRANCH  26  27
ENDBRANCH   1  26
TORSDOF 19
ENDMDL
