MODEL 1
REMARK VINA RESULT:     -11.4      0.000      0.000
REMARK SMILES O=C(NCCCCCCNC(=O)c1cccc(S(=O)(=O)Oc2ccccc2)c1)c1ccc(-c2c3nc(c(-c4c(F)cc(S(=O)(=O)[O-])cc4F)c4ccc([nH]4)c(-c4c(F)cc(S(=O)(=O)[O-])cc4F)c4nc(c(-c5c(F)cc(S(=O)(=O)[O-])cc5F)c5ccc2[nH]5)C=C4)C=C3)cc1
REMARK SMILES IDX 6 1 5 2 4 3 3 4 1 5 2 6 29 8 30 9 94 10 31 11 93 12 32 13
REMARK SMILES IDX 33 14 34 15 87 16 35 17 92 18 86 19 88 20 36 21 91 22 85 23
REMARK SMILES IDX 84 24 37 26 71 27 50 28 70 29 51 30 54 31 69 32 89 33 52 34
REMARK SMILES IDX 53 35 68 37 90 38 55 39 38 40 39 41 48 42 40 43 41 44 47 45
REMARK SMILES IDX 49 46 42 47 43 48 44 49 45 50 46 51 72 52 73 53 82 54 74 55
REMARK SMILES IDX 75 56 81 57 83 58 76 59 77 60 78 61 79 62 80 63 56 64 57 65
REMARK SMILES IDX 66 66 58 67 59 68 65 69 67 70 60 71 61 72 62 73 63 74 64 75
REMARK SMILES IDX 7 76 8 77 9 78 10 79 11 80 12 82 13 83 14 84 28 85 15 86
REMARK SMILES IDX 17 87 16 88 18 89 19 90 20 91 21 92 22 93 23 94 27 95 24 96
REMARK SMILES IDX 26 97 25 98
REMARK H PARENT 3 7 88 25 54 36 10 81
REMARK Flexibility Score: inf
ROOT
ATOM      1  C   UNL A   1      33.962  28.340  25.774  1.00  0.00     0.002 C 
ENDROOT
BRANCH   1   2
ATOM      2  C   UNL A   1      34.132  28.741  27.241  1.00  0.00     0.021 C 
BRANCH   2   3
ATOM      3  C   UNL A   1      35.290  29.695  27.527  1.00  0.00     0.116 C 
BRANCH   3   4
ATOM      4  N   UNL A   1      35.204  30.289  28.849  1.00  0.00    -0.352 N 
ATOM      5  O   UNL A   1      35.838  30.752  30.956  1.00  0.00    -0.269 OA
ATOM      6  C   UNL A   1      36.155  30.360  29.836  1.00  0.00     0.251 C 
ATOM      7  H   UNL A   1      34.337  30.701  29.069  1.00  0.00     0.163 HD
BRANCH   6   8
ATOM      8  C   UNL A   1      37.548  29.948  29.562  1.00  0.00     0.039 A 
ATOM      9  C   UNL A   1      38.378  29.472  30.583  1.00  0.00     0.014 A 
ATOM     10  C   UNL A   1      38.017  30.004  28.246  1.00  0.00     0.014 A 
ATOM     11  C   UNL A   1      39.704  29.145  30.306  1.00  0.00     0.010 A 
ATOM     12  C   UNL A   1      39.330  29.626  27.962  1.00  0.00     0.010 A 
ATOM     13  C   UNL A   1      40.190  29.212  28.992  1.00  0.00    -0.014 A 
BRANCH  13  14
ATOM     14  C   UNL A   1      41.581  28.799  28.679  1.00  0.00     0.031 A 
ATOM     15  C   UNL A   1      42.688  29.812  28.632  1.00  0.00     0.074 A 
ATOM     16  C   UNL A   1      41.830  27.508  28.390  1.00  0.00     0.049 A 
ATOM     17  N   UNL A   1      43.938  29.651  28.281  1.00  0.00    -0.248 NA
ATOM     18  C   UNL A   1      42.342  31.188  29.018  1.00  0.00     0.031 C 
ATOM     19  C   UNL A   1      40.832  26.437  28.393  1.00  0.00     0.029 A 
ATOM     20  N   UNL A   1      42.992  26.881  28.016  1.00  0.00    -0.354 N 
ATOM     21  C   UNL A   1      44.524  30.907  28.379  1.00  0.00     0.074 A 
ATOM     22  C   UNL A   1      43.487  31.822  28.808  1.00  0.00     0.031 C 
ATOM     23  C   UNL A   1      41.421  25.288  28.033  1.00  0.00     0.029 A 
ATOM     24  C   UNL A   1      42.825  25.548  27.728  1.00  0.00     0.049 A 
ATOM     25  H   UNL A   1      43.860  27.342  27.961  1.00  0.00     0.167 HD
ATOM     26  C   UNL A   1      45.810  31.260  28.135  1.00  0.00     0.037 A 
ATOM     27  C   UNL A   1      43.692  24.642  27.236  1.00  0.00     0.037 A 
ATOM     28  C   UNL A   1      46.835  30.340  27.716  1.00  0.00     0.049 A 
ATOM     29  C   UNL A   1      45.107  25.055  26.957  1.00  0.00     0.074 A 
ATOM     30  C   UNL A   1      48.176  30.591  27.483  1.00  0.00     0.029 A 
ATOM     31  N   UNL A   1      46.630  28.992  27.454  1.00  0.00    -0.354 N 
ATOM     32  N   UNL A   1      45.657  26.237  27.094  1.00  0.00    -0.248 NA
ATOM     33  C   UNL A   1      46.019  24.018  26.458  1.00  0.00     0.031 C 
ATOM     34  C   UNL A   1      48.774  29.404  27.045  1.00  0.00     0.029 A 
ATOM     35  C   UNL A   1      47.815  28.403  27.044  1.00  0.00     0.049 A 
ATOM     36  H   UNL A   1      45.770  28.523  27.546  1.00  0.00     0.167 HD
ATOM     37  C   UNL A   1      46.986  26.084  26.717  1.00  0.00     0.074 A 
ATOM     38  C   UNL A   1      47.157  24.693  26.348  1.00  0.00     0.031 C 
ATOM     39  C   UNL A   1      47.973  27.013  26.686  1.00  0.00     0.037 A 
BRANCH  26  40
ATOM     40  C   UNL A   1      46.165  32.714  28.285  1.00  0.00     0.058 A 
ATOM     41  C   UNL A   1      46.637  33.238  29.498  1.00  0.00     0.135 A 
ATOM     42  C   UNL A   1      46.026  33.595  27.200  1.00  0.00     0.135 A 
ATOM     43  F   UNL A   1      46.777  32.441  30.570  1.00  0.00    -0.206 F 
ATOM     44  C   UNL A   1      46.912  34.594  29.646  1.00  0.00     0.059 A 
ATOM     45  C   UNL A   1      46.319  34.950  27.318  1.00  0.00     0.059 A 
ATOM     46  F   UNL A   1      45.585  33.145  26.015  1.00  0.00    -0.206 F 
ATOM     47  C   UNL A   1      46.738  35.445  28.553  1.00  0.00     0.060 A 
BRANCH  47  48
ATOM     48  S   UNL A   1      47.048  37.210  28.770  1.00  0.00     0.124 S 
ATOM     49  O   UNL A   1      47.777  37.222  30.035  1.00  0.00    -0.237 OA
ATOM     50  O   UNL A   1      47.835  37.541  27.585  1.00  0.00    -0.237 OA
ATOM     51  O   UNL A   1      45.709  37.787  28.811  1.00  0.00    -0.744 OA
ENDBRANCH  47  48
ENDBRANCH  26  40
BRANCH  27  52
ATOM     52  C   UNL A   1      43.214  23.260  26.982  1.00  0.00     0.058 A 
ATOM     53  C   UNL A   1      43.018  22.793  25.676  1.00  0.00     0.135 A 
ATOM     54  C   UNL A   1      43.045  22.350  28.038  1.00  0.00     0.135 A 
ATOM     55  F   UNL A   1      43.165  23.627  24.636  1.00  0.00    -0.206 F 
ATOM     56  C   UNL A   1      42.686  21.466  25.422  1.00  0.00     0.059 A 
ATOM     57  C   UNL A   1      42.735  21.015  27.809  1.00  0.00     0.059 A 
ATOM     58  F   UNL A   1      43.240  22.749  29.305  1.00  0.00    -0.206 F 
ATOM     59  C   UNL A   1      42.560  20.581  26.496  1.00  0.00     0.060 A 
BRANCH  59  60
ATOM     60  S   UNL A   1      42.244  18.837  26.149  1.00  0.00     0.124 S 
ATOM     61  O   UNL A   1      42.598  18.216  27.421  1.00  0.00    -0.237 OA
ATOM     62  O   UNL A   1      40.823  18.842  25.815  1.00  0.00    -0.237 OA
ATOM     63  O   UNL A   1      43.140  18.549  25.033  1.00  0.00    -0.744 OA
ENDBRANCH  59  60
ENDBRANCH  27  52
BRANCH  39  64
ATOM     64  C   UNL A   1      49.342  26.561  26.267  1.00  0.00     0.058 A 
ATOM     65  C   UNL A   1      49.837  26.816  24.981  1.00  0.00     0.135 A 
ATOM     66  C   UNL A   1      50.200  25.952  27.197  1.00  0.00     0.135 A 
ATOM     67  F   UNL A   1      49.052  27.386  24.055  1.00  0.00    -0.206 F 
ATOM     68  C   UNL A   1      51.142  26.484  24.629  1.00  0.00     0.059 A 
ATOM     69  C   UNL A   1      51.513  25.630  26.873  1.00  0.00     0.059 A 
ATOM     70  F   UNL A   1      49.772  25.693  28.442  1.00  0.00    -0.206 F 
ATOM     71  C   UNL A   1      51.976  25.899  25.586  1.00  0.00     0.060 A 
BRANCH  71  72
ATOM     72  S   UNL A   1      53.691  25.546  25.144  1.00  0.00     0.124 S 
ATOM     73  O   UNL A   1      53.877  24.219  25.719  1.00  0.00    -0.237 OA
ATOM     74  O   UNL A   1      53.659  25.608  23.686  1.00  0.00    -0.237 OA
ATOM     75  O   UNL A   1      54.436  26.623  25.792  1.00  0.00    -0.744 OA
ENDBRANCH  71  72
ENDBRANCH  39  64
ENDBRANCH  13  14
ENDBRANCH   6   8
ENDBRANCH   3   4
ENDBRANCH   2   3
ENDBRANCH   1   2
BRANCH   1  76
ATOM     76  C   UNL A   1      33.137  29.300  24.913  1.00  0.00     0.002 C 
BRANCH  76  77
ATOM     77  C   UNL A   1      32.824  28.820  23.493  1.00  0.00     0.021 C 
BRANCH  77  78
ATOM     78  C   UNL A   1      33.945  28.049  22.801  1.00  0.00     0.116 C 
BRANCH  78  79
ATOM     79  N   UNL A   1      33.497  27.402  21.579  1.00  0.00    -0.352 N 
ATOM     80  C   UNL A   1      33.008  26.134  21.396  1.00  0.00     0.251 C 
ATOM     81  H   UNL A   1      33.554  27.954  20.765  1.00  0.00     0.163 HD
ATOM     82  O   UNL A   1      32.829  25.689  20.267  1.00  0.00    -0.269 OA
BRANCH  80  83
ATOM     83  C   UNL A   1      32.705  25.287  22.568  1.00  0.00     0.041 A 
ATOM     84  C   UNL A   1      31.420  25.337  23.119  1.00  0.00     0.014 A 
ATOM     85  C   UNL A   1      33.690  24.471  23.132  1.00  0.00     0.037 A 
ATOM     86  C   UNL A   1      31.097  24.527  24.209  1.00  0.00     0.002 A 
ATOM     87  C   UNL A   1      33.351  23.655  24.212  1.00  0.00     0.106 A 
ATOM     88  C   UNL A   1      32.059  23.674  24.751  1.00  0.00     0.024 A 
BRANCH  87  89
ATOM     89  S   UNL A   1      34.537  22.503  24.884  1.00  0.00     0.339 S 
ATOM     90  O   UNL A   1      34.525  22.722  26.315  1.00  0.00    -0.181 OA
ATOM     91  O   UNL A   1      34.189  21.219  24.300  1.00  0.00    -0.181 OA
BRANCH  89  92
ATOM     92  O   UNL A   1      35.962  23.008  24.264  1.00  0.00    -0.379 OA
BRANCH  92  93
ATOM     93  C   UNL A   1      37.112  22.916  25.002  1.00  0.00     0.142 A 
ATOM     94  C   UNL A   1      37.737  21.668  25.041  1.00  0.00     0.048 A 
ATOM     95  C   UNL A   1      37.604  23.969  25.772  1.00  0.00     0.048 A 
ATOM     96  C   UNL A   1      38.873  21.481  25.830  1.00  0.00     0.004 A 
ATOM     97  C   UNL A   1      38.741  23.779  26.560  1.00  0.00     0.004 A 
ATOM     98  C   UNL A   1      39.375  22.538  26.589  1.00  0.00     0.000 A 
ENDBRANCH  92  93
ENDBRANCH  89  92
ENDBRANCH  87  89
ENDBRANCH  80  83
ENDBRANCH  78  79
ENDBRANCH  77  78
ENDBRANCH  76  77
ENDBRANCH   1  76
TORSDOF 19
ENDMDL
MODEL 2
REMARK VINA RESULT:     -11.1      6.538     11.974
REMARK SMILES O=C(NCCCCCCNC(=O)c1cccc(S(=O)(=O)Oc2ccccc2)c1)c1ccc(-c2c3nc(c(-c4c(F)cc(S(=O)(=O)[O-])cc4F)c4ccc([nH]4)c(-c4c(F)cc(S(=O)(=O)[O-])cc4F)c4nc(c(-c5c(F)cc(S(=O)(=O)[O-])cc5F)c5ccc2[nH]5)C=C4)C=C3)cc1
REMARK SMILES IDX 6 1 5 2 4 3 3 4 1 5 2 6 29 8 30 9 94 10 31 11 93 12 32 13
REMARK SMILES IDX 33 14 34 15 87 16 35 17 92 18 86 19 88 20 36 21 91 22 85 23
REMARK SMILES IDX 84 24 37 26 71 27 50 28 70 29 51 30 54 31 69 32 89 33 52 34
REMARK SMILES IDX 53 35 68 37 90 38 55 39 38 40 39 41 48 42 40 43 41 44 47 45
REMARK SMILES IDX 49 46 42 47 43 48 44 49 45 50 46 51 72 52 73 53 82 54 74 55
REMARK SMILES IDX 75 56 81 57 83 58 76 59 77 60 78 61 79 62 80 63 56 64 57 65
REMARK SMILES IDX 66 66 58 67 59 68 65 69 67 70 60 71 61 72 62 73 63 74 64 75
REMARK SMILES IDX 7 76 8 77 9 78 10 79 11 80 12 82 13 83 14 84 28 85 15 86
REMARK SMILES IDX 17 87 16 88 18 89 19 90 20 91 21 92 22 93 23 94 27 95 24 96
REMARK SMILES IDX 26 97 25 98
REMARK H PARENT 3 7 88 25 54 36 10 81
REMARK Flexibility Score: inf
ROOT
ATOM      1  C   UNL A   1      38.282  23.617  26.285  1.00  0.00     0.002 C 
ENDROOT
BRANCH   1   2
ATOM      2  C   UNL A   1      39.423  22.649  26.608  1.00  0.00     0.021 C 
BRANCH   2   3
ATOM      3  C   UNL A   1      40.700  23.298  27.135  1.00  0.00     0.116 C 
BRANCH   3   4
ATOM      4  N   UNL A   1      41.477  23.928  26.083  1.00  0.00    -0.352 N 
ATOM      5  O   UNL A   1      42.394  25.616  24.913  1.00  0.00    -0.269 OA
ATOM      6  C   UNL A   1      41.891  25.231  25.965  1.00  0.00     0.251 C 
ATOM      7  H   UNL A   1      41.745  23.333  25.345  1.00  0.00     0.163 HD
BRANCH   6   8
ATOM      8  C   UNL A   1      41.716  26.174  27.091  1.00  0.00     0.039 A 
ATOM      9  C   UNL A   1      42.508  27.322  27.204  1.00  0.00     0.014 A 
ATOM     10  C   UNL A   1      40.710  25.922  28.027  1.00  0.00     0.014 A 
ATOM     11  C   UNL A   1      42.361  28.163  28.306  1.00  0.00     0.010 A 
ATOM     12  C   UNL A   1      40.527  26.794  29.101  1.00  0.00     0.010 A 
ATOM     13  C   UNL A   1      41.363  27.911  29.260  1.00  0.00    -0.014 A 
BRANCH  13  14
ATOM     14  C   UNL A   1      41.154  28.841  30.397  1.00  0.00     0.031 A 
ATOM     15  C   UNL A   1      41.972  28.714  31.650  1.00  0.00     0.074 A 
ATOM     16  C   UNL A   1      40.185  29.772  30.312  1.00  0.00     0.049 A 
ATOM     17  N   UNL A   1      41.862  29.370  32.777  1.00  0.00    -0.248 NA
ATOM     18  C   UNL A   1      43.047  27.711  31.639  1.00  0.00     0.031 C 
ATOM     19  C   UNL A   1      39.320  29.981  29.149  1.00  0.00     0.029 A 
ATOM     20  N   UNL A   1      39.751  30.701  31.223  1.00  0.00    -0.354 N 
ATOM     21  C   UNL A   1      42.834  28.845  33.619  1.00  0.00     0.074 A 
ATOM     22  C   UNL A   1      43.514  27.804  32.876  1.00  0.00     0.031 C 
ATOM     23  C   UNL A   1      38.456  30.969  29.419  1.00  0.00     0.029 A 
ATOM     24  C   UNL A   1      38.672  31.431  30.787  1.00  0.00     0.049 A 
ATOM     25  H   UNL A   1      40.172  30.831  32.103  1.00  0.00     0.167 HD
ATOM     26  C   UNL A   1      43.131  29.201  34.892  1.00  0.00     0.037 A 
ATOM     27  C   UNL A   1      37.915  32.344  31.426  1.00  0.00     0.037 A 
ATOM     28  C   UNL A   1      42.452  30.243  35.618  1.00  0.00     0.049 A 
ATOM     29  C   UNL A   1      38.248  32.715  32.841  1.00  0.00     0.074 A 
ATOM     30  C   UNL A   1      42.705  30.708  36.897  1.00  0.00     0.029 A 
ATOM     31  N   UNL A   1      41.377  30.975  35.134  1.00  0.00    -0.354 N 
ATOM     32  N   UNL A   1      39.197  32.239  33.610  1.00  0.00    -0.248 NA
ATOM     33  C   UNL A   1      37.414  33.742  33.476  1.00  0.00     0.031 C 
ATOM     34  C   UNL A   1      41.760  31.695  37.200  1.00  0.00     0.029 A 
ATOM     35  C   UNL A   1      40.942  31.874  36.095  1.00  0.00     0.049 A 
ATOM     36  H   UNL A   1      40.980  30.871  34.239  1.00  0.00     0.167 HD
ATOM     37  C   UNL A   1      39.088  32.921  34.816  1.00  0.00     0.074 A 
ATOM     38  C   UNL A   1      37.981  33.846  34.672  1.00  0.00     0.031 C 
ATOM     39  C   UNL A   1      39.842  32.794  35.935  1.00  0.00     0.037 A 
BRANCH  26  40
ATOM     40  C   UNL A   1      44.218  28.430  35.588  1.00  0.00     0.058 A 
ATOM     41  C   UNL A   1      43.938  27.288  36.356  1.00  0.00     0.135 A 
ATOM     42  C   UNL A   1      45.557  28.840  35.488  1.00  0.00     0.135 A 
ATOM     43  F   UNL A   1      42.673  26.859  36.494  1.00  0.00    -0.206 F 
ATOM     44  C   UNL A   1      44.941  26.610  37.041  1.00  0.00     0.059 A 
ATOM     45  C   UNL A   1      46.580  28.163  36.145  1.00  0.00     0.059 A 
ATOM     46  F   UNL A   1      45.880  29.921  34.760  1.00  0.00    -0.206 F 
ATOM     47  C   UNL A   1      46.258  27.063  36.940  1.00  0.00     0.060 A 
BRANCH  47  48
ATOM     48  S   UNL A   1      47.544  26.207  37.875  1.00  0.00     0.124 S 
ATOM     49  O   UNL A   1      47.196  26.572  39.245  1.00  0.00    -0.237 OA
ATOM     50  O   UNL A   1      47.317  24.809  37.518  1.00  0.00    -0.237 OA
ATOM     51  O   UNL A   1      48.780  26.789  37.363  1.00  0.00    -0.744 OA
ENDBRANCH  47  48
ENDBRANCH  26  40
BRANCH  27  52
ATOM     52  C   UNL A   1      36.768  32.952  30.706  1.00  0.00     0.058 A 
ATOM     53  C   UNL A   1      35.450  32.593  31.014  1.00  0.00     0.135 A 
ATOM     54  C   UNL A   1      36.968  33.978  29.768  1.00  0.00     0.135 A 
ATOM     55  F   UNL A   1      35.211  31.615  31.901  1.00  0.00    -0.206 F 
ATOM     56  C   UNL A   1      34.366  33.241  30.431  1.00  0.00     0.059 A 
ATOM     57  C   UNL A   1      35.901  34.655  29.188  1.00  0.00     0.059 A 
ATOM     58  F   UNL A   1      38.214  34.368  29.455  1.00  0.00    -0.206 F 
ATOM     59  C   UNL A   1      34.603  34.280  29.529  1.00  0.00     0.060 A 
BRANCH  59  60
ATOM     60  S   UNL A   1      33.191  35.192  28.867  1.00  0.00     0.124 S 
ATOM     61  O   UNL A   1      33.852  36.284  28.161  1.00  0.00    -0.237 OA
ATOM     62  O   UNL A   1      32.543  34.188  28.027  1.00  0.00    -0.237 OA
ATOM     63  O   UNL A   1      32.445  35.571  30.064  1.00  0.00    -0.744 OA
ENDBRANCH  59  60
ENDBRANCH  27  52
BRANCH  39  64
ATOM     64  C   UNL A   1      39.524  33.694  37.094  1.00  0.00     0.058 A 
ATOM     65  C   UNL A   1      38.720  33.264  38.158  1.00  0.00     0.135 A 
ATOM     66  C   UNL A   1      40.112  34.968  37.183  1.00  0.00     0.135 A 
ATOM     67  F   UNL A   1      38.128  32.061  38.115  1.00  0.00    -0.206 F 
ATOM     68  C   UNL A   1      38.510  34.065  39.277  1.00  0.00     0.059 A 
ATOM     69  C   UNL A   1      39.931  35.776  38.299  1.00  0.00     0.059 A 
ATOM     70  F   UNL A   1      40.893  35.421  36.190  1.00  0.00    -0.206 F 
ATOM     71  C   UNL A   1      39.128  35.317  39.342  1.00  0.00     0.060 A 
BRANCH  71  72
ATOM     72  S   UNL A   1      38.914  36.314  40.832  1.00  0.00     0.124 S 
ATOM     73  O   UNL A   1      37.864  35.580  41.530  1.00  0.00    -0.237 OA
ATOM     74  O   UNL A   1      40.240  36.259  41.440  1.00  0.00    -0.237 OA
ATOM     75  O   UNL A   1      38.526  37.622  40.311  1.00  0.00    -0.744 OA
ENDBRANCH  71  72
ENDBRANCH  39  64
ENDBRANCH  13  14
ENDBRANCH   6   8
ENDBRANCH   3   4
ENDBRANCH   2   3
ENDBRANCH   1   2
BRANCH   1  76
ATOM     76  C   UNL A   1      37.224  23.095  25.309  1.00  0.00     0.002 C 
BRANCH  76  77
ATOM     77  C   UNL A   1      37.387  21.636  24.869  1.00  0.00     0.021 C 
BRANCH  77  78
ATOM     78  C   UNL A   1      36.122  20.785  24.947  1.00  0.00     0.116 C 
BRANCH  78  79
ATOM     79  N   UNL A   1      35.342  21.064  26.141  1.00  0.00    -0.352 N 
ATOM     80  C   UNL A   1      34.220  21.840  26.285  1.00  0.00     0.251 C 
ATOM     81  H   UNL A   1      35.667  20.635  26.967  1.00  0.00     0.163 HD
ATOM     82  O   UNL A   1      33.780  22.103  27.400  1.00  0.00    -0.269 OA
BRANCH  80  83
ATOM     83  C   UNL A   1      33.540  22.377  25.088  1.00  0.00     0.041 A 
ATOM     84  C   UNL A   1      32.739  21.518  24.329  1.00  0.00     0.014 A 
ATOM     85  C   UNL A   1      33.715  23.710  24.708  1.00  0.00     0.037 A 
ATOM     86  C   UNL A   1      32.061  22.005  23.209  1.00  0.00     0.002 A 
ATOM     87  C   UNL A   1      33.021  24.189  23.595  1.00  0.00     0.106 A 
ATOM     88  C   UNL A   1      32.191  23.346  22.847  1.00  0.00     0.024 A 
BRANCH  87  89
ATOM     89  S   UNL A   1      33.110  25.913  23.145  1.00  0.00     0.339 S 
ATOM     90  O   UNL A   1      33.958  25.967  21.972  1.00  0.00    -0.181 OA
ATOM     91  O   UNL A   1      31.731  26.368  23.118  1.00  0.00    -0.181 OA
BRANCH  89  92
ATOM     92  O   UNL A   1      33.881  26.605  24.410  1.00  0.00    -0.379 OA
BRANCH  92  93
ATOM     93  C   UNL A   1      33.209  27.444  25.258  1.00  0.00     0.142 A 
ATOM     94  C   UNL A   1      33.311  28.813  25.000  1.00  0.00     0.048 A 
ATOM     95  C   UNL A   1      32.536  26.995  26.393  1.00  0.00     0.048 A 
ATOM     96  C   UNL A   1      32.712  29.731  25.864  1.00  0.00     0.004 A 
ATOM     97  C   UNL A   1      31.937  27.916  27.255  1.00  0.00     0.004 A 
ATOM     98  C   UNL A   1      32.025  29.282  26.990  1.00  0.00     0.000 A 
ENDBRANCH  92  93
ENDBRANCH  89  92
ENDBRANCH  87  89
ENDBRANCH  80  83
ENDBRANCH  78  79
ENDBRANCH  77  78
ENDBRANCH  76  77
ENDBRANCH   1  76
TORSDOF 19
ENDMDL
MODEL 3
REMARK VINA RESULT:     -11.0      1.510      8.458
REMARK SMILES O=C(NCCCCCCNC(=O)c1cccc(S(=O)(=O)Oc2ccccc2)c1)c1ccc(-c2c3nc(c(-c4c(F)cc(S(=O)(=O)[O-])cc4F)c4ccc([nH]4)c(-c4c(F)cc(S(=O)(=O)[O-])cc4F)c4nc(c(-c5c(F)cc(S(=O)(=O)[O-])cc5F)c5ccc2[nH]5)C=C4)C=C3)cc1
REMARK SMILES IDX 6 1 5 2 4 3 3 4 1 5 2 6 29 8 30 9 94 10 31 11 93 12 32 13
REMARK SMILES IDX 33 14 34 15 87 16 35 17 92 18 86 19 88 20 36 21 91 22 85 23
REMARK SMILES IDX 84 24 37 26 71 27 50 28 70 29 51 30 54 31 69 32 89 33 52 34
REMARK SMILES IDX 53 35 68 37 90 38 55 39 38 40 39 41 48 42 40 43 41 44 47 45
REMARK SMILES IDX 49 46 42 47 43 48 44 49 45 50 46 51 72 52 73 53 82 54 74 55
REMARK SMILES IDX 75 56 81 57 83 58 76 59 77 60 78 61 79 62 80 63 56 64 57 65
REMARK SMILES IDX 66 66 58 67 59 68 65 69 67 70 60 71 61 72 62 73 63 74 64 75
REMARK SMILES IDX 7 76 8 77 9 78 10 79 11 80 12 82 13 83 14 84 28 85 15 86
REMARK SMILES IDX 17 87 16 88 18 89 19 90 20 91 21 92 22 93 23 94 27 95 24 96
REMARK SMILES IDX 26 97 25 98
REMARK H PARENT 3 7 88 25 54 36 10 81
REMARK Flexibility Score: inf
ROOT
ATOM      1  C   UNL A   1      34.957  32.665  28.854  1.00  0.00     0.002 C 
ENDROOT
BRANCH   1   2
ATOM      2  C   UNL A   1      35.998  33.657  29.379  1.00  0.00     0.021 C 
BRANCH   2   3
ATOM      3  C   UNL A   1      36.961  33.101  30.425  1.00  0.00     0.116 C 
BRANCH   3   4
ATOM      4  N   UNL A   1      36.414  31.954  31.127  1.00  0.00    -0.352 N 
ATOM      5  O   UNL A   1      36.176  29.789  31.688  1.00  0.00    -0.269 OA
ATOM      6  C   UNL A   1      36.873  30.662  31.179  1.00  0.00     0.251 C 
ATOM      7  H   UNL A   1      35.592  32.129  31.641  1.00  0.00     0.163 HD
BRANCH   6   8
ATOM      8  C   UNL A   1      38.193  30.317  30.607  1.00  0.00     0.039 A 
ATOM      9  C   UNL A   1      39.284  30.019  31.431  1.00  0.00     0.014 A 
ATOM     10  C   UNL A   1      38.326  30.251  29.217  1.00  0.00     0.014 A 
ATOM     11  C   UNL A   1      40.530  29.753  30.866  1.00  0.00     0.010 A 
ATOM     12  C   UNL A   1      39.562  29.931  28.653  1.00  0.00     0.010 A 
ATOM     13  C   UNL A   1      40.679  29.699  29.472  1.00  0.00    -0.014 A 
BRANCH  13  14
ATOM     14  C   UNL A   1      41.986  29.347  28.865  1.00  0.00     0.031 A 
ATOM     15  C   UNL A   1      42.250  27.954  28.372  1.00  0.00     0.074 A 
ATOM     16  C   UNL A   1      42.953  30.282  28.805  1.00  0.00     0.049 A 
ATOM     17  N   UNL A   1      43.359  27.441  27.905  1.00  0.00    -0.248 NA
ATOM     18  C   UNL A   1      41.123  27.011  28.419  1.00  0.00     0.031 C 
ATOM     19  C   UNL A   1      42.814  31.665  29.264  1.00  0.00     0.029 A 
ATOM     20  N   UNL A   1      44.247  30.206  28.356  1.00  0.00    -0.354 N 
ATOM     21  C   UNL A   1      43.075  26.110  27.627  1.00  0.00     0.074 A 
ATOM     22  C   UNL A   1      41.690  25.891  27.992  1.00  0.00     0.031 C 
ATOM     23  C   UNL A   1      43.977  32.306  29.078  1.00  0.00     0.029 A 
ATOM     24  C   UNL A   1      44.956  31.370  28.534  1.00  0.00     0.049 A 
ATOM     25  H   UNL A   1      44.629  29.397  27.946  1.00  0.00     0.167 HD
ATOM     26  C   UNL A   1      43.894  25.161  27.113  1.00  0.00     0.037 A 
ATOM     27  C   UNL A   1      46.257  31.645  28.320  1.00  0.00     0.037 A 
ATOM     28  C   UNL A   1      45.268  25.391  26.746  1.00  0.00     0.049 A 
ATOM     29  C   UNL A   1      47.153  30.578  27.765  1.00  0.00     0.074 A 
ATOM     30  C   UNL A   1      46.168  24.506  26.179  1.00  0.00     0.029 A 
ATOM     31  N   UNL A   1      45.944  26.590  26.923  1.00  0.00    -0.354 N 
ATOM     32  N   UNL A   1      46.858  29.335  27.468  1.00  0.00    -0.248 NA
ATOM     33  C   UNL A   1      48.553  30.944  27.516  1.00  0.00     0.031 C 
ATOM     34  C   UNL A   1      47.399  25.160  26.046  1.00  0.00     0.029 A 
ATOM     35  C   UNL A   1      47.255  26.463  26.494  1.00  0.00     0.049 A 
ATOM     36  H   UNL A   1      45.550  27.411  27.298  1.00  0.00     0.167 HD
ATOM     37  C   UNL A   1      48.031  28.773  26.978  1.00  0.00     0.074 A 
ATOM     38  C   UNL A   1      49.040  29.814  27.016  1.00  0.00     0.031 C 
ATOM     39  C   UNL A   1      48.247  27.511  26.532  1.00  0.00     0.037 A 
BRANCH  26  40
ATOM     40  C   UNL A   1      43.328  23.777  26.950  1.00  0.00     0.058 A 
ATOM     41  C   UNL A   1      43.156  22.915  28.045  1.00  0.00     0.135 A 
ATOM     42  C   UNL A   1      42.957  23.305  25.681  1.00  0.00     0.135 A 
ATOM     43  F   UNL A   1      43.505  23.312  29.280  1.00  0.00    -0.206 F 
ATOM     44  C   UNL A   1      42.682  21.618  27.880  1.00  0.00     0.059 A 
ATOM     45  C   UNL A   1      42.458  22.019  25.496  1.00  0.00     0.059 A 
ATOM     46  F   UNL A   1      43.095  24.090  24.600  1.00  0.00    -0.206 F 
ATOM     47  C   UNL A   1      42.348  21.174  26.600  1.00  0.00     0.060 A 
BRANCH  47  48
ATOM     48  S   UNL A   1      41.784  19.471  26.391  1.00  0.00     0.124 S 
ATOM     49  O   UNL A   1      42.255  18.858  27.629  1.00  0.00    -0.237 OA
ATOM     50  O   UNL A   1      40.337  19.629  26.276  1.00  0.00    -0.237 OA
ATOM     51  O   UNL A   1      42.463  19.036  25.175  1.00  0.00    -0.744 OA
ENDBRANCH  47  48
ENDBRANCH  26  40
BRANCH  27  52
ATOM     52  C   UNL A   1      46.764  33.002  28.646  1.00  0.00     0.058 A 
ATOM     53  C   UNL A   1      46.682  34.046  27.717  1.00  0.00     0.135 A 
ATOM     54  C   UNL A   1      47.244  33.301  29.932  1.00  0.00     0.135 A 
ATOM     55  F   UNL A   1      46.233  33.806  26.476  1.00  0.00    -0.206 F 
ATOM     56  C   UNL A   1      47.044  35.347  28.053  1.00  0.00     0.059 A 
ATOM     57  C   UNL A   1      47.591  34.597  30.298  1.00  0.00     0.059 A 
ATOM     58  F   UNL A   1      47.322  32.335  30.861  1.00  0.00    -0.206 F 
ATOM     59  C   UNL A   1      47.485  35.614  29.351  1.00  0.00     0.060 A 
BRANCH  59  60
ATOM     60  S   UNL A   1      47.841  37.324  29.811  1.00  0.00     0.124 S 
ATOM     61  O   UNL A   1      49.267  37.416  29.518  1.00  0.00    -0.237 OA
ATOM     62  O   UNL A   1      46.957  38.072  28.921  1.00  0.00    -0.237 OA
ATOM     63  O   UNL A   1      47.479  37.373  31.224  1.00  0.00    -0.744 OA
ENDBRANCH  59  60
ENDBRANCH  27  52
BRANCH  39  64
ATOM     64  C   UNL A   1      49.618  27.180  26.018  1.00  0.00     0.058 A 
ATOM     65  C   UNL A   1      50.602  26.630  26.852  1.00  0.00     0.135 A 
ATOM     66  C   UNL A   1      49.916  27.327  24.653  1.00  0.00     0.135 A 
ATOM     67  F   UNL A   1      50.369  26.480  28.164  1.00  0.00    -0.206 F 
ATOM     68  C   UNL A   1      51.837  26.231  26.349  1.00  0.00     0.059 A 
ATOM     69  C   UNL A   1      51.136  26.918  24.126  1.00  0.00     0.059 A 
ATOM     70  F   UNL A   1      49.004  27.844  23.815  1.00  0.00    -0.206 F 
ATOM     71  C   UNL A   1      52.091  26.372  24.982  1.00  0.00     0.060 A 
BRANCH  71  72
ATOM     72  S   UNL A   1      53.666  25.778  24.327  1.00  0.00     0.124 S 
ATOM     73  O   UNL A   1      53.458  25.915  22.889  1.00  0.00    -0.237 OA
ATOM     74  O   UNL A   1      54.624  26.705  24.921  1.00  0.00    -0.237 OA
ATOM     75  O   UNL A   1      53.743  24.406  24.822  1.00  0.00    -0.744 OA
ENDBRANCH  71  72
ENDBRANCH  39  64
ENDBRANCH  13  14
ENDBRANCH   6   8
ENDBRANCH   3   4
ENDBRANCH   2   3
ENDBRANCH   1   2
BRANCH   1  76
ATOM     76  C   UNL A   1      35.402  31.797  27.675  1.00  0.00     0.002 C 
BRANCH  76  77
ATOM     77  C   UNL A   1      34.992  30.322  27.742  1.00  0.00     0.021 C 
BRANCH  77  78
ATOM     78  C   UNL A   1      33.772  29.943  26.905  1.00  0.00     0.116 C 
BRANCH  78  79
ATOM     79  N   UNL A   1      32.833  29.116  27.644  1.00  0.00    -0.352 N 
ATOM     80  C   UNL A   1      31.887  28.242  27.173  1.00  0.00     0.251 C 
ATOM     81  H   UNL A   1      32.881  29.196  28.625  1.00  0.00     0.163 HD
ATOM     82  O   UNL A   1      31.061  27.744  27.932  1.00  0.00    -0.269 OA
BRANCH  80  83
ATOM     83  C   UNL A   1      31.852  27.903  25.735  1.00  0.00     0.041 A 
ATOM     84  C   UNL A   1      31.186  28.766  24.858  1.00  0.00     0.014 A 
ATOM     85  C   UNL A   1      32.449  26.730  25.264  1.00  0.00     0.037 A 
ATOM     86  C   UNL A   1      31.161  28.487  23.490  1.00  0.00     0.002 A 
ATOM     87  C   UNL A   1      32.430  26.469  23.893  1.00  0.00     0.106 A 
ATOM     88  C   UNL A   1      31.794  27.343  23.003  1.00  0.00     0.024 A 
BRANCH  87  89
ATOM     89  S   UNL A   1      33.288  25.053  23.229  1.00  0.00     0.339 S 
ATOM     90  O   UNL A   1      32.599  23.896  23.759  1.00  0.00    -0.181 OA
ATOM     91  O   UNL A   1      33.383  25.304  21.801  1.00  0.00    -0.181 OA
BRANCH  89  92
ATOM     92  O   UNL A   1      34.778  25.155  23.894  1.00  0.00    -0.379 OA
BRANCH  92  93
ATOM     93  C   UNL A   1      35.415  24.031  24.346  1.00  0.00     0.142 A 
ATOM     94  C   UNL A   1      35.500  23.869  25.731  1.00  0.00     0.048 A 
ATOM     95  C   UNL A   1      36.051  23.127  23.496  1.00  0.00     0.048 A 
ATOM     96  C   UNL A   1      36.198  22.785  26.264  1.00  0.00     0.004 A 
ATOM     97  C   UNL A   1      36.748  22.043  24.033  1.00  0.00     0.004 A 
ATOM     98  C   UNL A   1      36.820  21.871  25.415  1.00  0.00     0.000 A 
ENDBRANCH  92  93
ENDBRANCH  89  92
ENDBRANCH  87  89
ENDBRANCH  80  83
ENDBRANCH  78  79
ENDBRANCH  77  78
ENDBRANCH  76  77
ENDBRANCH   1  76
TORSDOF 19
ENDMDL
