MODEL 1
REMARK VINA RESULT:     -10.8      0.000      0.000
REMARK SMILES CCc1cc(C(=O)N2CCO[C@@H](CC(=O)NCCCCCCNC(=O)c3ccc(-c4c5nc(c(-c6c(F)cc(S(=O)(=O)[O-])cc6F)c6ccc([nH]6)c(-c6c(F)cc(S(=O)(=O)[O-])cc6F)c6nc(c(-c7c(F)cc(S(=O)(=O)[O-])cc7F)c7ccc4[nH]7)C=C6)C=C5)cc3)C2)sc1C
REMARK SMILES IDX 19 1 18 2 17 3 16 4 14 5 15 6 13 8 12 9 8 10 9 11 92 12
REMARK SMILES IDX 10 13 11 14 6 15 7 16 5 17 3 18 4 19 94 20 93 21 95 22 2 23
REMARK SMILES IDX 1 24 20 25 21 26 22 27 23 28 24 29 25 31 26 32 27 33 91 34
REMARK SMILES IDX 28 35 90 36 29 37 30 38 31 39 84 40 32 41 89 42 83 43 85 44
REMARK SMILES IDX 33 45 88 46 82 47 81 48 34 50 68 51 47 52 67 53 48 54 51 55
REMARK SMILES IDX 66 56 86 57 49 58 50 59 65 61 87 62 52 63 35 64 36 65 45 66
REMARK SMILES IDX 37 67 38 68 44 69 46 70 39 71 40 72 41 73 42 74 43 75 69 76
REMARK SMILES IDX 70 77 79 78 71 79 72 80 78 81 80 82 73 83 74 84 75 85 76 86
REMARK SMILES IDX 77 87 53 88 54 89 63 90 55 91 56 92 62 93 64 94 57 95 58 96
REMARK SMILES IDX 59 97 60 98 61 99
REMARK H PARENT 16 7 23 30 85 49 51 60
REMARK Flexibility Score: inf
ROOT
ATOM      1  C   UNL A   1      35.347  32.242  27.673  1.00  0.00     0.002 C 
ENDROOT
BRANCH   1   2
ATOM      2  C   UNL A   1      34.334  31.157  28.039  1.00  0.00     0.021 C 
BRANCH   2   3
ATOM      3  C   UNL A   1      34.541  29.814  27.329  1.00  0.00     0.116 C 
BRANCH   3   4
ATOM      4  N   UNL A   1      33.521  28.850  27.722  1.00  0.00    -0.356 N 
ATOM      5  C   UNL A   1      32.310  28.559  27.168  1.00  0.00     0.222 C 
ATOM      6  O   UNL A   1      31.580  27.754  27.750  1.00  0.00    -0.275 OA
ATOM      7  H   UNL A   1      33.744  28.320  28.521  1.00  0.00     0.163 HD
BRANCH   5   8
ATOM      8  C   UNL A   1      31.852  29.231  25.890  1.00  0.00     0.133 C 
BRANCH   8   9
ATOM      9  C   UNL A   1      31.504  28.203  24.813  1.00  0.00     0.147 C 
ATOM     10  N   UNL A   1      32.318  26.168  23.672  1.00  0.00    -0.333 N 
ATOM     11  C   UNL A   1      31.064  25.488  23.972  1.00  0.00     0.148 C 
ATOM     12  C   UNL A   1      32.658  27.221  24.605  1.00  0.00     0.152 C 
ATOM     13  C   UNL A   1      29.945  26.506  24.224  1.00  0.00     0.182 C 
ATOM     14  O   UNL A   1      30.321  27.477  25.220  1.00  0.00    -0.374 OA
BRANCH  10  15
ATOM     15  C   UNL A   1      33.397  25.465  23.135  1.00  0.00     0.264 C 
ATOM     16  O   UNL A   1      33.934  25.859  22.099  1.00  0.00    -0.268 OA
BRANCH  15  17
ATOM     17  C   UNL A   1      33.662  24.177  23.761  1.00  0.00     0.093 A 
ATOM     18  C   UNL A   1      34.055  22.484  25.350  1.00  0.00    -0.034 A 
ATOM     19  C   UNL A   1      34.088  23.886  25.042  1.00  0.00     0.029 A 
ATOM     20  C   UNL A   1      33.604  21.752  24.263  1.00  0.00     0.005 A 
ATOM     21  S   UNL A   1      33.302  22.744  22.902  1.00  0.00    -0.135 S 
ATOM     22  C   UNL A   1      33.357  20.285  24.139  1.00  0.00     0.056 C 
BRANCH  18  23
ATOM     23  C   UNL A   1      34.428  21.930  26.696  1.00  0.00     0.033 C 
ATOM     24  C   UNL A   1      33.568  22.499  27.813  1.00  0.00     0.009 C 
ENDBRANCH  18  23
ENDBRANCH  15  17
ENDBRANCH  10  15
ENDBRANCH   8   9
ENDBRANCH   5   8
ENDBRANCH   3   4
ENDBRANCH   2   3
ENDBRANCH   1   2
BRANCH   1  25
ATOM     25  C   UNL A   1      35.455  33.405  28.664  1.00  0.00     0.002 C 
BRANCH  25  26
ATOM     26  C   UNL A   1      36.852  33.679  29.234  1.00  0.00     0.021 C 
BRANCH  26  27
ATOM     27  C   UNL A   1      37.053  33.340  30.712  1.00  0.00     0.116 C 
BRANCH  27  28
ATOM     28  N   UNL A   1      36.359  32.124  31.103  1.00  0.00    -0.352 N 
ATOM     29  C   UNL A   1      36.721  30.810  30.942  1.00  0.00     0.251 C 
ATOM     30  H   UNL A   1      35.495  32.265  31.552  1.00  0.00     0.163 HD
ATOM     31  O   UNL A   1      35.910  29.923  31.206  1.00  0.00    -0.269 OA
BRANCH  29  32
ATOM     32  C   UNL A   1      38.064  30.447  30.433  1.00  0.00     0.039 A 
ATOM     33  C   UNL A   1      39.089  30.220  31.357  1.00  0.00     0.014 A 
ATOM     34  C   UNL A   1      38.331  30.373  29.062  1.00  0.00     0.014 A 
ATOM     35  C   UNL A   1      40.363  29.857  30.911  1.00  0.00     0.010 A 
ATOM     36  C   UNL A   1      39.592  29.971  28.620  1.00  0.00     0.010 A 
ATOM     37  C   UNL A   1      40.618  29.706  29.539  1.00  0.00    -0.014 A 
BRANCH  37  38
ATOM     38  C   UNL A   1      41.952  29.269  29.053  1.00  0.00     0.031 A 
ATOM     39  C   UNL A   1      43.079  30.256  28.942  1.00  0.00     0.074 A 
ATOM     40  C   UNL A   1      42.133  27.993  28.658  1.00  0.00     0.049 A 
ATOM     41  N   UNL A   1      44.281  30.085  28.454  1.00  0.00    -0.248 NA
ATOM     42  C   UNL A   1      42.815  31.620  29.427  1.00  0.00     0.031 C 
ATOM     43  C   UNL A   1      41.111  26.945  28.686  1.00  0.00     0.029 A 
ATOM     44  N   UNL A   1      43.238  27.366  28.141  1.00  0.00    -0.354 N 
ATOM     45  C   UNL A   1      44.910  31.321  28.552  1.00  0.00     0.074 A 
ATOM     46  C   UNL A   1      43.950  32.238  29.128  1.00  0.00     0.031 C 
ATOM     47  C   UNL A   1      41.639  25.804  28.213  1.00  0.00     0.029 A 
ATOM     48  C   UNL A   1      43.025  26.045  27.826  1.00  0.00     0.049 A 
ATOM     49  H   UNL A   1      44.102  27.819  28.008  1.00  0.00     0.167 HD
ATOM     50  C   UNL A   1      46.175  31.657  28.201  1.00  0.00     0.037 A 
ATOM     51  C   UNL A   1      43.852  25.133  27.278  1.00  0.00     0.037 A 
ATOM     52  C   UNL A   1      47.141  30.741  27.658  1.00  0.00     0.049 A 
ATOM     53  C   UNL A   1      45.260  25.523  26.928  1.00  0.00     0.074 A 
ATOM     54  C   UNL A   1      48.459  30.985  27.304  1.00  0.00     0.029 A 
ATOM     55  N   UNL A   1      46.901  29.402  27.396  1.00  0.00    -0.354 N 
ATOM     56  N   UNL A   1      45.844  26.691  27.050  1.00  0.00    -0.248 NA
ATOM     57  C   UNL A   1      46.124  24.471  26.372  1.00  0.00     0.031 C 
ATOM     58  C   UNL A   1      49.009  29.794  26.816  1.00  0.00     0.029 A 
ATOM     59  C   UNL A   1      48.042  28.805  26.886  1.00  0.00     0.049 A 
ATOM     60  H   UNL A   1      46.044  28.941  27.550  1.00  0.00     0.167 HD
ATOM     61  C   UNL A   1      47.146  26.511  26.599  1.00  0.00     0.074 A 
ATOM     62  C   UNL A   1      47.269  25.121  26.210  1.00  0.00     0.031 C 
ATOM     63  C   UNL A   1      48.150  27.418  26.514  1.00  0.00     0.037 A 
BRANCH  50  64
ATOM     64  C   UNL A   1      46.585  33.087  28.400  1.00  0.00     0.058 A 
ATOM     65  C   UNL A   1      46.379  34.052  27.402  1.00  0.00     0.135 A 
ATOM     66  C   UNL A   1      47.168  33.502  29.607  1.00  0.00     0.135 A 
ATOM     67  F   UNL A   1      45.839  33.701  26.224  1.00  0.00    -0.206 F 
ATOM     68  C   UNL A   1      46.760  35.377  27.584  1.00  0.00     0.059 A 
ATOM     69  C   UNL A   1      47.541  34.826  29.818  1.00  0.00     0.059 A 
ATOM     70  F   UNL A   1      47.387  32.617  30.592  1.00  0.00    -0.206 F 
ATOM     71  C   UNL A   1      47.346  35.754  28.794  1.00  0.00     0.060 A 
BRANCH  71  72
ATOM     72  S   UNL A   1      47.840  37.475  29.025  1.00  0.00     0.124 S 
ATOM     73  O   UNL A   1      49.120  37.319  29.708  1.00  0.00    -0.237 OA
ATOM     74  O   UNL A   1      47.911  37.973  27.654  1.00  0.00    -0.237 OA
ATOM     75  O   UNL A   1      46.758  38.030  29.833  1.00  0.00    -0.744 OA
ENDBRANCH  71  72
ENDBRANCH  50  64
BRANCH  51  76
ATOM     76  C   UNL A   1      43.370  23.750  27.040  1.00  0.00     0.058 A 
ATOM     77  C   UNL A   1      43.277  22.832  28.094  1.00  0.00     0.135 A 
ATOM     78  C   UNL A   1      42.983  23.326  25.760  1.00  0.00     0.135 A 
ATOM     79  F   UNL A   1      43.643  23.194  29.333  1.00  0.00    -0.206 F 
ATOM     80  C   UNL A   1      42.826  21.532  27.889  1.00  0.00     0.059 A 
ATOM     81  C   UNL A   1      42.514  22.036  25.532  1.00  0.00     0.059 A 
ATOM     82  F   UNL A   1      43.043  24.175  24.723  1.00  0.00    -0.206 F 
ATOM     83  C   UNL A   1      42.447  21.144  26.602  1.00  0.00     0.060 A 
BRANCH  83  84
ATOM     84  S   UNL A   1      41.809  19.474  26.344  1.00  0.00     0.124 S 
ATOM     85  O   UNL A   1      42.209  18.813  27.581  1.00  0.00    -0.237 OA
ATOM     86  O   UNL A   1      40.377  19.706  26.179  1.00  0.00    -0.237 OA
ATOM     87  O   UNL A   1      42.507  19.038  25.138  1.00  0.00    -0.744 OA
ENDBRANCH  83  84
ENDBRANCH  51  76
BRANCH  63  88
ATOM     88  C   UNL A   1      49.473  26.930  26.007  1.00  0.00     0.058 A 
ATOM     89  C   UNL A   1      49.824  27.047  24.654  1.00  0.00     0.135 A 
ATOM     90  C   UNL A   1      50.417  26.383  26.890  1.00  0.00     0.135 A 
ATOM     91  F   UNL A   1      48.951  27.557  23.771  1.00  0.00    -0.206 F 
ATOM     92  C   UNL A   1      51.066  26.625  24.189  1.00  0.00     0.059 A 
ATOM     93  C   UNL A   1      51.669  25.967  26.449  1.00  0.00     0.059 A 
ATOM     94  F   UNL A   1      50.127  26.256  28.195  1.00  0.00    -0.206 F 
ATOM     95  C   UNL A   1      51.981  26.084  25.094  1.00  0.00     0.060 A 
BRANCH  95  96
ATOM     96  S   UNL A   1      53.606  25.571  24.495  1.00  0.00     0.124 S 
ATOM     97  O   UNL A   1      53.637  24.169  24.896  1.00  0.00    -0.237 OA
ATOM     98  O   UNL A   1      53.508  25.816  23.059  1.00  0.00    -0.237 OA
ATOM     99  O   UNL A   1      54.521  26.453  25.212  1.00  0.00    -0.744 OA
ENDBRANCH  95  96
ENDBRANCH  63  88
ENDBRANCH  37  38
ENDBRANCH  29  32
ENDBRANCH  27  28
ENDBRANCH  26  27
ENDBRANCH  25  26
ENDBRANCH   1  25
TORSDOF 20
ENDMDL
MODEL 2
REMARK VINA RESULT:     -10.8      6.307     12.030
REMARK SMILES CCc1cc(C(=O)N2CCO[C@@H](CC(=O)NCCCCCCNC(=O)c3ccc(-c4c5nc(c(-c6c(F)cc(S(=O)(=O)[O-])cc6F)c6ccc([nH]6)c(-c6c(F)cc(S(=O)(=O)[O-])cc6F)c6nc(c(-c7c(F)cc(S(=O)(=O)[O-])cc7F)c7ccc4[nH]7)C=C6)C=C5)cc3)C2)sc1C
REMARK SMILES IDX 19 1 18 2 17 3 16 4 14 5 15 6 13 8 12 9 8 10 9 11 92 12
REMARK SMILES IDX 10 13 11 14 6 15 7 16 5 17 3 18 4 19 94 20 93 21 95 22 2 23
REMARK SMILES IDX 1 24 20 25 21 26 22 27 23 28 24 29 25 31 26 32 27 33 91 34
REMARK SMILES IDX 28 35 90 36 29 37 30 38 31 39 84 40 32 41 89 42 83 43 85 44
REMARK SMILES IDX 33 45 88 46 82 47 81 48 34 50 68 51 47 52 67 53 48 54 51 55
REMARK SMILES IDX 66 56 86 57 49 58 50 59 65 61 87 62 52 63 35 64 36 65 45 66
REMARK SMILES IDX 37 67 38 68 44 69 46 70 39 71 40 72 41 73 42 74 43 75 69 76
REMARK SMILES IDX 70 77 79 78 71 79 72 80 78 81 80 82 73 83 74 84 75 85 76 86
REMARK SMILES IDX 77 87 53 88 54 89 63 90 55 91 56 92 62 93 64 94 57 95 58 96
REMARK SMILES IDX 59 97 60 98 61 99
REMARK H PARENT 16 7 23 30 85 49 51 60
REMARK Flexibility Score: inf
ROOT
ATOM      1  C   UNL A   1      36.902  23.672  25.400  1.00  0.00     0.002 C 
ENDROOT
BRANCH   1   2
ATOM      2  C   UNL A   1      36.951  22.376  24.589  1.00  0.00     0.021 C 
BRANCH   2   3
ATOM      3  C   UNL A   1      36.079  21.239  25.135  1.00  0.00     0.116 C 
BRANCH   3   4
ATOM      4  N   UNL A   1      35.490  21.599  26.419  1.00  0.00    -0.356 N 
ATOM      5  C   UNL A   1      34.227  21.425  26.900  1.00  0.00     0.222 C 
ATOM      6  O   UNL A   1      33.949  21.907  28.000  1.00  0.00    -0.275 OA
ATOM      7  H   UNL A   1      36.109  22.041  27.044  1.00  0.00     0.163 HD
BRANCH   5   8
ATOM      8  C   UNL A   1      33.176  20.692  26.092  1.00  0.00     0.133 C 
BRANCH   8   9
ATOM      9  C   UNL A   1      32.354  21.658  25.238  1.00  0.00     0.147 C 
ATOM     10  N   UNL A   1      31.371  23.924  25.191  1.00  0.00    -0.333 N 
ATOM     11  C   UNL A   1      32.020  24.188  23.913  1.00  0.00     0.148 C 
ATOM     12  C   UNL A   1      32.051  22.943  26.009  1.00  0.00     0.152 C 
ATOM     13  C   UNL A   1      32.351  22.874  23.194  1.00  0.00     0.182 C 
ATOM     14  O   UNL A   1      33.098  21.977  24.041  1.00  0.00    -0.374 OA
BRANCH  10  15
ATOM     15  C   UNL A   1      30.726  24.949  25.885  1.00  0.00     0.264 C 
ATOM     16  O   UNL A   1      29.795  24.685  26.647  1.00  0.00    -0.268 OA
BRANCH  15  17
ATOM     17  C   UNL A   1      31.098  26.296  25.474  1.00  0.00     0.093 A 
ATOM     18  C   UNL A   1      31.026  28.491  24.626  1.00  0.00    -0.034 A 
ATOM     19  C   UNL A   1      30.442  27.180  24.641  1.00  0.00     0.029 A 
ATOM     20  C   UNL A   1      32.133  28.545  25.459  1.00  0.00     0.005 A 
ATOM     21  S   UNL A   1      32.474  27.029  26.173  1.00  0.00    -0.135 S 
ATOM     22  C   UNL A   1      33.014  29.702  25.798  1.00  0.00     0.056 C 
BRANCH  18  23
ATOM     23  C   UNL A   1      30.461  29.633  23.831  1.00  0.00     0.033 C 
ATOM     24  C   UNL A   1      30.229  29.264  22.375  1.00  0.00     0.009 C 
ENDBRANCH  18  23
ENDBRANCH  15  17
ENDBRANCH  10  15
ENDBRANCH   8   9
ENDBRANCH   5   8
ENDBRANCH   3   4
ENDBRANCH   2   3
ENDBRANCH   1   2
BRANCH   1  25
ATOM     25  C   UNL A   1      38.172  24.005  26.188  1.00  0.00     0.002 C 
BRANCH  25  26
ATOM     26  C   UNL A   1      39.101  22.827  26.501  1.00  0.00     0.021 C 
BRANCH  26  27
ATOM     27  C   UNL A   1      40.492  23.189  27.027  1.00  0.00     0.116 C 
BRANCH  27  28
ATOM     28  N   UNL A   1      41.297  23.884  26.036  1.00  0.00    -0.352 N 
ATOM     29  C   UNL A   1      41.748  25.180  26.016  1.00  0.00     0.251 C 
ATOM     30  H   UNL A   1      41.558  23.341  25.259  1.00  0.00     0.163 HD
ATOM     31  O   UNL A   1      42.287  25.617  25.001  1.00  0.00    -0.269 OA
BRANCH  29  32
ATOM     32  C   UNL A   1      41.573  26.065  27.191  1.00  0.00     0.039 A 
ATOM     33  C   UNL A   1      42.450  27.142  27.352  1.00  0.00     0.014 A 
ATOM     34  C   UNL A   1      40.587  25.818  28.152  1.00  0.00     0.014 A 
ATOM     35  C   UNL A   1      42.300  28.008  28.440  1.00  0.00     0.010 A 
ATOM     36  C   UNL A   1      40.412  26.706  29.214  1.00  0.00     0.010 A 
ATOM     37  C   UNL A   1      41.265  27.811  29.366  1.00  0.00    -0.014 A 
BRANCH  37  38
ATOM     38  C   UNL A   1      41.059  28.753  30.496  1.00  0.00     0.031 A 
ATOM     39  C   UNL A   1      41.896  28.639  31.739  1.00  0.00     0.074 A 
ATOM     40  C   UNL A   1      40.081  29.677  30.425  1.00  0.00     0.049 A 
ATOM     41  N   UNL A   1      41.802  29.307  32.860  1.00  0.00    -0.248 NA
ATOM     42  C   UNL A   1      42.967  27.631  31.726  1.00  0.00     0.031 C 
ATOM     43  C   UNL A   1      39.180  29.871  29.287  1.00  0.00     0.029 A 
ATOM     44  N   UNL A   1      39.672  30.618  31.336  1.00  0.00    -0.354 N 
ATOM     45  C   UNL A   1      42.784  28.786  33.695  1.00  0.00     0.074 A 
ATOM     46  C   UNL A   1      43.450  27.734  32.957  1.00  0.00     0.031 C 
ATOM     47  C   UNL A   1      38.328  30.871  29.566  1.00  0.00     0.029 A 
ATOM     48  C   UNL A   1      38.605  31.373  30.909  1.00  0.00     0.049 A 
ATOM     49  H   UNL A   1      40.102  30.741  32.213  1.00  0.00     0.167 HD
ATOM     50  C   UNL A   1      43.107  29.158  34.957  1.00  0.00     0.037 A 
ATOM     51  C   UNL A   1      37.922  32.352  31.533  1.00  0.00     0.037 A 
ATOM     52  C   UNL A   1      42.468  30.223  35.682  1.00  0.00     0.049 A 
ATOM     53  C   UNL A   1      38.321  32.768  32.920  1.00  0.00     0.074 A 
ATOM     54  C   UNL A   1      42.750  30.693  36.955  1.00  0.00     0.029 A 
ATOM     55  N   UNL A   1      41.422  30.993  35.197  1.00  0.00    -0.354 N 
ATOM     56  N   UNL A   1      39.268  32.279  33.684  1.00  0.00    -0.248 NA
ATOM     57  C   UNL A   1      37.562  33.870  33.529  1.00  0.00     0.031 C 
ATOM     58  C   UNL A   1      41.866  31.739  37.243  1.00  0.00     0.029 A 
ATOM     59  C   UNL A   1      41.047  31.934  36.142  1.00  0.00     0.049 A 
ATOM     60  H   UNL A   1      41.007  30.887  34.311  1.00  0.00     0.167 HD
ATOM     61  C   UNL A   1      39.229  33.023  34.857  1.00  0.00     0.074 A 
ATOM     62  C   UNL A   1      38.171  34.001  34.700  1.00  0.00     0.031 C 
ATOM     63  C   UNL A   1      40.000  32.906  35.965  1.00  0.00     0.037 A 
BRANCH  50  64
ATOM     64  C   UNL A   1      44.210  28.399  35.636  1.00  0.00     0.058 A 
ATOM     65  C   UNL A   1      45.550  28.797  35.518  1.00  0.00     0.135 A 
ATOM     66  C   UNL A   1      43.923  27.278  36.429  1.00  0.00     0.135 A 
ATOM     67  F   UNL A   1      45.877  29.855  34.758  1.00  0.00    -0.206 F 
ATOM     68  C   UNL A   1      46.574  28.094  36.145  1.00  0.00     0.059 A 
ATOM     69  C   UNL A   1      44.929  26.570  37.080  1.00  0.00     0.059 A 
ATOM     70  F   UNL A   1      42.657  26.856  36.571  1.00  0.00    -0.206 F 
ATOM     71  C   UNL A   1      46.254  26.977  36.919  1.00  0.00     0.060 A 
BRANCH  71  72
ATOM     72  S   UNL A   1      47.586  26.067  37.729  1.00  0.00     0.124 S 
ATOM     73  O   UNL A   1      48.575  25.990  36.659  1.00  0.00    -0.237 OA
ATOM     74  O   UNL A   1      47.932  26.938  38.850  1.00  0.00    -0.237 OA
ATOM     75  O   UNL A   1      46.955  24.803  38.096  1.00  0.00    -0.744 OA
ENDBRANCH  71  72
ENDBRANCH  50  64
BRANCH  51  76
ATOM     76  C   UNL A   1      36.795  33.021  30.839  1.00  0.00     0.058 A 
ATOM     77  C   UNL A   1      35.469  32.766  31.214  1.00  0.00     0.135 A 
ATOM     78  C   UNL A   1      37.021  33.935  29.799  1.00  0.00     0.135 A 
ATOM     79  F   UNL A   1      35.208  31.895  32.200  1.00  0.00    -0.206 F 
ATOM     80  C   UNL A   1      34.400  33.386  30.575  1.00  0.00     0.059 A 
ATOM     81  C   UNL A   1      35.970  34.580  29.154  1.00  0.00     0.059 A 
ATOM     82  F   UNL A   1      38.275  34.220  29.415  1.00  0.00    -0.206 F 
ATOM     83  C   UNL A   1      34.662  34.292  29.544  1.00  0.00     0.060 A 
BRANCH  83  84
ATOM     84  S   UNL A   1      33.278  35.139  28.751  1.00  0.00     0.124 S 
ATOM     85  O   UNL A   1      33.966  36.184  28.001  1.00  0.00    -0.237 OA
ATOM     86  O   UNL A   1      32.672  34.076  27.955  1.00  0.00    -0.237 OA
ATOM     87  O   UNL A   1      32.478  35.594  29.884  1.00  0.00    -0.744 OA
ENDBRANCH  83  84
ENDBRANCH  51  76
BRANCH  63  88
ATOM     88  C   UNL A   1      39.747  33.873  37.083  1.00  0.00     0.058 A 
ATOM     89  C   UNL A   1      38.935  33.530  38.174  1.00  0.00     0.135 A 
ATOM     90  C   UNL A   1      40.358  35.136  37.084  1.00  0.00     0.135 A 
ATOM     91  F   UNL A   1      38.324  32.336  38.213  1.00  0.00    -0.206 F 
ATOM     92  C   UNL A   1      38.726  34.415  39.227  1.00  0.00     0.059 A 
ATOM     93  C   UNL A   1      40.174  36.031  38.133  1.00  0.00     0.059 A 
ATOM     94  F   UNL A   1      41.147  35.506  36.062  1.00  0.00    -0.206 F 
ATOM     95  C   UNL A   1      39.349  35.665  39.196  1.00  0.00     0.060 A 
BRANCH  95  96
ATOM     96  S   UNL A   1      39.107  36.798  40.582  1.00  0.00     0.124 S 
ATOM     97  O   UNL A   1      40.476  36.994  41.043  1.00  0.00    -0.237 OA
ATOM     98  O   UNL A   1      38.481  37.953  39.945  1.00  0.00    -0.237 OA
ATOM     99  O   UNL A   1      38.241  36.044  41.483  1.00  0.00    -0.744 OA
ENDBRANCH  95  96
ENDBRANCH  63  88
ENDBRANCH  37  38
ENDBRANCH  29  32
ENDBRANCH  27  28
ENDBRANCH  26  27
ENDBRANCH  25  26
ENDBRANCH   1  25
TORSDOF 20
ENDMDL
MODEL 3
REMARK VINA RESULT:     -10.7      6.633     12.184
REMARK SMILES CCc1cc(C(=O)N2CCO[C@@H](CC(=O)NCCCCCCNC(=O)c3ccc(-c4c5nc(c(-c6c(F)cc(S(=O)(=O)[O-])cc6F)c6ccc([nH]6)c(-c6c(F)cc(S(=O)(=O)[O-])cc6F)c6nc(c(-c7c(F)cc(S(=O)(=O)[O-])cc7F)c7ccc4[nH]7)C=C6)C=C5)cc3)C2)sc1C
REMARK SMILES IDX 19 1 18 2 17 3 16 4 14 5 15 6 13 8 12 9 8 10 9 11 92 12
REMARK SMILES IDX 10 13 11 14 6 15 7 16 5 17 3 18 4 19 94 20 93 21 95 22 2 23
REMARK SMILES IDX 1 24 20 25 21 26 22 27 23 28 24 29 25 31 26 32 27 33 91 34
REMARK SMILES IDX 28 35 90 36 29 37 30 38 31 39 84 40 32 41 89 42 83 43 85 44
REMARK SMILES IDX 33 45 88 46 82 47 81 48 34 50 68 51 47 52 67 53 48 54 51 55
REMARK SMILES IDX 66 56 86 57 49 58 50 59 65 61 87 62 52 63 35 64 36 65 45 66
REMARK SMILES IDX 37 67 38 68 44 69 46 70 39 71 40 72 41 73 42 74 43 75 69 76
REMARK SMILES IDX 70 77 79 78 71 79 72 80 78 81 80 82 73 83 74 84 75 85 76 86
REMARK SMILES IDX 77 87 53 88 54 89 63 90 55 91 56 92 62 93 64 94 57 95 58 96
REMARK SMILES IDX 59 97 60 98 61 99
REMARK H PARENT 16 7 23 30 85 49 51 60
REMARK Flexibility Score: inf
ROOT
ATOM      1  C   UNL A   1      36.120  21.291  25.663  1.00  0.00     0.002 C 
ENDROOT
BRANCH   1   2
ATOM      2  C   UNL A   1      35.176  20.670  24.633  1.00  0.00     0.021 C 
BRANCH   2   3
ATOM      3  C   UNL A   1      33.712  20.568  25.077  1.00  0.00     0.116 C 
BRANCH   3   4
ATOM      4  N   UNL A   1      32.822  20.452  23.928  1.00  0.00    -0.356 N 
ATOM      5  C   UNL A   1      32.525  21.340  22.937  1.00  0.00     0.222 C 
ATOM      6  O   UNL A   1      31.657  21.032  22.117  1.00  0.00    -0.275 OA
ATOM      7  H   UNL A   1      32.357  19.587  23.856  1.00  0.00     0.163 HD
BRANCH   5   8
ATOM      8  C   UNL A   1      33.215  22.686  22.861  1.00  0.00     0.133 C 
BRANCH   8   9
ATOM      9  C   UNL A   1      32.598  23.685  23.840  1.00  0.00     0.147 C 
ATOM     10  N   UNL A   1      31.526  25.906  24.000  1.00  0.00    -0.333 N 
ATOM     11  C   UNL A   1      30.402  25.320  24.720  1.00  0.00     0.148 C 
ATOM     12  C   UNL A   1      32.214  24.981  23.125  1.00  0.00     0.152 C 
ATOM     13  C   UNL A   1      30.814  23.999  25.381  1.00  0.00     0.182 C 
ATOM     14  O   UNL A   1      31.420  23.095  24.435  1.00  0.00    -0.374 OA
BRANCH  10  15
ATOM     15  C   UNL A   1      31.477  27.230  23.564  1.00  0.00     0.264 C 
ATOM     16  O   UNL A   1      31.120  27.486  22.414  1.00  0.00    -0.268 OA
BRANCH  15  17
ATOM     17  C   UNL A   1      32.066  28.199  24.478  1.00  0.00     0.093 A 
ATOM     18  C   UNL A   1      32.346  29.901  26.081  1.00  0.00    -0.034 A 
ATOM     19  C   UNL A   1      31.495  29.293  25.098  1.00  0.00     0.029 A 
ATOM     20  C   UNL A   1      33.559  29.235  26.161  1.00  0.00     0.005 A 
ATOM     21  S   UNL A   1      33.667  27.959  25.026  1.00  0.00    -0.135 S 
ATOM     22  C   UNL A   1      34.720  29.475  27.070  1.00  0.00     0.056 C 
BRANCH  18  23
ATOM     23  C   UNL A   1      31.926  31.075  26.918  1.00  0.00     0.033 C 
ATOM     24  C   UNL A   1      31.064  32.058  26.141  1.00  0.00     0.009 C 
ENDBRANCH  18  23
ENDBRANCH  15  17
ENDBRANCH  10  15
ENDBRANCH   8   9
ENDBRANCH   5   8
ENDBRANCH   3   4
ENDBRANCH   2   3
ENDBRANCH   1   2
BRANCH   1  25
ATOM     25  C   UNL A   1      35.920  22.787  25.923  1.00  0.00     0.002 C 
BRANCH  25  26
ATOM     26  C   UNL A   1      36.997  23.721  25.357  1.00  0.00     0.021 C 
BRANCH  26  27
ATOM     27  C   UNL A   1      37.935  24.364  26.381  1.00  0.00     0.116 C 
BRANCH  27  28
ATOM     28  N   UNL A   1      39.332  24.050  26.129  1.00  0.00    -0.352 N 
ATOM     29  C   UNL A   1      40.472  24.664  26.585  1.00  0.00     0.251 C 
ATOM     30  H   UNL A   1      39.484  23.276  25.540  1.00  0.00     0.163 HD
ATOM     31  O   UNL A   1      41.562  24.333  26.123  1.00  0.00    -0.269 OA
BRANCH  29  32
ATOM     32  C   UNL A   1      40.402  25.734  27.606  1.00  0.00     0.039 A 
ATOM     33  C   UNL A   1      39.521  25.574  28.681  1.00  0.00     0.014 A 
ATOM     34  C   UNL A   1      41.158  26.905  27.492  1.00  0.00     0.014 A 
ATOM     35  C   UNL A   1      39.445  26.557  29.673  1.00  0.00     0.010 A 
ATOM     36  C   UNL A   1      41.112  27.865  28.503  1.00  0.00     0.010 A 
ATOM     37  C   UNL A   1      40.257  27.699  29.605  1.00  0.00    -0.014 A 
BRANCH  37  38
ATOM     38  C   UNL A   1      40.227  28.725  30.678  1.00  0.00     0.031 A 
ATOM     39  C   UNL A   1      41.143  28.608  31.864  1.00  0.00     0.074 A 
ATOM     40  C   UNL A   1      39.335  29.733  30.613  1.00  0.00     0.049 A 
ATOM     41  N   UNL A   1      41.198  29.350  32.940  1.00  0.00    -0.248 NA
ATOM     42  C   UNL A   1      42.113  27.503  31.845  1.00  0.00     0.031 C 
ATOM     43  C   UNL A   1      38.370  29.941  29.532  1.00  0.00     0.029 A 
ATOM     44  N   UNL A   1      39.086  30.764  31.484  1.00  0.00    -0.354 N 
ATOM     45  C   UNL A   1      42.190  28.790  33.737  1.00  0.00     0.074 A 
ATOM     46  C   UNL A   1      42.698  27.634  33.028  1.00  0.00     0.031 C 
ATOM     47  C   UNL A   1      37.638  31.035  29.801  1.00  0.00     0.029 A 
ATOM     48  C   UNL A   1      38.063  31.590  31.082  1.00  0.00     0.049 A 
ATOM     49  H   UNL A   1      39.591  30.899  32.318  1.00  0.00     0.167 HD
ATOM     50  C   UNL A   1      42.642  29.207  34.944  1.00  0.00     0.037 A 
ATOM     51  C   UNL A   1      37.523  32.668  31.684  1.00  0.00     0.037 A 
ATOM     52  C   UNL A   1      42.161  30.372  35.637  1.00  0.00     0.049 A 
ATOM     53  C   UNL A   1      38.065  33.128  33.007  1.00  0.00     0.074 A 
ATOM     54  C   UNL A   1      42.584  30.891  36.851  1.00  0.00     0.029 A 
ATOM     55  N   UNL A   1      41.157  31.207  35.176  1.00  0.00    -0.354 N 
ATOM     56  N   UNL A   1      39.019  32.599  33.734  1.00  0.00    -0.248 NA
ATOM     57  C   UNL A   1      37.459  34.335  33.590  1.00  0.00     0.031 C 
ATOM     58  C   UNL A   1      41.823  32.033  37.128  1.00  0.00     0.029 A 
ATOM     59  C   UNL A   1      40.944  32.237  36.077  1.00  0.00     0.049 A 
ATOM     60  H   UNL A   1      40.666  31.087  34.330  1.00  0.00     0.167 HD
ATOM     61  C   UNL A   1      39.139  33.415  34.852  1.00  0.00     0.074 A 
ATOM     62  C   UNL A   1      38.166  34.479  34.704  1.00  0.00     0.031 C 
ATOM     63  C   UNL A   1      39.979  33.293  35.909  1.00  0.00     0.037 A 
BRANCH  50  64
ATOM     64  C   UNL A   1      43.720  28.388  35.594  1.00  0.00     0.058 A 
ATOM     65  C   UNL A   1      45.078  28.627  35.329  1.00  0.00     0.135 A 
ATOM     66  C   UNL A   1      43.395  27.373  36.505  1.00  0.00     0.135 A 
ATOM     67  F   UNL A   1      45.438  29.578  34.453  1.00  0.00    -0.206 F 
ATOM     68  C   UNL A   1      46.077  27.869  35.929  1.00  0.00     0.059 A 
ATOM     69  C   UNL A   1      44.380  26.614  37.130  1.00  0.00     0.059 A 
ATOM     70  F   UNL A   1      42.111  27.105  36.790  1.00  0.00    -0.206 F 
ATOM     71  C   UNL A   1      45.718  26.859  36.824  1.00  0.00     0.060 A 
BRANCH  71  72
ATOM     72  S   UNL A   1      47.020  25.877  37.598  1.00  0.00     0.124 S 
ATOM     73  O   UNL A   1      47.615  26.852  38.507  1.00  0.00    -0.237 OA
ATOM     74  O   UNL A   1      46.271  24.796  38.232  1.00  0.00    -0.237 OA
ATOM     75  O   UNL A   1      47.855  25.476  36.470  1.00  0.00    -0.744 OA
ENDBRANCH  71  72
ENDBRANCH  50  64
BRANCH  51  76
ATOM     76  C   UNL A   1      36.411  33.398  31.027  1.00  0.00     0.058 A 
ATOM     77  C   UNL A   1      36.637  34.160  29.872  1.00  0.00     0.135 A 
ATOM     78  C   UNL A   1      35.105  33.339  31.533  1.00  0.00     0.135 A 
ATOM     79  F   UNL A   1      37.873  34.248  29.358  1.00  0.00    -0.206 F 
ATOM     80  C   UNL A   1      35.606  34.849  29.243  1.00  0.00     0.059 A 
ATOM     81  C   UNL A   1      34.053  34.008  30.912  1.00  0.00     0.059 A 
ATOM     82  F   UNL A   1      34.839  32.612  32.628  1.00  0.00    -0.206 F 
ATOM     83  C   UNL A   1      34.316  34.767  29.772  1.00  0.00     0.060 A 
BRANCH  83  84
ATOM     84  S   UNL A   1      32.966  35.617  28.925  1.00  0.00     0.124 S 
ATOM     85  O   UNL A   1      33.674  36.715  28.275  1.00  0.00    -0.237 OA
ATOM     86  O   UNL A   1      32.448  34.579  28.039  1.00  0.00    -0.237 OA
ATOM     87  O   UNL A   1      32.077  35.996  30.020  1.00  0.00    -0.744 OA
ENDBRANCH  83  84
ENDBRANCH  51  76
BRANCH  63  88
ATOM     88  C   UNL A   1      39.903  34.348  36.971  1.00  0.00     0.058 A 
ATOM     89  C   UNL A   1      39.060  34.203  38.083  1.00  0.00     0.135 A 
ATOM     90  C   UNL A   1      40.713  35.491  36.900  1.00  0.00     0.135 A 
ATOM     91  F   UNL A   1      38.262  33.130  38.191  1.00  0.00    -0.206 F 
ATOM     92  C   UNL A   1      39.014  35.166  39.086  1.00  0.00     0.059 A 
ATOM     93  C   UNL A   1      40.693  36.460  37.898  1.00  0.00     0.059 A 
ATOM     94  F   UNL A   1      41.539  35.670  35.856  1.00  0.00    -0.206 F 
ATOM     95  C   UNL A   1      39.833  36.293  38.983  1.00  0.00     0.060 A 
BRANCH  95  96
ATOM     96  S   UNL A   1      39.798  37.523  40.305  1.00  0.00     0.124 S 
ATOM     97  O   UNL A   1      40.887  38.409  39.910  1.00  0.00    -0.237 OA
ATOM     98  O   UNL A   1      38.454  38.081  40.187  1.00  0.00    -0.237 OA
ATOM     99  O   UNL A   1      40.035  36.730  41.507  1.00  0.00    -0.744 OA
ENDBRANCH  95  96
ENDBRANCH  63  88
ENDBRANCH  37  38
ENDBRANCH  29  32
ENDBRANCH  27  28
ENDBRANCH  26  27
ENDBRANCH  25  26
ENDBRANCH   1  25
TORSDOF 20
ENDMDL
