MODEL 1
REMARK VINA RESULT:     -10.1      0.000      0.000
REMARK SMILES CC[C@@H](NC(=O)c1ccc(CNC(=O)[C@H]2CCCO2)cc1)C(=O)NCCCCCCNC(=O)c1ccc(-c2c3nc(c(-c4c(F)cc(S(=O)(=O)[O-])cc4F)c4ccc([nH]4)c(-c4c(F)cc(S(=O)(=O)[O-])cc4F)c4nc(c(-c5c(F)cc(S(=O)(=O)[O-])cc5F)c5ccc2[nH]5)C=C4)C=C3)cc1
REMARK SMILES IDX 26 1 25 2 24 3 22 4 23 5 3 7 2 8 1 9 4 10 5 11 6 13 7 14
REMARK SMILES IDX 8 15 21 16 9 17 20 18 10 19 11 20 12 21 13 22 14 24 15 25
REMARK SMILES IDX 16 26 19 27 17 28 18 29 27 30 28 31 29 32 30 33 31 34 32 35
REMARK SMILES IDX 33 37 34 38 35 39 99 40 36 41 98 42 37 43 38 44 39 45 92 46
REMARK SMILES IDX 40 47 97 48 91 49 93 50 41 51 96 52 90 53 89 54 42 56 76 57
REMARK SMILES IDX 55 58 75 59 56 60 59 61 74 62 94 63 57 64 58 65 73 67 95 68
REMARK SMILES IDX 60 69 43 70 44 71 53 72 45 73 46 74 52 75 54 76 47 77 48 78
REMARK SMILES IDX 49 79 50 80 51 81 77 82 78 83 87 84 79 85 80 86 86 87 88 88
REMARK SMILES IDX 81 89 82 90 83 91 84 92 85 93 61 94 62 95 71 96 63 97 64 98
REMARK SMILES IDX 70 99 72 100 65 101 66 102 67 103 68 104 69 105
REMARK H PARENT 24 6 4 12 12 23 31 36 93 55 59 66
REMARK Flexibility Score: inf
ROOT
ATOM      1  C   UNL A   1      42.339  39.296  27.002  1.00  0.00     0.021 C 
ENDROOT
BRANCH   1   2
ATOM      2  C   UNL A   1      43.339  40.441  27.087  1.00  0.00     0.116 C 
BRANCH   2   3
ATOM      3  N   UNL A   1      44.533  40.111  26.333  1.00  0.00    -0.354 N 
ATOM      4  C   UNL A   1      45.151  40.804  25.340  1.00  0.00     0.242 C 
ATOM      5  O   UNL A   1      46.054  40.243  24.713  1.00  0.00    -0.273 OA
ATOM      6  H   UNL A   1      44.960  39.258  26.575  1.00  0.00     0.163 HD
BRANCH   4   7
ATOM      7  C   UNL A   1      44.651  42.197  24.916  1.00  0.00     0.171 C 
BRANCH   7   8
ATOM      8  C   UNL A   1      43.105  42.107  24.929  1.00  0.00     0.032 C 
ATOM      9  C   UNL A   1      42.409  42.423  23.618  1.00  0.00     0.006 C 
ENDBRANCH   7   8
BRANCH   7  10
ATOM     10  N   UNL A   1      45.169  43.330  25.704  1.00  0.00    -0.340 N 
ATOM     11  C   UNL A   1      45.310  44.661  25.370  1.00  0.00     0.251 C 
ATOM     12  H   UNL A   1      45.462  43.098  26.615  1.00  0.00     0.164 HD
ATOM     13  O   UNL A   1      45.384  45.500  26.264  1.00  0.00    -0.269 OA
BRANCH  11  14
ATOM     14  C   UNL A   1      45.571  45.078  23.974  1.00  0.00     0.039 A 
ATOM     15  C   UNL A   1      46.905  45.068  23.547  1.00  0.00     0.014 A 
ATOM     16  C   UNL A   1      44.557  45.393  23.073  1.00  0.00     0.014 A 
ATOM     17  C   UNL A   1      47.208  45.230  22.195  1.00  0.00     0.006 A 
ATOM     18  C   UNL A   1      44.865  45.548  21.714  1.00  0.00     0.006 A 
ATOM     19  C   UNL A   1      46.187  45.428  21.256  1.00  0.00    -0.029 A 
BRANCH  19  20
ATOM     20  C   UNL A   1      46.508  45.460  19.780  1.00  0.00     0.151 C 
BRANCH  20  21
ATOM     21  N   UNL A   1      45.844  46.564  19.124  1.00  0.00    -0.350 N 
ATOM     22  C   UNL A   1      44.699  46.579  18.383  1.00  0.00     0.249 C 
ATOM     23  H   UNL A   1      46.284  47.438  19.230  1.00  0.00     0.163 HD
ATOM     24  O   UNL A   1      44.335  47.665  17.925  1.00  0.00    -0.272 OA
BRANCH  22  25
ATOM     25  C   UNL A   1      43.860  45.288  18.218  1.00  0.00     0.207 C 
ATOM     26  C   UNL A   1      42.362  45.557  18.353  1.00  0.00     0.044 C 
ATOM     27  O   UNL A   1      44.033  44.656  16.939  1.00  0.00    -0.368 OA
ATOM     28  C   UNL A   1      41.938  45.734  16.916  1.00  0.00     0.032 C 
ATOM     29  C   UNL A   1      42.790  44.700  16.225  1.00  0.00     0.161 C 
ENDBRANCH  22  25
ENDBRANCH  20  21
ENDBRANCH  19  20
ENDBRANCH  11  14
ENDBRANCH   7  10
ENDBRANCH   4   7
ENDBRANCH   2   3
ENDBRANCH   1   2
BRANCH   1  30
ATOM     30  C   UNL A   1      42.186  38.531  28.321  1.00  0.00     0.002 C 
BRANCH  30  31
ATOM     31  C   UNL A   1      43.230  37.435  28.550  1.00  0.00     0.002 C 
BRANCH  31  32
ATOM     32  C   UNL A   1      44.601  37.937  29.007  1.00  0.00     0.021 C 
BRANCH  32  33
ATOM     33  C   UNL A   1      45.755  37.482  28.123  1.00  0.00     0.116 C 
BRANCH  33  34
ATOM     34  N   UNL A   1      47.040  37.627  28.790  1.00  0.00    -0.352 N 
ATOM     35  C   UNL A   1      47.853  36.648  29.300  1.00  0.00     0.251 C 
ATOM     36  H   UNL A   1      47.369  38.550  28.887  1.00  0.00     0.163 HD
ATOM     37  O   UNL A   1      48.811  36.944  30.008  1.00  0.00    -0.269 OA
BRANCH  35  38
ATOM     38  C   UNL A   1      47.541  35.236  29.006  1.00  0.00     0.039 A 
ATOM     39  C   UNL A   1      47.366  34.345  30.066  1.00  0.00     0.014 A 
ATOM     40  C   UNL A   1      47.382  34.808  27.684  1.00  0.00     0.014 A 
ATOM     41  C   UNL A   1      46.966  33.035  29.802  1.00  0.00     0.010 A 
ATOM     42  C   UNL A   1      46.915  33.524  27.428  1.00  0.00     0.010 A 
ATOM     43  C   UNL A   1      46.699  32.626  28.484  1.00  0.00    -0.014 A 
BRANCH  43  44
ATOM     44  C   UNL A   1      46.180  31.267  28.188  1.00  0.00     0.031 A 
ATOM     45  C   UNL A   1      44.738  30.937  28.458  1.00  0.00     0.074 A 
ATOM     46  C   UNL A   1      47.029  30.313  27.756  1.00  0.00     0.049 A 
ATOM     47  N   UNL A   1      44.121  29.790  28.352  1.00  0.00    -0.248 NA
ATOM     48  C   UNL A   1      43.882  32.036  28.935  1.00  0.00     0.031 C 
ATOM     49  C   UNL A   1      48.460  30.501  27.510  1.00  0.00     0.029 A 
ATOM     50  N   UNL A   1      46.816  28.989  27.465  1.00  0.00    -0.354 N 
ATOM     51  C   UNL A   1      42.816  30.021  28.767  1.00  0.00     0.074 A 
ATOM     52  C   UNL A   1      42.739  31.408  29.169  1.00  0.00     0.031 C 
ATOM     53  C   UNL A   1      48.993  29.340  27.095  1.00  0.00     0.029 A 
ATOM     54  C   UNL A   1      47.954  28.315  27.086  1.00  0.00     0.049 A 
ATOM     55  H   UNL A   1      45.932  28.560  27.523  1.00  0.00     0.167 HD
ATOM     56  C   UNL A   1      41.773  29.158  28.793  1.00  0.00     0.037 A 
ATOM     57  C   UNL A   1      48.145  27.017  26.783  1.00  0.00     0.037 A 
ATOM     58  C   UNL A   1      41.853  27.787  28.359  1.00  0.00     0.049 A 
ATOM     59  C   UNL A   1      46.968  26.078  26.821  1.00  0.00     0.074 A 
ATOM     60  C   UNL A   1      40.834  26.856  28.265  1.00  0.00     0.029 A 
ATOM     61  N   UNL A   1      43.018  27.150  27.957  1.00  0.00    -0.354 N 
ATOM     62  N   UNL A   1      45.719  26.335  27.131  1.00  0.00    -0.248 NA
ATOM     63  C   UNL A   1      47.223  24.675  26.466  1.00  0.00     0.031 C 
ATOM     64  C   UNL A   1      41.391  25.641  27.859  1.00  0.00     0.029 A 
ATOM     65  C   UNL A   1      42.748  25.826  27.647  1.00  0.00     0.049 A 
ATOM     66  H   UNL A   1      43.904  27.574  27.901  1.00  0.00     0.167 HD
ATOM     67  C   UNL A   1      45.036  25.132  26.988  1.00  0.00     0.074 A 
ATOM     68  C   UNL A   1      46.007  24.151  26.549  1.00  0.00     0.031 C 
ATOM     69  C   UNL A   1      43.726  24.864  27.203  1.00  0.00     0.037 A 
BRANCH  56  70
ATOM     70  C   UNL A   1      40.452  29.664  29.304  1.00  0.00     0.058 A 
ATOM     71  C   UNL A   1      39.359  29.877  28.448  1.00  0.00     0.135 A 
ATOM     72  C   UNL A   1      40.260  29.886  30.678  1.00  0.00     0.135 A 
ATOM     73  F   UNL A   1      39.491  29.696  27.125  1.00  0.00    -0.206 F 
ATOM     74  C   UNL A   1      38.131  30.314  28.933  1.00  0.00     0.059 A 
ATOM     75  C   UNL A   1      39.031  30.295  31.188  1.00  0.00     0.059 A 
ATOM     76  F   UNL A   1      41.271  29.699  31.540  1.00  0.00    -0.206 F 
ATOM     77  C   UNL A   1      37.976  30.518  30.305  1.00  0.00     0.060 A 
BRANCH  77  78
ATOM     78  S   UNL A   1      36.369  31.066  30.918  1.00  0.00     0.124 S 
ATOM     79  O   UNL A   1      35.563  31.021  29.701  1.00  0.00    -0.237 OA
ATOM     80  O   UNL A   1      36.056  30.053  31.922  1.00  0.00    -0.237 OA
ATOM     81  O   UNL A   1      36.641  32.401  31.441  1.00  0.00    -0.744 OA
ENDBRANCH  77  78
ENDBRANCH  56  70
BRANCH  57  82
ATOM     82  C   UNL A   1      49.500  26.526  26.419  1.00  0.00     0.058 A 
ATOM     83  C   UNL A   1      50.341  25.941  27.378  1.00  0.00     0.135 A 
ATOM     84  C   UNL A   1      49.984  26.630  25.105  1.00  0.00     0.135 A 
ATOM     85  F   UNL A   1      49.927  25.825  28.649  1.00  0.00    -0.206 F 
ATOM     86  C   UNL A   1      51.618  25.497  27.055  1.00  0.00     0.059 A 
ATOM     87  C   UNL A   1      51.248  26.167  24.750  1.00  0.00     0.059 A 
ATOM     88  F   UNL A   1      49.214  27.165  24.144  1.00  0.00    -0.206 F 
ATOM     89  C   UNL A   1      52.064  25.615  25.737  1.00  0.00     0.060 A 
BRANCH  89  90
ATOM     90  S   UNL A   1      53.712  25.005  25.321  1.00  0.00     0.124 S 
ATOM     91  O   UNL A   1      54.036  25.813  24.151  1.00  0.00    -0.237 OA
ATOM     92  O   UNL A   1      54.464  25.307  26.535  1.00  0.00    -0.237 OA
ATOM     93  O   UNL A   1      53.489  23.585  25.067  1.00  0.00    -0.744 OA
ENDBRANCH  89  90
ENDBRANCH  57  82
BRANCH  69  94
ATOM     94  C   UNL A   1      43.250  23.462  26.943  1.00  0.00     0.058 A 
ATOM     95  C   UNL A   1      43.083  22.972  25.639  1.00  0.00     0.135 A 
ATOM     96  C   UNL A   1      43.030  22.576  28.010  1.00  0.00     0.135 A 
ATOM     97  F   UNL A   1      43.271  23.780  24.584  1.00  0.00    -0.206 F 
ATOM     98  C   UNL A   1      42.704  21.654  25.401  1.00  0.00     0.059 A 
ATOM     99  C   UNL A   1      42.678  21.248  27.797  1.00  0.00     0.059 A 
ATOM    100  F   UNL A   1      43.184  22.992  29.277  1.00  0.00    -0.206 F 
ATOM    101  C   UNL A   1      42.511  20.798  26.488  1.00  0.00     0.060 A 
BRANCH 101 102
ATOM    102  S   UNL A   1      42.075  19.076  26.162  1.00  0.00     0.124 S 
ATOM    103  O   UNL A   1      42.953  18.756  25.043  1.00  0.00    -0.237 OA
ATOM    104  O   UNL A   1      42.400  18.428  27.428  1.00  0.00    -0.237 OA
ATOM    105  O   UNL A   1      40.651  19.140  25.845  1.00  0.00    -0.744 OA
ENDBRANCH 101 102
ENDBRANCH  69  94
ENDBRANCH  43  44
ENDBRANCH  35  38
ENDBRANCH  33  34
ENDBRANCH  32  33
ENDBRANCH  31  32
ENDBRANCH  30  31
ENDBRANCH   1  30
TORSDOF 22
ENDMDL
MODEL 2
REMARK VINA RESULT:     -10.0      6.223     14.205
REMARK SMILES CC[C@@H](NC(=O)c1ccc(CNC(=O)[C@H]2CCCO2)cc1)C(=O)NCCCCCCNC(=O)c1ccc(-c2c3nc(c(-c4c(F)cc(S(=O)(=O)[O-])cc4F)c4ccc([nH]4)c(-c4c(F)cc(S(=O)(=O)[O-])cc4F)c4nc(c(-c5c(F)cc(S(=O)(=O)[O-])cc5F)c5ccc2[nH]5)C=C4)C=C3)cc1
REMARK SMILES IDX 26 1 25 2 24 3 22 4 23 5 3 7 2 8 1 9 4 10 5 11 6 13 7 14
REMARK SMILES IDX 8 15 21 16 9 17 20 18 10 19 11 20 12 21 13 22 14 24 15 25
REMARK SMILES IDX 16 26 19 27 17 28 18 29 27 30 28 31 29 32 30 33 31 34 32 35
REMARK SMILES IDX 33 37 34 38 35 39 99 40 36 41 98 42 37 43 38 44 39 45 92 46
REMARK SMILES IDX 40 47 97 48 91 49 93 50 41 51 96 52 90 53 89 54 42 56 76 57
REMARK SMILES IDX 55 58 75 59 56 60 59 61 74 62 94 63 57 64 58 65 73 67 95 68
REMARK SMILES IDX 60 69 43 70 44 71 53 72 45 73 46 74 52 75 54 76 47 77 48 78
REMARK SMILES IDX 49 79 50 80 51 81 77 82 78 83 87 84 79 85 80 86 86 87 88 88
REMARK SMILES IDX 81 89 82 90 83 91 84 92 85 93 61 94 62 95 71 96 63 97 64 98
REMARK SMILES IDX 70 99 72 100 65 101 66 102 67 103 68 104 69 105
REMARK H PARENT 24 6 4 12 12 23 31 36 93 55 59 66
REMARK Flexibility Score: inf
ROOT
ATOM      1  C   UNL A   1      46.868  24.506  27.093  1.00  0.00     0.021 C 
ENDROOT
BRANCH   1   2
ATOM      2  C   UNL A   1      45.747  24.803  26.106  1.00  0.00     0.116 C 
BRANCH   2   3
ATOM      3  N   UNL A   1      45.528  23.655  25.248  1.00  0.00    -0.354 N 
ATOM      4  C   UNL A   1      44.579  22.685  25.323  1.00  0.00     0.242 C 
ATOM      5  O   UNL A   1      44.694  21.699  24.589  1.00  0.00    -0.273 OA
ATOM      6  H   UNL A   1      46.159  23.564  24.499  1.00  0.00     0.163 HD
BRANCH   4   7
ATOM      7  C   UNL A   1      43.467  22.744  26.387  1.00  0.00     0.171 C 
BRANCH   7   8
ATOM      8  C   UNL A   1      42.430  21.673  25.965  1.00  0.00     0.032 C 
ATOM      9  C   UNL A   1      41.365  21.337  26.993  1.00  0.00     0.006 C 
ENDBRANCH   7   8
BRANCH   7  10
ATOM     10  N   UNL A   1      43.909  22.599  27.784  1.00  0.00    -0.340 N 
ATOM     11  C   UNL A   1      43.558  23.310  28.913  1.00  0.00     0.251 C 
ATOM     12  H   UNL A   1      44.562  21.877  27.937  1.00  0.00     0.164 HD
ATOM     13  O   UNL A   1      43.721  22.801  30.019  1.00  0.00    -0.269 OA
BRANCH  11  14
ATOM     14  C   UNL A   1      43.175  24.737  28.831  1.00  0.00     0.039 A 
ATOM     15  C   UNL A   1      41.823  25.019  28.601  1.00  0.00     0.014 A 
ATOM     16  C   UNL A   1      44.073  25.780  29.047  1.00  0.00     0.014 A 
ATOM     17  C   UNL A   1      41.347  26.325  28.732  1.00  0.00     0.006 A 
ATOM     18  C   UNL A   1      43.591  27.089  29.185  1.00  0.00     0.006 A 
ATOM     19  C   UNL A   1      42.219  27.368  29.069  1.00  0.00    -0.029 A 
BRANCH  19  20
ATOM     20  C   UNL A   1      41.677  28.750  29.349  1.00  0.00     0.151 C 
BRANCH  20  21
ATOM     21  N   UNL A   1      40.490  29.014  28.567  1.00  0.00    -0.350 N 
ATOM     22  C   UNL A   1      39.361  29.704  28.898  1.00  0.00     0.249 C 
ATOM     23  H   UNL A   1      40.497  28.639  27.657  1.00  0.00     0.163 HD
ATOM     24  O   UNL A   1      38.477  29.787  28.042  1.00  0.00    -0.272 OA
BRANCH  22  25
ATOM     25  C   UNL A   1      39.259  30.422  30.267  1.00  0.00     0.207 C 
ATOM     26  C   UNL A   1      39.913  31.802  30.239  1.00  0.00     0.044 C 
ATOM     27  O   UNL A   1      37.905  30.635  30.698  1.00  0.00    -0.368 OA
ATOM     28  C   UNL A   1      38.741  32.705  29.944  1.00  0.00     0.032 C 
ATOM     29  C   UNL A   1      37.648  32.046  30.746  1.00  0.00     0.161 C 
ENDBRANCH  22  25
ENDBRANCH  20  21
ENDBRANCH  19  20
ENDBRANCH  11  14
ENDBRANCH   7  10
ENDBRANCH   4   7
ENDBRANCH   2   3
ENDBRANCH   1   2
BRANCH   1  30
ATOM     30  C   UNL A   1      47.620  25.762  27.548  1.00  0.00     0.002 C 
BRANCH  30  31
ATOM     31  C   UNL A   1      48.958  25.491  28.239  1.00  0.00     0.002 C 
BRANCH  31  32
ATOM     32  C   UNL A   1      50.192  25.710  27.362  1.00  0.00     0.021 C 
BRANCH  32  33
ATOM     33  C   UNL A   1      49.873  26.167  25.944  1.00  0.00     0.116 C 
BRANCH  33  34
ATOM     34  N   UNL A   1      50.790  27.200  25.487  1.00  0.00    -0.352 N 
ATOM     35  C   UNL A   1      50.722  28.553  25.692  1.00  0.00     0.251 C 
ATOM     36  H   UNL A   1      51.560  26.884  24.962  1.00  0.00     0.163 HD
ATOM     37  O   UNL A   1      51.465  29.312  25.076  1.00  0.00    -0.269 OA
BRANCH  35  38
ATOM     38  C   UNL A   1      49.726  29.083  26.643  1.00  0.00     0.039 A 
ATOM     39  C   UNL A   1      48.378  29.091  26.280  1.00  0.00     0.014 A 
ATOM     40  C   UNL A   1      50.124  29.531  27.907  1.00  0.00     0.014 A 
ATOM     41  C   UNL A   1      47.419  29.488  27.212  1.00  0.00     0.010 A 
ATOM     42  C   UNL A   1      49.162  29.857  28.856  1.00  0.00     0.010 A 
ATOM     43  C   UNL A   1      47.800  29.837  28.519  1.00  0.00    -0.014 A 
BRANCH  43  44
ATOM     44  C   UNL A   1      46.790  30.169  29.554  1.00  0.00     0.031 A 
ATOM     45  C   UNL A   1      46.426  29.156  30.604  1.00  0.00     0.074 A 
ATOM     46  C   UNL A   1      46.145  31.353  29.496  1.00  0.00     0.049 A 
ATOM     47  N   UNL A   1      45.508  29.225  31.532  1.00  0.00    -0.248 NA
ATOM     48  C   UNL A   1      47.174  27.888  30.592  1.00  0.00     0.031 C 
ATOM     49  C   UNL A   1      46.376  32.393  28.491  1.00  0.00     0.029 A 
ATOM     50  N   UNL A   1      45.151  31.872  30.286  1.00  0.00    -0.354 N 
ATOM     51  C   UNL A   1      45.552  28.007  32.199  1.00  0.00     0.074 A 
ATOM     52  C   UNL A   1      46.558  27.200  31.542  1.00  0.00     0.031 C 
ATOM     53  C   UNL A   1      45.555  33.429  28.732  1.00  0.00     0.029 A 
ATOM     54  C   UNL A   1      44.712  33.111  29.880  1.00  0.00     0.049 A 
ATOM     55  H   UNL A   1      44.784  31.401  31.069  1.00  0.00     0.167 HD
ATOM     56  C   UNL A   1      44.832  27.606  33.274  1.00  0.00     0.037 A 
ATOM     57  C   UNL A   1      43.730  33.895  30.365  1.00  0.00     0.037 A 
ATOM     58  C   UNL A   1      43.857  28.429  33.939  1.00  0.00     0.049 A 
ATOM     59  C   UNL A   1      42.943  33.425  31.560  1.00  0.00     0.074 A 
ATOM     60  C   UNL A   1      43.136  28.148  35.087  1.00  0.00     0.029 A 
ATOM     61  N   UNL A   1      43.459  29.689  33.515  1.00  0.00    -0.354 N 
ATOM     62  N   UNL A   1      43.060  32.305  32.234  1.00  0.00    -0.248 NA
ATOM     63  C   UNL A   1      41.894  34.322  32.062  1.00  0.00     0.031 C 
ATOM     64  C   UNL A   1      42.263  29.213  35.324  1.00  0.00     0.029 A 
ATOM     65  C   UNL A   1      42.477  30.183  34.358  1.00  0.00     0.049 A 
ATOM     66  H   UNL A   1      43.820  30.161  32.730  1.00  0.00     0.167 HD
ATOM     67  C   UNL A   1      42.115  32.374  33.252  1.00  0.00     0.074 A 
ATOM     68  C   UNL A   1      41.445  33.651  33.115  1.00  0.00     0.031 C 
ATOM     69  C   UNL A   1      41.826  31.461  34.211  1.00  0.00     0.037 A 
BRANCH  56  70
ATOM     70  C   UNL A   1      45.067  26.217  33.801  1.00  0.00     0.058 A 
ATOM     71  C   UNL A   1      45.879  25.979  34.922  1.00  0.00     0.135 A 
ATOM     72  C   UNL A   1      44.427  25.115  33.211  1.00  0.00     0.135 A 
ATOM     73  F   UNL A   1      46.527  26.993  35.516  1.00  0.00    -0.206 F 
ATOM     74  C   UNL A   1      46.066  24.696  35.424  1.00  0.00     0.059 A 
ATOM     75  C   UNL A   1      44.577  23.826  33.715  1.00  0.00     0.059 A 
ATOM     76  F   UNL A   1      43.641  25.285  32.136  1.00  0.00    -0.206 F 
ATOM     77  C   UNL A   1      45.408  23.626  34.815  1.00  0.00     0.060 A 
BRANCH  77  78
ATOM     78  S   UNL A   1      45.647  21.970  35.493  1.00  0.00     0.124 S 
ATOM     79  O   UNL A   1      45.511  22.220  36.926  1.00  0.00    -0.237 OA
ATOM     80  O   UNL A   1      44.559  21.219  34.875  1.00  0.00    -0.237 OA
ATOM     81  O   UNL A   1      46.988  21.608  35.045  1.00  0.00    -0.744 OA
ENDBRANCH  77  78
ENDBRANCH  56  70
BRANCH  57  82
ATOM     82  C   UNL A   1      43.433  35.203  29.724  1.00  0.00     0.058 A 
ATOM     83  C   UNL A   1      43.980  36.396  30.223  1.00  0.00     0.135 A 
ATOM     84  C   UNL A   1      42.600  35.290  28.597  1.00  0.00     0.135 A 
ATOM     85  F   UNL A   1      44.778  36.366  31.300  1.00  0.00    -0.206 F 
ATOM     86  C   UNL A   1      43.693  37.627  29.644  1.00  0.00     0.059 A 
ATOM     87  C   UNL A   1      42.320  36.507  27.984  1.00  0.00     0.059 A 
ATOM     88  F   UNL A   1      42.065  34.177  28.069  1.00  0.00    -0.206 F 
ATOM     89  C   UNL A   1      42.862  37.673  28.524  1.00  0.00     0.060 A 
BRANCH  89  90
ATOM     90  S   UNL A   1      42.522  39.274  27.761  1.00  0.00     0.124 S 
ATOM     91  O   UNL A   1      41.577  38.905  26.713  1.00  0.00    -0.237 OA
ATOM     92  O   UNL A   1      41.973  40.035  28.879  1.00  0.00    -0.237 OA
ATOM     93  O   UNL A   1      43.837  39.711  27.301  1.00  0.00    -0.744 OA
ENDBRANCH  89  90
ENDBRANCH  57  82
BRANCH  69  94
ATOM     94  C   UNL A   1      40.759  31.814  35.210  1.00  0.00     0.058 A 
ATOM     95  C   UNL A   1      39.420  31.445  35.016  1.00  0.00     0.135 A 
ATOM     96  C   UNL A   1      41.094  32.462  36.409  1.00  0.00     0.135 A 
ATOM     97  F   UNL A   1      39.045  30.831  33.882  1.00  0.00    -0.206 F 
ATOM     98  C   UNL A   1      38.446  31.717  35.971  1.00  0.00     0.059 A 
ATOM     99  C   UNL A   1      40.143  32.720  37.391  1.00  0.00     0.059 A 
ATOM    100  F   UNL A   1      42.363  32.829  36.649  1.00  0.00    -0.206 F 
ATOM    101  C   UNL A   1      38.819  32.348  37.160  1.00  0.00     0.060 A 
BRANCH 101 102
ATOM    102  S   UNL A   1      37.555  32.643  38.414  1.00  0.00     0.124 S 
ATOM    103  O   UNL A   1      36.457  33.165  37.610  1.00  0.00    -0.237 OA
ATOM    104  O   UNL A   1      37.355  31.310  38.973  1.00  0.00    -0.237 OA
ATOM    105  O   UNL A   1      38.187  33.604  39.314  1.00  0.00    -0.744 OA
ENDBRANCH 101 102
ENDBRANCH  69  94
ENDBRANCH  43  44
ENDBRANCH  35  38
ENDBRANCH  33  34
ENDBRANCH  32  33
ENDBRANCH  31  32
ENDBRANCH  30  31
ENDBRANCH   1  30
TORSDOF 22
ENDMDL
MODEL 3
REMARK VINA RESULT:     -10.0      8.939     14.441
REMARK SMILES CC[C@@H](NC(=O)c1ccc(CNC(=O)[C@H]2CCCO2)cc1)C(=O)NCCCCCCNC(=O)c1ccc(-c2c3nc(c(-c4c(F)cc(S(=O)(=O)[O-])cc4F)c4ccc([nH]4)c(-c4c(F)cc(S(=O)(=O)[O-])cc4F)c4nc(c(-c5c(F)cc(S(=O)(=O)[O-])cc5F)c5ccc2[nH]5)C=C4)C=C3)cc1
REMARK SMILES IDX 26 1 25 2 24 3 22 4 23 5 3 7 2 8 1 9 4 10 5 11 6 13 7 14
REMARK SMILES IDX 8 15 21 16 9 17 20 18 10 19 11 20 12 21 13 22 14 24 15 25
REMARK SMILES IDX 16 26 19 27 17 28 18 29 27 30 28 31 29 32 30 33 31 34 32 35
REMARK SMILES IDX 33 37 34 38 35 39 99 40 36 41 98 42 37 43 38 44 39 45 92 46
REMARK SMILES IDX 40 47 97 48 91 49 93 50 41 51 96 52 90 53 89 54 42 56 76 57
REMARK SMILES IDX 55 58 75 59 56 60 59 61 74 62 94 63 57 64 58 65 73 67 95 68
REMARK SMILES IDX 60 69 43 70 44 71 53 72 45 73 46 74 52 75 54 76 47 77 48 78
REMARK SMILES IDX 49 79 50 80 51 81 77 82 78 83 87 84 79 85 80 86 86 87 88 88
REMARK SMILES IDX 81 89 82 90 83 91 84 92 85 93 61 94 62 95 71 96 63 97 64 98
REMARK SMILES IDX 70 99 72 100 65 101 66 102 67 103 68 104 69 105
REMARK H PARENT 24 6 4 12 12 23 31 36 93 55 59 66
REMARK Flexibility Score: inf
ROOT
ATOM      1  C   UNL A   1      40.717  27.723  28.308  1.00  0.00     0.021 C 
ENDROOT
BRANCH   1   2
ATOM      2  C   UNL A   1      41.257  26.299  28.324  1.00  0.00     0.116 C 
BRANCH   2   3
ATOM      3  N   UNL A   1      40.244  25.382  27.838  1.00  0.00    -0.354 N 
ATOM      4  C   UNL A   1      40.388  24.177  27.226  1.00  0.00     0.242 C 
ATOM      5  O   UNL A   1      39.386  23.651  26.731  1.00  0.00    -0.273 OA
ATOM      6  H   UNL A   1      39.314  25.675  27.969  1.00  0.00     0.163 HD
BRANCH   4   7
ATOM      7  C   UNL A   1      41.780  23.546  27.034  1.00  0.00     0.171 C 
BRANCH   7   8
ATOM      8  C   UNL A   1      41.743  22.211  27.820  1.00  0.00     0.032 C 
ATOM      9  C   UNL A   1      41.586  20.952  26.986  1.00  0.00     0.006 C 
ENDBRANCH   7   8
BRANCH   7  10
ATOM     10  N   UNL A   1      42.221  23.381  25.639  1.00  0.00    -0.340 N 
ATOM     11  C   UNL A   1      43.486  23.217  25.113  1.00  0.00     0.251 C 
ATOM     12  H   UNL A   1      41.495  23.390  24.973  1.00  0.00     0.164 HD
ATOM     13  O   UNL A   1      43.614  22.711  24.001  1.00  0.00    -0.269 OA
BRANCH  11  14
ATOM     14  C   UNL A   1      44.671  23.811  25.771  1.00  0.00     0.039 A 
ATOM     15  C   UNL A   1      45.770  24.105  24.953  1.00  0.00     0.014 A 
ATOM     16  C   UNL A   1      44.702  24.151  27.121  1.00  0.00     0.014 A 
ATOM     17  C   UNL A   1      46.830  24.864  25.451  1.00  0.00     0.006 A 
ATOM     18  C   UNL A   1      45.765  24.920  27.616  1.00  0.00     0.006 A 
ATOM     19  C   UNL A   1      46.818  25.319  26.776  1.00  0.00    -0.029 A 
BRANCH  19  20
ATOM     20  C   UNL A   1      47.895  26.257  27.267  1.00  0.00     0.151 C 
BRANCH  20  21
ATOM     21  N   UNL A   1      48.326  27.153  26.216  1.00  0.00    -0.350 N 
ATOM     22  C   UNL A   1      49.560  27.314  25.657  1.00  0.00     0.249 C 
ATOM     23  H   UNL A   1      47.622  27.734  25.848  1.00  0.00     0.163 HD
ATOM     24  O   UNL A   1      49.670  28.157  24.763  1.00  0.00    -0.272 OA
BRANCH  22  25
ATOM     25  C   UNL A   1      50.734  26.397  26.081  1.00  0.00     0.207 C 
ATOM     26  C   UNL A   1      51.799  26.290  24.990  1.00  0.00     0.044 C 
ATOM     27  O   UNL A   1      51.419  26.857  27.257  1.00  0.00    -0.368 OA
ATOM     28  C   UNL A   1      52.788  27.351  25.405  1.00  0.00     0.032 C 
ATOM     29  C   UNL A   1      52.763  27.212  26.906  1.00  0.00     0.161 C 
ENDBRANCH  22  25
ENDBRANCH  20  21
ENDBRANCH  19  20
ENDBRANCH  11  14
ENDBRANCH   7  10
ENDBRANCH   4   7
ENDBRANCH   2   3
ENDBRANCH   1   2
BRANCH   1  30
ATOM     30  C   UNL A   1      40.368  28.219  26.900  1.00  0.00     0.002 C 
BRANCH  30  31
ATOM     31  C   UNL A   1      41.517  28.913  26.164  1.00  0.00     0.002 C 
BRANCH  31  32
ATOM     32  C   UNL A   1      42.223  28.052  25.115  1.00  0.00     0.021 C 
BRANCH  32  33
ATOM     33  C   UNL A   1      43.376  27.222  25.667  1.00  0.00     0.116 C 
BRANCH  33  34
ATOM     34  N   UNL A   1      44.668  27.818  25.362  1.00  0.00    -0.352 N 
ATOM     35  C   UNL A   1      45.339  28.799  26.045  1.00  0.00     0.251 C 
ATOM     36  H   UNL A   1      45.120  27.470  24.559  1.00  0.00     0.163 HD
ATOM     37  O   UNL A   1      46.328  29.333  25.552  1.00  0.00    -0.269 OA
BRANCH  35  38
ATOM     38  C   UNL A   1      44.837  29.219  27.368  1.00  0.00     0.039 A 
ATOM     39  C   UNL A   1      44.600  30.574  27.605  1.00  0.00     0.014 A 
ATOM     40  C   UNL A   1      44.563  28.266  28.354  1.00  0.00     0.014 A 
ATOM     41  C   UNL A   1      44.025  30.968  28.813  1.00  0.00     0.010 A 
ATOM     42  C   UNL A   1      43.925  28.654  29.527  1.00  0.00     0.010 A 
ATOM     43  C   UNL A   1      43.647  30.008  29.767  1.00  0.00    -0.014 A 
BRANCH  43  44
ATOM     44  C   UNL A   1      42.946  30.396  31.016  1.00  0.00     0.031 A 
ATOM     45  C   UNL A   1      41.538  30.918  30.958  1.00  0.00     0.074 A 
ATOM     46  C   UNL A   1      43.610  30.354  32.189  1.00  0.00     0.049 A 
ATOM     47  N   UNL A   1      40.794  31.391  31.924  1.00  0.00    -0.248 NA
ATOM     48  C   UNL A   1      40.889  30.937  29.637  1.00  0.00     0.031 C 
ATOM     49  C   UNL A   1      44.998  29.916  32.361  1.00  0.00     0.029 A 
ATOM     50  N   UNL A   1      43.215  30.702  33.456  1.00  0.00    -0.354 N 
ATOM     51  C   UNL A   1      39.602  31.782  31.326  1.00  0.00     0.074 A 
ATOM     52  C   UNL A   1      39.736  31.531  29.908  1.00  0.00     0.031 C 
ATOM     53  C   UNL A   1      45.333  30.012  33.658  1.00  0.00     0.029 A 
ATOM     54  C   UNL A   1      44.202  30.556  34.404  1.00  0.00     0.049 A 
ATOM     55  H   UNL A   1      42.311  31.028  33.668  1.00  0.00     0.167 HD
ATOM     56  C   UNL A   1      38.489  32.285  31.912  1.00  0.00     0.037 A 
ATOM     57  C   UNL A   1      44.203  30.844  35.719  1.00  0.00     0.037 A 
ATOM     58  C   UNL A   1      38.354  32.500  33.329  1.00  0.00     0.049 A 
ATOM     59  C   UNL A   1      42.954  31.405  36.346  1.00  0.00     0.074 A 
ATOM     60  C   UNL A   1      37.240  32.924  34.031  1.00  0.00     0.029 A 
ATOM     61  N   UNL A   1      39.367  32.314  34.260  1.00  0.00    -0.354 N 
ATOM     62  N   UNL A   1      41.804  31.685  35.780  1.00  0.00    -0.248 NA
ATOM     63  C   UNL A   1      43.000  31.687  37.787  1.00  0.00     0.031 C 
ATOM     64  C   UNL A   1      37.595  33.049  35.377  1.00  0.00     0.029 A 
ATOM     65  C   UNL A   1      38.913  32.650  35.525  1.00  0.00     0.049 A 
ATOM     66  H   UNL A   1      40.274  31.993  34.052  1.00  0.00     0.167 HD
ATOM     67  C   UNL A   1      40.983  32.156  36.799  1.00  0.00     0.074 A 
ATOM     68  C   UNL A   1      41.763  32.108  38.018  1.00  0.00     0.031 C 
ATOM     69  C   UNL A   1      39.701  32.589  36.731  1.00  0.00     0.037 A 
BRANCH  56  70
ATOM     70  C   UNL A   1      37.326  32.641  31.027  1.00  0.00     0.058 A 
ATOM     71  C   UNL A   1      37.267  33.866  30.342  1.00  0.00     0.135 A 
ATOM     72  C   UNL A   1      36.284  31.723  30.819  1.00  0.00     0.135 A 
ATOM     73  F   UNL A   1      38.227  34.787  30.515  1.00  0.00    -0.206 F 
ATOM     74  C   UNL A   1      36.204  34.175  29.499  1.00  0.00     0.059 A 
ATOM     75  C   UNL A   1      35.226  32.000  29.959  1.00  0.00     0.059 A 
ATOM     76  F   UNL A   1      36.290  30.539  31.452  1.00  0.00    -0.206 F 
ATOM     77  C   UNL A   1      35.189  33.234  29.312  1.00  0.00     0.060 A 
BRANCH  77  78
ATOM     78  S   UNL A   1      33.828  33.646  28.200  1.00  0.00     0.124 S 
ATOM     79  O   UNL A   1      32.885  34.281  29.117  1.00  0.00    -0.237 OA
ATOM     80  O   UNL A   1      34.471  34.535  27.236  1.00  0.00    -0.237 OA
ATOM     81  O   UNL A   1      33.413  32.350  27.674  1.00  0.00    -0.744 OA
ENDBRANCH  77  78
ENDBRANCH  56  70
BRANCH  57  82
ATOM     82  C   UNL A   1      45.425  30.609  36.534  1.00  0.00     0.058 A 
ATOM     83  C   UNL A   1      46.380  31.622  36.716  1.00  0.00     0.135 A 
ATOM     84  C   UNL A   1      45.665  29.370  37.148  1.00  0.00     0.135 A 
ATOM     85  F   UNL A   1      46.199  32.822  36.145  1.00  0.00    -0.206 F 
ATOM     86  C   UNL A   1      47.536  31.409  37.458  1.00  0.00     0.059 A 
ATOM     87  C   UNL A   1      46.801  29.141  37.919  1.00  0.00     0.059 A 
ATOM     88  F   UNL A   1      44.775  28.372  37.020  1.00  0.00    -0.206 F 
ATOM     89  C   UNL A   1      47.738  30.164  38.056  1.00  0.00     0.060 A 
BRANCH  89  90
ATOM     90  S   UNL A   1      49.228  29.909  39.045  1.00  0.00     0.124 S 
ATOM     91  O   UNL A   1      50.108  30.947  38.521  1.00  0.00    -0.237 OA
ATOM     92  O   UNL A   1      48.733  30.115  40.402  1.00  0.00    -0.237 OA
ATOM     93  O   UNL A   1      49.610  28.536  38.726  1.00  0.00    -0.744 OA
ENDBRANCH  89  90
ENDBRANCH  57  82
BRANCH  69  94
ATOM     94  C   UNL A   1      39.044  33.024  38.011  1.00  0.00     0.058 A 
ATOM     95  C   UNL A   1      38.086  32.227  38.654  1.00  0.00     0.135 A 
ATOM     96  C   UNL A   1      39.433  34.219  38.639  1.00  0.00     0.135 A 
ATOM     97  F   UNL A   1      37.674  31.080  38.091  1.00  0.00    -0.206 F 
ATOM     98  C   UNL A   1      37.527  32.602  39.871  1.00  0.00     0.059 A 
ATOM     99  C   UNL A   1      38.908  34.601  39.869  1.00  0.00     0.059 A 
ATOM    100  F   UNL A   1      40.352  35.015  38.070  1.00  0.00    -0.206 F 
ATOM    101  C   UNL A   1      37.950  33.788  40.475  1.00  0.00     0.060 A 
BRANCH 101 102
ATOM    102  S   UNL A   1      37.258  34.234  42.081  1.00  0.00     0.124 S 
ATOM    103  O   UNL A   1      35.826  34.159  41.816  1.00  0.00    -0.237 OA
ATOM    104  O   UNL A   1      37.797  33.195  42.952  1.00  0.00    -0.237 OA
ATOM    105  O   UNL A   1      37.784  35.576  42.318  1.00  0.00    -0.744 OA
ENDBRANCH 101 102
ENDBRANCH  69  94
ENDBRANCH  43  44
ENDBRANCH  35  38
ENDBRANCH  33  34
ENDBRANCH  32  33
ENDBRANCH  31  32
ENDBRANCH  30  31
ENDBRANCH   1  30
TORSDOF 22
ENDMDL
