MODEL 1
REMARK VINA RESULT:     -11.4      0.000      0.000
REMARK SMILES COc1cc(NC(=O)[C@@H]2CC=CC[C@H]2C(=O)NCCCCCCNC(=O)c2ccc(-c3c4nc(c(-c5c(F)cc(S(=O)(=O)[O-])cc5F)c5ccc([nH]5)c(-c5c(F)cc(S(=O)(=O)[O-])cc5F)c5nc(c(-c6c(F)cc(S(=O)(=O)[O-])cc6F)c6ccc3[nH]6)C=C5)C=C4)cc2)c(OC)cc1Cl
REMARK SMILES IDX 20 1 19 2 18 3 17 4 15 5 16 6 14 8 9 9 10 10 11 11 13 12
REMARK SMILES IDX 12 13 7 14 6 15 8 17 5 18 3 19 4 20 97 21 96 22 98 23 93 24
REMARK SMILES IDX 2 25 1 26 94 27 95 28 21 29 22 30 23 31 24 32 25 33 26 35
REMARK SMILES IDX 27 36 28 37 92 38 29 39 91 40 30 41 31 42 32 43 85 44 33 45
REMARK SMILES IDX 90 46 84 47 86 48 34 49 89 50 83 51 82 52 35 54 69 55 48 56
REMARK SMILES IDX 68 57 49 58 52 59 67 60 87 61 50 62 51 63 66 65 88 66 53 67
REMARK SMILES IDX 36 68 37 69 46 70 38 71 39 72 45 73 47 74 40 75 41 76 42 77
REMARK SMILES IDX 43 78 44 79 70 80 71 81 80 82 72 83 73 84 79 85 81 86 74 87
REMARK SMILES IDX 75 88 76 89 77 90 78 91 54 92 55 93 64 94 56 95 57 96 63 97
REMARK SMILES IDX 65 98 58 99 59 100 60 101 61 102 62 103
REMARK H PARENT 17 7 6 16 24 34 86 53 52 64
REMARK Flexibility Score: inf
ROOT
ATOM      1  C   UNL A   1      33.619  30.890  27.494  1.00  0.00     0.002 C 
ENDROOT
BRANCH   1   2
ATOM      2  C   UNL A   1      34.551  29.676  27.592  1.00  0.00     0.021 C 
BRANCH   2   3
ATOM      3  C   UNL A   1      34.330  28.667  26.469  1.00  0.00     0.116 C 
BRANCH   3   4
ATOM      4  N   UNL A   1      33.127  29.017  25.745  1.00  0.00    -0.356 N 
ATOM      5  C   UNL A   1      32.585  28.455  24.639  1.00  0.00     0.224 C 
ATOM      6  O   UNL A   1      31.661  29.054  24.083  1.00  0.00    -0.275 OA
ATOM      7  H   UNL A   1      32.625  29.781  26.114  1.00  0.00     0.163 HD
BRANCH   5   8
ATOM      8  C   UNL A   1      33.016  27.076  24.157  1.00  0.00     0.095 C 
ATOM      9  C   UNL A   1      32.024  25.937  24.477  1.00  0.00     0.095 C 
ATOM     10  C   UNL A   1      31.895  24.769  23.479  1.00  0.00     0.041 C 
ATOM     11  C   UNL A   1      32.507  24.967  22.135  1.00  0.00    -0.030 C 
ATOM     12  C   UNL A   1      33.462  27.215  22.680  1.00  0.00     0.041 C 
ATOM     13  C   UNL A   1      33.204  26.049  21.782  1.00  0.00    -0.030 C 
BRANCH   9  14
ATOM     14  C   UNL A   1      32.168  25.348  25.879  1.00  0.00     0.228 C 
ATOM     15  N   UNL A   1      32.963  24.301  26.226  1.00  0.00    -0.323 N 
ATOM     16  H   UNL A   1      32.702  23.929  27.100  1.00  0.00     0.170 HD
ATOM     17  O   UNL A   1      31.442  25.802  26.777  1.00  0.00    -0.274 OA
BRANCH  15  18
ATOM     18  C   UNL A   1      34.059  23.602  25.678  1.00  0.00     0.087 A 
ATOM     19  C   UNL A   1      36.418  23.364  25.170  1.00  0.00     0.139 A 
ATOM     20  C   UNL A   1      35.297  24.161  25.392  1.00  0.00     0.078 A 
ATOM     21  C   UNL A   1      36.285  21.983  25.094  1.00  0.00     0.086 A 
ATOM     22  C   UNL A   1      35.021  21.406  25.223  1.00  0.00     0.073 A 
ATOM     23  Cl  UNL A   1      37.653  20.962  24.860  1.00  0.00    -0.080 Cl
ATOM     24  C   UNL A   1      33.912  22.206  25.525  1.00  0.00     0.144 A 
BRANCH  19  25
ATOM     25  O   UNL A   1      37.649  23.962  25.252  1.00  0.00    -0.495 OA
ATOM     26  C   UNL A   1      38.186  23.925  26.569  1.00  0.00     0.278 C 
ENDBRANCH  19  25
BRANCH  24  27
ATOM     27  O   UNL A   1      32.644  21.714  25.740  1.00  0.00    -0.495 OA
ATOM     28  C   UNL A   1      32.313  20.505  25.064  1.00  0.00     0.278 C 
ENDBRANCH  24  27
ENDBRANCH  15  18
ENDBRANCH   9  14
ENDBRANCH   5   8
ENDBRANCH   3   4
ENDBRANCH   2   3
ENDBRANCH   1   2
BRANCH   1  29
ATOM     29  C   UNL A   1      34.206  32.182  28.072  1.00  0.00     0.002 C 
BRANCH  29  30
ATOM     30  C   UNL A   1      35.694  32.383  27.777  1.00  0.00     0.021 C 
BRANCH  30  31
ATOM     31  C   UNL A   1      36.535  32.659  29.015  1.00  0.00     0.116 C 
BRANCH  31  32
ATOM     32  N   UNL A   1      36.048  31.918  30.166  1.00  0.00    -0.352 N 
ATOM     33  C   UNL A   1      36.524  30.745  30.691  1.00  0.00     0.251 C 
ATOM     34  H   UNL A   1      35.274  32.309  30.630  1.00  0.00     0.163 HD
ATOM     35  O   UNL A   1      35.860  30.121  31.515  1.00  0.00    -0.269 OA
BRANCH  33  36
ATOM     36  C   UNL A   1      37.834  30.233  30.241  1.00  0.00     0.039 A 
ATOM     37  C   UNL A   1      38.031  29.973  28.885  1.00  0.00     0.014 A 
ATOM     38  C   UNL A   1      38.869  30.027  31.160  1.00  0.00     0.014 A 
ATOM     39  C   UNL A   1      39.283  29.550  28.442  1.00  0.00     0.010 A 
ATOM     40  C   UNL A   1      40.137  29.684  30.707  1.00  0.00     0.010 A 
ATOM     41  C   UNL A   1      40.356  29.433  29.344  1.00  0.00    -0.014 A 
BRANCH  41  42
ATOM     42  C   UNL A   1      41.710  29.045  28.877  1.00  0.00     0.031 A 
ATOM     43  C   UNL A   1      42.802  30.077  28.784  1.00  0.00     0.074 A 
ATOM     44  C   UNL A   1      41.940  27.775  28.489  1.00  0.00     0.049 A 
ATOM     45  N   UNL A   1      44.029  29.943  28.355  1.00  0.00    -0.248 NA
ATOM     46  C   UNL A   1      42.461  31.447  29.205  1.00  0.00     0.031 C 
ATOM     47  C   UNL A   1      40.946  26.698  28.489  1.00  0.00     0.029 A 
ATOM     48  N   UNL A   1      43.078  27.174  28.013  1.00  0.00    -0.354 N 
ATOM     49  C   UNL A   1      44.604  31.204  28.446  1.00  0.00     0.074 A 
ATOM     50  C   UNL A   1      43.574  32.105  28.914  1.00  0.00     0.031 C 
ATOM     51  C   UNL A   1      41.525  25.565  28.059  1.00  0.00     0.029 A 
ATOM     52  C   UNL A   1      42.915  25.842  27.713  1.00  0.00     0.049 A 
ATOM     53  H   UNL A   1      43.931  27.652  27.896  1.00  0.00     0.167 HD
ATOM     54  C   UNL A   1      45.880  31.574  28.186  1.00  0.00     0.037 A 
ATOM     55  C   UNL A   1      43.786  24.946  27.207  1.00  0.00     0.037 A 
ATOM     56  C   UNL A   1      46.904  30.665  27.737  1.00  0.00     0.049 A 
ATOM     57  C   UNL A   1      45.195  25.386  26.913  1.00  0.00     0.074 A 
ATOM     58  C   UNL A   1      48.242  30.928  27.497  1.00  0.00     0.029 A 
ATOM     59  N   UNL A   1      46.705  29.321  27.456  1.00  0.00    -0.354 N 
ATOM     60  N   UNL A   1      45.740  26.569  27.069  1.00  0.00    -0.248 NA
ATOM     61  C   UNL A   1      46.112  24.367  26.381  1.00  0.00     0.031 C 
ATOM     62  C   UNL A   1      48.838  29.757  27.019  1.00  0.00     0.029 A 
ATOM     63  C   UNL A   1      47.888  28.748  27.021  1.00  0.00     0.049 A 
ATOM     64  H   UNL A   1      45.848  28.845  27.553  1.00  0.00     0.167 HD
ATOM     65  C   UNL A   1      47.069  26.430  26.684  1.00  0.00     0.074 A 
ATOM     66  C   UNL A   1      47.249  25.044  26.301  1.00  0.00     0.031 C 
ATOM     67  C   UNL A   1      48.052  27.364  26.650  1.00  0.00     0.037 A 
BRANCH  54  68
ATOM     68  C   UNL A   1      46.247  33.021  28.382  1.00  0.00     0.058 A 
ATOM     69  C   UNL A   1      46.731  33.500  29.611  1.00  0.00     0.135 A 
ATOM     70  C   UNL A   1      46.157  33.932  27.317  1.00  0.00     0.135 A 
ATOM     71  F   UNL A   1      46.824  32.678  30.669  1.00  0.00    -0.206 F 
ATOM     72  C   UNL A   1      47.090  34.833  29.783  1.00  0.00     0.059 A 
ATOM     73  C   UNL A   1      46.539  35.263  27.458  1.00  0.00     0.059 A 
ATOM     74  F   UNL A   1      45.698  33.530  26.121  1.00  0.00    -0.206 F 
ATOM     75  C   UNL A   1      46.993  35.707  28.699  1.00  0.00     0.060 A 
BRANCH  75  76
ATOM     76  S   UNL A   1      47.479  37.428  28.936  1.00  0.00     0.124 S 
ATOM     77  O   UNL A   1      48.929  37.346  28.782  1.00  0.00    -0.237 OA
ATOM     78  O   UNL A   1      46.765  38.104  27.857  1.00  0.00    -0.237 OA
ATOM     79  O   UNL A   1      47.009  37.733  30.283  1.00  0.00    -0.744 OA
ENDBRANCH  75  76
ENDBRANCH  54  68
BRANCH  55  80
ATOM     80  C   UNL A   1      43.354  23.544  26.958  1.00  0.00     0.058 A 
ATOM     81  C   UNL A   1      43.117  23.079  25.657  1.00  0.00     0.135 A 
ATOM     82  C   UNL A   1      43.171  22.641  28.017  1.00  0.00     0.135 A 
ATOM     83  F   UNL A   1      43.273  23.904  24.611  1.00  0.00    -0.206 F 
ATOM     84  C   UNL A   1      42.691  21.776  25.414  1.00  0.00     0.059 A 
ATOM     85  C   UNL A   1      42.774  21.326  27.798  1.00  0.00     0.059 A 
ATOM     86  F   UNL A   1      43.401  23.030  29.281  1.00  0.00    -0.206 F 
ATOM     87  C   UNL A   1      42.524  20.906  26.493  1.00  0.00     0.060 A 
BRANCH  87  88
ATOM     88  S   UNL A   1      42.005  19.208  26.164  1.00  0.00     0.124 S 
ATOM     89  O   UNL A   1      40.597  19.391  25.833  1.00  0.00    -0.237 OA
ATOM     90  O   UNL A   1      42.879  18.830  25.059  1.00  0.00    -0.237 OA
ATOM     91  O   UNL A   1      42.273  18.526  27.427  1.00  0.00    -0.744 OA
ENDBRANCH  87  88
ENDBRANCH  55  80
BRANCH  67  92
ATOM     92  C   UNL A   1      49.423  26.914  26.221  1.00  0.00     0.058 A 
ATOM     93  C   UNL A   1      50.319  26.309  27.117  1.00  0.00     0.135 A 
ATOM     94  C   UNL A   1      49.824  27.045  24.881  1.00  0.00     0.135 A 
ATOM     95  F   UNL A   1      49.988  26.165  28.410  1.00  0.00    -0.206 F 
ATOM     96  C   UNL A   1      51.574  25.875  26.705  1.00  0.00     0.059 A 
ATOM     97  C   UNL A   1      51.062  26.588  24.441  1.00  0.00     0.059 A 
ATOM     98  F   UNL A   1      49.002  27.607  23.980  1.00  0.00    -0.206 F 
ATOM     99  C   UNL A   1      51.936  26.015  25.363  1.00  0.00     0.060 A 
BRANCH  99 100
ATOM    100  S   UNL A   1      53.554  25.416  24.837  1.00  0.00     0.124 S 
ATOM    101  O   UNL A   1      54.444  26.150  25.730  1.00  0.00    -0.237 OA
ATOM    102  O   UNL A   1      53.450  23.981  25.084  1.00  0.00    -0.237 OA
ATOM    103  O   UNL A   1      53.619  25.801  23.430  1.00  0.00    -0.744 OA
ENDBRANCH  99 100
ENDBRANCH  67  92
ENDBRANCH  41  42
ENDBRANCH  33  36
ENDBRANCH  31  32
ENDBRANCH  30  31
ENDBRANCH  29  30
ENDBRANCH   1  29
TORSDOF 20
ENDMDL
MODEL 2
REMARK VINA RESULT:     -11.1      6.299     11.819
REMARK SMILES COc1cc(NC(=O)[C@@H]2CC=CC[C@H]2C(=O)NCCCCCCNC(=O)c2ccc(-c3c4nc(c(-c5c(F)cc(S(=O)(=O)[O-])cc5F)c5ccc([nH]5)c(-c5c(F)cc(S(=O)(=O)[O-])cc5F)c5nc(c(-c6c(F)cc(S(=O)(=O)[O-])cc6F)c6ccc3[nH]6)C=C5)C=C4)cc2)c(OC)cc1Cl
REMARK SMILES IDX 20 1 19 2 18 3 17 4 15 5 16 6 14 8 9 9 10 10 11 11 13 12
REMARK SMILES IDX 12 13 7 14 6 15 8 17 5 18 3 19 4 20 97 21 96 22 98 23 93 24
REMARK SMILES IDX 2 25 1 26 94 27 95 28 21 29 22 30 23 31 24 32 25 33 26 35
REMARK SMILES IDX 27 36 28 37 92 38 29 39 91 40 30 41 31 42 32 43 85 44 33 45
REMARK SMILES IDX 90 46 84 47 86 48 34 49 89 50 83 51 82 52 35 54 69 55 48 56
REMARK SMILES IDX 68 57 49 58 52 59 67 60 87 61 50 62 51 63 66 65 88 66 53 67
REMARK SMILES IDX 36 68 37 69 46 70 38 71 39 72 45 73 47 74 40 75 41 76 42 77
REMARK SMILES IDX 43 78 44 79 70 80 71 81 80 82 72 83 73 84 79 85 81 86 74 87
REMARK SMILES IDX 75 88 76 89 77 90 78 91 54 92 55 93 64 94 56 95 57 96 63 97
REMARK SMILES IDX 65 98 58 99 59 100 60 101 61 102 62 103
REMARK H PARENT 17 7 6 16 24 34 86 53 52 64
REMARK Flexibility Score: inf
ROOT
ATOM      1  C   UNL A   1      38.465  22.202  26.171  1.00  0.00     0.002 C 
ENDROOT
BRANCH   1   2
ATOM      2  C   UNL A   1      38.148  23.703  26.185  1.00  0.00     0.021 C 
BRANCH   2   3
ATOM      3  C   UNL A   1      36.788  24.027  25.575  1.00  0.00     0.116 C 
BRANCH   3   4
ATOM      4  N   UNL A   1      36.172  22.803  25.108  1.00  0.00    -0.356 N 
ATOM      5  C   UNL A   1      34.876  22.415  25.145  1.00  0.00     0.224 C 
ATOM      6  O   UNL A   1      34.619  21.241  24.869  1.00  0.00    -0.275 OA
ATOM      7  H   UNL A   1      36.791  22.155  24.700  1.00  0.00     0.163 HD
BRANCH   5   8
ATOM      8  C   UNL A   1      33.756  23.414  25.403  1.00  0.00     0.095 C 
ATOM      9  C   UNL A   1      32.701  23.513  24.279  1.00  0.00     0.095 C 
ATOM     10  C   UNL A   1      31.238  23.811  24.663  1.00  0.00     0.041 C 
ATOM     11  C   UNL A   1      30.886  23.682  26.105  1.00  0.00    -0.030 C 
ATOM     12  C   UNL A   1      33.222  23.159  26.835  1.00  0.00     0.041 C 
ATOM     13  C   UNL A   1      31.766  23.397  27.068  1.00  0.00    -0.030 C 
BRANCH   9  14
ATOM     14  C   UNL A   1      33.088  24.442  23.130  1.00  0.00     0.228 C 
ATOM     15  N   UNL A   1      32.899  25.788  23.095  1.00  0.00    -0.323 N 
ATOM     16  H   UNL A   1      32.971  26.135  22.176  1.00  0.00     0.170 HD
ATOM     17  O   UNL A   1      33.544  23.929  22.096  1.00  0.00    -0.274 OA
BRANCH  15  18
ATOM     18  C   UNL A   1      32.626  26.823  24.014  1.00  0.00     0.087 A 
ATOM     19  C   UNL A   1      33.309  28.635  25.474  1.00  0.00     0.139 A 
ATOM     20  C   UNL A   1      33.565  27.419  24.844  1.00  0.00     0.078 A 
ATOM     21  C   UNL A   1      32.047  29.208  25.390  1.00  0.00     0.086 A 
ATOM     22  C   UNL A   1      31.037  28.549  24.689  1.00  0.00     0.073 A 
ATOM     23  Cl  UNL A   1      31.702  30.730  26.123  1.00  0.00    -0.080 Cl
ATOM     24  C   UNL A   1      31.323  27.367  23.992  1.00  0.00     0.144 A 
BRANCH  19  25
ATOM     25  O   UNL A   1      34.380  29.329  25.973  1.00  0.00    -0.495 OA
ATOM     26  C   UNL A   1      34.704  28.947  27.305  1.00  0.00     0.278 C 
ENDBRANCH  19  25
BRANCH  24  27
ATOM     27  O   UNL A   1      30.408  26.690  23.217  1.00  0.00    -0.495 OA
ATOM     28  C   UNL A   1      29.065  26.676  23.693  1.00  0.00     0.278 C 
ENDBRANCH  24  27
ENDBRANCH  15  18
ENDBRANCH   9  14
ENDBRANCH   5   8
ENDBRANCH   3   4
ENDBRANCH   2   3
ENDBRANCH   1   2
BRANCH   1  29
ATOM     29  C   UNL A   1      39.958  21.875  26.069  1.00  0.00     0.002 C 
BRANCH  29  30
ATOM     30  C   UNL A   1      40.695  21.876  27.410  1.00  0.00     0.021 C 
BRANCH  30  31
ATOM     31  C   UNL A   1      41.748  22.968  27.533  1.00  0.00     0.116 C 
BRANCH  31  32
ATOM     32  N   UNL A   1      41.835  23.763  26.320  1.00  0.00    -0.352 N 
ATOM     33  C   UNL A   1      41.609  25.104  26.158  1.00  0.00     0.251 C 
ATOM     34  H   UNL A   1      42.091  23.273  25.505  1.00  0.00     0.163 HD
ATOM     35  O   UNL A   1      41.488  25.581  25.032  1.00  0.00    -0.269 OA
BRANCH  33  36
ATOM     36  C   UNL A   1      41.494  25.964  27.353  1.00  0.00     0.039 A 
ATOM     37  C   UNL A   1      42.419  26.990  27.541  1.00  0.00     0.014 A 
ATOM     38  C   UNL A   1      40.462  25.762  28.276  1.00  0.00     0.014 A 
ATOM     39  C   UNL A   1      42.281  27.848  28.633  1.00  0.00     0.010 A 
ATOM     40  C   UNL A   1      40.279  26.665  29.317  1.00  0.00     0.010 A 
ATOM     41  C   UNL A   1      41.191  27.712  29.511  1.00  0.00    -0.014 A 
BRANCH  41  42
ATOM     42  C   UNL A   1      40.996  28.655  30.641  1.00  0.00     0.031 A 
ATOM     43  C   UNL A   1      41.836  28.530  31.883  1.00  0.00     0.074 A 
ATOM     44  C   UNL A   1      40.028  29.589  30.565  1.00  0.00     0.049 A 
ATOM     45  N   UNL A   1      41.781  29.225  32.989  1.00  0.00    -0.248 NA
ATOM     46  C   UNL A   1      42.856  27.467  31.893  1.00  0.00     0.031 C 
ATOM     47  C   UNL A   1      39.118  29.775  29.431  1.00  0.00     0.029 A 
ATOM     48  N   UNL A   1      39.640  30.554  31.460  1.00  0.00    -0.354 N 
ATOM     49  C   UNL A   1      42.747  28.683  33.827  1.00  0.00     0.074 A 
ATOM     50  C   UNL A   1      43.335  27.562  33.126  1.00  0.00     0.031 C 
ATOM     51  C   UNL A   1      38.298  30.806  29.689  1.00  0.00     0.029 A 
ATOM     52  C   UNL A   1      38.591  31.327  31.020  1.00  0.00     0.049 A 
ATOM     53  H   UNL A   1      40.072  30.681  32.336  1.00  0.00     0.167 HD
ATOM     54  C   UNL A   1      43.128  29.097  35.059  1.00  0.00     0.037 A 
ATOM     55  C   UNL A   1      37.933  32.335  31.625  1.00  0.00     0.037 A 
ATOM     56  C   UNL A   1      42.550  30.226  35.741  1.00  0.00     0.049 A 
ATOM     57  C   UNL A   1      38.366  32.767  33.001  1.00  0.00     0.074 A 
ATOM     58  C   UNL A   1      42.901  30.761  36.969  1.00  0.00     0.029 A 
ATOM     59  N   UNL A   1      41.498  30.991  35.259  1.00  0.00    -0.354 N 
ATOM     60  N   UNL A   1      39.328  32.285  33.752  1.00  0.00    -0.248 NA
ATOM     61  C   UNL A   1      37.630  33.884  33.609  1.00  0.00     0.031 C 
ATOM     62  C   UNL A   1      42.026  31.813  37.253  1.00  0.00     0.029 A 
ATOM     63  C   UNL A   1      41.170  31.977  36.176  1.00  0.00     0.049 A 
ATOM     64  H   UNL A   1      41.051  30.854  34.392  1.00  0.00     0.167 HD
ATOM     65  C   UNL A   1      39.332  33.059  34.907  1.00  0.00     0.074 A 
ATOM     66  C   UNL A   1      38.287  34.050  34.749  1.00  0.00     0.031 C 
ATOM     67  C   UNL A   1      40.130  32.960  36.000  1.00  0.00     0.037 A 
BRANCH  54  68
ATOM     68  C   UNL A   1      44.224  28.329  35.750  1.00  0.00     0.058 A 
ATOM     69  C   UNL A   1      43.942  27.263  36.621  1.00  0.00     0.135 A 
ATOM     70  C   UNL A   1      45.573  28.632  35.504  1.00  0.00     0.135 A 
ATOM     71  F   UNL A   1      42.670  26.939  36.906  1.00  0.00    -0.206 F 
ATOM     72  C   UNL A   1      44.957  26.542  37.241  1.00  0.00     0.059 A 
ATOM     73  C   UNL A   1      46.605  27.903  36.089  1.00  0.00     0.059 A 
ATOM     74  F   UNL A   1      45.900  29.641  34.682  1.00  0.00    -0.206 F 
ATOM     75  C   UNL A   1      46.287  26.868  36.966  1.00  0.00     0.060 A 
BRANCH  75  76
ATOM     76  S   UNL A   1      47.590  25.910  37.766  1.00  0.00     0.124 S 
ATOM     77  O   UNL A   1      48.566  25.788  36.687  1.00  0.00    -0.237 OA
ATOM     78  O   UNL A   1      47.977  26.776  38.875  1.00  0.00    -0.237 OA
ATOM     79  O   UNL A   1      46.919  24.671  38.145  1.00  0.00    -0.744 OA
ENDBRANCH  75  76
ENDBRANCH  54  68
BRANCH  55  80
ATOM     80  C   UNL A   1      36.805  33.014  30.930  1.00  0.00     0.058 A 
ATOM     81  C   UNL A   1      35.473  32.691  31.225  1.00  0.00     0.135 A 
ATOM     82  C   UNL A   1      37.038  33.999  29.958  1.00  0.00     0.135 A 
ATOM     83  F   UNL A   1      35.198  31.752  32.143  1.00  0.00    -0.206 F 
ATOM     84  C   UNL A   1      34.411  33.302  30.566  1.00  0.00     0.059 A 
ATOM     85  C   UNL A   1      35.993  34.646  29.306  1.00  0.00     0.059 A 
ATOM     86  F   UNL A   1      38.294  34.359  29.650  1.00  0.00    -0.206 F 
ATOM     87  C   UNL A   1      34.682  34.281  29.608  1.00  0.00     0.060 A 
BRANCH  87  88
ATOM     88  S   UNL A   1      33.296  35.094  28.783  1.00  0.00     0.124 S 
ATOM     89  O   UNL A   1      32.511  35.560  29.920  1.00  0.00    -0.237 OA
ATOM     90  O   UNL A   1      33.969  36.127  28.003  1.00  0.00    -0.237 OA
ATOM     91  O   UNL A   1      32.695  34.019  27.999  1.00  0.00    -0.744 OA
ENDBRANCH  87  88
ENDBRANCH  55  80
BRANCH  67  92
ATOM     92  C   UNL A   1      39.933  33.971  37.097  1.00  0.00     0.058 A 
ATOM     93  C   UNL A   1      39.115  33.708  38.208  1.00  0.00     0.135 A 
ATOM     94  C   UNL A   1      40.613  35.200  37.060  1.00  0.00     0.135 A 
ATOM     95  F   UNL A   1      38.437  32.552  38.291  1.00  0.00    -0.206 F 
ATOM     96  C   UNL A   1      38.958  34.638  39.230  1.00  0.00     0.059 A 
ATOM     97  C   UNL A   1      40.496  36.131  38.086  1.00  0.00     0.059 A 
ATOM     98  F   UNL A   1      41.415  35.498  36.027  1.00  0.00    -0.206 F 
ATOM     99  C   UNL A   1      39.656  35.846  39.163  1.00  0.00     0.060 A 
BRANCH  99 100
ATOM    100  S   UNL A   1      39.468  37.030  40.512  1.00  0.00     0.124 S 
ATOM    101  O   UNL A   1      40.767  36.935  41.170  1.00  0.00    -0.237 OA
ATOM    102  O   UNL A   1      39.208  38.276  39.798  1.00  0.00    -0.237 OA
ATOM    103  O   UNL A   1      38.339  36.502  41.273  1.00  0.00    -0.744 OA
ENDBRANCH  99 100
ENDBRANCH  67  92
ENDBRANCH  41  42
ENDBRANCH  33  36
ENDBRANCH  31  32
ENDBRANCH  30  31
ENDBRANCH  29  30
ENDBRANCH   1  29
TORSDOF 20
ENDMDL
MODEL 3
REMARK VINA RESULT:     -10.9      6.255     11.865
REMARK SMILES COc1cc(NC(=O)[C@@H]2CC=CC[C@H]2C(=O)NCCCCCCNC(=O)c2ccc(-c3c4nc(c(-c5c(F)cc(S(=O)(=O)[O-])cc5F)c5ccc([nH]5)c(-c5c(F)cc(S(=O)(=O)[O-])cc5F)c5nc(c(-c6c(F)cc(S(=O)(=O)[O-])cc6F)c6ccc3[nH]6)C=C5)C=C4)cc2)c(OC)cc1Cl
REMARK SMILES IDX 20 1 19 2 18 3 17 4 15 5 16 6 14 8 9 9 10 10 11 11 13 12
REMARK SMILES IDX 12 13 7 14 6 15 8 17 5 18 3 19 4 20 97 21 96 22 98 23 93 24
REMARK SMILES IDX 2 25 1 26 94 27 95 28 21 29 22 30 23 31 24 32 25 33 26 35
REMARK SMILES IDX 27 36 28 37 92 38 29 39 91 40 30 41 31 42 32 43 85 44 33 45
REMARK SMILES IDX 90 46 84 47 86 48 34 49 89 50 83 51 82 52 35 54 69 55 48 56
REMARK SMILES IDX 68 57 49 58 52 59 67 60 87 61 50 62 51 63 66 65 88 66 53 67
REMARK SMILES IDX 36 68 37 69 46 70 38 71 39 72 45 73 47 74 40 75 41 76 42 77
REMARK SMILES IDX 43 78 44 79 70 80 71 81 80 82 72 83 73 84 79 85 81 86 74 87
REMARK SMILES IDX 75 88 76 89 77 90 78 91 54 92 55 93 64 94 56 95 57 96 63 97
REMARK SMILES IDX 65 98 58 99 59 100 60 101 61 102 62 103
REMARK H PARENT 17 7 6 16 24 34 86 53 52 64
REMARK Flexibility Score: inf
ROOT
ATOM      1  C   UNL A   1      40.017  22.516  27.308  1.00  0.00     0.002 C 
ENDROOT
BRANCH   1   2
ATOM      2  C   UNL A   1      39.089  23.070  26.219  1.00  0.00     0.021 C 
BRANCH   2   3
ATOM      3  C   UNL A   1      38.090  22.036  25.710  1.00  0.00     0.116 C 
BRANCH   3   4
ATOM      4  N   UNL A   1      37.372  22.586  24.580  1.00  0.00    -0.356 N 
ATOM      5  C   UNL A   1      36.121  22.321  24.135  1.00  0.00     0.224 C 
ATOM      6  O   UNL A   1      35.797  22.764  23.030  1.00  0.00    -0.275 OA
ATOM      7  H   UNL A   1      37.869  23.255  24.055  1.00  0.00     0.163 HD
BRANCH   5   8
ATOM      8  C   UNL A   1      35.103  21.601  25.010  1.00  0.00     0.095 C 
ATOM      9  C   UNL A   1      33.827  22.413  25.324  1.00  0.00     0.095 C 
ATOM     10  C   UNL A   1      32.491  21.658  25.477  1.00  0.00     0.041 C 
ATOM     11  C   UNL A   1      32.466  20.243  25.013  1.00  0.00    -0.030 C 
ATOM     12  C   UNL A   1      34.896  20.185  24.419  1.00  0.00     0.041 C 
ATOM     13  C   UNL A   1      33.532  19.588  24.547  1.00  0.00    -0.030 C 
BRANCH   9  14
ATOM     14  C   UNL A   1      33.964  23.375  26.503  1.00  0.00     0.228 C 
ATOM     15  N   UNL A   1      33.707  24.710  26.477  1.00  0.00    -0.323 N 
ATOM     16  H   UNL A   1      34.111  25.167  27.250  1.00  0.00     0.170 HD
ATOM     17  O   UNL A   1      34.427  22.930  27.565  1.00  0.00    -0.274 OA
BRANCH  15  18
ATOM     18  C   UNL A   1      33.020  25.619  25.645  1.00  0.00     0.087 A 
ATOM     19  C   UNL A   1      32.844  27.010  23.666  1.00  0.00     0.139 A 
ATOM     20  C   UNL A   1      33.609  26.394  24.656  1.00  0.00     0.078 A 
ATOM     21  C   UNL A   1      31.458  26.971  23.734  1.00  0.00     0.086 A 
ATOM     22  C   UNL A   1      30.839  26.329  24.808  1.00  0.00     0.073 A 
ATOM     23  Cl  UNL A   1      30.479  27.687  22.510  1.00  0.00    -0.080 Cl
ATOM     24  C   UNL A   1      31.612  25.644  25.756  1.00  0.00     0.144 A 
BRANCH  19  25
ATOM     25  O   UNL A   1      33.495  27.446  22.542  1.00  0.00    -0.495 OA
ATOM     26  C   UNL A   1      33.753  28.845  22.571  1.00  0.00     0.278 C 
ENDBRANCH  19  25
BRANCH  24  27
ATOM     27  O   UNL A   1      31.084  24.925  26.804  1.00  0.00    -0.495 OA
ATOM     28  C   UNL A   1      30.022  24.031  26.485  1.00  0.00     0.278 C 
ENDBRANCH  24  27
ENDBRANCH  15  18
ENDBRANCH   9  14
ENDBRANCH   5   8
ENDBRANCH   3   4
ENDBRANCH   2   3
ENDBRANCH   1   2
BRANCH   1  29
ATOM     29  C   UNL A   1      41.412  22.127  26.810  1.00  0.00     0.002 C 
BRANCH  29  30
ATOM     30  C   UNL A   1      42.528  22.343  27.835  1.00  0.00     0.021 C 
BRANCH  30  31
ATOM     31  C   UNL A   1      43.246  23.677  27.691  1.00  0.00     0.116 C 
BRANCH  31  32
ATOM     32  N   UNL A   1      42.997  24.278  26.392  1.00  0.00    -0.352 N 
ATOM     33  C   UNL A   1      42.313  25.429  26.098  1.00  0.00     0.251 C 
ATOM     34  H   UNL A   1      43.369  23.795  25.619  1.00  0.00     0.163 HD
ATOM     35  O   UNL A   1      41.983  25.675  24.940  1.00  0.00    -0.269 OA
BRANCH  33  36
ATOM     36  C   UNL A   1      41.961  26.356  27.191  1.00  0.00     0.039 A 
ATOM     37  C   UNL A   1      40.932  26.012  28.068  1.00  0.00     0.014 A 
ATOM     38  C   UNL A   1      42.660  27.557  27.355  1.00  0.00     0.014 A 
ATOM     39  C   UNL A   1      40.635  26.851  29.141  1.00  0.00     0.010 A 
ATOM     40  C   UNL A   1      42.417  28.351  28.470  1.00  0.00     0.010 A 
ATOM     41  C   UNL A   1      41.396  28.012  29.370  1.00  0.00    -0.014 A 
BRANCH  41  42
ATOM     42  C   UNL A   1      41.133  28.881  30.543  1.00  0.00     0.031 A 
ATOM     43  C   UNL A   1      41.942  28.718  31.802  1.00  0.00     0.074 A 
ATOM     44  C   UNL A   1      40.131  29.781  30.491  1.00  0.00     0.049 A 
ATOM     45  N   UNL A   1      41.829  29.346  32.942  1.00  0.00    -0.248 NA
ATOM     46  C   UNL A   1      43.002  27.695  31.784  1.00  0.00     0.031 C 
ATOM     47  C   UNL A   1      39.247  29.997  29.342  1.00  0.00     0.029 A 
ATOM     48  N   UNL A   1      39.681  30.679  31.426  1.00  0.00    -0.354 N 
ATOM     49  C   UNL A   1      42.792  28.794  33.778  1.00  0.00     0.074 A 
ATOM     50  C   UNL A   1      43.442  27.738  33.033  1.00  0.00     0.031 C 
ATOM     51  C   UNL A   1      38.380  30.980  29.633  1.00  0.00     0.029 A 
ATOM     52  C   UNL A   1      38.615  31.435  30.998  1.00  0.00     0.049 A 
ATOM     53  H   UNL A   1      40.083  30.771  32.321  1.00  0.00     0.167 HD
ATOM     54  C   UNL A   1      43.121  29.151  35.041  1.00  0.00     0.037 A 
ATOM     55  C   UNL A   1      37.901  32.382  31.639  1.00  0.00     0.037 A 
ATOM     56  C   UNL A   1      42.481  30.217  35.768  1.00  0.00     0.049 A 
ATOM     57  C   UNL A   1      38.279  32.751  33.048  1.00  0.00     0.074 A 
ATOM     58  C   UNL A   1      42.776  30.694  37.033  1.00  0.00     0.029 A 
ATOM     59  N   UNL A   1      41.413  30.969  35.298  1.00  0.00    -0.354 N 
ATOM     60  N   UNL A   1      39.238  32.264  33.800  1.00  0.00    -0.248 NA
ATOM     61  C   UNL A   1      37.483  33.803  33.696  1.00  0.00     0.031 C 
ATOM     62  C   UNL A   1      41.853  31.695  37.349  1.00  0.00     0.029 A 
ATOM     63  C   UNL A   1      41.022  31.888  36.257  1.00  0.00     0.049 A 
ATOM     64  H   UNL A   1      40.997  30.864  34.412  1.00  0.00     0.167 HD
ATOM     65  C   UNL A   1      39.179  32.970  34.996  1.00  0.00     0.074 A 
ATOM     66  C   UNL A   1      38.101  33.928  34.862  1.00  0.00     0.031 C 
ATOM     67  C   UNL A   1      39.949  32.840  36.105  1.00  0.00     0.037 A 
BRANCH  54  68
ATOM     68  C   UNL A   1      44.226  28.387  35.722  1.00  0.00     0.058 A 
ATOM     69  C   UNL A   1      43.966  27.244  36.496  1.00  0.00     0.135 A 
ATOM     70  C   UNL A   1      45.567  28.774  35.560  1.00  0.00     0.135 A 
ATOM     71  F   UNL A   1      42.702  26.837  36.698  1.00  0.00    -0.206 F 
ATOM     72  C   UNL A   1      44.991  26.528  37.105  1.00  0.00     0.059 A 
ATOM     73  C   UNL A   1      46.611  28.054  36.134  1.00  0.00     0.059 A 
ATOM     74  F   UNL A   1      45.874  29.860  34.832  1.00  0.00    -0.206 F 
ATOM     75  C   UNL A   1      46.312  26.940  36.916  1.00  0.00     0.060 A 
BRANCH  75  76
ATOM     76  S   UNL A   1      47.630  25.988  37.699  1.00  0.00     0.124 S 
ATOM     77  O   UNL A   1      47.266  24.624  37.326  1.00  0.00    -0.237 OA
ATOM     78  O   UNL A   1      48.825  26.523  37.054  1.00  0.00    -0.237 OA
ATOM     79  O   UNL A   1      47.488  26.309  39.115  1.00  0.00    -0.744 OA
ENDBRANCH  75  76
ENDBRANCH  54  68
BRANCH  55  80
ATOM     80  C   UNL A   1      36.768  33.056  30.949  1.00  0.00     0.058 A 
ATOM     81  C   UNL A   1      36.994  34.055  29.991  1.00  0.00     0.135 A 
ATOM     82  C   UNL A   1      35.437  32.714  31.233  1.00  0.00     0.135 A 
ATOM     83  F   UNL A   1      38.248  34.421  29.687  1.00  0.00    -0.206 F 
ATOM     84  C   UNL A   1      35.942  34.708  29.355  1.00  0.00     0.059 A 
ATOM     85  C   UNL A   1      34.369  33.331  30.590  1.00  0.00     0.059 A 
ATOM     86  F   UNL A   1      35.164  31.752  32.128  1.00  0.00    -0.206 F 
ATOM     87  C   UNL A   1      34.632  34.337  29.661  1.00  0.00     0.060 A 
BRANCH  87  88
ATOM     88  S   UNL A   1      33.274  35.166  28.806  1.00  0.00     0.124 S 
ATOM     89  O   UNL A   1      33.989  36.166  28.021  1.00  0.00    -0.237 OA
ATOM     90  O   UNL A   1      32.674  34.071  28.051  1.00  0.00    -0.237 OA
ATOM     91  O   UNL A   1      32.458  35.686  29.898  1.00  0.00    -0.744 OA
ENDBRANCH  87  88
ENDBRANCH  55  80
BRANCH  67  92
ATOM     92  C   UNL A   1      39.682  33.778  37.251  1.00  0.00     0.058 A 
ATOM     93  C   UNL A   1      38.917  33.391  38.363  1.00  0.00     0.135 A 
ATOM     94  C   UNL A   1      40.241  35.067  37.257  1.00  0.00     0.135 A 
ATOM     95  F   UNL A   1      38.354  32.172  38.406  1.00  0.00    -0.206 F 
ATOM     96  C   UNL A   1      38.696  34.257  39.429  1.00  0.00     0.059 A 
ATOM     97  C   UNL A   1      40.060  35.937  38.327  1.00  0.00     0.059 A 
ATOM     98  F   UNL A   1      40.989  35.485  36.224  1.00  0.00    -0.206 F 
ATOM     99  C   UNL A   1      39.275  35.527  39.404  1.00  0.00     0.060 A 
BRANCH  99 100
ATOM    100  S   UNL A   1      39.006  36.628  40.809  1.00  0.00     0.124 S 
ATOM    101  O   UNL A   1      37.897  35.969  41.490  1.00  0.00    -0.237 OA
ATOM    102  O   UNL A   1      40.293  36.575  41.495  1.00  0.00    -0.237 OA
ATOM    103  O   UNL A   1      38.687  37.907  40.183  1.00  0.00    -0.744 OA
ENDBRANCH  99 100
ENDBRANCH  67  92
ENDBRANCH  41  42
ENDBRANCH  33  36
ENDBRANCH  31  32
ENDBRANCH  30  31
ENDBRANCH  29  30
ENDBRANCH   1  29
TORSDOF 20
ENDMDL
