MODEL 1
REMARK VINA RESULT:     -13.0      0.000      0.000
REMARK SMILES Cc1ccc(C(=O)C[C@@H](C(=O)NCCCCCCNC(=O)c2ccc(-c3c4nc(c(-c5c(F)cc(S(=O)(=O)[O-])cc5F)c5ccc([nH]5)c(-c5c(F)cc(S(=O)(=O)[O-])cc5F)c5nc(c(-c6c(F)cc(S(=O)(=O)[O-])cc6F)c6ccc3[nH]6)C=C5)C=C4)cc2)[NH+]2CC[NH+](Cc3ccccc3)CC2)cc1
REMARK SMILES IDX 15 1 14 2 13 3 12 4 10 5 11 6 9 8 8 9 6 10 7 11 5 12 1 13
REMARK SMILES IDX 2 14 3 15 102 16 4 17 101 18 88 19 89 20 100 21 90 23 99 24
REMARK SMILES IDX 91 25 92 27 93 28 94 29 98 30 95 31 97 32 96 33 16 34 17 35
REMARK SMILES IDX 18 36 19 37 20 38 21 40 22 41 23 42 87 43 24 44 86 45 25 46
REMARK SMILES IDX 26 47 27 48 80 49 28 50 85 51 79 52 81 53 29 54 84 55 78 56
REMARK SMILES IDX 77 57 30 59 64 60 43 61 63 62 44 63 47 64 62 65 82 66 45 67
REMARK SMILES IDX 46 68 61 70 83 71 48 72 31 73 32 74 41 75 33 76 34 77 40 78
REMARK SMILES IDX 42 79 35 80 36 81 37 82 38 83 39 84 65 85 66 86 75 87 67 88
REMARK SMILES IDX 68 89 74 90 76 91 69 92 70 93 71 94 72 95 73 96 49 97 50 98
REMARK SMILES IDX 59 99 51 100 52 101 58 102 60 103 53 104 54 105 55 106
REMARK SMILES IDX 56 107 57 108
REMARK H PARENT 12 7 88 22 91 26 19 39 81 58 47 69
REMARK Flexibility Score: inf
ROOT
ATOM      1  C   UNL A   1      32.533  27.886  25.712  1.00  0.00     0.002 C 
ENDROOT
BRANCH   1   2
ATOM      2  C   UNL A   1      32.258  26.463  26.220  1.00  0.00     0.021 C 
BRANCH   2   3
ATOM      3  C   UNL A   1      30.799  26.210  26.587  1.00  0.00     0.116 C 
BRANCH   3   4
ATOM      4  N   UNL A   1      30.574  24.797  26.831  1.00  0.00    -0.351 N 
ATOM      5  C   UNL A   1      30.786  23.733  26.004  1.00  0.00     0.278 C 
ATOM      6  O   UNL A   1      30.228  22.671  26.303  1.00  0.00    -0.268 OA
ATOM      7  H   UNL A   1      30.216  24.574  27.720  1.00  0.00     0.163 HD
BRANCH   5   8
ATOM      8  C   UNL A   1      31.783  23.828  24.814  1.00  0.00     0.282 C 
BRANCH   8   9
ATOM      9  C   UNL A   1      31.055  23.926  23.459  1.00  0.00     0.156 C 
BRANCH   9  10
ATOM     10  C   UNL A   1      31.604  25.073  22.619  1.00  0.00     0.169 C 
ATOM     11  O   UNL A   1      32.682  24.956  22.035  1.00  0.00    -0.294 OA
BRANCH  10  12
ATOM     12  C   UNL A   1      30.913  26.398  22.623  1.00  0.00     0.018 A 
ATOM     13  C   UNL A   1      29.644  30.340  23.735  1.00  0.00     0.044 C 
ATOM     14  C   UNL A   1      30.017  28.979  23.233  1.00  0.00    -0.051 A 
ATOM     15  C   UNL A   1      31.161  28.800  22.450  1.00  0.00     0.004 A 
ATOM     16  C   UNL A   1      29.240  27.867  23.564  1.00  0.00     0.004 A 
ATOM     17  C   UNL A   1      31.609  27.513  22.141  1.00  0.00     0.012 A 
ATOM     18  C   UNL A   1      29.677  26.582  23.245  1.00  0.00     0.012 A 
ENDBRANCH  10  12
ENDBRANCH   9  10
ENDBRANCH   8   9
BRANCH   8  19
ATOM     19  N   UNL A   1      32.676  22.624  24.810  1.00  0.00    -0.315 N 
ATOM     20  C   UNL A   1      33.311  22.379  26.111  1.00  0.00     0.325 C 
ATOM     21  C   UNL A   1      32.106  21.409  24.203  1.00  0.00     0.325 C 
ATOM     22  H   UNL A   1      33.424  22.878  24.164  1.00  0.00     0.349 HD
ATOM     23  C   UNL A   1      33.635  20.908  26.439  1.00  0.00     0.324 C 
ATOM     24  C   UNL A   1      33.006  20.144  24.214  1.00  0.00     0.324 C 
ATOM     25  N   UNL A   1      33.969  20.049  25.308  1.00  0.00    -0.322 N 
ATOM     26  H   UNL A   1      33.851  19.105  25.675  1.00  0.00     0.348 HD
BRANCH  25  27
ATOM     27  C   UNL A   1      35.377  19.980  24.926  1.00  0.00     0.299 C 
BRANCH  27  28
ATOM     28  C   UNL A   1      36.248  21.222  24.905  1.00  0.00     0.006 A 
ATOM     29  C   UNL A   1      36.045  22.167  23.884  1.00  0.00     0.009 A 
ATOM     30  C   UNL A   1      37.157  21.557  25.918  1.00  0.00     0.009 A 
ATOM     31  C   UNL A   1      36.753  23.372  23.859  1.00  0.00     0.001 A 
ATOM     32  C   UNL A   1      37.887  22.748  25.882  1.00  0.00     0.001 A 
ATOM     33  C   UNL A   1      37.684  23.657  24.852  1.00  0.00     0.000 A 
ENDBRANCH  27  28
ENDBRANCH  25  27
ENDBRANCH   8  19
ENDBRANCH   5   8
ENDBRANCH   3   4
ENDBRANCH   2   3
ENDBRANCH   1   2
BRANCH   1  34
ATOM     34  C   UNL A   1      31.897  29.021  26.526  1.00  0.00     0.002 C 
BRANCH  34  35
ATOM     35  C   UNL A   1      32.869  30.049  27.107  1.00  0.00     0.021 C 
BRANCH  35  36
ATOM     36  C   UNL A   1      34.270  29.531  27.379  1.00  0.00     0.116 C 
BRANCH  36  37
ATOM     37  N   UNL A   1      35.354  30.462  27.126  1.00  0.00    -0.352 N 
ATOM     38  C   UNL A   1      36.199  30.758  28.190  1.00  0.00     0.251 C 
ATOM     39  H   UNL A   1      35.485  30.868  26.238  1.00  0.00     0.163 HD
ATOM     40  O   UNL A   1      36.002  31.633  29.023  1.00  0.00    -0.269 OA
BRANCH  38  41
ATOM     41  C   UNL A   1      37.218  29.712  28.419  1.00  0.00     0.039 A 
ATOM     42  C   UNL A   1      37.268  28.963  29.593  1.00  0.00     0.014 A 
ATOM     43  C   UNL A   1      38.234  29.626  27.463  1.00  0.00     0.014 A 
ATOM     44  C   UNL A   1      38.412  28.205  29.861  1.00  0.00     0.010 A 
ATOM     45  C   UNL A   1      39.389  28.947  27.763  1.00  0.00     0.010 A 
ATOM     46  C   UNL A   1      39.488  28.254  28.971  1.00  0.00    -0.014 A 
BRANCH  46  47
ATOM     47  C   UNL A   1      40.791  27.649  29.193  1.00  0.00     0.031 A 
ATOM     48  C   UNL A   1      41.082  26.293  28.691  1.00  0.00     0.074 A 
ATOM     49  C   UNL A   1      41.792  28.422  29.661  1.00  0.00     0.049 A 
ATOM     50  N   UNL A   1      42.068  25.574  29.109  1.00  0.00    -0.248 NA
ATOM     51  C   UNL A   1      40.269  25.630  27.674  1.00  0.00     0.031 C 
ATOM     52  C   UNL A   1      43.226  28.167  29.585  1.00  0.00     0.029 A 
ATOM     53  N   UNL A   1      41.682  29.542  30.487  1.00  0.00    -0.354 N 
ATOM     54  C   UNL A   1      42.195  24.513  28.245  1.00  0.00     0.074 A 
ATOM     55  C   UNL A   1      41.011  24.547  27.415  1.00  0.00     0.031 C 
ATOM     56  C   UNL A   1      43.847  28.913  30.512  1.00  0.00     0.029 A 
ATOM     57  C   UNL A   1      42.817  29.539  31.324  1.00  0.00     0.049 A 
ATOM     58  H   UNL A   1      40.954  30.204  30.485  1.00  0.00     0.167 HD
ATOM     59  C   UNL A   1      43.351  23.796  28.215  1.00  0.00     0.037 A 
ATOM     60  C   UNL A   1      42.660  29.358  32.670  1.00  0.00     0.037 A 
ATOM     61  C   UNL A   1      44.329  24.288  29.182  1.00  0.00     0.049 A 
ATOM     62  C   UNL A   1      43.277  28.080  33.208  1.00  0.00     0.074 A 
ATOM     63  C   UNL A   1      45.443  25.108  29.100  1.00  0.00     0.029 A 
ATOM     64  N   UNL A   1      44.035  24.191  30.530  1.00  0.00    -0.354 N 
ATOM     65  N   UNL A   1      43.873  27.177  32.478  1.00  0.00    -0.248 NA
ATOM     66  C   UNL A   1      43.208  27.691  34.616  1.00  0.00     0.031 C 
ATOM     67  C   UNL A   1      45.813  25.497  30.419  1.00  0.00     0.029 A 
ATOM     68  C   UNL A   1      44.925  24.914  31.302  1.00  0.00     0.049 A 
ATOM     69  H   UNL A   1      43.283  23.672  30.895  1.00  0.00     0.167 HD
ATOM     70  C   UNL A   1      44.191  26.093  33.255  1.00  0.00     0.074 A 
ATOM     71  C   UNL A   1      43.770  26.470  34.592  1.00  0.00     0.031 C 
ATOM     72  C   UNL A   1      44.734  24.951  32.741  1.00  0.00     0.037 A 
BRANCH  59  73
ATOM     73  C   UNL A   1      43.647  22.815  27.113  1.00  0.00     0.058 A 
ATOM     74  C   UNL A   1      42.968  21.582  27.036  1.00  0.00     0.135 A 
ATOM     75  C   UNL A   1      44.632  23.025  26.127  1.00  0.00     0.135 A 
ATOM     76  F   UNL A   1      41.973  21.276  27.877  1.00  0.00    -0.206 F 
ATOM     77  C   UNL A   1      43.306  20.594  26.115  1.00  0.00     0.059 A 
ATOM     78  C   UNL A   1      45.021  22.031  25.223  1.00  0.00     0.059 A 
ATOM     79  F   UNL A   1      45.250  24.213  26.015  1.00  0.00    -0.206 F 
ATOM     80  C   UNL A   1      44.355  20.812  25.231  1.00  0.00     0.060 A 
BRANCH  80  81
ATOM     81  S   UNL A   1      44.848  19.467  24.136  1.00  0.00     0.124 S 
ATOM     82  O   UNL A   1      44.081  18.341  24.661  1.00  0.00    -0.237 OA
ATOM     83  O   UNL A   1      44.426  19.968  22.833  1.00  0.00    -0.237 OA
ATOM     84  O   UNL A   1      46.292  19.377  24.338  1.00  0.00    -0.744 OA
ENDBRANCH  80  81
ENDBRANCH  59  73
BRANCH  60  85
ATOM     85  C   UNL A   1      41.408  29.997  33.176  1.00  0.00     0.058 A 
ATOM     86  C   UNL A   1      41.417  31.396  33.357  1.00  0.00     0.135 A 
ATOM     87  C   UNL A   1      40.161  29.377  33.011  1.00  0.00     0.135 A 
ATOM     88  F   UNL A   1      42.580  32.038  33.552  1.00  0.00    -0.206 F 
ATOM     89  C   UNL A   1      40.272  32.165  33.174  1.00  0.00     0.059 A 
ATOM     90  C   UNL A   1      38.996  30.130  32.848  1.00  0.00     0.059 A 
ATOM     91  F   UNL A   1      40.084  28.048  32.852  1.00  0.00    -0.206 F 
ATOM     92  C   UNL A   1      39.081  31.522  32.841  1.00  0.00     0.060 A 
BRANCH  92  93
ATOM     93  S   UNL A   1      37.709  32.537  32.237  1.00  0.00     0.124 S 
ATOM     94  O   UNL A   1      37.661  33.606  33.228  1.00  0.00    -0.237 OA
ATOM     95  O   UNL A   1      38.176  32.926  30.905  1.00  0.00    -0.237 OA
ATOM     96  O   UNL A   1      36.578  31.614  32.252  1.00  0.00    -0.744 OA
ENDBRANCH  92  93
ENDBRANCH  60  85
BRANCH  72  97
ATOM     97  C   UNL A   1      45.124  23.753  33.566  1.00  0.00     0.058 A 
ATOM     98  C   UNL A   1      44.183  22.832  34.053  1.00  0.00     0.135 A 
ATOM     99  C   UNL A   1      46.455  23.566  34.006  1.00  0.00     0.135 A 
ATOM    100  F   UNL A   1      42.879  22.962  33.758  1.00  0.00    -0.206 F 
ATOM    101  C   UNL A   1      44.545  21.763  34.876  1.00  0.00     0.059 A 
ATOM    102  C   UNL A   1      46.829  22.540  34.867  1.00  0.00     0.059 A 
ATOM    103  F   UNL A   1      47.450  24.362  33.589  1.00  0.00    -0.206 F 
ATOM    104  C   UNL A   1      45.873  21.625  35.276  1.00  0.00     0.060 A 
BRANCH 104 105
ATOM    105  S   UNL A   1      46.342  20.253  36.346  1.00  0.00     0.124 S 
ATOM    106  O   UNL A   1      45.759  19.102  35.662  1.00  0.00    -0.237 OA
ATOM    107  O   UNL A   1      47.799  20.339  36.305  1.00  0.00    -0.237 OA
ATOM    108  O   UNL A   1      45.726  20.592  37.625  1.00  0.00    -0.744 OA
ENDBRANCH 104 105
ENDBRANCH  72  97
ENDBRANCH  46  47
ENDBRANCH  38  41
ENDBRANCH  36  37
ENDBRANCH  35  36
ENDBRANCH  34  35
ENDBRANCH   1  34
TORSDOF 22
ENDMDL
MODEL 2
REMARK VINA RESULT:     -12.9      1.633      3.797
REMARK SMILES Cc1ccc(C(=O)C[C@@H](C(=O)NCCCCCCNC(=O)c2ccc(-c3c4nc(c(-c5c(F)cc(S(=O)(=O)[O-])cc5F)c5ccc([nH]5)c(-c5c(F)cc(S(=O)(=O)[O-])cc5F)c5nc(c(-c6c(F)cc(S(=O)(=O)[O-])cc6F)c6ccc3[nH]6)C=C5)C=C4)cc2)[NH+]2CC[NH+](Cc3ccccc3)CC2)cc1
REMARK SMILES IDX 15 1 14 2 13 3 12 4 10 5 11 6 9 8 8 9 6 10 7 11 5 12 1 13
REMARK SMILES IDX 2 14 3 15 102 16 4 17 101 18 88 19 89 20 100 21 90 23 99 24
REMARK SMILES IDX 91 25 92 27 93 28 94 29 98 30 95 31 97 32 96 33 16 34 17 35
REMARK SMILES IDX 18 36 19 37 20 38 21 40 22 41 23 42 87 43 24 44 86 45 25 46
REMARK SMILES IDX 26 47 27 48 80 49 28 50 85 51 79 52 81 53 29 54 84 55 78 56
REMARK SMILES IDX 77 57 30 59 64 60 43 61 63 62 44 63 47 64 62 65 82 66 45 67
REMARK SMILES IDX 46 68 61 70 83 71 48 72 31 73 32 74 41 75 33 76 34 77 40 78
REMARK SMILES IDX 42 79 35 80 36 81 37 82 38 83 39 84 65 85 66 86 75 87 67 88
REMARK SMILES IDX 68 89 74 90 76 91 69 92 70 93 71 94 72 95 73 96 49 97 50 98
REMARK SMILES IDX 59 99 51 100 52 101 58 102 60 103 53 104 54 105 55 106
REMARK SMILES IDX 56 107 57 108
REMARK H PARENT 12 7 88 22 91 26 19 39 81 58 47 69
REMARK Flexibility Score: inf
ROOT
ATOM      1  C   UNL A   1      32.198  27.242  25.154  1.00  0.00     0.002 C 
ENDROOT
BRANCH   1   2
ATOM      2  C   UNL A   1      30.690  26.970  25.251  1.00  0.00     0.021 C 
BRANCH   2   3
ATOM      3  C   UNL A   1      30.321  25.493  25.153  1.00  0.00     0.116 C 
BRANCH   3   4
ATOM      4  N   UNL A   1      30.718  24.788  26.358  1.00  0.00    -0.351 N 
ATOM      5  C   UNL A   1      31.140  23.500  26.505  1.00  0.00     0.278 C 
ATOM      6  O   UNL A   1      31.115  23.029  27.648  1.00  0.00    -0.268 OA
ATOM      7  H   UNL A   1      30.677  25.315  27.188  1.00  0.00     0.163 HD
BRANCH   5   8
ATOM      8  C   UNL A   1      31.740  22.710  25.306  1.00  0.00     0.282 C 
BRANCH   8   9
ATOM      9  C   UNL A   1      31.465  21.197  25.419  1.00  0.00     0.156 C 
BRANCH   9  10
ATOM     10  C   UNL A   1      32.315  20.407  24.432  1.00  0.00     0.169 C 
ATOM     11  O   UNL A   1      32.306  20.692  23.234  1.00  0.00    -0.294 OA
BRANCH  10  12
ATOM     12  C   UNL A   1      33.048  19.186  24.888  1.00  0.00     0.018 A 
ATOM     13  C   UNL A   1      34.887  15.313  24.956  1.00  0.00     0.044 C 
ATOM     14  C   UNL A   1      34.295  16.686  25.056  1.00  0.00    -0.051 A 
ATOM     15  C   UNL A   1      35.017  17.804  24.626  1.00  0.00     0.004 A 
ATOM     16  C   UNL A   1      33.003  16.863  25.553  1.00  0.00     0.004 A 
ATOM     17  C   UNL A   1      34.398  19.053  24.545  1.00  0.00     0.012 A 
ATOM     18  C   UNL A   1      32.387  18.112  25.486  1.00  0.00     0.012 A 
ENDBRANCH  10  12
ENDBRANCH   9  10
ENDBRANCH   8   9
BRANCH   8  19
ATOM     19  N   UNL A   1      33.220  22.941  25.243  1.00  0.00    -0.315 N 
ATOM     20  C   UNL A   1      33.591  24.013  24.311  1.00  0.00     0.325 C 
ATOM     21  C   UNL A   1      33.906  23.035  26.543  1.00  0.00     0.325 C 
ATOM     22  H   UNL A   1      33.585  22.073  24.849  1.00  0.00     0.349 HD
ATOM     23  C   UNL A   1      34.876  24.792  24.656  1.00  0.00     0.324 C 
ATOM     24  C   UNL A   1      35.435  23.302  26.498  1.00  0.00     0.324 C 
ATOM     25  N   UNL A   1      35.925  24.045  25.340  1.00  0.00    -0.322 N 
ATOM     26  H   UNL A   1      36.524  24.770  25.733  1.00  0.00     0.348 HD
BRANCH  25  27
ATOM     27  C   UNL A   1      36.903  23.360  24.498  1.00  0.00     0.299 C 
BRANCH  27  28
ATOM     28  C   UNL A   1      37.687  22.169  25.016  1.00  0.00     0.006 A 
ATOM     29  C   UNL A   1      37.319  20.883  24.580  1.00  0.00     0.009 A 
ATOM     30  C   UNL A   1      38.844  22.273  25.799  1.00  0.00     0.009 A 
ATOM     31  C   UNL A   1      38.054  19.753  24.951  1.00  0.00     0.001 A 
ATOM     32  C   UNL A   1      39.566  21.144  26.194  1.00  0.00     0.001 A 
ATOM     33  C   UNL A   1      39.171  19.883  25.768  1.00  0.00     0.000 A 
ENDBRANCH  27  28
ENDBRANCH  25  27
ENDBRANCH   8  19
ENDBRANCH   5   8
ENDBRANCH   3   4
ENDBRANCH   2   3
ENDBRANCH   1   2
BRANCH   1  34
ATOM     34  C   UNL A   1      32.927  27.446  26.488  1.00  0.00     0.002 C 
BRANCH  34  35
ATOM     35  C   UNL A   1      34.079  28.453  26.471  1.00  0.00     0.021 C 
BRANCH  35  36
ATOM     36  C   UNL A   1      33.790  29.776  27.157  1.00  0.00     0.116 C 
BRANCH  36  37
ATOM     37  N   UNL A   1      34.831  30.784  27.063  1.00  0.00    -0.352 N 
ATOM     38  C   UNL A   1      35.565  31.047  28.214  1.00  0.00     0.251 C 
ATOM     39  H   UNL A   1      35.008  31.261  26.220  1.00  0.00     0.163 HD
ATOM     40  O   UNL A   1      35.246  31.845  29.085  1.00  0.00    -0.269 OA
BRANCH  38  41
ATOM     41  C   UNL A   1      36.625  30.047  28.457  1.00  0.00     0.039 A 
ATOM     42  C   UNL A   1      36.747  29.367  29.667  1.00  0.00     0.014 A 
ATOM     43  C   UNL A   1      37.605  29.938  27.465  1.00  0.00     0.014 A 
ATOM     44  C   UNL A   1      37.925  28.660  29.928  1.00  0.00     0.010 A 
ATOM     45  C   UNL A   1      38.792  29.312  27.753  1.00  0.00     0.010 A 
ATOM     46  C   UNL A   1      38.962  28.690  28.992  1.00  0.00    -0.014 A 
BRANCH  46  47
ATOM     47  C   UNL A   1      40.291  28.139  29.192  1.00  0.00     0.031 A 
ATOM     48  C   UNL A   1      40.605  26.765  28.757  1.00  0.00     0.074 A 
ATOM     49  C   UNL A   1      41.286  28.967  29.572  1.00  0.00     0.049 A 
ATOM     50  N   UNL A   1      41.629  26.101  29.172  1.00  0.00    -0.248 NA
ATOM     51  C   UNL A   1      39.772  26.020  27.815  1.00  0.00     0.031 C 
ATOM     52  C   UNL A   1      42.723  28.750  29.449  1.00  0.00     0.029 A 
ATOM     53  N   UNL A   1      41.174  30.129  30.337  1.00  0.00    -0.354 N 
ATOM     54  C   UNL A   1      41.755  24.996  28.365  1.00  0.00     0.074 A 
ATOM     55  C   UNL A   1      40.537  24.946  27.586  1.00  0.00     0.031 C 
ATOM     56  C   UNL A   1      43.358  29.568  30.304  1.00  0.00     0.029 A 
ATOM     57  C   UNL A   1      42.342  30.208  31.123  1.00  0.00     0.049 A 
ATOM     58  H   UNL A   1      40.426  30.769  30.328  1.00  0.00     0.167 HD
ATOM     59  C   UNL A   1      42.931  24.312  28.327  1.00  0.00     0.037 A 
ATOM     60  C   UNL A   1      42.247  30.102  32.482  1.00  0.00     0.037 A 
ATOM     61  C   UNL A   1      43.932  24.889  29.221  1.00  0.00     0.049 A 
ATOM     62  C   UNL A   1      42.926  28.877  33.066  1.00  0.00     0.074 A 
ATOM     63  C   UNL A   1      45.014  25.735  29.045  1.00  0.00     0.029 A 
ATOM     64  N   UNL A   1      43.697  24.862  30.584  1.00  0.00    -0.354 N 
ATOM     65  N   UNL A   1      43.520  27.951  32.363  1.00  0.00    -0.248 NA
ATOM     66  C   UNL A   1      42.927  28.568  34.495  1.00  0.00     0.031 C 
ATOM     67  C   UNL A   1      45.426  26.212  30.322  1.00  0.00     0.029 A 
ATOM     68  C   UNL A   1      44.595  25.655  31.274  1.00  0.00     0.049 A 
ATOM     69  H   UNL A   1      42.977  24.343  31.010  1.00  0.00     0.167 HD
ATOM     70  C   UNL A   1      43.904  26.924  33.187  1.00  0.00     0.074 A 
ATOM     71  C   UNL A   1      43.527  27.365  34.516  1.00  0.00     0.031 C 
ATOM     72  C   UNL A   1      44.462  25.770  32.716  1.00  0.00     0.037 A 
BRANCH  59  73
ATOM     73  C   UNL A   1      43.213  23.278  27.270  1.00  0.00     0.058 A 
ATOM     74  C   UNL A   1      42.808  21.939  27.439  1.00  0.00     0.135 A 
ATOM     75  C   UNL A   1      43.925  23.549  26.085  1.00  0.00     0.135 A 
ATOM     76  F   UNL A   1      42.078  21.554  28.494  1.00  0.00    -0.206 F 
ATOM     77  C   UNL A   1      43.165  20.928  26.551  1.00  0.00     0.059 A 
ATOM     78  C   UNL A   1      44.336  22.544  25.203  1.00  0.00     0.059 A 
ATOM     79  F   UNL A   1      44.246  24.810  25.749  1.00  0.00    -0.206 F 
ATOM     80  C   UNL A   1      43.957  21.231  25.451  1.00  0.00     0.060 A 
BRANCH  80  81
ATOM     81  S   UNL A   1      44.506  19.880  24.390  1.00  0.00     0.124 S 
ATOM     82  O   UNL A   1      45.776  19.500  25.002  1.00  0.00    -0.237 OA
ATOM     83  O   UNL A   1      43.419  18.919  24.538  1.00  0.00    -0.237 OA
ATOM     84  O   UNL A   1      44.618  20.506  23.074  1.00  0.00    -0.744 OA
ENDBRANCH  80  81
ENDBRANCH  59  73
BRANCH  60  85
ATOM     85  C   UNL A   1      40.997  30.732  33.005  1.00  0.00     0.058 A 
ATOM     86  C   UNL A   1      39.920  29.879  33.324  1.00  0.00     0.135 A 
ATOM     87  C   UNL A   1      41.024  31.992  33.620  1.00  0.00     0.135 A 
ATOM     88  F   UNL A   1      39.826  28.673  32.739  1.00  0.00    -0.206 F 
ATOM     89  C   UNL A   1      39.032  30.174  34.355  1.00  0.00     0.059 A 
ATOM     90  C   UNL A   1      40.128  32.317  34.641  1.00  0.00     0.059 A 
ATOM     91  F   UNL A   1      42.012  32.856  33.345  1.00  0.00    -0.206 F 
ATOM     92  C   UNL A   1      39.199  31.364  35.059  1.00  0.00     0.060 A 
BRANCH  92  93
ATOM     93  S   UNL A   1      38.300  31.561  36.618  1.00  0.00     0.124 S 
ATOM     94  O   UNL A   1      39.336  32.083  37.503  1.00  0.00    -0.237 OA
ATOM     95  O   UNL A   1      37.244  32.506  36.248  1.00  0.00    -0.237 OA
ATOM     96  O   UNL A   1      37.843  30.207  36.915  1.00  0.00    -0.744 OA
ENDBRANCH  92  93
ENDBRANCH  60  85
BRANCH  72  97
ATOM     97  C   UNL A   1      44.923  24.634  33.590  1.00  0.00     0.058 A 
ATOM     98  C   UNL A   1      46.261  24.480  33.986  1.00  0.00     0.135 A 
ATOM     99  C   UNL A   1      44.048  23.584  33.952  1.00  0.00     0.135 A 
ATOM    100  F   UNL A   1      47.190  25.382  33.632  1.00  0.00    -0.206 F 
ATOM    101  C   UNL A   1      46.692  23.385  34.740  1.00  0.00     0.059 A 
ATOM    102  C   UNL A   1      44.466  22.460  34.655  1.00  0.00     0.059 A 
ATOM    103  F   UNL A   1      42.741  23.627  33.656  1.00  0.00    -0.206 F 
ATOM    104  C   UNL A   1      45.785  22.381  35.071  1.00  0.00     0.060 A 
BRANCH 104 105
ATOM    105  S   UNL A   1      46.340  20.962  36.034  1.00  0.00     0.124 S 
ATOM    106  O   UNL A   1      45.727  21.202  37.337  1.00  0.00    -0.237 OA
ATOM    107  O   UNL A   1      45.778  19.855  35.267  1.00  0.00    -0.237 OA
ATOM    108  O   UNL A   1      47.795  21.077  36.002  1.00  0.00    -0.744 OA
ENDBRANCH 104 105
ENDBRANCH  72  97
ENDBRANCH  46  47
ENDBRANCH  38  41
ENDBRANCH  36  37
ENDBRANCH  35  36
ENDBRANCH  34  35
ENDBRANCH   1  34
TORSDOF 22
ENDMDL
MODEL 3
REMARK VINA RESULT:     -12.6      4.661     11.106
REMARK SMILES Cc1ccc(C(=O)C[C@@H](C(=O)NCCCCCCNC(=O)c2ccc(-c3c4nc(c(-c5c(F)cc(S(=O)(=O)[O-])cc5F)c5ccc([nH]5)c(-c5c(F)cc(S(=O)(=O)[O-])cc5F)c5nc(c(-c6c(F)cc(S(=O)(=O)[O-])cc6F)c6ccc3[nH]6)C=C5)C=C4)cc2)[NH+]2CC[NH+](Cc3ccccc3)CC2)cc1
REMARK SMILES IDX 15 1 14 2 13 3 12 4 10 5 11 6 9 8 8 9 6 10 7 11 5 12 1 13
REMARK SMILES IDX 2 14 3 15 102 16 4 17 101 18 88 19 89 20 100 21 90 23 99 24
REMARK SMILES IDX 91 25 92 27 93 28 94 29 98 30 95 31 97 32 96 33 16 34 17 35
REMARK SMILES IDX 18 36 19 37 20 38 21 40 22 41 23 42 87 43 24 44 86 45 25 46
REMARK SMILES IDX 26 47 27 48 80 49 28 50 85 51 79 52 81 53 29 54 84 55 78 56
REMARK SMILES IDX 77 57 30 59 64 60 43 61 63 62 44 63 47 64 62 65 82 66 45 67
REMARK SMILES IDX 46 68 61 70 83 71 48 72 31 73 32 74 41 75 33 76 34 77 40 78
REMARK SMILES IDX 42 79 35 80 36 81 37 82 38 83 39 84 65 85 66 86 75 87 67 88
REMARK SMILES IDX 68 89 74 90 76 91 69 92 70 93 71 94 72 95 73 96 49 97 50 98
REMARK SMILES IDX 59 99 51 100 52 101 58 102 60 103 53 104 54 105 55 106
REMARK SMILES IDX 56 107 57 108
REMARK H PARENT 12 7 88 22 91 26 19 39 81 58 47 69
REMARK Flexibility Score: inf
ROOT
ATOM      1  C   UNL A   1      35.228  22.798  26.378  1.00  0.00     0.002 C 
ENDROOT
BRANCH   1   2
ATOM      2  C   UNL A   1      34.615  23.907  25.510  1.00  0.00     0.021 C 
BRANCH   2   3
ATOM      3  C   UNL A   1      33.439  24.626  26.166  1.00  0.00     0.116 C 
BRANCH   3   4
ATOM      4  N   UNL A   1      32.395  23.679  26.514  1.00  0.00    -0.351 N 
ATOM      5  C   UNL A   1      31.308  23.287  25.789  1.00  0.00     0.278 C 
ATOM      6  O   UNL A   1      30.397  22.724  26.407  1.00  0.00    -0.268 OA
ATOM      7  H   UNL A   1      32.483  23.262  27.400  1.00  0.00     0.163 HD
BRANCH   5   8
ATOM      8  C   UNL A   1      31.282  23.432  24.241  1.00  0.00     0.282 C 
BRANCH   8   9
ATOM      9  C   UNL A   1      32.511  22.777  23.580  1.00  0.00     0.156 C 
BRANCH   9  10
ATOM     10  C   UNL A   1      32.152  21.435  22.955  1.00  0.00     0.169 C 
ATOM     11  O   UNL A   1      31.421  21.383  21.966  1.00  0.00    -0.294 OA
BRANCH  10  12
ATOM     12  C   UNL A   1      32.560  20.165  23.630  1.00  0.00     0.018 A 
ATOM     13  C   UNL A   1      32.422  16.401  25.681  1.00  0.00     0.044 C 
ATOM     14  C   UNL A   1      32.604  17.698  24.953  1.00  0.00    -0.051 A 
ATOM     15  C   UNL A   1      32.530  17.745  23.557  1.00  0.00     0.004 A 
ATOM     16  C   UNL A   1      32.821  18.881  25.661  1.00  0.00     0.004 A 
ATOM     17  C   UNL A   1      32.512  18.975  22.895  1.00  0.00     0.012 A 
ATOM     18  C   UNL A   1      32.817  20.109  25.001  1.00  0.00     0.012 A 
ENDBRANCH  10  12
ENDBRANCH   9  10
ENDBRANCH   8   9
BRANCH   8  19
ATOM     19  N   UNL A   1      31.237  24.885  23.873  1.00  0.00    -0.315 N 
ATOM     20  C   UNL A   1      32.115  25.216  22.744  1.00  0.00     0.325 C 
ATOM     21  C   UNL A   1      29.890  25.471  23.756  1.00  0.00     0.325 C 
ATOM     22  H   UNL A   1      31.624  25.355  24.692  1.00  0.00     0.349 HD
ATOM     23  C   UNL A   1      31.663  26.397  21.862  1.00  0.00     0.324 C 
ATOM     24  C   UNL A   1      29.823  26.968  23.350  1.00  0.00     0.324 C 
ATOM     25  N   UNL A   1      30.926  27.463  22.530  1.00  0.00    -0.322 N 
ATOM     26  H   UNL A   1      30.475  27.964  21.765  1.00  0.00     0.348 HD
BRANCH  25  27
ATOM     27  C   UNL A   1      31.714  28.555  23.097  1.00  0.00     0.299 C 
BRANCH  27  28
ATOM     28  C   UNL A   1      32.312  28.452  24.487  1.00  0.00     0.006 A 
ATOM     29  C   UNL A   1      31.465  28.622  25.597  1.00  0.00     0.009 A 
ATOM     30  C   UNL A   1      33.635  28.066  24.743  1.00  0.00     0.009 A 
ATOM     31  C   UNL A   1      31.937  28.454  26.902  1.00  0.00     0.001 A 
ATOM     32  C   UNL A   1      34.117  27.923  26.047  1.00  0.00     0.001 A 
ATOM     33  C   UNL A   1      33.267  28.117  27.127  1.00  0.00     0.000 A 
ENDBRANCH  27  28
ENDBRANCH  25  27
ENDBRANCH   8  19
ENDBRANCH   5   8
ENDBRANCH   3   4
ENDBRANCH   2   3
ENDBRANCH   1   2
BRANCH   1  34
ATOM     34  C   UNL A   1      36.005  21.712  25.623  1.00  0.00     0.002 C 
BRANCH  34  35
ATOM     35  C   UNL A   1      37.491  21.994  25.394  1.00  0.00     0.021 C 
BRANCH  35  36
ATOM     36  C   UNL A   1      37.996  23.303  25.973  1.00  0.00     0.116 C 
BRANCH  36  37
ATOM     37  N   UNL A   1      38.784  23.201  27.188  1.00  0.00    -0.352 N 
ATOM     38  C   UNL A   1      39.990  23.893  27.222  1.00  0.00     0.251 C 
ATOM     39  H   UNL A   1      38.478  22.664  27.954  1.00  0.00     0.163 HD
ATOM     40  O   UNL A   1      41.060  23.462  26.812  1.00  0.00    -0.269 OA
BRANCH  38  41
ATOM     41  C   UNL A   1      39.817  25.330  27.516  1.00  0.00     0.039 A 
ATOM     42  C   UNL A   1      40.282  26.328  26.663  1.00  0.00     0.014 A 
ATOM     43  C   UNL A   1      39.305  25.641  28.780  1.00  0.00     0.014 A 
ATOM     44  C   UNL A   1      40.341  27.644  27.132  1.00  0.00     0.010 A 
ATOM     45  C   UNL A   1      39.438  26.917  29.269  1.00  0.00     0.010 A 
ATOM     46  C   UNL A   1      39.976  27.915  28.453  1.00  0.00    -0.014 A 
BRANCH  46  47
ATOM     47  C   UNL A   1      40.132  29.195  29.123  1.00  0.00     0.031 A 
ATOM     48  C   UNL A   1      39.071  30.217  29.042  1.00  0.00     0.074 A 
ATOM     49  C   UNL A   1      41.150  29.350  29.995  1.00  0.00     0.049 A 
ATOM     50  N   UNL A   1      39.257  31.462  29.324  1.00  0.00    -0.248 NA
ATOM     51  C   UNL A   1      37.706  29.914  28.622  1.00  0.00     0.031 C 
ATOM     52  C   UNL A   1      41.276  30.349  31.050  1.00  0.00     0.029 A 
ATOM     53  N   UNL A   1      42.392  28.714  29.968  1.00  0.00    -0.354 N 
ATOM     54  C   UNL A   1      38.018  32.051  29.407  1.00  0.00     0.074 A 
ATOM     55  C   UNL A   1      37.089  31.071  28.889  1.00  0.00     0.031 C 
ATOM     56  C   UNL A   1      42.569  30.450  31.397  1.00  0.00     0.029 A 
ATOM     57  C   UNL A   1      43.331  29.645  30.457  1.00  0.00     0.049 A 
ATOM     58  H   UNL A   1      42.576  27.796  29.667  1.00  0.00     0.167 HD
ATOM     59  C   UNL A   1      37.876  33.249  30.036  1.00  0.00     0.037 A 
ATOM     60  C   UNL A   1      44.303  30.123  29.622  1.00  0.00     0.037 A 
ATOM     61  C   UNL A   1      39.148  33.760  30.540  1.00  0.00     0.049 A 
ATOM     62  C   UNL A   1      44.209  31.609  29.334  1.00  0.00     0.074 A 
ATOM     63  C   UNL A   1      39.765  33.768  31.781  1.00  0.00     0.029 A 
ATOM     64  N   UNL A   1      40.135  34.096  29.631  1.00  0.00    -0.354 N 
ATOM     65  N   UNL A   1      43.269  32.395  29.783  1.00  0.00    -0.248 NA
ATOM     66  C   UNL A   1      45.141  32.313  28.453  1.00  0.00     0.031 C 
ATOM     67  C   UNL A   1      41.134  34.116  31.601  1.00  0.00     0.029 A 
ATOM     68  C   UNL A   1      41.349  34.320  30.252  1.00  0.00     0.049 A 
ATOM     69  H   UNL A   1      39.990  34.165  28.660  1.00  0.00     0.167 HD
ATOM     70  C   UNL A   1      43.405  33.641  29.225  1.00  0.00     0.074 A 
ATOM     71  C   UNL A   1      44.604  33.545  28.413  1.00  0.00     0.031 C 
ATOM     72  C   UNL A   1      42.504  34.645  29.434  1.00  0.00     0.037 A 
BRANCH  59  73
ATOM     73  C   UNL A   1      36.522  33.800  30.396  1.00  0.00     0.058 A 
ATOM     74  C   UNL A   1      35.612  34.198  29.397  1.00  0.00     0.135 A 
ATOM     75  C   UNL A   1      36.090  34.000  31.723  1.00  0.00     0.135 A 
ATOM     76  F   UNL A   1      35.872  34.015  28.097  1.00  0.00    -0.206 F 
ATOM     77  C   UNL A   1      34.407  34.834  29.688  1.00  0.00     0.059 A 
ATOM     78  C   UNL A   1      34.909  34.679  32.039  1.00  0.00     0.059 A 
ATOM     79  F   UNL A   1      36.812  33.538  32.757  1.00  0.00    -0.206 F 
ATOM     80  C   UNL A   1      34.076  35.101  31.010  1.00  0.00     0.060 A 
BRANCH  80  81
ATOM     81  S   UNL A   1      32.571  36.037  31.346  1.00  0.00     0.124 S 
ATOM     82  O   UNL A   1      31.812  35.114  32.184  1.00  0.00    -0.237 OA
ATOM     83  O   UNL A   1      33.096  37.219  32.020  1.00  0.00    -0.237 OA
ATOM     84  O   UNL A   1      32.011  36.267  30.017  1.00  0.00    -0.744 OA
ENDBRANCH  80  81
ENDBRANCH  59  73
BRANCH  60  85
ATOM     85  C   UNL A   1      44.773  29.080  28.659  1.00  0.00     0.058 A 
ATOM     86  C   UNL A   1      44.298  29.155  27.334  1.00  0.00     0.135 A 
ATOM     87  C   UNL A   1      45.968  28.381  28.877  1.00  0.00     0.135 A 
ATOM     88  F   UNL A   1      43.140  29.784  27.072  1.00  0.00    -0.206 F 
ATOM     89  C   UNL A   1      45.072  28.742  26.254  1.00  0.00     0.059 A 
ATOM     90  C   UNL A   1      46.751  27.938  27.807  1.00  0.00     0.059 A 
ATOM     91  F   UNL A   1      46.464  28.260  30.116  1.00  0.00    -0.206 F 
ATOM     92  C   UNL A   1      46.334  28.206  26.503  1.00  0.00     0.060 A 
BRANCH  92  93
ATOM     93  S   UNL A   1      47.473  28.030  25.107  1.00  0.00     0.124 S 
ATOM     94  O   UNL A   1      46.716  28.638  24.018  1.00  0.00    -0.237 OA
ATOM     95  O   UNL A   1      48.642  28.783  25.566  1.00  0.00    -0.237 OA
ATOM     96  O   UNL A   1      47.664  26.587  25.010  1.00  0.00    -0.744 OA
ENDBRANCH  92  93
ENDBRANCH  60  85
BRANCH  72  97
ATOM     97  C   UNL A   1      42.636  36.033  28.863  1.00  0.00     0.058 A 
ATOM     98  C   UNL A   1      42.196  36.364  27.572  1.00  0.00     0.135 A 
ATOM     99  C   UNL A   1      43.333  37.048  29.558  1.00  0.00     0.135 A 
ATOM    100  F   UNL A   1      41.589  35.450  26.798  1.00  0.00    -0.206 F 
ATOM    101  C   UNL A   1      42.386  37.636  27.026  1.00  0.00     0.059 A 
ATOM    102  C   UNL A   1      43.580  38.304  29.012  1.00  0.00     0.059 A 
ATOM    103  F   UNL A   1      43.779  36.865  30.808  1.00  0.00    -0.206 F 
ATOM    104  C   UNL A   1      43.077  38.600  27.756  1.00  0.00     0.060 A 
BRANCH 104 105
ATOM    105  S   UNL A   1      43.332  40.238  27.049  1.00  0.00     0.124 S 
ATOM    106  O   UNL A   1      42.222  40.355  26.108  1.00  0.00    -0.237 OA
ATOM    107  O   UNL A   1      43.244  41.082  28.237  1.00  0.00    -0.237 OA
ATOM    108  O   UNL A   1      44.655  40.144  26.440  1.00  0.00    -0.744 OA
ENDBRANCH 104 105
ENDBRANCH  72  97
ENDBRANCH  46  47
ENDBRANCH  38  41
ENDBRANCH  36  37
ENDBRANCH  35  36
ENDBRANCH  34  35
ENDBRANCH   1  34
TORSDOF 22
ENDMDL
