MODEL 1
REMARK VINA RESULT:      -9.2      0.000      0.000
REMARK SMILES O=C(NCCCCCCNC(=O)[C@]1([NH2+]C2CC2)CC[C@@H](SCCCO)C1)c1ccc(-c2c3nc(c(-c4c(F)cc(S(=O)(=O)[O-])cc4F)c4ccc([nH]4)c(-c4c(F)cc(S(=O)(=O)[O-])cc4F)c4nc(c(-c5c(F)cc(S(=O)(=O)[O-])cc5F)c5ccc2[nH]5)C=C4)C=C3)cc1
REMARK SMILES IDX 7 1 6 2 5 3 4 4 3 5 1 6 2 7 27 9 28 10 92 11 29 12 91 13
REMARK SMILES IDX 30 14 31 15 32 16 85 17 33 18 90 19 84 20 86 21 34 22 89 23
REMARK SMILES IDX 83 24 82 25 35 27 69 28 48 29 68 30 49 31 52 32 67 33 87 34
REMARK SMILES IDX 50 35 51 36 66 38 88 39 53 40 36 41 37 42 46 43 38 44 39 45
REMARK SMILES IDX 45 46 47 47 40 48 41 49 42 50 43 51 44 52 70 53 71 54 80 55
REMARK SMILES IDX 72 56 73 57 79 58 81 59 74 60 75 61 76 62 77 63 78 64 54 65
REMARK SMILES IDX 55 66 64 67 56 68 57 69 63 70 65 71 58 72 59 73 60 74 61 75
REMARK SMILES IDX 62 76 8 77 9 78 10 79 11 80 12 82 13 83 18 84 26 85 19 86
REMARK SMILES IDX 20 87 14 88 15 91 16 92 17 93 21 94 22 95 23 96 24 97 25 98
REMARK H PARENT 3 8 86 26 52 37 10 81 14 89 14 90 25 99
REMARK Flexibility Score: inf
ROOT
ATOM      1  C   UNL A   1      34.900  30.568  27.698  1.00  0.00     0.002 C 
ENDROOT
BRANCH   1   2
ATOM      2  C   UNL A   1      35.746  30.865  28.937  1.00  0.00     0.002 C 
BRANCH   2   3
ATOM      3  C   UNL A   1      36.501  29.672  29.516  1.00  0.00     0.021 C 
BRANCH   3   4
ATOM      4  C   UNL A   1      36.474  29.561  31.034  1.00  0.00     0.116 C 
BRANCH   4   5
ATOM      5  N   UNL A   1      36.534  30.850  31.704  1.00  0.00    -0.352 N 
ATOM      6  O   UNL A   1      37.535  32.643  32.651  1.00  0.00    -0.269 OA
ATOM      7  C   UNL A   1      37.636  31.633  31.960  1.00  0.00     0.251 C 
ATOM      8  H   UNL A   1      35.672  31.210  32.015  1.00  0.00     0.163 HD
BRANCH   7   9
ATOM      9  C   UNL A   1      38.949  31.224  31.420  1.00  0.00     0.039 A 
ATOM     10  C   UNL A   1      39.337  31.631  30.142  1.00  0.00     0.014 A 
ATOM     11  C   UNL A   1      39.779  30.393  32.178  1.00  0.00     0.014 A 
ATOM     12  C   UNL A   1      40.471  31.079  29.562  1.00  0.00     0.010 A 
ATOM     13  C   UNL A   1      40.975  29.920  31.627  1.00  0.00     0.010 A 
ATOM     14  C   UNL A   1      41.317  30.235  30.304  1.00  0.00    -0.014 A 
BRANCH  14  15
ATOM     15  C   UNL A   1      42.588  29.779  29.683  1.00  0.00     0.031 A 
ATOM     16  C   UNL A   1      43.818  30.643  29.665  1.00  0.00     0.074 A 
ATOM     17  C   UNL A   1      42.627  28.528  29.179  1.00  0.00     0.049 A 
ATOM     18  N   UNL A   1      45.013  30.356  29.214  1.00  0.00    -0.248 NA
ATOM     19  C   UNL A   1      43.697  32.002  30.214  1.00  0.00     0.031 C 
ATOM     20  C   UNL A   1      41.482  27.613  29.115  1.00  0.00     0.029 A 
ATOM     21  N   UNL A   1      43.662  27.798  28.659  1.00  0.00    -0.354 N 
ATOM     22  C   UNL A   1      45.785  31.496  29.414  1.00  0.00     0.074 A 
ATOM     23  C   UNL A   1      44.913  32.491  30.001  1.00  0.00     0.031 C 
ATOM     24  C   UNL A   1      41.890  26.428  28.645  1.00  0.00     0.029 A 
ATOM     25  C   UNL A   1      43.306  26.515  28.312  1.00  0.00     0.049 A 
ATOM     26  H   UNL A   1      44.572  28.154  28.545  1.00  0.00     0.167 HD
ATOM     27  C   UNL A   1      47.098  31.686  29.139  1.00  0.00     0.037 A 
ATOM     28  C   UNL A   1      44.032  25.520  27.771  1.00  0.00     0.037 A 
ATOM     29  C   UNL A   1      47.958  30.683  28.558  1.00  0.00     0.049 A 
ATOM     30  C   UNL A   1      45.486  25.756  27.490  1.00  0.00     0.074 A 
ATOM     31  C   UNL A   1      49.304  30.777  28.245  1.00  0.00     0.029 A 
ATOM     32  N   UNL A   1      47.559  29.401  28.206  1.00  0.00    -0.354 N 
ATOM     33  N   UNL A   1      46.197  26.839  27.698  1.00  0.00    -0.248 NA
ATOM     34  C   UNL A   1      46.236  24.641  26.902  1.00  0.00     0.031 C 
ATOM     35  C   UNL A   1      49.709  29.563  27.676  1.00  0.00     0.029 A 
ATOM     36  C   UNL A   1      48.628  28.698  27.673  1.00  0.00     0.049 A 
ATOM     37  H   UNL A   1      46.648  29.042  28.320  1.00  0.00     0.167 HD
ATOM     38  C   UNL A   1      47.480  26.536  27.262  1.00  0.00     0.074 A 
ATOM     39  C   UNL A   1      47.454  25.156  26.817  1.00  0.00     0.031 C 
ATOM     40  C   UNL A   1      48.578  27.330  27.223  1.00  0.00     0.037 A 
BRANCH  27  41
ATOM     41  C   UNL A   1      47.698  33.029  29.461  1.00  0.00     0.058 A 
ATOM     42  C   UNL A   1      48.319  33.279  30.695  1.00  0.00     0.135 A 
ATOM     43  C   UNL A   1      47.712  34.057  28.504  1.00  0.00     0.135 A 
ATOM     44  F   UNL A   1      48.323  32.337  31.652  1.00  0.00    -0.206 F 
ATOM     45  C   UNL A   1      48.921  34.503  30.974  1.00  0.00     0.059 A 
ATOM     46  C   UNL A   1      48.326  35.282  28.753  1.00  0.00     0.059 A 
ATOM     47  F   UNL A   1      47.134  33.873  27.307  1.00  0.00    -0.206 F 
ATOM     48  C   UNL A   1      48.920  35.498  29.996  1.00  0.00     0.060 A 
BRANCH  48  49
ATOM     49  S   UNL A   1      49.723  37.073  30.368  1.00  0.00     0.124 S 
ATOM     50  O   UNL A   1      49.052  37.455  31.607  1.00  0.00    -0.237 OA
ATOM     51  O   UNL A   1      51.124  36.687  30.500  1.00  0.00    -0.237 OA
ATOM     52  O   UNL A   1      49.410  37.898  29.205  1.00  0.00    -0.744 OA
ENDBRANCH  48  49
ENDBRANCH  27  41
BRANCH  28  53
ATOM     53  C   UNL A   1      43.380  24.225  27.447  1.00  0.00     0.058 A 
ATOM     54  C   UNL A   1      43.206  23.232  28.420  1.00  0.00     0.135 A 
ATOM     55  C   UNL A   1      42.892  23.970  26.155  1.00  0.00     0.135 A 
ATOM     56  F   UNL A   1      43.654  23.430  29.670  1.00  0.00    -0.206 F 
ATOM     57  C   UNL A   1      42.588  22.022  28.122  1.00  0.00     0.059 A 
ATOM     58  C   UNL A   1      42.245  22.782  25.840  1.00  0.00     0.059 A 
ATOM     59  F   UNL A   1      43.014  24.900  25.194  1.00  0.00    -0.206 F 
ATOM     60  C   UNL A   1      42.110  21.807  26.827  1.00  0.00     0.060 A 
BRANCH  60  61
ATOM     61  S   UNL A   1      41.270  20.254  26.454  1.00  0.00     0.124 S 
ATOM     62  O   UNL A   1      39.950  20.726  26.052  1.00  0.00    -0.237 OA
ATOM     63  O   UNL A   1      42.101  19.698  25.391  1.00  0.00    -0.237 OA
ATOM     64  O   UNL A   1      41.325  19.534  27.723  1.00  0.00    -0.744 OA
ENDBRANCH  60  61
ENDBRANCH  28  53
BRANCH  40  65
ATOM     65  C   UNL A   1      49.836  26.713  26.681  1.00  0.00     0.058 A 
ATOM     66  C   UNL A   1      50.725  26.013  27.513  1.00  0.00     0.135 A 
ATOM     67  C   UNL A   1      50.159  26.826  25.321  1.00  0.00     0.135 A 
ATOM     68  F   UNL A   1      50.465  25.885  28.823  1.00  0.00    -0.206 F 
ATOM     69  C   UNL A   1      51.912  25.481  27.021  1.00  0.00     0.059 A 
ATOM     70  C   UNL A   1      51.327  26.279  24.802  1.00  0.00     0.059 A 
ATOM     71  F   UNL A   1      49.337  27.477  24.482  1.00  0.00    -0.206 F 
ATOM     72  C   UNL A   1      52.208  25.625  25.665  1.00  0.00     0.060 A 
BRANCH  72  73
ATOM     73  S   UNL A   1      53.754  24.938  25.036  1.00  0.00     0.124 S 
ATOM     74  O   UNL A   1      53.486  23.506  25.104  1.00  0.00    -0.237 OA
ATOM     75  O   UNL A   1      53.829  25.507  23.694  1.00  0.00    -0.237 OA
ATOM     76  O   UNL A   1      54.753  25.436  25.978  1.00  0.00    -0.744 OA
ENDBRANCH  72  73
ENDBRANCH  40  65
ENDBRANCH  14  15
ENDBRANCH   7   9
ENDBRANCH   4   5
ENDBRANCH   3   4
ENDBRANCH   2   3
ENDBRANCH   1   2
BRANCH   1  77
ATOM     77  C   UNL A   1      34.920  29.118  27.197  1.00  0.00     0.021 C 
BRANCH  77  78
ATOM     78  C   UNL A   1      33.916  28.791  26.091  1.00  0.00     0.116 C 
BRANCH  78  79
ATOM     79  N   UNL A   1      32.794  28.054  26.632  1.00  0.00    -0.351 N 
ATOM     80  C   UNL A   1      31.721  27.488  26.019  1.00  0.00     0.281 C 
ATOM     81  H   UNL A   1      32.812  27.943  27.610  1.00  0.00     0.163 HD
ATOM     82  O   UNL A   1      30.812  27.121  26.777  1.00  0.00    -0.268 OA
BRANCH  80  83
ATOM     83  C   UNL A   1      31.666  27.174  24.492  1.00  0.00     0.176 C 
ATOM     84  C   UNL A   1      32.423  28.258  23.704  1.00  0.00     0.080 C 
ATOM     85  C   UNL A   1      30.216  27.328  23.971  1.00  0.00     0.093 C 
ATOM     86  C   UNL A   1      31.441  29.412  23.509  1.00  0.00     0.022 C 
ATOM     87  C   UNL A   1      30.042  28.823  23.699  1.00  0.00     0.053 C 
BRANCH  83  88
ATOM     88  N   UNL A   1      32.140  25.807  24.159  1.00  0.00    -0.331 N 
ATOM     89  H   UNL A   1      31.810  25.181  24.894  1.00  0.00     0.347 HD
ATOM     90  H   UNL A   1      33.154  25.893  24.086  1.00  0.00     0.347 HD
BRANCH  88  91
ATOM     91  C   UNL A   1      31.715  25.242  22.873  1.00  0.00     0.183 C 
ATOM     92  C   UNL A   1      32.034  25.988  21.607  1.00  0.00     0.071 C 
ATOM     93  C   UNL A   1      32.805  24.754  21.946  1.00  0.00     0.071 C 
ENDBRANCH  88  91
ENDBRANCH  83  88
BRANCH  87  94
ATOM     94  S   UNL A   1      28.861  29.388  22.403  1.00  0.00    -0.158 SA
BRANCH  94  95
ATOM     95  C   UNL A   1      27.827  30.694  23.163  1.00  0.00     0.072 C 
BRANCH  95  96
ATOM     96  C   UNL A   1      28.572  31.901  23.741  1.00  0.00     0.039 C 
BRANCH  96  97
ATOM     97  C   UNL A   1      28.839  33.054  22.786  1.00  0.00     0.157 C 
BRANCH  97  98
ATOM     98  O   UNL A   1      27.914  33.129  21.711  1.00  0.00    -0.396 OA
ATOM     99  H   UNL A   1      27.497  32.262  21.584  1.00  0.00     0.210 HD
ENDBRANCH  97  98
ENDBRANCH  96  97
ENDBRANCH  95  96
ENDBRANCH  94  95
ENDBRANCH  87  94
ENDBRANCH  80  83
ENDBRANCH  78  79
ENDBRANCH  77  78
ENDBRANCH   1  77
TORSDOF 23
ENDMDL
MODEL 2
REMARK VINA RESULT:      -8.7      5.545     10.459
REMARK SMILES O=C(NCCCCCCNC(=O)[C@]1([NH2+]C2CC2)CC[C@@H](SCCCO)C1)c1ccc(-c2c3nc(c(-c4c(F)cc(S(=O)(=O)[O-])cc4F)c4ccc([nH]4)c(-c4c(F)cc(S(=O)(=O)[O-])cc4F)c4nc(c(-c5c(F)cc(S(=O)(=O)[O-])cc5F)c5ccc2[nH]5)C=C4)C=C3)cc1
REMARK SMILES IDX 7 1 6 2 5 3 4 4 3 5 1 6 2 7 27 9 28 10 92 11 29 12 91 13
REMARK SMILES IDX 30 14 31 15 32 16 85 17 33 18 90 19 84 20 86 21 34 22 89 23
REMARK SMILES IDX 83 24 82 25 35 27 69 28 48 29 68 30 49 31 52 32 67 33 87 34
REMARK SMILES IDX 50 35 51 36 66 38 88 39 53 40 36 41 37 42 46 43 38 44 39 45
REMARK SMILES IDX 45 46 47 47 40 48 41 49 42 50 43 51 44 52 70 53 71 54 80 55
REMARK SMILES IDX 72 56 73 57 79 58 81 59 74 60 75 61 76 62 77 63 78 64 54 65
REMARK SMILES IDX 55 66 64 67 56 68 57 69 63 70 65 71 58 72 59 73 60 74 61 75
REMARK SMILES IDX 62 76 8 77 9 78 10 79 11 80 12 82 13 83 18 84 26 85 19 86
REMARK SMILES IDX 20 87 14 88 15 91 16 92 17 93 21 94 22 95 23 96 24 97 25 98
REMARK H PARENT 3 8 86 26 52 37 10 81 14 89 14 90 25 99
REMARK Flexibility Score: inf
ROOT
ATOM      1  C   UNL A   1      39.065  27.983  29.266  1.00  0.00     0.002 C 
ENDROOT
BRANCH   1   2
ATOM      2  C   UNL A   1      40.287  27.076  29.116  1.00  0.00     0.002 C 
BRANCH   2   3
ATOM      3  C   UNL A   1      40.113  25.893  28.169  1.00  0.00     0.021 C 
BRANCH   3   4
ATOM      4  C   UNL A   1      40.133  26.240  26.687  1.00  0.00     0.116 C 
BRANCH   4   5
ATOM      5  N   UNL A   1      41.195  25.569  25.955  1.00  0.00    -0.352 N 
ATOM      6  O   UNL A   1      43.216  25.374  24.958  1.00  0.00    -0.269 OA
ATOM      7  C   UNL A   1      42.474  26.009  25.702  1.00  0.00     0.251 C 
ATOM      8  H   UNL A   1      40.970  24.682  25.593  1.00  0.00     0.163 HD
BRANCH   7   9
ATOM      9  C   UNL A   1      42.931  27.275  26.313  1.00  0.00     0.039 A 
ATOM     10  C   UNL A   1      43.843  27.252  27.370  1.00  0.00     0.014 A 
ATOM     11  C   UNL A   1      42.414  28.489  25.854  1.00  0.00     0.014 A 
ATOM     12  C   UNL A   1      44.109  28.421  28.071  1.00  0.00     0.010 A 
ATOM     13  C   UNL A   1      42.766  29.680  26.499  1.00  0.00     0.010 A 
ATOM     14  C   UNL A   1      43.593  29.653  27.631  1.00  0.00    -0.014 A 
BRANCH  14  15
ATOM     15  C   UNL A   1      44.017  30.891  28.335  1.00  0.00     0.031 A 
ATOM     16  C   UNL A   1      45.201  31.698  27.881  1.00  0.00     0.074 A 
ATOM     17  C   UNL A   1      43.264  31.313  29.372  1.00  0.00     0.049 A 
ATOM     18  N   UNL A   1      45.653  32.830  28.358  1.00  0.00    -0.248 NA
ATOM     19  C   UNL A   1      45.988  31.168  26.755  1.00  0.00     0.031 C 
ATOM     20  C   UNL A   1      42.110  30.591  29.919  1.00  0.00     0.029 A 
ATOM     21  N   UNL A   1      43.329  32.451  30.129  1.00  0.00    -0.354 N 
ATOM     22  C   UNL A   1      46.776  33.147  27.603  1.00  0.00     0.074 A 
ATOM     23  C   UNL A   1      46.956  32.070  26.652  1.00  0.00     0.031 C 
ATOM     24  C   UNL A   1      41.541  31.331  30.879  1.00  0.00     0.029 A 
ATOM     25  C   UNL A   1      42.323  32.546  31.063  1.00  0.00     0.049 A 
ATOM     26  H   UNL A   1      44.026  33.137  30.017  1.00  0.00     0.167 HD
ATOM     27  C   UNL A   1      47.574  34.240  27.692  1.00  0.00     0.037 A 
ATOM     28  C   UNL A   1      42.064  33.496  31.979  1.00  0.00     0.037 A 
ATOM     29  C   UNL A   1      47.379  35.310  28.640  1.00  0.00     0.049 A 
ATOM     30  C   UNL A   1      42.957  34.699  32.045  1.00  0.00     0.074 A 
ATOM     31  C   UNL A   1      48.131  36.460  28.808  1.00  0.00     0.029 A 
ATOM     32  N   UNL A   1      46.359  35.363  29.580  1.00  0.00    -0.354 N 
ATOM     33  N   UNL A   1      44.008  34.983  31.312  1.00  0.00    -0.248 NA
ATOM     34  C   UNL A   1      42.633  35.709  33.059  1.00  0.00     0.031 C 
ATOM     35  C   UNL A   1      47.584  37.194  29.868  1.00  0.00     0.029 A 
ATOM     36  C   UNL A   1      46.466  36.522  30.333  1.00  0.00     0.049 A 
ATOM     37  H   UNL A   1      45.661  34.678  29.694  1.00  0.00     0.167 HD
ATOM     38  C   UNL A   1      44.474  36.205  31.780  1.00  0.00     0.074 A 
ATOM     39  C   UNL A   1      43.566  36.622  32.831  1.00  0.00     0.031 C 
ATOM     40  C   UNL A   1      45.560  36.913  31.385  1.00  0.00     0.037 A 
BRANCH  27  41
ATOM     41  C   UNL A   1      48.736  34.342  26.739  1.00  0.00     0.058 A 
ATOM     42  C   UNL A   1      48.677  35.152  25.594  1.00  0.00     0.135 A 
ATOM     43  C   UNL A   1      49.945  33.680  27.008  1.00  0.00     0.135 A 
ATOM     44  F   UNL A   1      47.542  35.797  25.280  1.00  0.00    -0.206 F 
ATOM     45  C   UNL A   1      49.769  35.289  24.741  1.00  0.00     0.059 A 
ATOM     46  C   UNL A   1      51.057  33.819  26.181  1.00  0.00     0.059 A 
ATOM     47  F   UNL A   1      50.058  32.894  28.090  1.00  0.00    -0.206 F 
ATOM     48  C   UNL A   1      50.956  34.620  25.044  1.00  0.00     0.060 A 
BRANCH  48  49
ATOM     49  S   UNL A   1      52.368  34.826  23.938  1.00  0.00     0.124 S 
ATOM     50  O   UNL A   1      52.035  36.082  23.273  1.00  0.00    -0.237 OA
ATOM     51  O   UNL A   1      53.490  34.880  24.869  1.00  0.00    -0.237 OA
ATOM     52  O   UNL A   1      52.316  33.636  23.094  1.00  0.00    -0.744 OA
ENDBRANCH  48  49
ENDBRANCH  27  41
BRANCH  28  53
ATOM     53  C   UNL A   1      40.921  33.328  32.912  1.00  0.00     0.058 A 
ATOM     54  C   UNL A   1      39.657  33.857  32.621  1.00  0.00     0.135 A 
ATOM     55  C   UNL A   1      41.069  32.604  34.107  1.00  0.00     0.135 A 
ATOM     56  F   UNL A   1      39.465  34.555  31.491  1.00  0.00    -0.206 F 
ATOM     57  C   UNL A   1      38.582  33.693  33.488  1.00  0.00     0.059 A 
ATOM     58  C   UNL A   1      40.004  32.401  34.975  1.00  0.00     0.059 A 
ATOM     59  F   UNL A   1      42.255  32.057  34.419  1.00  0.00    -0.206 F 
ATOM     60  C   UNL A   1      38.767  32.961  34.664  1.00  0.00     0.060 A 
BRANCH  60  61
ATOM     61  S   UNL A   1      37.359  32.713  35.767  1.00  0.00     0.124 S 
ATOM     62  O   UNL A   1      36.280  32.484  34.814  1.00  0.00    -0.237 OA
ATOM     63  O   UNL A   1      37.778  31.555  36.549  1.00  0.00    -0.237 OA
ATOM     64  O   UNL A   1      37.293  33.969  36.509  1.00  0.00    -0.744 OA
ENDBRANCH  60  61
ENDBRANCH  28  53
BRANCH  40  65
ATOM     65  C   UNL A   1      45.814  38.211  32.096  1.00  0.00     0.058 A 
ATOM     66  C   UNL A   1      45.241  39.413  31.652  1.00  0.00     0.135 A 
ATOM     67  C   UNL A   1      46.641  38.255  33.228  1.00  0.00     0.135 A 
ATOM     68  F   UNL A   1      44.449  39.424  30.568  1.00  0.00    -0.206 F 
ATOM     69  C   UNL A   1      45.512  40.623  32.282  1.00  0.00     0.059 A 
ATOM     70  C   UNL A   1      46.905  39.449  33.890  1.00  0.00     0.059 A 
ATOM     71  F   UNL A   1      47.206  37.132  33.698  1.00  0.00    -0.206 F 
ATOM     72  C   UNL A   1      46.351  40.631  33.397  1.00  0.00     0.060 A 
BRANCH  72  73
ATOM     73  S   UNL A   1      46.702  42.206  34.206  1.00  0.00     0.124 S 
ATOM     74  O   UNL A   1      46.203  43.159  33.221  1.00  0.00    -0.237 OA
ATOM     75  O   UNL A   1      45.929  42.106  35.441  1.00  0.00    -0.237 OA
ATOM     76  O   UNL A   1      48.152  42.181  34.378  1.00  0.00    -0.744 OA
ENDBRANCH  72  73
ENDBRANCH  40  65
ENDBRANCH  14  15
ENDBRANCH   7   9
ENDBRANCH   4   5
ENDBRANCH   3   4
ENDBRANCH   2   3
ENDBRANCH   1   2
BRANCH   1  77
ATOM     77  C   UNL A   1      38.945  28.741  30.595  1.00  0.00     0.021 C 
BRANCH  77  78
ATOM     78  C   UNL A   1      37.702  29.621  30.739  1.00  0.00     0.116 C 
BRANCH  78  79
ATOM     79  N   UNL A   1      37.997  30.979  30.335  1.00  0.00    -0.351 N 
ATOM     80  C   UNL A   1      37.202  31.942  29.798  1.00  0.00     0.281 C 
ATOM     81  H   UNL A   1      38.933  31.252  30.474  1.00  0.00     0.163 HD
ATOM     82  O   UNL A   1      37.799  32.930  29.349  1.00  0.00    -0.268 OA
BRANCH  80  83
ATOM     83  C   UNL A   1      35.644  31.906  29.858  1.00  0.00     0.176 C 
ATOM     84  C   UNL A   1      35.065  33.221  29.303  1.00  0.00     0.080 C 
ATOM     85  C   UNL A   1      35.169  31.923  31.331  1.00  0.00     0.093 C 
ATOM     86  C   UNL A   1      35.093  34.222  30.457  1.00  0.00     0.022 C 
ATOM     87  C   UNL A   1      35.179  33.396  31.741  1.00  0.00     0.053 C 
BRANCH  83  88
ATOM     88  N   UNL A   1      35.060  30.714  29.191  1.00  0.00    -0.331 N 
ATOM     89  H   UNL A   1      34.047  30.774  29.293  1.00  0.00     0.347 HD
ATOM     90  H   UNL A   1      35.497  29.916  29.653  1.00  0.00     0.347 HD
BRANCH  88  91
ATOM     91  C   UNL A   1      35.351  30.532  27.764  1.00  0.00     0.183 C 
ATOM     92  C   UNL A   1      36.061  29.283  27.319  1.00  0.00     0.071 C 
ATOM     93  C   UNL A   1      34.600  29.432  27.049  1.00  0.00     0.071 C 
ENDBRANCH  88  91
ENDBRANCH  83  88
BRANCH  87  94
ATOM     94  S   UNL A   1      34.018  33.995  33.040  1.00  0.00    -0.158 SA
BRANCH  94  95
ATOM     95  C   UNL A   1      34.189  35.817  33.104  1.00  0.00     0.072 C 
BRANCH  95  96
ATOM     96  C   UNL A   1      33.008  36.631  32.568  1.00  0.00     0.039 C 
BRANCH  96  97
ATOM     97  C   UNL A   1      33.344  37.961  31.912  1.00  0.00     0.157 C 
BRANCH  97  98
ATOM     98  O   UNL A   1      33.258  37.936  30.495  1.00  0.00    -0.396 OA
ATOM     99  H   UNL A   1      34.150  37.986  30.117  1.00  0.00     0.210 HD
ENDBRANCH  97  98
ENDBRANCH  96  97
ENDBRANCH  95  96
ENDBRANCH  94  95
ENDBRANCH  87  94
ENDBRANCH  80  83
ENDBRANCH  78  79
ENDBRANCH  77  78
ENDBRANCH   1  77
TORSDOF 23
ENDMDL
MODEL 3
REMARK VINA RESULT:      -8.6      6.796     11.266
REMARK SMILES O=C(NCCCCCCNC(=O)[C@]1([NH2+]C2CC2)CC[C@@H](SCCCO)C1)c1ccc(-c2c3nc(c(-c4c(F)cc(S(=O)(=O)[O-])cc4F)c4ccc([nH]4)c(-c4c(F)cc(S(=O)(=O)[O-])cc4F)c4nc(c(-c5c(F)cc(S(=O)(=O)[O-])cc5F)c5ccc2[nH]5)C=C4)C=C3)cc1
REMARK SMILES IDX 7 1 6 2 5 3 4 4 3 5 1 6 2 7 27 9 28 10 92 11 29 12 91 13
REMARK SMILES IDX 30 14 31 15 32 16 85 17 33 18 90 19 84 20 86 21 34 22 89 23
REMARK SMILES IDX 83 24 82 25 35 27 69 28 48 29 68 30 49 31 52 32 67 33 87 34
REMARK SMILES IDX 50 35 51 36 66 38 88 39 53 40 36 41 37 42 46 43 38 44 39 45
REMARK SMILES IDX 45 46 47 47 40 48 41 49 42 50 43 51 44 52 70 53 71 54 80 55
REMARK SMILES IDX 72 56 73 57 79 58 81 59 74 60 75 61 76 62 77 63 78 64 54 65
REMARK SMILES IDX 55 66 64 67 56 68 57 69 63 70 65 71 58 72 59 73 60 74 61 75
REMARK SMILES IDX 62 76 8 77 9 78 10 79 11 80 12 82 13 83 18 84 26 85 19 86
REMARK SMILES IDX 20 87 14 88 15 91 16 92 17 93 21 94 22 95 23 96 24 97 25 98
REMARK H PARENT 3 8 86 26 52 37 10 81 14 89 14 90 25 99
REMARK Flexibility Score: inf
ROOT
ATOM      1  C   UNL A   1      44.503  24.940  31.717  1.00  0.00     0.002 C 
ENDROOT
BRANCH   1   2
ATOM      2  C   UNL A   1      44.573  25.055  33.240  1.00  0.00     0.002 C 
BRANCH   2   3
ATOM      3  C   UNL A   1      43.911  23.919  34.014  1.00  0.00     0.021 C 
BRANCH   3   4
ATOM      4  C   UNL A   1      44.122  23.952  35.522  1.00  0.00     0.116 C 
BRANCH   4   5
ATOM      5  N   UNL A   1      42.880  23.915  36.275  1.00  0.00    -0.352 N 
ATOM      6  O   UNL A   1      41.043  24.775  37.276  1.00  0.00    -0.269 OA
ATOM      7  C   UNL A   1      41.989  24.937  36.511  1.00  0.00     0.251 C 
ATOM      8  H   UNL A   1      42.644  23.044  36.669  1.00  0.00     0.163 HD
BRANCH   7   9
ATOM      9  C   UNL A   1      42.206  26.244  35.855  1.00  0.00     0.039 A 
ATOM     10  C   UNL A   1      41.328  26.682  34.862  1.00  0.00     0.014 A 
ATOM     11  C   UNL A   1      43.317  27.016  36.205  1.00  0.00     0.014 A 
ATOM     12  C   UNL A   1      41.649  27.805  34.111  1.00  0.00     0.010 A 
ATOM     13  C   UNL A   1      43.582  28.203  35.513  1.00  0.00     0.010 A 
ATOM     14  C   UNL A   1      42.767  28.592  34.440  1.00  0.00    -0.014 A 
BRANCH  14  15
ATOM     15  C   UNL A   1      42.991  29.856  33.691  1.00  0.00     0.031 A 
ATOM     16  C   UNL A   1      42.709  31.201  34.301  1.00  0.00     0.074 A 
ATOM     17  C   UNL A   1      43.517  29.767  32.452  1.00  0.00     0.049 A 
ATOM     18  N   UNL A   1      42.912  32.390  33.792  1.00  0.00    -0.248 NA
ATOM     19  C   UNL A   1      42.118  31.222  35.648  1.00  0.00     0.031 C 
ATOM     20  C   UNL A   1      43.800  28.511  31.750  1.00  0.00     0.029 A 
ATOM     21  N   UNL A   1      43.935  30.735  31.579  1.00  0.00    -0.354 N 
ATOM     22  C   UNL A   1      42.469  33.300  34.745  1.00  0.00     0.074 A 
ATOM     23  C   UNL A   1      41.957  32.523  35.855  1.00  0.00     0.031 C 
ATOM     24  C   UNL A   1      44.400  28.783  30.584  1.00  0.00     0.029 A 
ATOM     25  C   UNL A   1      44.486  30.229  30.424  1.00  0.00     0.049 A 
ATOM     26  H   UNL A   1      43.852  31.699  31.759  1.00  0.00     0.167 HD
ATOM     27  C   UNL A   1      42.497  34.654  34.698  1.00  0.00     0.037 A 
ATOM     28  C   UNL A   1      44.991  30.856  29.347  1.00  0.00     0.037 A 
ATOM     29  C   UNL A   1      43.016  35.416  33.587  1.00  0.00     0.049 A 
ATOM     30  C   UNL A   1      45.019  32.354  29.329  1.00  0.00     0.074 A 
ATOM     31  C   UNL A   1      43.091  36.791  33.446  1.00  0.00     0.029 A 
ATOM     32  N   UNL A   1      43.550  34.869  32.430  1.00  0.00    -0.354 N 
ATOM     33  N   UNL A   1      44.605  33.194  30.248  1.00  0.00    -0.248 NA
ATOM     34  C   UNL A   1      45.581  32.992  28.133  1.00  0.00     0.031 C 
ATOM     35  C   UNL A   1      43.643  37.075  32.190  1.00  0.00     0.029 A 
ATOM     36  C   UNL A   1      43.951  35.878  31.567  1.00  0.00     0.049 A 
ATOM     37  H   UNL A   1      43.635  33.905  32.247  1.00  0.00     0.167 HD
ATOM     38  C   UNL A   1      44.853  34.462  29.738  1.00  0.00     0.074 A 
ATOM     39  C   UNL A   1      45.489  34.276  28.449  1.00  0.00     0.031 C 
ATOM     40  C   UNL A   1      44.570  35.672  30.281  1.00  0.00     0.037 A 
BRANCH  27  41
ATOM     41  C   UNL A   1      41.952  35.411  35.881  1.00  0.00     0.058 A 
ATOM     42  C   UNL A   1      40.586  35.718  35.990  1.00  0.00     0.135 A 
ATOM     43  C   UNL A   1      42.789  35.775  36.948  1.00  0.00     0.135 A 
ATOM     44  F   UNL A   1      39.743  35.406  34.993  1.00  0.00    -0.206 F 
ATOM     45  C   UNL A   1      40.072  36.371  37.107  1.00  0.00     0.059 A 
ATOM     46  C   UNL A   1      42.294  36.409  38.085  1.00  0.00     0.059 A 
ATOM     47  F   UNL A   1      44.103  35.505  36.898  1.00  0.00    -0.206 F 
ATOM     48  C   UNL A   1      40.934  36.710  38.151  1.00  0.00     0.060 A 
BRANCH  48  49
ATOM     49  S   UNL A   1      40.247  37.539  39.601  1.00  0.00     0.124 S 
ATOM     50  O   UNL A   1      38.902  37.868  39.137  1.00  0.00    -0.237 OA
ATOM     51  O   UNL A   1      40.327  36.499  40.622  1.00  0.00    -0.237 OA
ATOM     52  O   UNL A   1      41.139  38.677  39.798  1.00  0.00    -0.744 OA
ENDBRANCH  48  49
ENDBRANCH  27  41
BRANCH  28  53
ATOM     53  C   UNL A   1      45.487  30.058  28.197  1.00  0.00     0.058 A 
ATOM     54  C   UNL A   1      44.628  29.641  27.172  1.00  0.00     0.135 A 
ATOM     55  C   UNL A   1      46.847  29.721  28.090  1.00  0.00     0.135 A 
ATOM     56  F   UNL A   1      43.321  29.939  27.228  1.00  0.00    -0.206 F 
ATOM     57  C   UNL A   1      45.092  28.901  26.089  1.00  0.00     0.059 A 
ATOM     58  C   UNL A   1      47.340  29.009  27.004  1.00  0.00     0.059 A 
ATOM     59  F   UNL A   1      47.715  30.118  29.034  1.00  0.00    -0.206 F 
ATOM     60  C   UNL A   1      46.452  28.590  26.014  1.00  0.00     0.060 A 
BRANCH  60  61
ATOM     61  S   UNL A   1      47.059  27.668  24.586  1.00  0.00     0.124 S 
ATOM     62  O   UNL A   1      48.448  27.431  24.962  1.00  0.00    -0.237 OA
ATOM     63  O   UNL A   1      46.189  26.497  24.580  1.00  0.00    -0.237 OA
ATOM     64  O   UNL A   1      46.853  28.597  23.479  1.00  0.00    -0.744 OA
ENDBRANCH  60  61
ENDBRANCH  28  53
BRANCH  40  65
ATOM     65  C   UNL A   1      44.955  36.879  29.476  1.00  0.00     0.058 A 
ATOM     66  C   UNL A   1      46.224  37.466  29.597  1.00  0.00     0.135 A 
ATOM     67  C   UNL A   1      44.045  37.458  28.578  1.00  0.00     0.135 A 
ATOM     68  F   UNL A   1      47.126  36.954  30.449  1.00  0.00    -0.206 F 
ATOM     69  C   UNL A   1      46.565  38.611  28.885  1.00  0.00     0.059 A 
ATOM     70  C   UNL A   1      44.374  38.587  27.836  1.00  0.00     0.059 A 
ATOM     71  F   UNL A   1      42.822  36.929  28.418  1.00  0.00    -0.206 F 
ATOM     72  C   UNL A   1      45.631  39.168  28.011  1.00  0.00     0.060 A 
BRANCH  72  73
ATOM     73  S   UNL A   1      46.079  40.658  27.096  1.00  0.00     0.124 S 
ATOM     74  O   UNL A   1      47.534  40.557  27.068  1.00  0.00    -0.237 OA
ATOM     75  O   UNL A   1      45.404  40.457  25.817  1.00  0.00    -0.237 OA
ATOM     76  O   UNL A   1      45.539  41.736  27.920  1.00  0.00    -0.744 OA
ENDBRANCH  72  73
ENDBRANCH  40  65
ENDBRANCH  14  15
ENDBRANCH   7   9
ENDBRANCH   4   5
ENDBRANCH   3   4
ENDBRANCH   2   3
ENDBRANCH   1   2
BRANCH   1  77
ATOM     77  C   UNL A   1      44.164  23.551  31.159  1.00  0.00     0.021 C 
BRANCH  77  78
ATOM     78  C   UNL A   1      43.958  23.484  29.644  1.00  0.00     0.116 C 
BRANCH  78  79
ATOM     79  N   UNL A   1      42.910  22.540  29.320  1.00  0.00    -0.351 N 
ATOM     80  C   UNL A   1      42.073  22.470  28.251  1.00  0.00     0.281 C 
ATOM     81  H   UNL A   1      42.783  21.827  29.987  1.00  0.00     0.163 HD
ATOM     82  O   UNL A   1      41.130  21.676  28.370  1.00  0.00    -0.268 OA
BRANCH  80  83
ATOM     83  C   UNL A   1      42.332  23.211  26.903  1.00  0.00     0.176 C 
ATOM     84  C   UNL A   1      41.912  22.316  25.722  1.00  0.00     0.080 C 
ATOM     85  C   UNL A   1      43.854  23.378  26.674  1.00  0.00     0.093 C 
ATOM     86  C   UNL A   1      43.092  21.386  25.446  1.00  0.00     0.022 C 
ATOM     87  C   UNL A   1      44.319  22.053  26.069  1.00  0.00     0.053 C 
BRANCH  83  88
ATOM     88  N   UNL A   1      41.699  24.552  26.841  1.00  0.00    -0.331 N 
ATOM     89  H   UNL A   1      40.946  24.566  27.530  1.00  0.00     0.347 HD
ATOM     90  H   UNL A   1      41.401  24.656  25.871  1.00  0.00     0.347 HD
BRANCH  88  91
ATOM     91  C   UNL A   1      42.556  25.714  27.101  1.00  0.00     0.183 C 
ATOM     92  C   UNL A   1      41.954  27.091  27.045  1.00  0.00     0.071 C 
ATOM     93  C   UNL A   1      42.289  26.490  28.371  1.00  0.00     0.071 C 
ENDBRANCH  88  91
ENDBRANCH  83  88
BRANCH  87  94
ATOM     94  S   UNL A   1      45.781  22.020  24.948  1.00  0.00    -0.158 SA
BRANCH  94  95
ATOM     95  C   UNL A   1      46.217  20.259  24.700  1.00  0.00     0.072 C 
BRANCH  95  96
ATOM     96  C   UNL A   1      45.065  19.317  24.336  1.00  0.00     0.039 C 
BRANCH  96  97
ATOM     97  C   UNL A   1      44.902  18.985  22.862  1.00  0.00     0.157 C 
BRANCH  97  98
ATOM     98  O   UNL A   1      46.110  18.589  22.229  1.00  0.00    -0.396 OA
ATOM     99  H   UNL A   1      46.509  19.355  21.787  1.00  0.00     0.210 HD
ENDBRANCH  97  98
ENDBRANCH  96  97
ENDBRANCH  95  96
ENDBRANCH  94  95
ENDBRANCH  87  94
ENDBRANCH  80  83
ENDBRANCH  78  79
ENDBRANCH  77  78
ENDBRANCH   1  77
TORSDOF 23
ENDMDL
