MODEL 1
REMARK VINA RESULT:      -8.3      0.000      0.000
REMARK SMILES C[C@@H](C(=O)NCCCCCCNC(=O)c1ccc(-c2c3nc(c(-c4c(F)cc(S(=O)(=O)[O-])cc4F)c4ccc([nH]4)c(-c4c(F)cc(S(=O)(=O)[O-])cc4F)c4nc(c(-c5c(F)cc(S(=O)(=O)[O-])cc5F)c5ccc2[nH]5)C=C4)C=C3)cc1)c1ccc(C[C@H]2CCC[C@@H]2O)cc1Br
REMARK SMILES IDX 8 1 7 2 6 3 5 4 3 5 4 6 2 8 1 9 81 10 82 11 93 12 83 13
REMARK SMILES IDX 92 14 94 15 84 16 85 17 86 18 87 19 90 20 88 21 89 22 91 23
REMARK SMILES IDX 9 25 10 26 11 27 12 28 13 29 14 31 15 32 16 33 80 34 17 35
REMARK SMILES IDX 79 36 18 37 19 38 20 39 73 40 21 41 78 42 72 43 74 44 22 45
REMARK SMILES IDX 77 46 71 47 70 48 23 50 57 51 36 52 56 53 37 54 40 55 55 56
REMARK SMILES IDX 75 57 38 58 39 59 54 61 76 62 41 63 24 64 25 65 34 66 26 67
REMARK SMILES IDX 27 68 33 69 35 70 28 71 29 72 30 73 31 74 32 75 58 76 59 77
REMARK SMILES IDX 68 78 60 79 61 80 67 81 69 82 62 83 63 84 64 85 65 86 66 87
REMARK SMILES IDX 42 88 43 89 52 90 44 91 45 92 51 93 53 94 46 95 47 96 48 97
REMARK SMILES IDX 49 98 50 99
REMARK H PARENT 5 7 91 24 12 30 74 49 40 60
REMARK Flexibility Score: inf
ROOT
ATOM      1  C   UNL A   1      37.498  32.993  29.216  1.00  0.00     0.002 C 
ENDROOT
BRANCH   1   2
ATOM      2  C   UNL A   1      38.453  34.061  29.771  1.00  0.00     0.021 C 
BRANCH   2   3
ATOM      3  C   UNL A   1      38.256  34.350  31.260  1.00  0.00     0.116 C 
BRANCH   3   4
ATOM      4  N   UNL A   1      39.516  34.694  31.878  1.00  0.00    -0.356 N 
ATOM      5  C   UNL A   1      40.016  34.393  33.107  1.00  0.00     0.227 C 
ATOM      6  O   UNL A   1      41.124  34.867  33.373  1.00  0.00    -0.274 OA
ATOM      7  H   UNL A   1      40.114  35.236  31.314  1.00  0.00     0.163 HD
BRANCH   5   8
ATOM      8  C   UNL A   1      39.274  33.415  34.030  1.00  0.00     0.106 C 
ATOM      9  C   UNL A   1      39.268  33.741  35.529  1.00  0.00     0.023 C 
BRANCH   8  10
ATOM     10  C   UNL A   1      39.707  31.967  33.801  1.00  0.00    -0.022 A 
ATOM     11  C   UNL A   1      41.033  31.633  34.137  1.00  0.00     0.006 A 
ATOM     12  C   UNL A   1      38.889  30.954  33.268  1.00  0.00     0.022 A 
ATOM     13  C   UNL A   1      41.550  30.365  33.871  1.00  0.00     0.004 A 
ATOM     14  C   UNL A   1      39.424  29.693  32.977  1.00  0.00     0.019 A 
ATOM     15  Br  UNL A   1      37.037  31.164  32.885  1.00  0.00    -0.051 Br
ATOM     16  C   UNL A   1      40.770  29.407  33.227  1.00  0.00    -0.047 A 
BRANCH  16  17
ATOM     17  C   UNL A   1      41.370  28.109  32.749  1.00  0.00     0.041 C 
BRANCH  17  18
ATOM     18  C   UNL A   1      42.435  27.504  33.684  1.00  0.00     0.022 C 
ATOM     19  C   UNL A   1      41.914  26.746  34.919  1.00  0.00     0.007 C 
ATOM     20  C   UNL A   1      43.405  26.520  33.024  1.00  0.00     0.117 C 
ATOM     21  C   UNL A   1      42.891  25.589  35.150  1.00  0.00     0.003 C 
ATOM     22  C   UNL A   1      44.064  25.849  34.218  1.00  0.00     0.032 C 
BRANCH  20  23
ATOM     23  O   UNL A   1      44.345  27.195  32.212  1.00  0.00    -0.393 OA
ATOM     24  H   UNL A   1      44.524  28.073  32.585  1.00  0.00     0.210 HD
ENDBRANCH  20  23
ENDBRANCH  17  18
ENDBRANCH  16  17
ENDBRANCH   8  10
ENDBRANCH   5   8
ENDBRANCH   3   4
ENDBRANCH   2   3
ENDBRANCH   1   2
BRANCH   1  25
ATOM     25  C   UNL A   1      36.604  33.460  28.064  1.00  0.00     0.002 C 
BRANCH  25  26
ATOM     26  C   UNL A   1      35.101  33.326  28.320  1.00  0.00     0.021 C 
BRANCH  26  27
ATOM     27  C   UNL A   1      34.725  32.214  29.291  1.00  0.00     0.116 C 
BRANCH  27  28
ATOM     28  N   UNL A   1      34.139  31.075  28.608  1.00  0.00    -0.352 N 
ATOM     29  C   UNL A   1      34.764  29.990  28.051  1.00  0.00     0.251 C 
ATOM     30  H   UNL A   1      33.157  31.083  28.534  1.00  0.00     0.163 HD
ATOM     31  O   UNL A   1      34.125  29.221  27.331  1.00  0.00    -0.269 OA
BRANCH  29  32
ATOM     32  C   UNL A   1      36.200  29.750  28.302  1.00  0.00     0.039 A 
ATOM     33  C   UNL A   1      37.106  29.911  27.251  1.00  0.00     0.014 A 
ATOM     34  C   UNL A   1      36.653  29.333  29.558  1.00  0.00     0.014 A 
ATOM     35  C   UNL A   1      38.466  29.680  27.465  1.00  0.00     0.010 A 
ATOM     36  C   UNL A   1      38.016  29.177  29.791  1.00  0.00     0.010 A 
ATOM     37  C   UNL A   1      38.934  29.323  28.740  1.00  0.00    -0.014 A 
BRANCH  37  38
ATOM     38  C   UNL A   1      40.374  29.047  28.976  1.00  0.00     0.031 A 
ATOM     39  C   UNL A   1      40.951  27.704  28.611  1.00  0.00     0.074 A 
ATOM     40  C   UNL A   1      41.152  29.985  29.550  1.00  0.00     0.049 A 
ATOM     41  N   UNL A   1      42.172  27.260  28.760  1.00  0.00    -0.248 NA
ATOM     42  C   UNL A   1      40.024  26.720  28.028  1.00  0.00     0.031 C 
ATOM     43  C   UNL A   1      40.698  31.306  29.992  1.00  0.00     0.029 A 
ATOM     44  N   UNL A   1      42.488  29.972  29.861  1.00  0.00    -0.354 N 
ATOM     45  C   UNL A   1      42.155  25.944  28.311  1.00  0.00     0.074 A 
ATOM     46  C   UNL A   1      40.792  25.644  27.935  1.00  0.00     0.031 C 
ATOM     47  C   UNL A   1      41.745  31.987  30.487  1.00  0.00     0.029 A 
ATOM     48  C   UNL A   1      42.935  31.144  30.427  1.00  0.00     0.049 A 
ATOM     49  H   UNL A   1      43.072  29.198  29.695  1.00  0.00     0.167 HD
ATOM     50  C   UNL A   1      43.186  25.074  28.199  1.00  0.00     0.037 A 
ATOM     51  C   UNL A   1      44.166  31.498  30.843  1.00  0.00     0.037 A 
ATOM     52  C   UNL A   1      44.549  25.394  28.536  1.00  0.00     0.049 A 
ATOM     53  C   UNL A   1      45.302  30.523  30.681  1.00  0.00     0.074 A 
ATOM     54  C   UNL A   1      45.679  24.608  28.394  1.00  0.00     0.029 A 
ATOM     55  N   UNL A   1      44.966  26.600  29.079  1.00  0.00    -0.354 N 
ATOM     56  N   UNL A   1      45.281  29.305  30.192  1.00  0.00    -0.248 NA
ATOM     57  C   UNL A   1      46.630  30.975  31.115  1.00  0.00     0.031 C 
ATOM     58  C   UNL A   1      46.774  25.324  28.890  1.00  0.00     0.029 A 
ATOM     59  C   UNL A   1      46.334  26.575  29.293  1.00  0.00     0.049 A 
ATOM     60  H   UNL A   1      44.377  27.362  29.283  1.00  0.00     0.167 HD
ATOM     61  C   UNL A   1      46.597  28.860  30.226  1.00  0.00     0.074 A 
ATOM     62  C   UNL A   1      47.389  29.941  30.777  1.00  0.00     0.031 C 
ATOM     63  C   UNL A   1      47.107  27.666  29.831  1.00  0.00     0.037 A 
BRANCH  50  64
ATOM     64  C   UNL A   1      42.880  23.691  27.687  1.00  0.00     0.058 A 
ATOM     65  C   UNL A   1      42.536  22.641  28.554  1.00  0.00     0.135 A 
ATOM     66  C   UNL A   1      42.908  23.418  26.310  1.00  0.00     0.135 A 
ATOM     67  F   UNL A   1      42.508  22.841  29.881  1.00  0.00    -0.206 F 
ATOM     68  C   UNL A   1      42.266  21.362  28.077  1.00  0.00     0.059 A 
ATOM     69  C   UNL A   1      42.612  22.155  25.808  1.00  0.00     0.059 A 
ATOM     70  F   UNL A   1      43.230  24.385  25.436  1.00  0.00    -0.206 F 
ATOM     71  C   UNL A   1      42.309  21.127  26.702  1.00  0.00     0.060 A 
BRANCH  71  72
ATOM     72  S   UNL A   1      41.960  19.463  26.098  1.00  0.00     0.124 S 
ATOM     73  O   UNL A   1      42.284  18.655  27.270  1.00  0.00    -0.237 OA
ATOM     74  O   UNL A   1      40.543  19.544  25.757  1.00  0.00    -0.237 OA
ATOM     75  O   UNL A   1      42.867  19.316  24.964  1.00  0.00    -0.744 OA
ENDBRANCH  71  72
ENDBRANCH  50  64
BRANCH  51  76
ATOM     76  C   UNL A   1      44.400  32.853  31.407  1.00  0.00     0.058 A 
ATOM     77  C   UNL A   1      44.565  33.964  30.566  1.00  0.00     0.135 A 
ATOM     78  C   UNL A   1      44.453  33.070  32.793  1.00  0.00     0.135 A 
ATOM     79  F   UNL A   1      44.527  33.807  29.234  1.00  0.00    -0.206 F 
ATOM     80  C   UNL A   1      44.794  35.237  31.075  1.00  0.00     0.059 A 
ATOM     81  C   UNL A   1      44.656  34.338  33.327  1.00  0.00     0.059 A 
ATOM     82  F   UNL A   1      44.282  32.044  33.641  1.00  0.00    -0.206 F 
ATOM     83  C   UNL A   1      44.837  35.415  32.459  1.00  0.00     0.060 A 
BRANCH  83  84
ATOM     84  S   UNL A   1      45.092  37.080  33.111  1.00  0.00     0.124 S 
ATOM     85  O   UNL A   1      46.546  37.153  33.169  1.00  0.00    -0.237 OA
ATOM     86  O   UNL A   1      44.449  37.908  32.096  1.00  0.00    -0.237 OA
ATOM     87  O   UNL A   1      44.409  37.041  34.402  1.00  0.00    -0.744 OA
ENDBRANCH  83  84
ENDBRANCH  51  76
BRANCH  63  88
ATOM     88  C   UNL A   1      48.596  27.483  29.934  1.00  0.00     0.058 A 
ATOM     89  C   UNL A   1      49.195  26.877  31.049  1.00  0.00     0.135 A 
ATOM     90  C   UNL A   1      49.432  27.888  28.880  1.00  0.00     0.135 A 
ATOM     91  F   UNL A   1      48.441  26.476  32.085  1.00  0.00    -0.206 F 
ATOM     92  C   UNL A   1      50.573  26.708  31.131  1.00  0.00     0.059 A 
ATOM     93  C   UNL A   1      50.810  27.703  28.928  1.00  0.00     0.059 A 
ATOM     94  F   UNL A   1      48.909  28.462  27.784  1.00  0.00    -0.206 F 
ATOM     95  C   UNL A   1      51.372  27.126  30.066  1.00  0.00     0.060 A 
BRANCH  95  96
ATOM     96  S   UNL A   1      53.158  26.886  30.175  1.00  0.00     0.124 S 
ATOM     97  O   UNL A   1      53.262  25.959  31.296  1.00  0.00    -0.237 OA
ATOM     98  O   UNL A   1      53.480  26.333  28.862  1.00  0.00    -0.237 OA
ATOM     99  O   UNL A   1      53.667  28.232  30.422  1.00  0.00    -0.744 OA
ENDBRANCH  95  96
ENDBRANCH  63  88
ENDBRANCH  37  38
ENDBRANCH  29  32
ENDBRANCH  27  28
ENDBRANCH  26  27
ENDBRANCH  25  26
ENDBRANCH   1  25
TORSDOF 20
ENDMDL
MODEL 2
REMARK VINA RESULT:      -8.1      5.692     12.263
REMARK SMILES C[C@@H](C(=O)NCCCCCCNC(=O)c1ccc(-c2c3nc(c(-c4c(F)cc(S(=O)(=O)[O-])cc4F)c4ccc([nH]4)c(-c4c(F)cc(S(=O)(=O)[O-])cc4F)c4nc(c(-c5c(F)cc(S(=O)(=O)[O-])cc5F)c5ccc2[nH]5)C=C4)C=C3)cc1)c1ccc(C[C@H]2CCC[C@@H]2O)cc1Br
REMARK SMILES IDX 8 1 7 2 6 3 5 4 3 5 4 6 2 8 1 9 81 10 82 11 93 12 83 13
REMARK SMILES IDX 92 14 94 15 84 16 85 17 86 18 87 19 90 20 88 21 89 22 91 23
REMARK SMILES IDX 9 25 10 26 11 27 12 28 13 29 14 31 15 32 16 33 80 34 17 35
REMARK SMILES IDX 79 36 18 37 19 38 20 39 73 40 21 41 78 42 72 43 74 44 22 45
REMARK SMILES IDX 77 46 71 47 70 48 23 50 57 51 36 52 56 53 37 54 40 55 55 56
REMARK SMILES IDX 75 57 38 58 39 59 54 61 76 62 41 63 24 64 25 65 34 66 26 67
REMARK SMILES IDX 27 68 33 69 35 70 28 71 29 72 30 73 31 74 32 75 58 76 59 77
REMARK SMILES IDX 68 78 60 79 61 80 67 81 69 82 62 83 63 84 64 85 65 86 66 87
REMARK SMILES IDX 42 88 43 89 52 90 44 91 45 92 51 93 53 94 46 95 47 96 48 97
REMARK SMILES IDX 49 98 50 99
REMARK H PARENT 5 7 91 24 12 30 74 49 40 60
REMARK Flexibility Score: inf
ROOT
ATOM      1  C   UNL A   1      40.093  22.569  27.169  1.00  0.00     0.002 C 
ENDROOT
BRANCH   1   2
ATOM      2  C   UNL A   1      39.319  21.725  26.145  1.00  0.00     0.021 C 
BRANCH   2   3
ATOM      3  C   UNL A   1      37.879  22.191  25.925  1.00  0.00     0.116 C 
BRANCH   3   4
ATOM      4  N   UNL A   1      37.695  22.634  24.561  1.00  0.00    -0.356 N 
ATOM      5  C   UNL A   1      36.576  23.032  23.898  1.00  0.00     0.227 C 
ATOM      6  O   UNL A   1      36.725  23.320  22.708  1.00  0.00    -0.274 OA
ATOM      7  H   UNL A   1      38.519  22.650  24.022  1.00  0.00     0.163 HD
BRANCH   5   8
ATOM      8  C   UNL A   1      35.252  23.222  24.653  1.00  0.00     0.106 C 
ATOM      9  C   UNL A   1      35.346  23.571  26.144  1.00  0.00     0.023 C 
BRANCH   8  10
ATOM     10  C   UNL A   1      34.294  22.050  24.440  1.00  0.00    -0.022 A 
ATOM     11  C   UNL A   1      34.466  20.922  25.265  1.00  0.00     0.006 A 
ATOM     12  C   UNL A   1      33.270  22.009  23.476  1.00  0.00     0.022 A 
ATOM     13  C   UNL A   1      33.708  19.766  25.079  1.00  0.00     0.004 A 
ATOM     14  C   UNL A   1      32.534  20.835  23.276  1.00  0.00     0.019 A 
ATOM     15  Br  UNL A   1      32.785  23.477  22.366  1.00  0.00    -0.051 Br
ATOM     16  C   UNL A   1      32.783  19.690  24.039  1.00  0.00    -0.047 A 
BRANCH  16  17
ATOM     17  C   UNL A   1      32.106  18.388  23.696  1.00  0.00     0.041 C 
BRANCH  17  18
ATOM     18  C   UNL A   1      32.950  17.127  23.962  1.00  0.00     0.022 C 
ATOM     19  C   UNL A   1      34.476  17.281  23.824  1.00  0.00     0.007 C 
ATOM     20  C   UNL A   1      32.762  16.491  25.342  1.00  0.00     0.117 C 
ATOM     21  C   UNL A   1      35.092  16.366  24.888  1.00  0.00     0.003 C 
ATOM     22  C   UNL A   1      33.941  15.535  25.433  1.00  0.00     0.032 C 
BRANCH  20  23
ATOM     23  O   UNL A   1      31.524  15.812  25.428  1.00  0.00    -0.393 OA
ATOM     24  H   UNL A   1      31.420  15.230  24.658  1.00  0.00     0.210 HD
ENDBRANCH  20  23
ENDBRANCH  17  18
ENDBRANCH  16  17
ENDBRANCH   8  10
ENDBRANCH   5   8
ENDBRANCH   3   4
ENDBRANCH   2   3
ENDBRANCH   1   2
BRANCH   1  25
ATOM     25  C   UNL A   1      41.135  21.799  27.986  1.00  0.00     0.002 C 
BRANCH  25  26
ATOM     26  C   UNL A   1      42.571  21.916  27.471  1.00  0.00     0.021 C 
BRANCH  26  27
ATOM     27  C   UNL A   1      43.144  23.326  27.519  1.00  0.00     0.116 C 
BRANCH  27  28
ATOM     28  N   UNL A   1      42.912  24.047  26.279  1.00  0.00    -0.352 N 
ATOM     29  C   UNL A   1      42.344  25.280  26.093  1.00  0.00     0.251 C 
ATOM     30  H   UNL A   1      43.202  23.585  25.459  1.00  0.00     0.163 HD
ATOM     31  O   UNL A   1      42.039  25.645  24.957  1.00  0.00    -0.269 OA
BRANCH  29  32
ATOM     32  C   UNL A   1      42.087  26.162  27.250  1.00  0.00     0.039 A 
ATOM     33  C   UNL A   1      41.009  25.878  28.090  1.00  0.00     0.014 A 
ATOM     34  C   UNL A   1      42.885  27.287  27.491  1.00  0.00     0.014 A 
ATOM     35  C   UNL A   1      40.744  26.705  29.183  1.00  0.00     0.010 A 
ATOM     36  C   UNL A   1      42.667  28.065  28.623  1.00  0.00     0.010 A 
ATOM     37  C   UNL A   1      41.578  27.798  29.467  1.00  0.00    -0.014 A 
BRANCH  37  38
ATOM     38  C   UNL A   1      41.292  28.702  30.609  1.00  0.00     0.031 A 
ATOM     39  C   UNL A   1      42.131  28.621  31.859  1.00  0.00     0.074 A 
ATOM     40  C   UNL A   1      40.260  29.565  30.541  1.00  0.00     0.049 A 
ATOM     41  N   UNL A   1      42.026  29.302  32.971  1.00  0.00    -0.248 NA
ATOM     42  C   UNL A   1      43.212  27.622  31.870  1.00  0.00     0.031 C 
ATOM     43  C   UNL A   1      39.347  29.703  29.404  1.00  0.00     0.029 A 
ATOM     44  N   UNL A   1      39.806  30.490  31.446  1.00  0.00    -0.354 N 
ATOM     45  C   UNL A   1      43.009  28.800  33.817  1.00  0.00     0.074 A 
ATOM     46  C   UNL A   1      43.664  27.722  33.111  1.00  0.00     0.031 C 
ATOM     47  C   UNL A   1      38.461  30.678  29.668  1.00  0.00     0.029 A 
ATOM     48  C   UNL A   1      38.724  31.214  31.001  1.00  0.00     0.049 A 
ATOM     49  H   UNL A   1      40.215  30.625  32.331  1.00  0.00     0.167 HD
ATOM     50  C   UNL A   1      43.352  29.218  35.059  1.00  0.00     0.037 A 
ATOM     51  C   UNL A   1      38.028  32.201  31.598  1.00  0.00     0.037 A 
ATOM     52  C   UNL A   1      42.723  30.319  35.739  1.00  0.00     0.049 A 
ATOM     53  C   UNL A   1      38.446  32.665  32.967  1.00  0.00     0.074 A 
ATOM     54  C   UNL A   1      43.040  30.867  36.969  1.00  0.00     0.029 A 
ATOM     55  N   UNL A   1      41.650  31.045  35.243  1.00  0.00    -0.354 N 
ATOM     56  N   UNL A   1      39.421  32.225  33.726  1.00  0.00    -0.248 NA
ATOM     57  C   UNL A   1      37.677  33.770  33.555  1.00  0.00     0.031 C 
ATOM     58  C   UNL A   1      42.132  31.897  37.236  1.00  0.00     0.029 A 
ATOM     59  C   UNL A   1      41.281  32.025  36.150  1.00  0.00     0.049 A 
ATOM     60  H   UNL A   1      41.213  30.887  34.375  1.00  0.00     0.167 HD
ATOM     61  C   UNL A   1      39.406  33.022  34.865  1.00  0.00     0.074 A 
ATOM     62  C   UNL A   1      38.330  33.976  34.691  1.00  0.00     0.031 C 
ATOM     63  C   UNL A   1      40.214  32.975  35.954  1.00  0.00     0.037 A 
BRANCH  50  64
ATOM     64  C   UNL A   1      44.460  28.479  35.762  1.00  0.00     0.058 A 
ATOM     65  C   UNL A   1      45.804  28.864  35.631  1.00  0.00     0.135 A 
ATOM     66  C   UNL A   1      44.172  27.387  36.595  1.00  0.00     0.135 A 
ATOM     67  F   UNL A   1      46.140  29.891  34.834  1.00  0.00    -0.206 F 
ATOM     68  C   UNL A   1      46.825  28.170  36.272  1.00  0.00     0.059 A 
ATOM     69  C   UNL A   1      45.174  26.697  37.271  1.00  0.00     0.059 A 
ATOM     70  F   UNL A   1      42.904  26.976  36.758  1.00  0.00    -0.206 F 
ATOM     71  C   UNL A   1      46.501  27.086  37.089  1.00  0.00     0.060 A 
BRANCH  71  72
ATOM     72  S   UNL A   1      47.836  26.194  37.912  1.00  0.00     0.124 S 
ATOM     73  O   UNL A   1      47.089  25.240  38.727  1.00  0.00    -0.237 OA
ATOM     74  O   UNL A   1      48.574  25.626  36.788  1.00  0.00    -0.237 OA
ATOM     75  O   UNL A   1      48.536  27.239  38.654  1.00  0.00    -0.744 OA
ENDBRANCH  71  72
ENDBRANCH  50  64
BRANCH  51  76
ATOM     76  C   UNL A   1      36.896  32.848  30.886  1.00  0.00     0.058 A 
ATOM     77  C   UNL A   1      35.568  32.504  31.181  1.00  0.00     0.135 A 
ATOM     78  C   UNL A   1      37.112  33.829  29.905  1.00  0.00     0.135 A 
ATOM     79  F   UNL A   1      35.310  31.568  32.108  1.00  0.00    -0.206 F 
ATOM     80  C   UNL A   1      34.496  33.092  30.519  1.00  0.00     0.059 A 
ATOM     81  C   UNL A   1      36.056  34.450  29.246  1.00  0.00     0.059 A 
ATOM     82  F   UNL A   1      38.363  34.208  29.598  1.00  0.00    -0.206 F 
ATOM     83  C   UNL A   1      34.750  34.065  29.552  1.00  0.00     0.060 A 
BRANCH  83  84
ATOM     84  S   UNL A   1      33.350  34.854  28.728  1.00  0.00     0.124 S 
ATOM     85  O   UNL A   1      32.466  35.134  29.853  1.00  0.00    -0.237 OA
ATOM     86  O   UNL A   1      33.977  36.015  28.103  1.00  0.00    -0.237 OA
ATOM     87  O   UNL A   1      32.886  33.827  27.799  1.00  0.00    -0.744 OA
ENDBRANCH  83  84
ENDBRANCH  51  76
BRANCH  63  88
ATOM     88  C   UNL A   1      39.999  34.012  37.020  1.00  0.00     0.058 A 
ATOM     89  C   UNL A   1      40.585  35.286  36.947  1.00  0.00     0.135 A 
ATOM     90  C   UNL A   1      39.161  33.738  38.113  1.00  0.00     0.135 A 
ATOM     91  F   UNL A   1      41.397  35.597  35.924  1.00  0.00    -0.206 F 
ATOM     92  C   UNL A   1      40.374  36.240  37.937  1.00  0.00     0.059 A 
ATOM     93  C   UNL A   1      38.913  34.687  39.099  1.00  0.00     0.059 A 
ATOM     94  F   UNL A   1      38.565  32.540  38.225  1.00  0.00    -0.206 F 
ATOM     95  C   UNL A   1      39.537  35.931  39.010  1.00  0.00     0.060 A 
BRANCH  95  96
ATOM     96  S   UNL A   1      39.256  37.183  40.280  1.00  0.00     0.124 S 
ATOM     97  O   UNL A   1      40.622  37.555  40.632  1.00  0.00    -0.237 OA
ATOM     98  O   UNL A   1      38.488  38.193  39.559  1.00  0.00    -0.237 OA
ATOM     99  O   UNL A   1      38.516  36.459  41.311  1.00  0.00    -0.744 OA
ENDBRANCH  95  96
ENDBRANCH  63  88
ENDBRANCH  37  38
ENDBRANCH  29  32
ENDBRANCH  27  28
ENDBRANCH  26  27
ENDBRANCH  25  26
ENDBRANCH   1  25
TORSDOF 20
ENDMDL
MODEL 3
REMARK VINA RESULT:      -8.1      4.002     10.550
REMARK SMILES C[C@@H](C(=O)NCCCCCCNC(=O)c1ccc(-c2c3nc(c(-c4c(F)cc(S(=O)(=O)[O-])cc4F)c4ccc([nH]4)c(-c4c(F)cc(S(=O)(=O)[O-])cc4F)c4nc(c(-c5c(F)cc(S(=O)(=O)[O-])cc5F)c5ccc2[nH]5)C=C4)C=C3)cc1)c1ccc(C[C@H]2CCC[C@@H]2O)cc1Br
REMARK SMILES IDX 8 1 7 2 6 3 5 4 3 5 4 6 2 8 1 9 81 10 82 11 93 12 83 13
REMARK SMILES IDX 92 14 94 15 84 16 85 17 86 18 87 19 90 20 88 21 89 22 91 23
REMARK SMILES IDX 9 25 10 26 11 27 12 28 13 29 14 31 15 32 16 33 80 34 17 35
REMARK SMILES IDX 79 36 18 37 19 38 20 39 73 40 21 41 78 42 72 43 74 44 22 45
REMARK SMILES IDX 77 46 71 47 70 48 23 50 57 51 36 52 56 53 37 54 40 55 55 56
REMARK SMILES IDX 75 57 38 58 39 59 54 61 76 62 41 63 24 64 25 65 34 66 26 67
REMARK SMILES IDX 27 68 33 69 35 70 28 71 29 72 30 73 31 74 32 75 58 76 59 77
REMARK SMILES IDX 68 78 60 79 61 80 67 81 69 82 62 83 63 84 64 85 65 86 66 87
REMARK SMILES IDX 42 88 43 89 52 90 44 91 45 92 51 93 53 94 46 95 47 96 48 97
REMARK SMILES IDX 49 98 50 99
REMARK H PARENT 5 7 91 24 12 30 74 49 40 60
REMARK Flexibility Score: inf
ROOT
ATOM      1  C   UNL A   1      33.660  28.376  26.541  1.00  0.00     0.002 C 
ENDROOT
BRANCH   1   2
ATOM      2  C   UNL A   1      33.036  28.868  25.227  1.00  0.00     0.021 C 
BRANCH   2   3
ATOM      3  C   UNL A   1      31.513  28.725  25.177  1.00  0.00     0.116 C 
BRANCH   3   4
ATOM      4  N   UNL A   1      31.027  28.969  23.838  1.00  0.00    -0.356 N 
ATOM      5  C   UNL A   1      30.447  28.132  22.935  1.00  0.00     0.227 C 
ATOM      6  O   UNL A   1      30.169  28.626  21.840  1.00  0.00    -0.274 OA
ATOM      7  H   UNL A   1      31.133  29.897  23.527  1.00  0.00     0.163 HD
BRANCH   5   8
ATOM      8  C   UNL A   1      30.061  26.701  23.338  1.00  0.00     0.106 C 
ATOM      9  C   UNL A   1      28.877  26.546  24.301  1.00  0.00     0.023 C 
BRANCH   8  10
ATOM     10  C   UNL A   1      31.264  25.901  23.839  1.00  0.00    -0.022 A 
ATOM     11  C   UNL A   1      31.270  25.534  25.199  1.00  0.00     0.006 A 
ATOM     12  C   UNL A   1      32.365  25.519  23.050  1.00  0.00     0.022 A 
ATOM     13  C   UNL A   1      32.367  24.891  25.770  1.00  0.00     0.004 A 
ATOM     14  C   UNL A   1      33.474  24.900  23.638  1.00  0.00     0.019 A 
ATOM     15  Br  UNL A   1      32.481  25.791  21.171  1.00  0.00    -0.051 Br
ATOM     16  C   UNL A   1      33.506  24.630  25.010  1.00  0.00    -0.047 A 
BRANCH  16  17
ATOM     17  C   UNL A   1      34.772  24.125  25.655  1.00  0.00     0.041 C 
BRANCH  17  18
ATOM     18  C   UNL A   1      35.342  22.833  25.040  1.00  0.00     0.022 C 
ATOM     19  C   UNL A   1      36.576  22.992  24.131  1.00  0.00     0.007 C 
ATOM     20  C   UNL A   1      35.755  21.754  26.045  1.00  0.00     0.117 C 
ATOM     21  C   UNL A   1      37.437  21.746  24.366  1.00  0.00     0.003 C 
ATOM     22  C   UNL A   1      36.580  20.802  25.194  1.00  0.00     0.032 C 
BRANCH  20  23
ATOM     23  O   UNL A   1      34.623  21.117  26.605  1.00  0.00    -0.393 OA
ATOM     24  H   UNL A   1      34.794  20.165  26.684  1.00  0.00     0.210 HD
ENDBRANCH  20  23
ENDBRANCH  17  18
ENDBRANCH  16  17
ENDBRANCH   8  10
ENDBRANCH   5   8
ENDBRANCH   3   4
ENDBRANCH   2   3
ENDBRANCH   1   2
BRANCH   1  25
ATOM     25  C   UNL A   1      34.863  29.188  27.029  1.00  0.00     0.002 C 
BRANCH  25  26
ATOM     26  C   UNL A   1      34.510  30.497  27.740  1.00  0.00     0.021 C 
BRANCH  26  27
ATOM     27  C   UNL A   1      35.678  31.156  28.463  1.00  0.00     0.116 C 
BRANCH  27  28
ATOM     28  N   UNL A   1      35.595  30.973  29.902  1.00  0.00    -0.352 N 
ATOM     29  C   UNL A   1      36.488  30.367  30.746  1.00  0.00     0.251 C 
ATOM     30  H   UNL A   1      34.786  31.335  30.330  1.00  0.00     0.163 HD
ATOM     31  O   UNL A   1      36.159  30.121  31.907  1.00  0.00    -0.269 OA
BRANCH  29  32
ATOM     32  C   UNL A   1      37.836  29.999  30.262  1.00  0.00     0.039 A 
ATOM     33  C   UNL A   1      38.094  30.035  28.890  1.00  0.00     0.014 A 
ATOM     34  C   UNL A   1      38.833  29.586  31.152  1.00  0.00     0.014 A 
ATOM     35  C   UNL A   1      39.357  29.681  28.413  1.00  0.00     0.010 A 
ATOM     36  C   UNL A   1      40.113  29.308  30.682  1.00  0.00     0.010 A 
ATOM     37  C   UNL A   1      40.382  29.327  29.306  1.00  0.00    -0.014 A 
BRANCH  37  38
ATOM     38  C   UNL A   1      41.721  28.923  28.810  1.00  0.00     0.031 A 
ATOM     39  C   UNL A   1      42.830  29.940  28.727  1.00  0.00     0.074 A 
ATOM     40  C   UNL A   1      41.931  27.656  28.400  1.00  0.00     0.049 A 
ATOM     41  N   UNL A   1      44.058  29.792  28.300  1.00  0.00    -0.248 NA
ATOM     42  C   UNL A   1      42.507  31.311  29.154  1.00  0.00     0.031 C 
ATOM     43  C   UNL A   1      40.923  26.593  28.387  1.00  0.00     0.029 A 
ATOM     44  N   UNL A   1      43.061  27.048  27.916  1.00  0.00    -0.354 N 
ATOM     45  C   UNL A   1      44.643  31.051  28.386  1.00  0.00     0.074 A 
ATOM     46  C   UNL A   1      43.622  31.960  28.855  1.00  0.00     0.031 C 
ATOM     47  C   UNL A   1      41.490  25.457  27.948  1.00  0.00     0.029 A 
ATOM     48  C   UNL A   1      42.889  25.716  27.621  1.00  0.00     0.049 A 
ATOM     49  H   UNL A   1      43.916  27.521  27.791  1.00  0.00     0.167 HD
ATOM     50  C   UNL A   1      45.922  31.410  28.124  1.00  0.00     0.037 A 
ATOM     51  C   UNL A   1      43.762  24.806  27.147  1.00  0.00     0.037 A 
ATOM     52  C   UNL A   1      46.944  30.490  27.698  1.00  0.00     0.049 A 
ATOM     53  C   UNL A   1      45.186  25.224  26.890  1.00  0.00     0.074 A 
ATOM     54  C   UNL A   1      48.286  30.737  27.472  1.00  0.00     0.029 A 
ATOM     55  N   UNL A   1      46.737  29.143  27.438  1.00  0.00    -0.354 N 
ATOM     56  N   UNL A   1      45.740  26.404  27.041  1.00  0.00    -0.248 NA
ATOM     57  C   UNL A   1      46.105  24.184  26.411  1.00  0.00     0.031 C 
ATOM     58  C   UNL A   1      48.883  29.550  27.035  1.00  0.00     0.029 A 
ATOM     59  C   UNL A   1      47.923  28.550  27.038  1.00  0.00     0.049 A 
ATOM     60  H   UNL A   1      45.874  28.677  27.524  1.00  0.00     0.167 HD
ATOM     61  C   UNL A   1      47.080  26.239  26.710  1.00  0.00     0.074 A 
ATOM     62  C   UNL A   1      47.254  24.844  26.358  1.00  0.00     0.031 C 
ATOM     63  C   UNL A   1      48.079  27.156  26.704  1.00  0.00     0.037 A 
BRANCH  50  64
ATOM     64  C   UNL A   1      46.288  32.861  28.292  1.00  0.00     0.058 A 
ATOM     65  C   UNL A   1      46.707  33.379  29.528  1.00  0.00     0.135 A 
ATOM     66  C   UNL A   1      46.241  33.739  27.198  1.00  0.00     0.135 A 
ATOM     67  F   UNL A   1      46.755  32.589  30.613  1.00  0.00    -0.206 F 
ATOM     68  C   UNL A   1      47.031  34.724  29.681  1.00  0.00     0.059 A 
ATOM     69  C   UNL A   1      46.590  35.080  27.321  1.00  0.00     0.059 A 
ATOM     70  F   UNL A   1      45.849  33.297  25.992  1.00  0.00    -0.206 F 
ATOM     71  C   UNL A   1      46.967  35.568  28.572  1.00  0.00     0.060 A 
BRANCH  71  72
ATOM     72  S   UNL A   1      47.388  37.309  28.786  1.00  0.00     0.124 S 
ATOM     73  O   UNL A   1      47.522  37.400  30.237  1.00  0.00    -0.237 OA
ATOM     74  O   UNL A   1      48.629  37.428  28.027  1.00  0.00    -0.237 OA
ATOM     75  O   UNL A   1      46.239  38.009  28.217  1.00  0.00    -0.744 OA
ENDBRANCH  71  72
ENDBRANCH  50  64
BRANCH  51  76
ATOM     76  C   UNL A   1      43.329  23.401  26.931  1.00  0.00     0.058 A 
ATOM     77  C   UNL A   1      43.127  22.902  25.636  1.00  0.00     0.135 A 
ATOM     78  C   UNL A   1      43.119  22.526  28.009  1.00  0.00     0.135 A 
ATOM     79  F   UNL A   1      43.311  23.700  24.574  1.00  0.00    -0.206 F 
ATOM     80  C   UNL A   1      42.713  21.593  25.415  1.00  0.00     0.059 A 
ATOM     81  C   UNL A   1      42.728  21.205  27.812  1.00  0.00     0.059 A 
ATOM     82  F   UNL A   1      43.317  22.949  29.267  1.00  0.00    -0.206 F 
ATOM     83  C   UNL A   1      42.516  20.751  26.510  1.00  0.00     0.060 A 
BRANCH  83  84
ATOM     84  S   UNL A   1      42.020  19.041  26.211  1.00  0.00     0.124 S 
ATOM     85  O   UNL A   1      42.285  18.427  27.506  1.00  0.00    -0.237 OA
ATOM     86  O   UNL A   1      40.613  19.188  25.849  1.00  0.00    -0.237 OA
ATOM     87  O   UNL A   1      42.898  18.623  25.122  1.00  0.00    -0.744 OA
ENDBRANCH  83  84
ENDBRANCH  51  76
BRANCH  63  88
ATOM     88  C   UNL A   1      49.459  26.673  26.354  1.00  0.00     0.058 A 
ATOM     89  C   UNL A   1      49.993  26.823  25.064  1.00  0.00     0.135 A 
ATOM     90  C   UNL A   1      50.273  26.085  27.335  1.00  0.00     0.135 A 
ATOM     91  F   UNL A   1      49.255  27.375  24.088  1.00  0.00    -0.206 F 
ATOM     92  C   UNL A   1      51.273  26.376  24.752  1.00  0.00     0.059 A 
ATOM     93  C   UNL A   1      51.566  25.657  27.053  1.00  0.00     0.059 A 
ATOM     94  F   UNL A   1      49.815  25.929  28.588  1.00  0.00    -0.206 F 
ATOM     95  C   UNL A   1      52.051  25.794  25.753  1.00  0.00     0.060 A 
BRANCH  95  96
ATOM     96  S   UNL A   1      53.718  25.234  25.342  1.00  0.00     0.124 S 
ATOM     97  O   UNL A   1      54.512  25.897  26.370  1.00  0.00    -0.237 OA
ATOM     98  O   UNL A   1      53.601  23.784  25.466  1.00  0.00    -0.237 OA
ATOM     99  O   UNL A   1      53.914  25.726  23.981  1.00  0.00    -0.744 OA
ENDBRANCH  95  96
ENDBRANCH  63  88
ENDBRANCH  37  38
ENDBRANCH  29  32
ENDBRANCH  27  28
ENDBRANCH  26  27
ENDBRANCH  25  26
ENDBRANCH   1  25
TORSDOF 20
ENDMDL
