MODEL 1
REMARK VINA RESULT:     -13.6      0.000      0.000
REMARK SMILES C[C@]1(C(=O)NCCCCCCNC(=O)c2ccc(-c3c4nc(c(-c5c(F)cc(S(=O)(=O)[O-])cc5F)c5ccc([nH]5)c(-c5c(F)cc(S(=O)(=O)[O-])cc5F)c5nc(c(-c6c(F)cc(S(=O)(=O)[O-])cc6F)c6ccc3[nH]6)C=C5)C=C4)cc2)[NH2+]C2(C(=O)c3ccccc3C2=O)[C@@H]2C(=O)N(c3ccccc3)C(=O)[C@H]21
REMARK SMILES IDX 9 1 8 2 7 3 6 4 5 5 3 6 4 7 2 9 1 10 81 11 105 12 82 13
REMARK SMILES IDX 93 16 103 17 83 18 91 19 94 20 96 21 104 22 84 23 85 24
REMARK SMILES IDX 90 25 92 26 95 27 86 28 89 29 87 30 88 31 97 32 98 33 102 34
REMARK SMILES IDX 99 35 101 36 100 37 10 38 11 39 12 40 13 41 14 43 15 44
REMARK SMILES IDX 16 45 80 46 17 47 79 48 18 49 19 50 20 51 73 52 21 53 78 54
REMARK SMILES IDX 72 55 74 56 22 57 77 58 71 59 70 60 23 62 57 63 36 64 56 65
REMARK SMILES IDX 37 66 40 67 55 68 75 69 38 70 39 71 54 73 76 74 41 75 24 76
REMARK SMILES IDX 25 77 34 78 26 79 27 80 33 81 35 82 28 83 29 84 30 85 31 86
REMARK SMILES IDX 32 87 58 88 59 89 68 90 60 91 61 92 67 93 69 94 62 95 63 96
REMARK SMILES IDX 64 97 65 98 66 99 42 100 43 101 52 102 44 103 45 104 51 105
REMARK SMILES IDX 53 106 46 107 47 108 48 109 49 110 50 111
REMARK H PARENT 5 8 81 14 81 15 12 42 74 61 40 72
REMARK Flexibility Score: inf
ROOT
ATOM      1  C   UNL A   1      36.025  33.548  28.753  1.00  0.00     0.002 C 
ENDROOT
BRANCH   1   2
ATOM      2  C   UNL A   1      34.778  32.908  28.126  1.00  0.00     0.002 C 
BRANCH   2   3
ATOM      3  C   UNL A   1      34.715  31.385  28.115  1.00  0.00     0.021 C 
BRANCH   3   4
ATOM      4  C   UNL A   1      33.609  30.756  27.278  1.00  0.00     0.116 C 
BRANCH   4   5
ATOM      5  N   UNL A   1      32.849  29.692  27.865  1.00  0.00    -0.351 N 
ATOM      6  C   UNL A   1      32.622  28.415  27.441  1.00  0.00     0.281 C 
ATOM      7  O   UNL A   1      31.857  27.781  28.188  1.00  0.00    -0.268 OA
ATOM      8  H   UNL A   1      32.418  29.921  28.719  1.00  0.00     0.163 HD
BRANCH   6   9
ATOM      9  C   UNL A   1      33.225  27.706  26.141  1.00  0.00     0.186 C 
ATOM     10  C   UNL A   1      34.619  28.361  25.932  1.00  0.00     0.091 C 
ATOM     11  N   UNL A   1      33.426  26.206  26.288  1.00  0.00    -0.314 N 
ATOM     12  C   UNL A   1      32.490  27.778  24.832  1.00  0.00     0.170 C 
ATOM     13  C   UNL A   1      32.513  25.478  25.296  1.00  0.00     0.236 C 
ATOM     14  H   UNL A   1      33.192  25.923  27.240  1.00  0.00     0.348 HD
ATOM     15  H   UNL A   1      34.399  25.970  26.097  1.00  0.00     0.348 HD
ATOM     16  C   UNL A   1      31.596  26.558  24.800  1.00  0.00     0.177 C 
ATOM     17  C   UNL A   1      31.550  28.842  24.402  1.00  0.00     0.244 C 
ATOM     18  C   UNL A   1      33.284  24.717  24.209  1.00  0.00     0.232 C 
ATOM     19  C   UNL A   1      31.833  24.321  26.059  1.00  0.00     0.232 C 
ATOM     20  C   UNL A   1      30.898  26.808  23.504  1.00  0.00     0.245 C 
ATOM     21  N   UNL A   1      30.727  28.197  23.479  1.00  0.00    -0.250 N 
ATOM     22  O   UNL A   1      31.568  29.997  24.777  1.00  0.00    -0.273 OA
ATOM     23  O   UNL A   1      34.082  25.197  23.423  1.00  0.00    -0.286 OA
ATOM     24  C   UNL A   1      32.959  23.282  24.313  1.00  0.00     0.036 A 
ATOM     25  C   UNL A   1      32.134  23.069  25.403  1.00  0.00     0.036 A 
ATOM     26  O   UNL A   1      31.170  24.329  27.081  1.00  0.00    -0.286 OA
ATOM     27  O   UNL A   1      30.453  25.936  22.779  1.00  0.00    -0.273 OA
ATOM     28  C   UNL A   1      33.371  22.211  23.541  1.00  0.00     0.013 A 
ATOM     29  C   UNL A   1      31.699  21.814  25.798  1.00  0.00     0.013 A 
ATOM     30  C   UNL A   1      32.928  20.928  23.908  1.00  0.00     0.001 A 
ATOM     31  C   UNL A   1      32.104  20.729  25.031  1.00  0.00     0.001 A 
BRANCH  21  32
ATOM     32  C   UNL A   1      29.702  28.889  22.808  1.00  0.00     0.052 A 
ATOM     33  C   UNL A   1      30.023  29.888  21.879  1.00  0.00     0.027 A 
ATOM     34  C   UNL A   1      28.369  28.699  23.184  1.00  0.00     0.027 A 
ATOM     35  C   UNL A   1      29.018  30.680  21.322  1.00  0.00     0.002 A 
ATOM     36  C   UNL A   1      27.374  29.532  22.667  1.00  0.00     0.002 A 
ATOM     37  C   UNL A   1      27.697  30.516  21.732  1.00  0.00     0.000 A 
ENDBRANCH  21  32
ENDBRANCH   6   9
ENDBRANCH   4   5
ENDBRANCH   3   4
ENDBRANCH   2   3
ENDBRANCH   1   2
BRANCH   1  38
ATOM     38  C   UNL A   1      35.992  33.857  30.254  1.00  0.00     0.021 C 
BRANCH  38  39
ATOM     39  C   UNL A   1      36.799  32.938  31.167  1.00  0.00     0.116 C 
BRANCH  39  40
ATOM     40  N   UNL A   1      36.224  31.609  31.309  1.00  0.00    -0.352 N 
ATOM     41  C   UNL A   1      36.741  30.373  30.997  1.00  0.00     0.251 C 
ATOM     42  H   UNL A   1      35.317  31.591  31.689  1.00  0.00     0.163 HD
ATOM     43  O   UNL A   1      36.035  29.374  31.106  1.00  0.00    -0.269 OA
BRANCH  41  44
ATOM     44  C   UNL A   1      38.128  30.244  30.495  1.00  0.00     0.039 A 
ATOM     45  C   UNL A   1      38.407  30.268  29.128  1.00  0.00     0.014 A 
ATOM     46  C   UNL A   1      39.169  30.090  31.418  1.00  0.00     0.014 A 
ATOM     47  C   UNL A   1      39.690  29.958  28.681  1.00  0.00     0.010 A 
ATOM     48  C   UNL A   1      40.472  29.860  30.966  1.00  0.00     0.010 A 
ATOM     49  C   UNL A   1      40.735  29.736  29.594  1.00  0.00    -0.014 A 
BRANCH  49  50
ATOM     50  C   UNL A   1      42.080  29.343  29.093  1.00  0.00     0.031 A 
ATOM     51  C   UNL A   1      42.336  27.936  28.612  1.00  0.00     0.074 A 
ATOM     52  C   UNL A   1      43.055  30.269  29.009  1.00  0.00     0.049 A 
ATOM     53  N   UNL A   1      43.438  27.416  28.133  1.00  0.00    -0.248 NA
ATOM     54  C   UNL A   1      41.210  26.990  28.676  1.00  0.00     0.031 C 
ATOM     55  C   UNL A   1      42.925  31.669  29.420  1.00  0.00     0.029 A 
ATOM     56  N   UNL A   1      44.337  30.184  28.526  1.00  0.00    -0.354 N 
ATOM     57  C   UNL A   1      43.141  26.087  27.844  1.00  0.00     0.074 A 
ATOM     58  C   UNL A   1      41.767  25.869  28.240  1.00  0.00     0.031 C 
ATOM     59  C   UNL A   1      44.058  32.322  29.121  1.00  0.00     0.029 A 
ATOM     60  C   UNL A   1      45.019  31.379  28.558  1.00  0.00     0.049 A 
ATOM     61  H   UNL A   1      44.732  29.347  28.190  1.00  0.00     0.167 HD
ATOM     62  C   UNL A   1      43.934  25.143  27.282  1.00  0.00     0.037 A 
ATOM     63  C   UNL A   1      46.278  31.681  28.187  1.00  0.00     0.037 A 
ATOM     64  C   UNL A   1      45.297  25.368  26.875  1.00  0.00     0.049 A 
ATOM     65  C   UNL A   1      47.159  30.595  27.634  1.00  0.00     0.074 A 
ATOM     66  C   UNL A   1      46.182  24.472  26.300  1.00  0.00     0.029 A 
ATOM     67  N   UNL A   1      45.971  26.575  26.991  1.00  0.00    -0.354 N 
ATOM     68  N   UNL A   1      46.864  29.343  27.383  1.00  0.00    -0.248 NA
ATOM     69  C   UNL A   1      48.548  30.961  27.325  1.00  0.00     0.031 C 
ATOM     70  C   UNL A   1      47.403  25.125  26.104  1.00  0.00     0.029 A 
ATOM     71  C   UNL A   1      47.265  26.442  26.513  1.00  0.00     0.049 A 
ATOM     72  H   UNL A   1      45.587  27.404  27.359  1.00  0.00     0.167 HD
ATOM     73  C   UNL A   1      48.025  28.774  26.872  1.00  0.00     0.074 A 
ATOM     74  C   UNL A   1      49.022  29.825  26.833  1.00  0.00     0.031 C 
ATOM     75  C   UNL A   1      48.247  27.497  26.476  1.00  0.00     0.037 A 
BRANCH  62  76
ATOM     76  C   UNL A   1      43.351  23.771  27.067  1.00  0.00     0.058 A 
ATOM     77  C   UNL A   1      42.959  23.334  25.792  1.00  0.00     0.135 A 
ATOM     78  C   UNL A   1      43.247  22.861  28.132  1.00  0.00     0.135 A 
ATOM     79  F   UNL A   1      43.022  24.167  24.741  1.00  0.00    -0.206 F 
ATOM     80  C   UNL A   1      42.470  22.048  25.583  1.00  0.00     0.059 A 
ATOM     81  C   UNL A   1      42.783  21.562  27.941  1.00  0.00     0.059 A 
ATOM     82  F   UNL A   1      43.607  23.227  29.371  1.00  0.00    -0.206 F 
ATOM     83  C   UNL A   1      42.390  21.168  26.663  1.00  0.00     0.060 A 
BRANCH  83  84
ATOM     84  S   UNL A   1      41.768  19.498  26.367  1.00  0.00     0.124 S 
ATOM     85  O   UNL A   1      42.214  18.803  27.571  1.00  0.00    -0.237 OA
ATOM     86  O   UNL A   1      40.330  19.718  26.259  1.00  0.00    -0.237 OA
ATOM     87  O   UNL A   1      42.434  19.100  25.131  1.00  0.00    -0.744 OA
ENDBRANCH  83  84
ENDBRANCH  62  76
BRANCH  63  88
ATOM     88  C   UNL A   1      46.778  33.074  28.325  1.00  0.00     0.058 A 
ATOM     89  C   UNL A   1      47.388  33.505  29.513  1.00  0.00     0.135 A 
ATOM     90  C   UNL A   1      46.674  33.996  27.272  1.00  0.00     0.135 A 
ATOM     91  F   UNL A   1      47.504  32.663  30.551  1.00  0.00    -0.206 F 
ATOM     92  C   UNL A   1      47.870  34.802  29.655  1.00  0.00     0.059 A 
ATOM     93  C   UNL A   1      47.173  35.289  27.380  1.00  0.00     0.059 A 
ATOM     94  F   UNL A   1      46.109  33.630  26.111  1.00  0.00    -0.206 F 
ATOM     95  C   UNL A   1      47.763  35.685  28.579  1.00  0.00     0.060 A 
BRANCH  95  96
ATOM     96  S   UNL A   1      48.440  37.349  28.758  1.00  0.00     0.124 S 
ATOM     97  O   UNL A   1      49.109  37.533  27.474  1.00  0.00    -0.237 OA
ATOM     98  O   UNL A   1      47.237  38.147  28.971  1.00  0.00    -0.237 OA
ATOM     99  O   UNL A   1      49.319  37.232  29.917  1.00  0.00    -0.744 OA
ENDBRANCH  95  96
ENDBRANCH  63  88
BRANCH  75 100
ATOM    100  C   UNL A   1      49.613  27.161  25.947  1.00  0.00     0.058 A 
ATOM    101  C   UNL A   1      50.630  26.691  26.791  1.00  0.00     0.135 A 
ATOM    102  C   UNL A   1      49.885  27.246  24.572  1.00  0.00     0.135 A 
ATOM    103  F   UNL A   1      50.423  26.600  28.114  1.00  0.00    -0.206 F 
ATOM    104  C   UNL A   1      51.878  26.331  26.291  1.00  0.00     0.059 A 
ATOM    105  C   UNL A   1      51.117  26.866  24.048  1.00  0.00     0.059 A 
ATOM    106  F   UNL A   1      48.942  27.682  23.721  1.00  0.00    -0.206 F 
ATOM    107  C   UNL A   1      52.110  26.418  24.917  1.00  0.00     0.060 A 
BRANCH 107 108
ATOM    108  S   UNL A   1      53.719  25.904  24.281  1.00  0.00     0.124 S 
ATOM    109  O   UNL A   1      54.613  26.844  24.950  1.00  0.00    -0.237 OA
ATOM    110  O   UNL A   1      53.804  24.519  24.732  1.00  0.00    -0.237 OA
ATOM    111  O   UNL A   1      53.588  26.082  22.838  1.00  0.00    -0.744 OA
ENDBRANCH 107 108
ENDBRANCH  75 100
ENDBRANCH  49  50
ENDBRANCH  41  44
ENDBRANCH  39  40
ENDBRANCH  38  39
ENDBRANCH   1  38
TORSDOF 17
ENDMDL
MODEL 2
REMARK VINA RESULT:     -13.6      0.380      7.651
REMARK SMILES C[C@]1(C(=O)NCCCCCCNC(=O)c2ccc(-c3c4nc(c(-c5c(F)cc(S(=O)(=O)[O-])cc5F)c5ccc([nH]5)c(-c5c(F)cc(S(=O)(=O)[O-])cc5F)c5nc(c(-c6c(F)cc(S(=O)(=O)[O-])cc6F)c6ccc3[nH]6)C=C5)C=C4)cc2)[NH2+]C2(C(=O)c3ccccc3C2=O)[C@@H]2C(=O)N(c3ccccc3)C(=O)[C@H]21
REMARK SMILES IDX 9 1 8 2 7 3 6 4 5 5 3 6 4 7 2 9 1 10 81 11 105 12 82 13
REMARK SMILES IDX 93 16 103 17 83 18 91 19 94 20 96 21 104 22 84 23 85 24
REMARK SMILES IDX 90 25 92 26 95 27 86 28 89 29 87 30 88 31 97 32 98 33 102 34
REMARK SMILES IDX 99 35 101 36 100 37 10 38 11 39 12 40 13 41 14 43 15 44
REMARK SMILES IDX 16 45 80 46 17 47 79 48 18 49 19 50 20 51 73 52 21 53 78 54
REMARK SMILES IDX 72 55 74 56 22 57 77 58 71 59 70 60 23 62 57 63 36 64 56 65
REMARK SMILES IDX 37 66 40 67 55 68 75 69 38 70 39 71 54 73 76 74 41 75 24 76
REMARK SMILES IDX 25 77 34 78 26 79 27 80 33 81 35 82 28 83 29 84 30 85 31 86
REMARK SMILES IDX 32 87 58 88 59 89 68 90 60 91 61 92 67 93 69 94 62 95 63 96
REMARK SMILES IDX 64 97 65 98 66 99 42 100 43 101 52 102 44 103 45 104 51 105
REMARK SMILES IDX 53 106 46 107 47 108 48 109 49 110 50 111
REMARK H PARENT 5 8 81 14 81 15 12 42 74 61 40 72
REMARK Flexibility Score: inf
ROOT
ATOM      1  C   UNL A   1      36.183  33.366  28.688  1.00  0.00     0.002 C 
ENDROOT
BRANCH   1   2
ATOM      2  C   UNL A   1      34.911  32.820  28.025  1.00  0.00     0.002 C 
BRANCH   2   3
ATOM      3  C   UNL A   1      34.724  31.307  28.030  1.00  0.00     0.021 C 
BRANCH   3   4
ATOM      4  C   UNL A   1      33.519  30.767  27.272  1.00  0.00     0.116 C 
BRANCH   4   5
ATOM      5  N   UNL A   1      32.781  29.691  27.866  1.00  0.00    -0.351 N 
ATOM      6  C   UNL A   1      32.579  28.408  27.450  1.00  0.00     0.281 C 
ATOM      7  O   UNL A   1      31.829  27.763  28.202  1.00  0.00    -0.268 OA
ATOM      8  H   UNL A   1      32.347  29.916  28.720  1.00  0.00     0.163 HD
BRANCH   6   9
ATOM      9  C   UNL A   1      33.194  27.704  26.153  1.00  0.00     0.186 C 
ATOM     10  C   UNL A   1      34.589  28.362  25.957  1.00  0.00     0.091 C 
ATOM     11  N   UNL A   1      33.396  26.204  26.296  1.00  0.00    -0.314 N 
ATOM     12  C   UNL A   1      32.470  27.779  24.837  1.00  0.00     0.170 C 
ATOM     13  C   UNL A   1      32.493  25.478  25.294  1.00  0.00     0.236 C 
ATOM     14  H   UNL A   1      33.155  25.917  27.245  1.00  0.00     0.348 HD
ATOM     15  H   UNL A   1      34.372  25.970  26.112  1.00  0.00     0.348 HD
ATOM     16  C   UNL A   1      31.578  26.558  24.795  1.00  0.00     0.177 C 
ATOM     17  C   UNL A   1      31.531  28.843  24.404  1.00  0.00     0.244 C 
ATOM     18  C   UNL A   1      33.274  24.722  24.211  1.00  0.00     0.232 C 
ATOM     19  C   UNL A   1      31.808  24.317  26.048  1.00  0.00     0.232 C 
ATOM     20  C   UNL A   1      30.890  26.810  23.494  1.00  0.00     0.245 C 
ATOM     21  N   UNL A   1      30.717  28.199  23.472  1.00  0.00    -0.250 N 
ATOM     22  O   UNL A   1      31.544  29.997  24.782  1.00  0.00    -0.273 OA
ATOM     23  O   UNL A   1      34.077  25.205  23.433  1.00  0.00    -0.286 OA
ATOM     24  C   UNL A   1      32.951  23.285  24.308  1.00  0.00     0.036 A 
ATOM     25  C   UNL A   1      32.117  23.067  25.390  1.00  0.00     0.036 A 
ATOM     26  O   UNL A   1      31.138  24.321  27.065  1.00  0.00    -0.286 OA
ATOM     27  O   UNL A   1      30.453  25.940  22.762  1.00  0.00    -0.273 OA
ATOM     28  C   UNL A   1      33.371  22.218  23.536  1.00  0.00     0.013 A 
ATOM     29  C   UNL A   1      31.681  21.811  25.778  1.00  0.00     0.013 A 
ATOM     30  C   UNL A   1      32.927  20.932  23.895  1.00  0.00     0.001 A 
ATOM     31  C   UNL A   1      32.094  20.729  25.011  1.00  0.00     0.001 A 
BRANCH  21  32
ATOM     32  C   UNL A   1      29.697  28.892  22.795  1.00  0.00     0.052 A 
ATOM     33  C   UNL A   1      30.023  29.888  21.865  1.00  0.00     0.027 A 
ATOM     34  C   UNL A   1      28.361  28.705  23.166  1.00  0.00     0.027 A 
ATOM     35  C   UNL A   1      29.022  30.680  21.301  1.00  0.00     0.002 A 
ATOM     36  C   UNL A   1      27.370  29.539  22.642  1.00  0.00     0.002 A 
ATOM     37  C   UNL A   1      27.699  30.520  21.707  1.00  0.00     0.000 A 
ENDBRANCH  21  32
ENDBRANCH   6   9
ENDBRANCH   4   5
ENDBRANCH   3   4
ENDBRANCH   2   3
ENDBRANCH   1   2
BRANCH   1  38
ATOM     38  C   UNL A   1      36.081  33.859  30.135  1.00  0.00     0.021 C 
BRANCH  38  39
ATOM     39  C   UNL A   1      36.744  32.998  31.207  1.00  0.00     0.116 C 
BRANCH  39  40
ATOM     40  N   UNL A   1      36.158  31.672  31.333  1.00  0.00    -0.352 N 
ATOM     41  C   UNL A   1      36.651  30.438  30.979  1.00  0.00     0.251 C 
ATOM     42  H   UNL A   1      35.261  31.656  31.738  1.00  0.00     0.163 HD
ATOM     43  O   UNL A   1      35.937  29.445  31.083  1.00  0.00    -0.269 OA
BRANCH  41  44
ATOM     44  C   UNL A   1      38.022  30.306  30.436  1.00  0.00     0.039 A 
ATOM     45  C   UNL A   1      38.265  30.357  29.063  1.00  0.00     0.014 A 
ATOM     46  C   UNL A   1      39.086  30.119  31.326  1.00  0.00     0.014 A 
ATOM     47  C   UNL A   1      39.531  30.044  28.574  1.00  0.00     0.010 A 
ATOM     48  C   UNL A   1      40.374  29.886  30.833  1.00  0.00     0.010 A 
ATOM     49  C   UNL A   1      40.598  29.789  29.452  1.00  0.00    -0.014 A 
BRANCH  49  50
ATOM     50  C   UNL A   1      41.924  29.394  28.906  1.00  0.00     0.031 A 
ATOM     51  C   UNL A   1      43.072  30.373  28.903  1.00  0.00     0.074 A 
ATOM     52  C   UNL A   1      42.117  28.132  28.473  1.00  0.00     0.049 A 
ATOM     53  N   UNL A   1      44.300  30.204  28.479  1.00  0.00    -0.248 NA
ATOM     54  C   UNL A   1      42.810  31.716  29.445  1.00  0.00     0.031 C 
ATOM     55  C   UNL A   1      41.093  27.085  28.447  1.00  0.00     0.029 A 
ATOM     56  N   UNL A   1      43.242  27.506  27.999  1.00  0.00    -0.354 N 
ATOM     57  C   UNL A   1      44.951  31.414  28.698  1.00  0.00     0.074 A 
ATOM     58  C   UNL A   1      43.973  32.323  29.253  1.00  0.00     0.031 C 
ATOM     59  C   UNL A   1      41.649  25.936  28.036  1.00  0.00     0.029 A 
ATOM     60  C   UNL A   1      43.051  26.175  27.706  1.00  0.00     0.049 A 
ATOM     61  H   UNL A   1      44.105  27.965  27.878  1.00  0.00     0.167 HD
ATOM     62  C   UNL A   1      46.250  31.731  28.476  1.00  0.00     0.037 A 
ATOM     63  C   UNL A   1      43.902  25.253  27.218  1.00  0.00     0.037 A 
ATOM     64  C   UNL A   1      47.225  30.818  27.936  1.00  0.00     0.049 A 
ATOM     65  C   UNL A   1      45.319  25.653  26.911  1.00  0.00     0.074 A 
ATOM     66  C   UNL A   1      48.564  31.049  27.671  1.00  0.00     0.029 A 
ATOM     67  N   UNL A   1      46.971  29.501  27.587  1.00  0.00    -0.354 N 
ATOM     68  N   UNL A   1      45.911  26.806  27.112  1.00  0.00    -0.248 NA
ATOM     69  C   UNL A   1      46.180  24.631  26.302  1.00  0.00     0.031 C 
ATOM     70  C   UNL A   1      49.111  29.883  27.125  1.00  0.00     0.029 A 
ATOM     71  C   UNL A   1      48.124  28.911  27.094  1.00  0.00     0.049 A 
ATOM     72  H   UNL A   1      46.100  29.050  27.676  1.00  0.00     0.167 HD
ATOM     73  C   UNL A   1      47.218  26.643  26.668  1.00  0.00     0.074 A 
ATOM     74  C   UNL A   1      47.335  25.275  26.205  1.00  0.00     0.031 C 
ATOM     75  C   UNL A   1      48.228  27.547  26.640  1.00  0.00     0.037 A 
BRANCH  62  76
ATOM     76  C   UNL A   1      46.703  33.126  28.817  1.00  0.00     0.058 A 
ATOM     77  C   UNL A   1      46.625  34.171  27.882  1.00  0.00     0.135 A 
ATOM     78  C   UNL A   1      47.155  33.437  30.110  1.00  0.00     0.135 A 
ATOM     79  F   UNL A   1      46.215  33.926  26.627  1.00  0.00    -0.206 F 
ATOM     80  C   UNL A   1      46.994  35.471  28.213  1.00  0.00     0.059 A 
ATOM     81  C   UNL A   1      47.506  34.736  30.469  1.00  0.00     0.059 A 
ATOM     82  F   UNL A   1      47.250  32.477  31.042  1.00  0.00    -0.206 F 
ATOM     83  C   UNL A   1      47.429  35.745  29.510  1.00  0.00     0.060 A 
BRANCH  83  84
ATOM     84  S   UNL A   1      47.886  37.442  29.923  1.00  0.00     0.124 S 
ATOM     85  O   UNL A   1      48.836  37.233  31.011  1.00  0.00    -0.237 OA
ATOM     86  O   UNL A   1      48.456  37.923  28.669  1.00  0.00    -0.237 OA
ATOM     87  O   UNL A   1      46.618  38.054  30.308  1.00  0.00    -0.744 OA
ENDBRANCH  83  84
ENDBRANCH  62  76
BRANCH  63  88
ATOM     88  C   UNL A   1      43.436  23.860  26.990  1.00  0.00     0.058 A 
ATOM     89  C   UNL A   1      43.373  22.941  28.048  1.00  0.00     0.135 A 
ATOM     90  C   UNL A   1      43.028  23.424  25.720  1.00  0.00     0.135 A 
ATOM     91  F   UNL A   1      43.759  23.308  29.279  1.00  0.00    -0.206 F 
ATOM     92  C   UNL A   1      42.929  21.637  27.854  1.00  0.00     0.059 A 
ATOM     93  C   UNL A   1      42.554  22.134  25.507  1.00  0.00     0.059 A 
ATOM     94  F   UNL A   1      43.059  24.268  24.677  1.00  0.00    -0.206 F 
ATOM     95  C   UNL A   1      42.516  21.245  26.580  1.00  0.00     0.060 A 
BRANCH  95  96
ATOM     96  S   UNL A   1      41.893  19.566  26.353  1.00  0.00     0.124 S 
ATOM     97  O   UNL A   1      42.618  19.142  25.160  1.00  0.00    -0.237 OA
ATOM     98  O   UNL A   1      42.288  18.923  27.602  1.00  0.00    -0.237 OA
ATOM     99  O   UNL A   1      40.456  19.760  26.184  1.00  0.00    -0.744 OA
ENDBRANCH  95  96
ENDBRANCH  63  88
BRANCH  75 100
ATOM    100  C   UNL A   1      49.557  27.087  26.111  1.00  0.00     0.058 A 
ATOM    101  C   UNL A   1      50.529  26.530  26.956  1.00  0.00     0.135 A 
ATOM    102  C   UNL A   1      49.835  27.142  24.735  1.00  0.00     0.135 A 
ATOM    103  F   UNL A   1      50.317  26.463  28.280  1.00  0.00    -0.206 F 
ATOM    104  C   UNL A   1      51.739  26.057  26.457  1.00  0.00     0.059 A 
ATOM    105  C   UNL A   1      51.027  26.650  24.211  1.00  0.00     0.059 A 
ATOM    106  F   UNL A   1      48.934  27.657  23.883  1.00  0.00    -0.206 F 
ATOM    107  C   UNL A   1      51.976  26.117  25.082  1.00  0.00     0.060 A 
BRANCH 107 108
ATOM    108  S   UNL A   1      53.532  25.458  24.447  1.00  0.00     0.124 S 
ATOM    109  O   UNL A   1      53.443  25.807  23.033  1.00  0.00    -0.237 OA
ATOM    110  O   UNL A   1      54.522  26.198  25.222  1.00  0.00    -0.237 OA
ATOM    111  O   UNL A   1      53.447  24.032  24.748  1.00  0.00    -0.744 OA
ENDBRANCH 107 108
ENDBRANCH  75 100
ENDBRANCH  49  50
ENDBRANCH  41  44
ENDBRANCH  39  40
ENDBRANCH  38  39
ENDBRANCH   1  38
TORSDOF 17
ENDMDL
MODEL 3
REMARK VINA RESULT:     -13.4      5.968     10.223
REMARK SMILES C[C@]1(C(=O)NCCCCCCNC(=O)c2ccc(-c3c4nc(c(-c5c(F)cc(S(=O)(=O)[O-])cc5F)c5ccc([nH]5)c(-c5c(F)cc(S(=O)(=O)[O-])cc5F)c5nc(c(-c6c(F)cc(S(=O)(=O)[O-])cc6F)c6ccc3[nH]6)C=C5)C=C4)cc2)[NH2+]C2(C(=O)c3ccccc3C2=O)[C@@H]2C(=O)N(c3ccccc3)C(=O)[C@H]21
REMARK SMILES IDX 9 1 8 2 7 3 6 4 5 5 3 6 4 7 2 9 1 10 81 11 105 12 82 13
REMARK SMILES IDX 93 16 103 17 83 18 91 19 94 20 96 21 104 22 84 23 85 24
REMARK SMILES IDX 90 25 92 26 95 27 86 28 89 29 87 30 88 31 97 32 98 33 102 34
REMARK SMILES IDX 99 35 101 36 100 37 10 38 11 39 12 40 13 41 14 43 15 44
REMARK SMILES IDX 16 45 80 46 17 47 79 48 18 49 19 50 20 51 73 52 21 53 78 54
REMARK SMILES IDX 72 55 74 56 22 57 77 58 71 59 70 60 23 62 57 63 36 64 56 65
REMARK SMILES IDX 37 66 40 67 55 68 75 69 38 70 39 71 54 73 76 74 41 75 24 76
REMARK SMILES IDX 25 77 34 78 26 79 27 80 33 81 35 82 28 83 29 84 30 85 31 86
REMARK SMILES IDX 32 87 58 88 59 89 68 90 60 91 61 92 67 93 69 94 62 95 63 96
REMARK SMILES IDX 64 97 65 98 66 99 42 100 43 101 52 102 44 103 45 104 51 105
REMARK SMILES IDX 53 106 46 107 47 108 48 109 49 110 50 111
REMARK H PARENT 5 8 81 14 81 15 12 42 74 61 40 72
REMARK Flexibility Score: inf
ROOT
ATOM      1  C   UNL A   1      34.414  33.779  28.110  1.00  0.00     0.002 C 
ENDROOT
BRANCH   1   2
ATOM      2  C   UNL A   1      34.727  32.490  28.883  1.00  0.00     0.002 C 
BRANCH   2   3
ATOM      3  C   UNL A   1      34.868  31.211  28.067  1.00  0.00     0.021 C 
BRANCH   3   4
ATOM      4  C   UNL A   1      33.633  30.752  27.303  1.00  0.00     0.116 C 
BRANCH   4   5
ATOM      5  N   UNL A   1      32.848  29.697  27.873  1.00  0.00    -0.351 N 
ATOM      6  C   UNL A   1      32.604  28.427  27.437  1.00  0.00     0.281 C 
ATOM      7  O   UNL A   1      31.819  27.801  28.170  1.00  0.00    -0.268 OA
ATOM      8  H   UNL A   1      32.411  29.927  28.724  1.00  0.00     0.163 HD
BRANCH   6   9
ATOM      9  C   UNL A   1      33.210  27.717  26.139  1.00  0.00     0.186 C 
ATOM     10  C   UNL A   1      34.605  28.372  25.933  1.00  0.00     0.091 C 
ATOM     11  N   UNL A   1      33.412  26.218  26.287  1.00  0.00    -0.314 N 
ATOM     12  C   UNL A   1      32.479  27.788  24.828  1.00  0.00     0.170 C 
ATOM     13  C   UNL A   1      32.502  25.488  25.294  1.00  0.00     0.236 C 
ATOM     14  H   UNL A   1      33.176  25.935  27.239  1.00  0.00     0.348 HD
ATOM     15  H   UNL A   1      34.386  25.982  26.099  1.00  0.00     0.348 HD
ATOM     16  C   UNL A   1      31.585  26.567  24.795  1.00  0.00     0.177 C 
ATOM     17  C   UNL A   1      31.539  28.851  24.395  1.00  0.00     0.244 C 
ATOM     18  C   UNL A   1      33.275  24.727  24.210  1.00  0.00     0.232 C 
ATOM     19  C   UNL A   1      31.821  24.332  26.057  1.00  0.00     0.232 C 
ATOM     20  C   UNL A   1      30.890  26.815  23.498  1.00  0.00     0.245 C 
ATOM     21  N   UNL A   1      30.718  28.204  23.470  1.00  0.00    -0.250 N 
ATOM     22  O   UNL A   1      31.555  30.006  24.768  1.00  0.00    -0.273 OA
ATOM     23  O   UNL A   1      34.075  25.206  23.425  1.00  0.00    -0.286 OA
ATOM     24  C   UNL A   1      32.952  23.291  24.314  1.00  0.00     0.036 A 
ATOM     25  C   UNL A   1      32.124  23.078  25.402  1.00  0.00     0.036 A 
ATOM     26  O   UNL A   1      31.156  24.340  27.077  1.00  0.00    -0.286 OA
ATOM     27  O   UNL A   1      30.447  25.942  22.772  1.00  0.00    -0.273 OA
ATOM     28  C   UNL A   1      33.366  22.220  23.544  1.00  0.00     0.013 A 
ATOM     29  C   UNL A   1      31.689  21.824  25.798  1.00  0.00     0.013 A 
ATOM     30  C   UNL A   1      32.923  20.936  23.911  1.00  0.00     0.001 A 
ATOM     31  C   UNL A   1      32.097  20.739  25.033  1.00  0.00     0.001 A 
BRANCH  21  32
ATOM     32  C   UNL A   1      29.695  28.895  22.797  1.00  0.00     0.052 A 
ATOM     33  C   UNL A   1      30.016  29.884  21.858  1.00  0.00     0.027 A 
ATOM     34  C   UNL A   1      28.361  28.714  23.179  1.00  0.00     0.027 A 
ATOM     35  C   UNL A   1      29.013  30.676  21.297  1.00  0.00     0.002 A 
ATOM     36  C   UNL A   1      27.368  29.548  22.657  1.00  0.00     0.002 A 
ATOM     37  C   UNL A   1      27.693  30.522  21.713  1.00  0.00     0.000 A 
ENDBRANCH  21  32
ENDBRANCH   6   9
ENDBRANCH   4   5
ENDBRANCH   3   4
ENDBRANCH   2   3
ENDBRANCH   1   2
BRANCH   1  38
ATOM     38  C   UNL A   1      33.106  34.508  28.435  1.00  0.00     0.021 C 
BRANCH  38  39
ATOM     39  C   UNL A   1      33.224  35.876  29.102  1.00  0.00     0.116 C 
BRANCH  39  40
ATOM     40  N   UNL A   1      32.498  35.975  30.359  1.00  0.00    -0.352 N 
ATOM     41  C   UNL A   1      32.764  35.425  31.591  1.00  0.00     0.251 C 
ATOM     42  H   UNL A   1      31.683  36.525  30.321  1.00  0.00     0.163 HD
ATOM     43  O   UNL A   1      31.952  35.557  32.503  1.00  0.00    -0.269 OA
BRANCH  41  44
ATOM     44  C   UNL A   1      34.001  34.644  31.814  1.00  0.00     0.039 A 
ATOM     45  C   UNL A   1      33.958  33.361  32.361  1.00  0.00     0.014 A 
ATOM     46  C   UNL A   1      35.232  35.216  31.471  1.00  0.00     0.014 A 
ATOM     47  C   UNL A   1      35.144  32.729  32.730  1.00  0.00     0.010 A 
ATOM     48  C   UNL A   1      36.421  34.542  31.769  1.00  0.00     0.010 A 
ATOM     49  C   UNL A   1      36.389  33.318  32.453  1.00  0.00    -0.014 A 
BRANCH  49  50
ATOM     50  C   UNL A   1      37.638  32.654  32.915  1.00  0.00     0.031 A 
ATOM     51  C   UNL A   1      38.246  33.013  34.248  1.00  0.00     0.074 A 
ATOM     52  C   UNL A   1      38.190  31.679  32.165  1.00  0.00     0.049 A 
ATOM     53  N   UNL A   1      39.322  32.534  34.820  1.00  0.00    -0.248 NA
ATOM     54  C   UNL A   1      37.559  34.043  35.043  1.00  0.00     0.031 C 
ATOM     55  C   UNL A   1      37.683  31.224  30.869  1.00  0.00     0.029 A 
ATOM     56  N   UNL A   1      39.280  30.877  32.395  1.00  0.00    -0.354 N 
ATOM     57  C   UNL A   1      39.443  33.204  36.033  1.00  0.00     0.074 A 
ATOM     58  C   UNL A   1      38.355  34.154  36.098  1.00  0.00     0.031 C 
ATOM     59  C   UNL A   1      38.424  30.190  30.445  1.00  0.00     0.029 A 
ATOM     60  C   UNL A   1      39.498  29.948  31.404  1.00  0.00     0.049 A 
ATOM     61  H   UNL A   1      39.852  30.959  33.192  1.00  0.00     0.167 HD
ATOM     62  C   UNL A   1      40.364  33.029  37.012  1.00  0.00     0.037 A 
ATOM     63  C   UNL A   1      40.459  29.013  31.274  1.00  0.00     0.037 A 
ATOM     64  C   UNL A   1      41.438  32.071  36.950  1.00  0.00     0.049 A 
ATOM     65  C   UNL A   1      41.511  28.890  32.341  1.00  0.00     0.074 A 
ATOM     66  C   UNL A   1      42.424  31.823  37.890  1.00  0.00     0.029 A 
ATOM     67  N   UNL A   1      41.664  31.199  35.896  1.00  0.00    -0.354 N 
ATOM     68  N   UNL A   1      41.616  29.544  33.473  1.00  0.00    -0.248 NA
ATOM     69  C   UNL A   1      42.582  27.913  32.107  1.00  0.00     0.031 C 
ATOM     70  C   UNL A   1      43.269  30.828  37.388  1.00  0.00     0.029 A 
ATOM     71  C   UNL A   1      42.783  30.422  36.156  1.00  0.00     0.049 A 
ATOM     72  H   UNL A   1      41.112  31.139  35.083  1.00  0.00     0.167 HD
ATOM     73  C   UNL A   1      42.755  29.045  34.095  1.00  0.00     0.074 A 
ATOM     74  C   UNL A   1      43.294  28.023  33.221  1.00  0.00     0.031 C 
ATOM     75  C   UNL A   1      43.307  29.406  35.279  1.00  0.00     0.037 A 
BRANCH  62  76
ATOM     76  C   UNL A   1      40.256  33.889  38.243  1.00  0.00     0.058 A 
ATOM     77  C   UNL A   1      40.979  35.086  38.365  1.00  0.00     0.135 A 
ATOM     78  C   UNL A   1      39.372  33.549  39.280  1.00  0.00     0.135 A 
ATOM     79  F   UNL A   1      41.850  35.451  37.412  1.00  0.00    -0.206 F 
ATOM     80  C   UNL A   1      40.840  35.908  39.480  1.00  0.00     0.059 A 
ATOM     81  C   UNL A   1      39.199  34.369  40.392  1.00  0.00     0.059 A 
ATOM     82  F   UNL A   1      38.657  32.415  39.214  1.00  0.00    -0.206 F 
ATOM     83  C   UNL A   1      39.944  35.543  40.486  1.00  0.00     0.060 A 
BRANCH  83  84
ATOM     84  S   UNL A   1      39.766  36.633  41.914  1.00  0.00     0.124 S 
ATOM     85  O   UNL A   1      41.127  36.648  42.442  1.00  0.00    -0.237 OA
ATOM     86  O   UNL A   1      39.311  37.876  41.301  1.00  0.00    -0.237 OA
ATOM     87  O   UNL A   1      38.780  35.950  42.746  1.00  0.00    -0.744 OA
ENDBRANCH  83  84
ENDBRANCH  62  76
BRANCH  63  88
ATOM     88  C   UNL A   1      40.467  28.117  30.087  1.00  0.00     0.058 A 
ATOM     89  C   UNL A   1      41.398  28.301  29.054  1.00  0.00     0.135 A 
ATOM     90  C   UNL A   1      39.560  27.052  29.968  1.00  0.00     0.135 A 
ATOM     91  F   UNL A   1      42.281  29.309  29.118  1.00  0.00    -0.206 F 
ATOM     92  C   UNL A   1      41.426  27.466  27.942  1.00  0.00     0.059 A 
ATOM     93  C   UNL A   1      39.586  26.187  28.880  1.00  0.00     0.059 A 
ATOM     94  F   UNL A   1      38.657  26.828  30.935  1.00  0.00    -0.206 F 
ATOM     95  C   UNL A   1      40.519  26.408  27.867  1.00  0.00     0.060 A 
BRANCH  95  96
ATOM     96  S   UNL A   1      40.600  25.300  26.445  1.00  0.00     0.124 S 
ATOM     97  O   UNL A   1      41.598  24.330  26.884  1.00  0.00    -0.237 OA
ATOM     98  O   UNL A   1      39.228  24.809  26.362  1.00  0.00    -0.237 OA
ATOM     99  O   UNL A   1      41.010  26.180  25.355  1.00  0.00    -0.744 OA
ENDBRANCH  95  96
ENDBRANCH  63  88
BRANCH  75 100
ATOM    100  C   UNL A   1      44.549  28.680  35.716  1.00  0.00     0.058 A 
ATOM    101  C   UNL A   1      45.828  29.196  35.456  1.00  0.00     0.135 A 
ATOM    102  C   UNL A   1      44.457  27.492  36.459  1.00  0.00     0.135 A 
ATOM    103  F   UNL A   1      45.971  30.324  34.742  1.00  0.00    -0.206 F 
ATOM    104  C   UNL A   1      46.975  28.550  35.906  1.00  0.00     0.059 A 
ATOM    105  C   UNL A   1      45.591  26.844  36.941  1.00  0.00     0.059 A 
ATOM    106  F   UNL A   1      43.256  26.962  36.741  1.00  0.00    -0.206 F 
ATOM    107  C   UNL A   1      46.846  27.377  36.652  1.00  0.00     0.060 A 
BRANCH 107 108
ATOM    108  S   UNL A   1      48.342  26.576  37.266  1.00  0.00     0.124 S 
ATOM    109  O   UNL A   1      47.839  25.873  38.441  1.00  0.00    -0.237 OA
ATOM    110  O   UNL A   1      48.727  25.733  36.139  1.00  0.00    -0.237 OA
ATOM    111  O   UNL A   1      49.240  27.694  37.540  1.00  0.00    -0.744 OA
ENDBRANCH 107 108
ENDBRANCH  75 100
ENDBRANCH  49  50
ENDBRANCH  41  44
ENDBRANCH  39  40
ENDBRANCH  38  39
ENDBRANCH   1  38
TORSDOF 17
ENDMDL
