MODEL 1
REMARK VINA RESULT:     -11.4      0.000      0.000
REMARK SMILES CC1(C)CCN(c2ncccc2C(=O)NCCCCCCNC(=O)c2ccc(-c3c4nc(c(-c5c(F)cc(S(=O)(=O)[O-])cc5F)c5ccc([nH]5)c(-c5c(F)cc(S(=O)(=O)[O-])cc5F)c5nc(c(-c6c(F)cc(S(=O)(=O)[O-])cc6F)c6ccc3[nH]6)C=C5)C=C4)cc2)C1
REMARK SMILES IDX 19 1 18 2 17 3 16 4 15 5 13 6 14 7 12 9 7 10 8 11 9 12 11 13
REMARK SMILES IDX 10 14 6 15 1 16 2 17 3 18 4 19 91 20 5 21 20 22 21 23 22 24
REMARK SMILES IDX 23 25 24 27 25 28 26 29 90 30 27 31 89 32 28 33 29 34 30 35
REMARK SMILES IDX 83 36 31 37 88 38 82 39 84 40 32 41 87 42 81 43 80 44 33 46
REMARK SMILES IDX 67 47 46 48 66 49 47 50 50 51 65 52 85 53 48 54 49 55 64 57
REMARK SMILES IDX 86 58 51 59 34 60 35 61 44 62 36 63 37 64 43 65 45 66 38 67
REMARK SMILES IDX 39 68 40 69 41 70 42 71 68 72 69 73 78 74 70 75 71 76 77 77
REMARK SMILES IDX 79 78 72 79 73 80 74 81 75 82 76 83 52 84 53 85 62 86 54 87
REMARK SMILES IDX 55 88 61 89 63 90 56 91 57 92 58 93 59 94 60 95
REMARK H PARENT 15 8 22 26 84 45 50 56
REMARK Flexibility Score: inf
ROOT
ATOM      1  C   UNL A   1      37.421  20.682  24.820  1.00  0.00     0.002 C 
ENDROOT
BRANCH   1   2
ATOM      2  C   UNL A   1      37.733  22.096  25.331  1.00  0.00     0.002 C 
BRANCH   2   3
ATOM      3  C   UNL A   1      37.176  23.235  24.461  1.00  0.00     0.021 C 
BRANCH   3   4
ATOM      4  C   UNL A   1      36.641  22.756  23.113  1.00  0.00     0.116 C 
BRANCH   4   5
ATOM      5  N   UNL A   1      35.237  23.070  23.001  1.00  0.00    -0.352 N 
ATOM      6  C   UNL A   1      34.117  22.967  23.779  1.00  0.00     0.255 C 
ATOM      7  O   UNL A   1      33.117  23.395  23.197  1.00  0.00    -0.269 OA
ATOM      8  H   UNL A   1      35.028  23.467  22.125  1.00  0.00     0.163 HD
BRANCH   6   9
ATOM      9  C   UNL A   1      34.072  22.468  25.202  1.00  0.00     0.082 A 
ATOM     10  C   UNL A   1      33.575  21.175  25.479  1.00  0.00     0.141 A 
ATOM     11  N   UNL A   1      33.273  20.779  26.749  1.00  0.00    -0.238 NA
ATOM     12  C   UNL A   1      33.528  21.614  27.772  1.00  0.00     0.113 A 
ATOM     13  C   UNL A   1      34.417  23.255  26.308  1.00  0.00     0.019 A 
ATOM     14  C   UNL A   1      34.124  22.842  27.606  1.00  0.00     0.021 A 
BRANCH  10  15
ATOM     15  N   UNL A   1      33.441  20.195  24.527  1.00  0.00    -0.355 N 
ATOM     16  C   UNL A   1      32.478  17.191  25.067  1.00  0.00     0.013 C 
ATOM     17  C   UNL A   1      33.332  17.885  23.995  1.00  0.00    -0.016 C 
ATOM     18  C   UNL A   1      34.155  16.838  23.242  1.00  0.00     0.013 C 
ATOM     19  C   UNL A   1      32.459  18.713  23.035  1.00  0.00     0.030 C 
ATOM     20  C   UNL A   1      34.229  18.969  24.635  1.00  0.00     0.124 C 
ATOM     21  C   UNL A   1      32.200  20.005  23.808  1.00  0.00     0.119 C 
ENDBRANCH  10  15
ENDBRANCH   6   9
ENDBRANCH   4   5
ENDBRANCH   3   4
ENDBRANCH   2   3
ENDBRANCH   1   2
BRANCH   1  22
ATOM     22  C   UNL A   1      38.507  19.645  25.115  1.00  0.00     0.021 C 
BRANCH  22  23
ATOM     23  C   UNL A   1      39.613  20.157  26.027  1.00  0.00     0.116 C 
BRANCH  23  24
ATOM     24  N   UNL A   1      40.642  19.149  26.230  1.00  0.00    -0.352 N 
ATOM     25  C   UNL A   1      42.001  19.318  26.318  1.00  0.00     0.251 C 
ATOM     26  H   UNL A   1      40.320  18.222  26.317  1.00  0.00     0.163 HD
ATOM     27  O   UNL A   1      42.751  18.353  26.241  1.00  0.00    -0.269 OA
BRANCH  25  28
ATOM     28  C   UNL A   1      42.544  20.681  26.493  1.00  0.00     0.039 A 
ATOM     29  C   UNL A   1      42.990  21.388  25.376  1.00  0.00     0.014 A 
ATOM     30  C   UNL A   1      42.597  21.258  27.766  1.00  0.00     0.014 A 
ATOM     31  C   UNL A   1      43.447  22.698  25.530  1.00  0.00     0.010 A 
ATOM     32  C   UNL A   1      42.975  22.588  27.904  1.00  0.00     0.010 A 
ATOM     33  C   UNL A   1      43.416  23.318  26.789  1.00  0.00    -0.014 A 
BRANCH  33  34
ATOM     34  C   UNL A   1      43.861  24.721  26.978  1.00  0.00     0.031 A 
ATOM     35  C   UNL A   1      45.314  25.072  26.795  1.00  0.00     0.074 A 
ATOM     36  C   UNL A   1      42.980  25.656  27.382  1.00  0.00     0.049 A 
ATOM     37  N   UNL A   1      45.923  26.208  27.014  1.00  0.00    -0.248 NA
ATOM     38  C   UNL A   1      46.203  23.993  26.333  1.00  0.00     0.031 C 
ATOM     39  C   UNL A   1      41.555  25.428  27.627  1.00  0.00     0.029 A 
ATOM     40  N   UNL A   1      43.156  26.986  27.673  1.00  0.00    -0.354 N 
ATOM     41  C   UNL A   1      47.265  25.976  26.734  1.00  0.00     0.074 A 
ATOM     42  C   UNL A   1      47.390  24.580  26.385  1.00  0.00     0.031 C 
ATOM     43  C   UNL A   1      40.984  26.580  28.014  1.00  0.00     0.029 A 
ATOM     44  C   UNL A   1      42.007  27.618  28.090  1.00  0.00     0.049 A 
ATOM     45  H   UNL A   1      44.023  27.445  27.592  1.00  0.00     0.167 HD
ATOM     46  C   UNL A   1      48.295  26.856  26.744  1.00  0.00     0.037 A 
ATOM     47  C   UNL A   1      41.805  28.885  28.501  1.00  0.00     0.037 A 
ATOM     48  C   UNL A   1      48.153  28.251  27.071  1.00  0.00     0.049 A 
ATOM     49  C   UNL A   1      42.969  29.841  28.521  1.00  0.00     0.074 A 
ATOM     50  C   UNL A   1      49.123  29.237  27.061  1.00  0.00     0.029 A 
ATOM     51  N   UNL A   1      46.969  28.856  27.467  1.00  0.00    -0.354 N 
ATOM     52  N   UNL A   1      44.222  29.620  28.201  1.00  0.00    -0.248 NA
ATOM     53  C   UNL A   1      42.694  31.217  28.955  1.00  0.00     0.031 C 
ATOM     54  C   UNL A   1      48.538  30.428  27.504  1.00  0.00     0.029 A 
ATOM     55  C   UNL A   1      47.190  30.199  27.727  1.00  0.00     0.049 A 
ATOM     56  H   UNL A   1      46.101  28.400  27.551  1.00  0.00     0.167 HD
ATOM     57  C   UNL A   1      44.875  30.838  28.355  1.00  0.00     0.074 A 
ATOM     58  C   UNL A   1      43.879  31.792  28.796  1.00  0.00     0.031 C 
ATOM     59  C   UNL A   1      46.181  31.140  28.146  1.00  0.00     0.037 A 
BRANCH  46  60
ATOM     60  C   UNL A   1      49.662  26.337  26.392  1.00  0.00     0.058 A 
ATOM     61  C   UNL A   1      50.185  26.448  25.092  1.00  0.00     0.135 A 
ATOM     62  C   UNL A   1      50.479  25.754  27.375  1.00  0.00     0.135 A 
ATOM     63  F   UNL A   1      49.444  26.982  24.109  1.00  0.00    -0.206 F 
ATOM     64  C   UNL A   1      51.452  25.970  24.773  1.00  0.00     0.059 A 
ATOM     65  C   UNL A   1      51.763  25.300  27.086  1.00  0.00     0.059 A 
ATOM     66  F   UNL A   1      50.031  25.621  28.634  1.00  0.00    -0.206 F 
ATOM     67  C   UNL A   1      52.234  25.398  25.778  1.00  0.00     0.060 A 
BRANCH  67  68
ATOM     68  S   UNL A   1      53.877  24.790  25.348  1.00  0.00     0.124 S 
ATOM     69  O   UNL A   1      54.617  25.061  26.577  1.00  0.00    -0.237 OA
ATOM     70  O   UNL A   1      53.622  23.382  25.059  1.00  0.00    -0.237 OA
ATOM     71  O   UNL A   1      54.253  25.606  24.197  1.00  0.00    -0.744 OA
ENDBRANCH  67  68
ENDBRANCH  46  60
BRANCH  47  72
ATOM     72  C   UNL A   1      40.445  29.328  28.910  1.00  0.00     0.058 A 
ATOM     73  C   UNL A   1      39.451  29.585  27.954  1.00  0.00     0.135 A 
ATOM     74  C   UNL A   1      40.107  29.493  30.263  1.00  0.00     0.135 A 
ATOM     75  F   UNL A   1      39.726  29.448  26.648  1.00  0.00    -0.206 F 
ATOM     76  C   UNL A   1      38.178  30.010  28.321  1.00  0.00     0.059 A 
ATOM     77  C   UNL A   1      38.833  29.889  30.656  1.00  0.00     0.059 A 
ATOM     78  F   UNL A   1      41.015  29.244  31.219  1.00  0.00    -0.206 F 
ATOM     79  C   UNL A   1      37.878  30.156  29.677  1.00  0.00     0.060 A 
BRANCH  79  80
ATOM     80  S   UNL A   1      36.209  30.668  30.142  1.00  0.00     0.124 S 
ATOM     81  O   UNL A   1      35.436  30.238  28.983  1.00  0.00    -0.237 OA
ATOM     82  O   UNL A   1      35.991  29.913  31.372  1.00  0.00    -0.237 OA
ATOM     83  O   UNL A   1      36.339  32.112  30.316  1.00  0.00    -0.744 OA
ENDBRANCH  79  80
ENDBRANCH  47  72
BRANCH  59  84
ATOM     84  C   UNL A   1      46.608  32.571  28.333  1.00  0.00     0.058 A 
ATOM     85  C   UNL A   1      47.168  33.028  29.536  1.00  0.00     0.135 A 
ATOM     86  C   UNL A   1      46.529  33.475  27.260  1.00  0.00     0.135 A 
ATOM     87  F   UNL A   1      47.261  32.207  30.594  1.00  0.00    -0.206 F 
ATOM     88  C   UNL A   1      47.624  34.335  29.672  1.00  0.00     0.059 A 
ATOM     89  C   UNL A   1      47.005  34.777  27.365  1.00  0.00     0.059 A 
ATOM     90  F   UNL A   1      46.008  33.085  26.085  1.00  0.00    -0.206 F 
ATOM     91  C   UNL A   1      47.545  35.200  28.578  1.00  0.00     0.060 A 
BRANCH  91  92
ATOM     92  S   UNL A   1      48.195  36.875  28.752  1.00  0.00     0.124 S 
ATOM     93  O   UNL A   1      47.027  37.681  28.411  1.00  0.00    -0.237 OA
ATOM     94  O   UNL A   1      48.600  36.907  30.153  1.00  0.00    -0.237 OA
ATOM     95  O   UNL A   1      49.289  36.918  27.787  1.00  0.00    -0.744 OA
ENDBRANCH  91  92
ENDBRANCH  59  84
ENDBRANCH  33  34
ENDBRANCH  25  28
ENDBRANCH  23  24
ENDBRANCH  22  23
ENDBRANCH   1  22
TORSDOF 17
ENDMDL
MODEL 2
REMARK VINA RESULT:     -11.3      6.123      8.406
REMARK SMILES CC1(C)CCN(c2ncccc2C(=O)NCCCCCCNC(=O)c2ccc(-c3c4nc(c(-c5c(F)cc(S(=O)(=O)[O-])cc5F)c5ccc([nH]5)c(-c5c(F)cc(S(=O)(=O)[O-])cc5F)c5nc(c(-c6c(F)cc(S(=O)(=O)[O-])cc6F)c6ccc3[nH]6)C=C5)C=C4)cc2)C1
REMARK SMILES IDX 19 1 18 2 17 3 16 4 15 5 13 6 14 7 12 9 7 10 8 11 9 12 11 13
REMARK SMILES IDX 10 14 6 15 1 16 2 17 3 18 4 19 91 20 5 21 20 22 21 23 22 24
REMARK SMILES IDX 23 25 24 27 25 28 26 29 90 30 27 31 89 32 28 33 29 34 30 35
REMARK SMILES IDX 83 36 31 37 88 38 82 39 84 40 32 41 87 42 81 43 80 44 33 46
REMARK SMILES IDX 67 47 46 48 66 49 47 50 50 51 65 52 85 53 48 54 49 55 64 57
REMARK SMILES IDX 86 58 51 59 34 60 35 61 44 62 36 63 37 64 43 65 45 66 38 67
REMARK SMILES IDX 39 68 40 69 41 70 42 71 68 72 69 73 78 74 70 75 71 76 77 77
REMARK SMILES IDX 79 78 72 79 73 80 74 81 75 82 76 83 52 84 53 85 62 86 54 87
REMARK SMILES IDX 55 88 61 89 63 90 56 91 57 92 58 93 59 94 60 95
REMARK H PARENT 15 8 22 26 84 45 50 56
REMARK Flexibility Score: inf
ROOT
ATOM      1  C   UNL A   1      39.110  22.038  26.017  1.00  0.00     0.002 C 
ENDROOT
BRANCH   1   2
ATOM      2  C   UNL A   1      38.314  23.305  26.358  1.00  0.00     0.002 C 
BRANCH   2   3
ATOM      3  C   UNL A   1      37.145  23.609  25.406  1.00  0.00     0.021 C 
BRANCH   3   4
ATOM      4  C   UNL A   1      36.855  22.473  24.427  1.00  0.00     0.116 C 
BRANCH   4   5
ATOM      5  N   UNL A   1      35.869  22.896  23.462  1.00  0.00    -0.352 N 
ATOM      6  C   UNL A   1      34.521  23.128  23.434  1.00  0.00     0.255 C 
ATOM      7  O   UNL A   1      34.144  23.488  22.316  1.00  0.00    -0.269 OA
ATOM      8  H   UNL A   1      36.278  23.062  22.582  1.00  0.00     0.163 HD
BRANCH   6   9
ATOM      9  C   UNL A   1      33.585  23.038  24.613  1.00  0.00     0.082 A 
ATOM     10  C   UNL A   1      32.820  21.868  24.818  1.00  0.00     0.141 A 
ATOM     11  N   UNL A   1      31.782  21.835  25.703  1.00  0.00    -0.238 NA
ATOM     12  C   UNL A   1      31.530  22.921  26.456  1.00  0.00     0.113 A 
ATOM     13  C   UNL A   1      33.350  24.100  25.495  1.00  0.00     0.019 A 
ATOM     14  C   UNL A   1      32.300  24.058  26.411  1.00  0.00     0.021 A 
BRANCH  10  15
ATOM     15  N   UNL A   1      33.104  20.664  24.224  1.00  0.00    -0.355 N 
ATOM     16  C   UNL A   1      32.540  17.781  25.492  1.00  0.00     0.013 C 
ATOM     17  C   UNL A   1      33.521  18.339  24.449  1.00  0.00    -0.016 C 
ATOM     18  C   UNL A   1      34.673  17.352  24.254  1.00  0.00     0.013 C 
ATOM     19  C   UNL A   1      32.808  18.644  23.119  1.00  0.00     0.030 C 
ATOM     20  C   UNL A   1      34.027  19.736  24.875  1.00  0.00     0.124 C 
ATOM     21  C   UNL A   1      32.146  19.998  23.369  1.00  0.00     0.119 C 
ENDBRANCH  10  15
ENDBRANCH   6   9
ENDBRANCH   4   5
ENDBRANCH   3   4
ENDBRANCH   2   3
ENDBRANCH   1   2
BRANCH   1  22
ATOM     22  C   UNL A   1      40.264  21.734  26.976  1.00  0.00     0.021 C 
BRANCH  22  23
ATOM     23  C   UNL A   1      41.043  22.968  27.409  1.00  0.00     0.116 C 
BRANCH  23  24
ATOM     24  N   UNL A   1      41.539  23.712  26.262  1.00  0.00    -0.352 N 
ATOM     25  C   UNL A   1      41.657  25.071  26.108  1.00  0.00     0.251 C 
ATOM     26  H   UNL A   1      41.829  23.169  25.494  1.00  0.00     0.163 HD
ATOM     27  O   UNL A   1      41.855  25.554  25.000  1.00  0.00    -0.269 OA
BRANCH  25  28
ATOM     28  C   UNL A   1      41.528  25.940  27.296  1.00  0.00     0.039 A 
ATOM     29  C   UNL A   1      42.640  26.656  27.743  1.00  0.00     0.014 A 
ATOM     30  C   UNL A   1      40.300  26.053  27.955  1.00  0.00     0.014 A 
ATOM     31  C   UNL A   1      42.507  27.525  28.827  1.00  0.00     0.010 A 
ATOM     32  C   UNL A   1      40.151  26.978  28.981  1.00  0.00     0.010 A 
ATOM     33  C   UNL A   1      41.256  27.714  29.435  1.00  0.00    -0.014 A 
BRANCH  33  34
ATOM     34  C   UNL A   1      41.077  28.658  30.568  1.00  0.00     0.031 A 
ATOM     35  C   UNL A   1      41.928  28.513  31.800  1.00  0.00     0.074 A 
ATOM     36  C   UNL A   1      40.105  29.590  30.516  1.00  0.00     0.049 A 
ATOM     37  N   UNL A   1      41.859  29.161  32.933  1.00  0.00    -0.248 NA
ATOM     38  C   UNL A   1      42.979  27.482  31.763  1.00  0.00     0.031 C 
ATOM     39  C   UNL A   1      39.193  29.802  29.391  1.00  0.00     0.029 A 
ATOM     40  N   UNL A   1      39.712  30.525  31.441  1.00  0.00    -0.354 N 
ATOM     41  C   UNL A   1      42.840  28.607  33.747  1.00  0.00     0.074 A 
ATOM     42  C   UNL A   1      43.453  27.532  32.999  1.00  0.00     0.031 C 
ATOM     43  C   UNL A   1      38.360  30.813  29.683  1.00  0.00     0.029 A 
ATOM     44  C   UNL A   1      38.644  31.292  31.033  1.00  0.00     0.049 A 
ATOM     45  H   UNL A   1      40.151  30.636  32.314  1.00  0.00     0.167 HD
ATOM     46  C   UNL A   1      43.213  28.977  34.995  1.00  0.00     0.037 A 
ATOM     47  C   UNL A   1      37.964  32.259  31.678  1.00  0.00     0.037 A 
ATOM     48  C   UNL A   1      42.610  30.064  35.721  1.00  0.00     0.049 A 
ATOM     49  C   UNL A   1      38.384  32.641  33.073  1.00  0.00     0.074 A 
ATOM     50  C   UNL A   1      42.947  30.553  36.971  1.00  0.00     0.029 A 
ATOM     51  N   UNL A   1      41.547  30.830  35.264  1.00  0.00    -0.354 N 
ATOM     52  N   UNL A   1      39.350  32.143  33.808  1.00  0.00    -0.248 NA
ATOM     53  C   UNL A   1      37.626  33.717  33.726  1.00  0.00     0.031 C 
ATOM     54  C   UNL A   1      42.052  31.578  37.293  1.00  0.00     0.029 A 
ATOM     55  C   UNL A   1      41.200  31.772  36.218  1.00  0.00     0.049 A 
ATOM     56  H   UNL A   1      41.103  30.719  34.392  1.00  0.00     0.167 HD
ATOM     57  C   UNL A   1      39.342  32.872  34.993  1.00  0.00     0.074 A 
ATOM     58  C   UNL A   1      38.276  33.845  34.876  1.00  0.00     0.031 C 
ATOM     59  C   UNL A   1      40.148  32.749  36.077  1.00  0.00     0.037 A 
BRANCH  46  60
ATOM     60  C   UNL A   1      44.320  28.201  35.655  1.00  0.00     0.058 A 
ATOM     61  C   UNL A   1      45.666  28.580  35.529  1.00  0.00     0.135 A 
ATOM     62  C   UNL A   1      44.030  27.083  36.454  1.00  0.00     0.135 A 
ATOM     63  F   UNL A   1      46.005  29.631  34.765  1.00  0.00    -0.206 F 
ATOM     64  C   UNL A   1      46.687  27.862  36.144  1.00  0.00     0.059 A 
ATOM     65  C   UNL A   1      45.031  26.369  37.107  1.00  0.00     0.059 A 
ATOM     66  F   UNL A   1      42.760  26.674  36.609  1.00  0.00    -0.206 F 
ATOM     67  C   UNL A   1      46.358  26.758  36.932  1.00  0.00     0.060 A 
BRANCH  67  68
ATOM     68  S   UNL A   1      47.693  25.842  37.729  1.00  0.00     0.124 S 
ATOM     69  O   UNL A   1      48.849  26.277  36.950  1.00  0.00    -0.237 OA
ATOM     70  O   UNL A   1      47.633  26.335  39.101  1.00  0.00    -0.237 OA
ATOM     71  O   UNL A   1      47.305  24.446  37.549  1.00  0.00    -0.744 OA
ENDBRANCH  67  68
ENDBRANCH  46  60
BRANCH  47  72
ATOM     72  C   UNL A   1      36.827  32.945  31.007  1.00  0.00     0.058 A 
ATOM     73  C   UNL A   1      35.500  32.621  31.325  1.00  0.00     0.135 A 
ATOM     74  C   UNL A   1      37.042  33.942  30.043  1.00  0.00     0.135 A 
ATOM     75  F   UNL A   1      35.241  31.670  32.235  1.00  0.00    -0.206 F 
ATOM     76  C   UNL A   1      34.426  33.246  30.697  1.00  0.00     0.059 A 
ATOM     77  C   UNL A   1      35.985  34.602  29.423  1.00  0.00     0.059 A 
ATOM     78  F   UNL A   1      38.293  34.302  29.714  1.00  0.00    -0.206 F 
ATOM     79  C   UNL A   1      34.680  34.238  29.749  1.00  0.00     0.060 A 
BRANCH  79  80
ATOM     80  S   UNL A   1      33.278  35.071  28.972  1.00  0.00     0.124 S 
ATOM     81  O   UNL A   1      32.819  34.057  28.030  1.00  0.00    -0.237 OA
ATOM     82  O   UNL A   1      32.405  35.326  30.113  1.00  0.00    -0.237 OA
ATOM     83  O   UNL A   1      33.883  36.259  28.377  1.00  0.00    -0.744 OA
ENDBRANCH  79  80
ENDBRANCH  47  72
BRANCH  59  84
ATOM     84  C   UNL A   1      39.954  33.722  37.207  1.00  0.00     0.058 A 
ATOM     85  C   UNL A   1      40.696  34.911  37.299  1.00  0.00     0.135 A 
ATOM     86  C   UNL A   1      38.952  33.498  38.166  1.00  0.00     0.135 A 
ATOM     87  F   UNL A   1      41.670  35.170  36.413  1.00  0.00    -0.206 F 
ATOM     88  C   UNL A   1      40.458  35.837  38.310  1.00  0.00     0.059 A 
ATOM     89  C   UNL A   1      38.677  34.423  39.167  1.00  0.00     0.059 A 
ATOM     90  F   UNL A   1      38.208  32.381  38.118  1.00  0.00    -0.206 F 
ATOM     91  C   UNL A   1      39.441  35.587  39.234  1.00  0.00     0.060 A 
BRANCH  91  92
ATOM     92  S   UNL A   1      39.105  36.826  40.504  1.00  0.00     0.124 S 
ATOM     93  O   UNL A   1      40.454  37.207  40.909  1.00  0.00    -0.237 OA
ATOM     94  O   UNL A   1      38.357  37.836  39.763  1.00  0.00    -0.237 OA
ATOM     95  O   UNL A   1      38.335  36.091  41.502  1.00  0.00    -0.744 OA
ENDBRANCH  91  92
ENDBRANCH  59  84
ENDBRANCH  33  34
ENDBRANCH  25  28
ENDBRANCH  23  24
ENDBRANCH  22  23
ENDBRANCH   1  22
TORSDOF 17
ENDMDL
MODEL 3
REMARK VINA RESULT:     -11.3      3.586      8.996
REMARK SMILES CC1(C)CCN(c2ncccc2C(=O)NCCCCCCNC(=O)c2ccc(-c3c4nc(c(-c5c(F)cc(S(=O)(=O)[O-])cc5F)c5ccc([nH]5)c(-c5c(F)cc(S(=O)(=O)[O-])cc5F)c5nc(c(-c6c(F)cc(S(=O)(=O)[O-])cc6F)c6ccc3[nH]6)C=C5)C=C4)cc2)C1
REMARK SMILES IDX 19 1 18 2 17 3 16 4 15 5 13 6 14 7 12 9 7 10 8 11 9 12 11 13
REMARK SMILES IDX 10 14 6 15 1 16 2 17 3 18 4 19 91 20 5 21 20 22 21 23 22 24
REMARK SMILES IDX 23 25 24 27 25 28 26 29 90 30 27 31 89 32 28 33 29 34 30 35
REMARK SMILES IDX 83 36 31 37 88 38 82 39 84 40 32 41 87 42 81 43 80 44 33 46
REMARK SMILES IDX 67 47 46 48 66 49 47 50 50 51 65 52 85 53 48 54 49 55 64 57
REMARK SMILES IDX 86 58 51 59 34 60 35 61 44 62 36 63 37 64 43 65 45 66 38 67
REMARK SMILES IDX 39 68 40 69 41 70 42 71 68 72 69 73 78 74 70 75 71 76 77 77
REMARK SMILES IDX 79 78 72 79 73 80 74 81 75 82 76 83 52 84 53 85 62 86 54 87
REMARK SMILES IDX 55 88 61 89 63 90 56 91 57 92 58 93 59 94 60 95
REMARK H PARENT 15 8 22 26 84 45 50 56
REMARK Flexibility Score: inf
ROOT
ATOM      1  C   UNL A   1      31.924  27.592  25.272  1.00  0.00     0.002 C 
ENDROOT
BRANCH   1   2
ATOM      2  C   UNL A   1      30.939  26.573  24.682  1.00  0.00     0.002 C 
BRANCH   2   3
ATOM      3  C   UNL A   1      31.437  25.849  23.420  1.00  0.00     0.021 C 
BRANCH   3   4
ATOM      4  C   UNL A   1      31.548  24.336  23.600  1.00  0.00     0.116 C 
BRANCH   4   5
ATOM      5  N   UNL A   1      32.821  23.874  23.100  1.00  0.00    -0.352 N 
ATOM      6  C   UNL A   1      33.929  23.246  23.597  1.00  0.00     0.255 C 
ATOM      7  O   UNL A   1      34.782  23.068  22.723  1.00  0.00    -0.269 OA
ATOM      8  H   UNL A   1      32.918  24.063  22.139  1.00  0.00     0.163 HD
BRANCH   6   9
ATOM      9  C   UNL A   1      34.104  22.748  25.010  1.00  0.00     0.082 A 
ATOM     10  C   UNL A   1      33.719  21.431  25.346  1.00  0.00     0.141 A 
ATOM     11  N   UNL A   1      33.613  21.022  26.643  1.00  0.00    -0.238 NA
ATOM     12  C   UNL A   1      33.959  21.873  27.627  1.00  0.00     0.113 A 
ATOM     13  C   UNL A   1      34.553  23.555  26.063  1.00  0.00     0.019 A 
ATOM     14  C   UNL A   1      34.461  23.129  27.387  1.00  0.00     0.021 A 
BRANCH  10  15
ATOM     15  N   UNL A   1      33.509  20.443  24.416  1.00  0.00    -0.355 N 
ATOM     16  C   UNL A   1      32.394  17.508  25.035  1.00  0.00     0.013 C 
ATOM     17  C   UNL A   1      33.260  18.134  23.931  1.00  0.00    -0.016 C 
ATOM     18  C   UNL A   1      34.007  17.029  23.180  1.00  0.00     0.013 C 
ATOM     19  C   UNL A   1      32.413  18.992  22.974  1.00  0.00     0.030 C 
ATOM     20  C   UNL A   1      34.231  19.177  24.530  1.00  0.00     0.124 C 
ATOM     21  C   UNL A   1      32.243  20.309  23.728  1.00  0.00     0.119 C 
ENDBRANCH  10  15
ENDBRANCH   6   9
ENDBRANCH   4   5
ENDBRANCH   3   4
ENDBRANCH   2   3
ENDBRANCH   1   2
BRANCH   1  22
ATOM     22  C   UNL A   1      32.936  27.002  26.257  1.00  0.00     0.021 C 
BRANCH  22  23
ATOM     23  C   UNL A   1      34.140  27.899  26.509  1.00  0.00     0.116 C 
BRANCH  23  24
ATOM     24  N   UNL A   1      33.732  29.255  26.839  1.00  0.00    -0.352 N 
ATOM     25  C   UNL A   1      34.371  30.172  27.637  1.00  0.00     0.251 C 
ATOM     26  H   UNL A   1      32.885  29.556  26.438  1.00  0.00     0.163 HD
ATOM     27  O   UNL A   1      33.784  31.177  28.018  1.00  0.00    -0.269 OA
BRANCH  25  28
ATOM     28  C   UNL A   1      35.771  29.921  28.036  1.00  0.00     0.039 A 
ATOM     29  C   UNL A   1      36.043  29.470  29.329  1.00  0.00     0.014 A 
ATOM     30  C   UNL A   1      36.810  30.123  27.122  1.00  0.00     0.014 A 
ATOM     31  C   UNL A   1      37.358  29.174  29.691  1.00  0.00     0.010 A 
ATOM     32  C   UNL A   1      38.106  29.750  27.460  1.00  0.00     0.010 A 
ATOM     33  C   UNL A   1      38.395  29.284  28.751  1.00  0.00    -0.014 A 
BRANCH  33  34
ATOM     34  C   UNL A   1      39.798  28.942  29.096  1.00  0.00     0.031 A 
ATOM     35  C   UNL A   1      40.679  29.978  29.742  1.00  0.00     0.074 A 
ATOM     36  C   UNL A   1      40.296  27.735  28.764  1.00  0.00     0.049 A 
ATOM     37  N   UNL A   1      41.954  29.917  30.024  1.00  0.00    -0.248 NA
ATOM     38  C   UNL A   1      40.048  31.262  30.089  1.00  0.00     0.031 C 
ATOM     39  C   UNL A   1      39.549  26.663  28.103  1.00  0.00     0.029 A 
ATOM     40  N   UNL A   1      41.554  27.211  28.924  1.00  0.00    -0.354 N 
ATOM     41  C   UNL A   1      42.280  31.156  30.564  1.00  0.00     0.074 A 
ATOM     42  C   UNL A   1      41.085  31.967  30.517  1.00  0.00     0.031 C 
ATOM     43  C   UNL A   1      40.357  25.605  27.930  1.00  0.00     0.029 A 
ATOM     44  C   UNL A   1      41.690  25.936  28.423  1.00  0.00     0.049 A 
ATOM     45  H   UNL A   1      42.290  27.701  29.355  1.00  0.00     0.167 HD
ATOM     46  C   UNL A   1      43.464  31.571  31.075  1.00  0.00     0.037 A 
ATOM     47  C   UNL A   1      42.770  25.133  28.356  1.00  0.00     0.037 A 
ATOM     48  C   UNL A   1      44.642  30.746  31.137  1.00  0.00     0.049 A 
ATOM     49  C   UNL A   1      44.080  25.623  28.913  1.00  0.00     0.074 A 
ATOM     50  C   UNL A   1      45.877  31.052  31.681  1.00  0.00     0.029 A 
ATOM     51  N   UNL A   1      44.733  29.454  30.640  1.00  0.00    -0.354 N 
ATOM     52  N   UNL A   1      44.359  26.778  29.470  1.00  0.00    -0.248 NA
ATOM     53  C   UNL A   1      45.222  24.701  28.838  1.00  0.00     0.031 C 
ATOM     54  C   UNL A   1      46.731  29.966  31.463  1.00  0.00     0.029 A 
ATOM     55  C   UNL A   1      46.010  28.958  30.843  1.00  0.00     0.049 A 
ATOM     56  H   UNL A   1      43.999  28.962  30.205  1.00  0.00     0.167 HD
ATOM     57  C   UNL A   1      45.696  26.706  29.847  1.00  0.00     0.074 A 
ATOM     58  C   UNL A   1      46.169  25.395  29.457  1.00  0.00     0.031 C 
ATOM     59  C   UNL A   1      46.460  27.641  30.465  1.00  0.00     0.037 A 
BRANCH  46  60
ATOM     60  C   UNL A   1      43.545  32.977  31.604  1.00  0.00     0.058 A 
ATOM     61  C   UNL A   1      43.399  33.262  32.972  1.00  0.00     0.135 A 
ATOM     62  C   UNL A   1      43.807  34.051  30.739  1.00  0.00     0.135 A 
ATOM     63  F   UNL A   1      43.132  32.277  33.844  1.00  0.00    -0.206 F 
ATOM     64  C   UNL A   1      43.478  34.564  33.458  1.00  0.00     0.059 A 
ATOM     65  C   UNL A   1      43.924  35.357  31.207  1.00  0.00     0.059 A 
ATOM     66  F   UNL A   1      43.954  33.838  29.421  1.00  0.00    -0.206 F 
ATOM     67  C   UNL A   1      43.742  35.605  32.566  1.00  0.00     0.060 A 
BRANCH  67  68
ATOM     68  S   UNL A   1      43.849  37.285  33.214  1.00  0.00     0.124 S 
ATOM     69  O   UNL A   1      45.123  37.242  33.925  1.00  0.00    -0.237 OA
ATOM     70  O   UNL A   1      43.830  38.090  31.996  1.00  0.00    -0.237 OA
ATOM     71  O   UNL A   1      42.664  37.402  34.058  1.00  0.00    -0.744 OA
ENDBRANCH  67  68
ENDBRANCH  46  60
BRANCH  47  72
ATOM     72  C   UNL A   1      42.653  23.778  27.753  1.00  0.00     0.058 A 
ATOM     73  C   UNL A   1      42.751  23.593  26.366  1.00  0.00     0.135 A 
ATOM     74  C   UNL A   1      42.451  22.639  28.550  1.00  0.00     0.135 A 
ATOM     75  F   UNL A   1      42.937  24.650  25.561  1.00  0.00    -0.206 F 
ATOM     76  C   UNL A   1      42.633  22.333  25.787  1.00  0.00     0.059 A 
ATOM     77  C   UNL A   1      42.359  21.366  27.997  1.00  0.00     0.059 A 
ATOM     78  F   UNL A   1      42.368  22.757  29.884  1.00  0.00    -0.206 F 
ATOM     79  C   UNL A   1      42.440  21.225  26.613  1.00  0.00     0.060 A 
BRANCH  79  80
ATOM     80  S   UNL A   1      42.330  19.589  25.853  1.00  0.00     0.124 S 
ATOM     81  O   UNL A   1      43.304  19.701  24.773  1.00  0.00    -0.237 OA
ATOM     82  O   UNL A   1      42.701  18.714  26.960  1.00  0.00    -0.237 OA
ATOM     83  O   UNL A   1      40.933  19.507  25.438  1.00  0.00    -0.744 OA
ENDBRANCH  79  80
ENDBRANCH  47  72
BRANCH  59  84
ATOM     84  C   UNL A   1      47.875  27.269  30.815  1.00  0.00     0.058 A 
ATOM     85  C   UNL A   1      48.186  26.526  31.965  1.00  0.00     0.135 A 
ATOM     86  C   UNL A   1      48.925  27.592  29.938  1.00  0.00     0.135 A 
ATOM     87  F   UNL A   1      47.221  26.198  32.838  1.00  0.00    -0.206 F 
ATOM     88  C   UNL A   1      49.490  26.128  32.240  1.00  0.00     0.059 A 
ATOM     89  C   UNL A   1      50.231  27.179  30.178  1.00  0.00     0.059 A 
ATOM     90  F   UNL A   1      48.680  28.294  28.819  1.00  0.00    -0.206 F 
ATOM     91  C   UNL A   1      50.504  26.452  31.335  1.00  0.00     0.060 A 
BRANCH  91  92
ATOM     92  S   UNL A   1      52.181  25.877  31.676  1.00  0.00     0.124 S 
ATOM     93  O   UNL A   1      51.942  24.495  32.081  1.00  0.00    -0.237 OA
ATOM     94  O   UNL A   1      52.839  26.055  30.386  1.00  0.00    -0.237 OA
ATOM     95  O   UNL A   1      52.639  26.770  32.735  1.00  0.00    -0.744 OA
ENDBRANCH  91  92
ENDBRANCH  59  84
ENDBRANCH  33  34
ENDBRANCH  25  28
ENDBRANCH  23  24
ENDBRANCH  22  23
ENDBRANCH   1  22
TORSDOF 17
ENDMDL
