MODEL 1
REMARK VINA RESULT:     -12.6      0.000      0.000
REMARK SMILES CC1=C([C@H](NC(=O)[C@@H]2[C@H](C)c3cc(F)ccc3N2C)C(=O)NCCCCCCNC(=O)c2ccc(-c3c4nc(c(-c5c(F)cc(S(=O)(=O)[O-])cc5F)c5ccc([nH]5)c(-c5c(F)cc(S(=O)(=O)[O-])cc5F)c5nc(c(-c6c(F)cc(S(=O)(=O)[O-])cc6F)c6ccc3[nH]6)C=C5)C=C4)cc2)[C@@H](C)N=N1
REMARK SMILES IDX 26 1 25 2 24 3 23 4 22 5 20 6 21 7 4 9 3 10 1 11 2 12 101 13
REMARK SMILES IDX 98 14 100 15 99 16 5 17 6 18 7 20 8 21 9 22 18 23 11 24
REMARK SMILES IDX 10 25 17 26 19 27 12 28 16 29 13 30 15 31 14 32 27 33 28 34
REMARK SMILES IDX 29 35 30 36 31 38 32 39 33 40 97 41 34 42 96 43 35 44 36 45
REMARK SMILES IDX 37 46 90 47 38 48 95 49 89 50 91 51 39 52 94 53 88 54 87 55
REMARK SMILES IDX 40 57 74 58 53 59 73 60 54 61 57 62 72 63 92 64 55 65 56 66
REMARK SMILES IDX 71 68 93 69 58 70 41 71 42 72 51 73 43 74 44 75 50 76 52 77
REMARK SMILES IDX 45 78 46 79 47 80 48 81 49 82 75 83 76 84 85 85 77 86 78 87
REMARK SMILES IDX 84 88 86 89 79 90 80 91 81 92 82 93 83 94 59 95 60 96 69 97
REMARK SMILES IDX 61 98 62 99 68 100 70 101 63 102 64 103 65 104 66 105 67 106
REMARK H PARENT 22 8 5 19 29 37 91 56 57 67
REMARK Flexibility Score: inf
ROOT
ATOM      1  C   UNL A   1      40.203  21.698  27.272  1.00  0.00     0.002 C 
ENDROOT
BRANCH   1   2
ATOM      2  C   UNL A   1      39.681  22.113  25.900  1.00  0.00     0.002 C 
BRANCH   2   3
ATOM      3  C   UNL A   1      38.282  21.581  25.605  1.00  0.00     0.021 C 
BRANCH   3   4
ATOM      4  C   UNL A   1      37.221  22.632  25.365  1.00  0.00     0.116 C 
BRANCH   4   5
ATOM      5  N   UNL A   1      36.402  22.984  26.491  1.00  0.00    -0.354 N 
ATOM      6  C   UNL A   1      35.044  23.040  26.555  1.00  0.00     0.247 C 
ATOM      7  O   UNL A   1      34.537  23.017  27.683  1.00  0.00    -0.272 OA
ATOM      8  H   UNL A   1      36.882  23.213  27.319  1.00  0.00     0.163 HD
BRANCH   6   9
ATOM      9  C   UNL A   1      34.114  23.082  25.287  1.00  0.00     0.202 C 
BRANCH   9  10
ATOM     10  C   UNL A   1      33.487  21.727  25.090  1.00  0.00     0.011 C 
ATOM     11  C   UNL A   1      31.177  22.180  26.088  1.00  0.00     0.069 C 
ATOM     12  C   UNL A   1      32.239  21.364  25.431  1.00  0.00     0.064 C 
ATOM     13  N   UNL A   1      31.931  20.085  25.054  1.00  0.00    -0.160 NA
ATOM     14  C   UNL A   1      34.031  20.527  24.366  1.00  0.00     0.156 C 
ATOM     15  N   UNL A   1      32.895  19.567  24.435  1.00  0.00    -0.181 NA
ATOM     16  C   UNL A   1      35.249  19.806  24.930  1.00  0.00     0.040 C 
ENDBRANCH   9  10
BRANCH   9  17
ATOM     17  N   UNL A   1      34.561  23.646  24.004  1.00  0.00    -0.339 N 
ATOM     18  C   UNL A   1      33.925  24.626  23.255  1.00  0.00     0.244 C 
ATOM     19  H   UNL A   1      35.402  23.290  23.637  1.00  0.00     0.164 HD
ATOM     20  O   UNL A   1      34.024  24.562  22.029  1.00  0.00    -0.273 OA
BRANCH  18  21
ATOM     21  C   UNL A   1      33.283  25.795  23.999  1.00  0.00     0.178 C 
ATOM     22  C   UNL A   1      31.982  25.562  24.783  1.00  0.00     0.050 C 
ATOM     23  N   UNL A   1      33.094  27.095  23.287  1.00  0.00    -0.362 N 
ATOM     24  C   UNL A   1      31.821  26.995  25.229  1.00  0.00    -0.016 A 
ATOM     25  C   UNL A   1      30.837  25.012  23.951  1.00  0.00     0.015 C 
ATOM     26  C   UNL A   1      32.468  27.847  24.309  1.00  0.00     0.041 A 
ATOM     27  C   UNL A   1      34.092  27.699  22.431  1.00  0.00     0.144 C 
ATOM     28  C   UNL A   1      31.399  27.445  26.468  1.00  0.00     0.045 A 
ATOM     29  C   UNL A   1      32.612  29.197  24.590  1.00  0.00     0.029 A 
ATOM     30  C   UNL A   1      31.615  28.786  26.769  1.00  0.00     0.123 A 
ATOM     31  C   UNL A   1      32.197  29.661  25.845  1.00  0.00     0.041 A 
ATOM     32  F   UNL A   1      31.312  29.235  27.994  1.00  0.00    -0.207 F 
ENDBRANCH  18  21
ENDBRANCH   9  17
ENDBRANCH   6   9
ENDBRANCH   4   5
ENDBRANCH   3   4
ENDBRANCH   2   3
ENDBRANCH   1   2
BRANCH   1  33
ATOM     33  C   UNL A   1      41.393  20.734  27.235  1.00  0.00     0.021 C 
BRANCH  33  34
ATOM     34  C   UNL A   1      41.493  19.850  25.981  1.00  0.00     0.116 C 
BRANCH  34  35
ATOM     35  N   UNL A   1      42.812  19.737  25.397  1.00  0.00    -0.352 N 
ATOM     36  C   UNL A   1      43.900  20.567  25.396  1.00  0.00     0.251 C 
ATOM     37  H   UNL A   1      42.955  18.897  24.903  1.00  0.00     0.163 HD
ATOM     38  O   UNL A   1      44.946  20.136  24.909  1.00  0.00    -0.269 OA
BRANCH  36  39
ATOM     39  C   UNL A   1      43.834  21.976  25.858  1.00  0.00     0.039 A 
ATOM     40  C   UNL A   1      44.385  22.434  27.050  1.00  0.00     0.014 A 
ATOM     41  C   UNL A   1      43.105  22.869  25.059  1.00  0.00     0.014 A 
ATOM     42  C   UNL A   1      44.029  23.675  27.545  1.00  0.00     0.010 A 
ATOM     43  C   UNL A   1      42.828  24.157  25.508  1.00  0.00     0.010 A 
ATOM     44  C   UNL A   1      43.230  24.535  26.785  1.00  0.00    -0.014 A 
BRANCH  44  45
ATOM     45  C   UNL A   1      42.955  25.848  27.368  1.00  0.00     0.031 A 
ATOM     46  C   UNL A   1      44.001  26.876  27.085  1.00  0.00     0.074 A 
ATOM     47  C   UNL A   1      41.856  26.171  28.075  1.00  0.00     0.049 A 
ATOM     48  N   UNL A   1      44.826  27.425  27.916  1.00  0.00    -0.248 NA
ATOM     49  C   UNL A   1      44.259  27.207  25.676  1.00  0.00     0.031 C 
ATOM     50  C   UNL A   1      40.625  25.400  28.257  1.00  0.00     0.029 A 
ATOM     51  N   UNL A   1      41.593  27.335  28.735  1.00  0.00    -0.354 N 
ATOM     52  C   UNL A   1      45.590  28.318  27.167  1.00  0.00     0.074 A 
ATOM     53  C   UNL A   1      45.296  28.039  25.785  1.00  0.00     0.031 C 
ATOM     54  C   UNL A   1      39.672  26.200  28.789  1.00  0.00     0.029 A 
ATOM     55  C   UNL A   1      40.272  27.478  29.133  1.00  0.00     0.049 A 
ATOM     56  H   UNL A   1      42.281  28.015  28.913  1.00  0.00     0.167 HD
ATOM     57  C   UNL A   1      46.266  29.350  27.742  1.00  0.00     0.037 A 
ATOM     58  C   UNL A   1      39.711  28.584  29.675  1.00  0.00     0.037 A 
ATOM     59  C   UNL A   1      46.409  29.166  29.162  1.00  0.00     0.049 A 
ATOM     60  C   UNL A   1      40.802  29.387  30.274  1.00  0.00     0.074 A 
ATOM     61  C   UNL A   1      47.104  28.304  29.984  1.00  0.00     0.029 A 
ATOM     62  N   UNL A   1      45.482  29.794  29.951  1.00  0.00    -0.354 N 
ATOM     63  N   UNL A   1      41.490  29.021  31.318  1.00  0.00    -0.248 NA
ATOM     64  C   UNL A   1      41.372  30.487  29.509  1.00  0.00     0.031 C 
ATOM     65  C   UNL A   1      46.304  28.170  31.158  1.00  0.00     0.029 A 
ATOM     66  C   UNL A   1      45.173  28.971  31.002  1.00  0.00     0.049 A 
ATOM     67  H   UNL A   1      45.103  30.688  29.791  1.00  0.00     0.167 HD
ATOM     68  C   UNL A   1      42.754  29.544  31.111  1.00  0.00     0.074 A 
ATOM     69  C   UNL A   1      42.580  30.553  30.075  1.00  0.00     0.031 C 
ATOM     70  C   UNL A   1      43.858  28.913  31.604  1.00  0.00     0.037 A 
BRANCH  57  71
ATOM     71  C   UNL A   1      46.472  30.701  27.092  1.00  0.00     0.058 A 
ATOM     72  C   UNL A   1      47.765  31.263  27.042  1.00  0.00     0.135 A 
ATOM     73  C   UNL A   1      45.414  31.586  26.789  1.00  0.00     0.135 A 
ATOM     74  F   UNL A   1      48.847  30.517  27.317  1.00  0.00    -0.206 F 
ATOM     75  C   UNL A   1      47.983  32.619  26.788  1.00  0.00     0.059 A 
ATOM     76  C   UNL A   1      45.612  32.927  26.480  1.00  0.00     0.059 A 
ATOM     77  F   UNL A   1      44.130  31.220  26.878  1.00  0.00    -0.206 F 
ATOM     78  C   UNL A   1      46.895  33.447  26.527  1.00  0.00     0.060 A 
BRANCH  78  79
ATOM     79  S   UNL A   1      47.155  35.218  26.324  1.00  0.00     0.124 S 
ATOM     80  O   UNL A   1      45.802  35.678  26.031  1.00  0.00    -0.237 OA
ATOM     81  O   UNL A   1      47.692  35.597  27.626  1.00  0.00    -0.237 OA
ATOM     82  O   UNL A   1      48.103  35.293  25.216  1.00  0.00    -0.744 OA
ENDBRANCH  78  79
ENDBRANCH  57  71
BRANCH  58  83
ATOM     83  C   UNL A   1      38.356  29.146  29.459  1.00  0.00     0.058 A 
ATOM     84  C   UNL A   1      37.506  29.400  30.550  1.00  0.00     0.135 A 
ATOM     85  C   UNL A   1      38.008  29.752  28.237  1.00  0.00     0.135 A 
ATOM     86  F   UNL A   1      37.771  28.864  31.752  1.00  0.00    -0.206 F 
ATOM     87  C   UNL A   1      36.425  30.277  30.460  1.00  0.00     0.059 A 
ATOM     88  C   UNL A   1      36.927  30.623  28.120  1.00  0.00     0.059 A 
ATOM     89  F   UNL A   1      38.774  29.596  27.146  1.00  0.00    -0.206 F 
ATOM     90  C   UNL A   1      36.164  30.911  29.246  1.00  0.00     0.060 A 
BRANCH  90  91
ATOM     91  S   UNL A   1      34.915  32.217  29.191  1.00  0.00     0.124 S 
ATOM     92  O   UNL A   1      35.681  33.347  28.678  1.00  0.00    -0.237 OA
ATOM     93  O   UNL A   1      33.923  31.652  28.281  1.00  0.00    -0.237 OA
ATOM     94  O   UNL A   1      34.484  32.332  30.582  1.00  0.00    -0.744 OA
ENDBRANCH  90  91
ENDBRANCH  58  83
BRANCH  70  95
ATOM     95  C   UNL A   1      43.645  27.927  32.719  1.00  0.00     0.058 A 
ATOM     96  C   UNL A   1      43.639  26.529  32.561  1.00  0.00     0.135 A 
ATOM     97  C   UNL A   1      43.521  28.427  34.023  1.00  0.00     0.135 A 
ATOM     98  F   UNL A   1      43.848  25.970  31.360  1.00  0.00    -0.206 F 
ATOM     99  C   UNL A   1      43.466  25.672  33.649  1.00  0.00     0.059 A 
ATOM    100  C   UNL A   1      43.379  27.589  35.126  1.00  0.00     0.059 A 
ATOM    101  F   UNL A   1      43.578  29.751  34.243  1.00  0.00    -0.206 F 
ATOM    102  C   UNL A   1      43.336  26.211  34.927  1.00  0.00     0.060 A 
BRANCH 102 103
ATOM    103  S   UNL A   1      43.178  25.103  36.345  1.00  0.00     0.124 S 
ATOM    104  O   UNL A   1      41.746  24.797  36.336  1.00  0.00    -0.237 OA
ATOM    105  O   UNL A   1      44.060  23.993  35.973  1.00  0.00    -0.237 OA
ATOM    106  O   UNL A   1      43.639  25.905  37.464  1.00  0.00    -0.744 OA
ENDBRANCH 102 103
ENDBRANCH  70  95
ENDBRANCH  44  45
ENDBRANCH  36  39
ENDBRANCH  34  35
ENDBRANCH  33  34
ENDBRANCH   1  33
TORSDOF 19
ENDMDL
MODEL 2
REMARK VINA RESULT:     -12.4      2.559      8.799
REMARK SMILES CC1=C([C@H](NC(=O)[C@@H]2[C@H](C)c3cc(F)ccc3N2C)C(=O)NCCCCCCNC(=O)c2ccc(-c3c4nc(c(-c5c(F)cc(S(=O)(=O)[O-])cc5F)c5ccc([nH]5)c(-c5c(F)cc(S(=O)(=O)[O-])cc5F)c5nc(c(-c6c(F)cc(S(=O)(=O)[O-])cc6F)c6ccc3[nH]6)C=C5)C=C4)cc2)[C@@H](C)N=N1
REMARK SMILES IDX 26 1 25 2 24 3 23 4 22 5 20 6 21 7 4 9 3 10 1 11 2 12 101 13
REMARK SMILES IDX 98 14 100 15 99 16 5 17 6 18 7 20 8 21 9 22 18 23 11 24
REMARK SMILES IDX 10 25 17 26 19 27 12 28 16 29 13 30 15 31 14 32 27 33 28 34
REMARK SMILES IDX 29 35 30 36 31 38 32 39 33 40 97 41 34 42 96 43 35 44 36 45
REMARK SMILES IDX 37 46 90 47 38 48 95 49 89 50 91 51 39 52 94 53 88 54 87 55
REMARK SMILES IDX 40 57 74 58 53 59 73 60 54 61 57 62 72 63 92 64 55 65 56 66
REMARK SMILES IDX 71 68 93 69 58 70 41 71 42 72 51 73 43 74 44 75 50 76 52 77
REMARK SMILES IDX 45 78 46 79 47 80 48 81 49 82 75 83 76 84 85 85 77 86 78 87
REMARK SMILES IDX 84 88 86 89 79 90 80 91 81 92 82 93 83 94 59 95 60 96 69 97
REMARK SMILES IDX 61 98 62 99 68 100 70 101 63 102 64 103 65 104 66 105 67 106
REMARK H PARENT 22 8 5 19 29 37 91 56 57 67
REMARK Flexibility Score: inf
ROOT
ATOM      1  C   UNL A   1      32.194  29.545  27.232  1.00  0.00     0.002 C 
ENDROOT
BRANCH   1   2
ATOM      2  C   UNL A   1      32.099  28.051  27.524  1.00  0.00     0.002 C 
BRANCH   2   3
ATOM      3  C   UNL A   1      31.196  27.306  26.544  1.00  0.00     0.021 C 
BRANCH   3   4
ATOM      4  C   UNL A   1      31.479  25.827  26.392  1.00  0.00     0.116 C 
BRANCH   4   5
ATOM      5  N   UNL A   1      32.850  25.421  26.528  1.00  0.00    -0.354 N 
ATOM      6  C   UNL A   1      33.634  24.795  25.610  1.00  0.00     0.247 C 
ATOM      7  O   UNL A   1      34.857  24.852  25.789  1.00  0.00    -0.272 OA
ATOM      8  H   UNL A   1      33.274  25.619  27.394  1.00  0.00     0.163 HD
BRANCH   6   9
ATOM      9  C   UNL A   1      33.069  24.064  24.337  1.00  0.00     0.202 C 
BRANCH   9  10
ATOM     10  C   UNL A   1      32.969  22.587  24.619  1.00  0.00     0.011 C 
ATOM     11  C   UNL A   1      30.726  22.543  25.845  1.00  0.00     0.069 C 
ATOM     12  C   UNL A   1      31.965  21.960  25.256  1.00  0.00     0.064 C 
ATOM     13  N   UNL A   1      32.121  20.600  25.292  1.00  0.00    -0.160 NA
ATOM     14  C   UNL A   1      33.864  21.471  24.158  1.00  0.00     0.156 C 
ATOM     15  N   UNL A   1      33.164  20.263  24.676  1.00  0.00    -0.181 NA
ATOM     16  C   UNL A   1      35.296  21.403  24.674  1.00  0.00     0.040 C 
ENDBRANCH   9  10
BRANCH   9  17
ATOM     17  N   UNL A   1      33.608  24.305  22.989  1.00  0.00    -0.339 N 
ATOM     18  C   UNL A   1      32.943  24.878  21.914  1.00  0.00     0.244 C 
ATOM     19  H   UNL A   1      34.540  24.032  22.833  1.00  0.00     0.164 HD
ATOM     20  O   UNL A   1      33.233  24.480  20.785  1.00  0.00    -0.273 OA
BRANCH  18  21
ATOM     21  C   UNL A   1      32.018  26.062  22.189  1.00  0.00     0.178 C 
ATOM     22  C   UNL A   1      32.630  27.444  22.465  1.00  0.00     0.050 C 
ATOM     23  N   UNL A   1      30.914  25.908  23.183  1.00  0.00    -0.362 N 
ATOM     24  C   UNL A   1      31.314  28.144  22.696  1.00  0.00    -0.016 A 
ATOM     25  C   UNL A   1      33.595  27.481  23.637  1.00  0.00     0.015 C 
ATOM     26  C   UNL A   1      30.355  27.207  23.135  1.00  0.00     0.041 A 
ATOM     27  C   UNL A   1      30.063  24.741  23.270  1.00  0.00     0.144 C 
ATOM     28  C   UNL A   1      30.953  29.413  22.274  1.00  0.00     0.045 A 
ATOM     29  C   UNL A   1      29.022  27.571  23.247  1.00  0.00     0.029 A 
ATOM     30  C   UNL A   1      29.603  29.743  22.322  1.00  0.00     0.123 A 
ATOM     31  C   UNL A   1      28.645  28.849  22.814  1.00  0.00     0.041 A 
ATOM     32  F   UNL A   1      29.203  30.923  21.829  1.00  0.00    -0.207 F 
ENDBRANCH  18  21
ENDBRANCH   9  17
ENDBRANCH   6   9
ENDBRANCH   4   5
ENDBRANCH   3   4
ENDBRANCH   2   3
ENDBRANCH   1   2
BRANCH   1  33
ATOM     33  C   UNL A   1      33.623  30.068  27.054  1.00  0.00     0.021 C 
BRANCH  33  34
ATOM     34  C   UNL A   1      33.828  31.559  27.369  1.00  0.00     0.116 C 
BRANCH  34  35
ATOM     35  N   UNL A   1      33.846  31.907  28.773  1.00  0.00    -0.352 N 
ATOM     36  C   UNL A   1      34.831  31.878  29.724  1.00  0.00     0.251 C 
ATOM     37  H   UNL A   1      32.978  32.228  29.112  1.00  0.00     0.163 HD
ATOM     38  O   UNL A   1      34.573  32.362  30.826  1.00  0.00    -0.269 OA
BRANCH  36  39
ATOM     39  C   UNL A   1      36.134  31.203  29.506  1.00  0.00     0.039 A 
ATOM     40  C   UNL A   1      36.284  29.831  29.334  1.00  0.00     0.014 A 
ATOM     41  C   UNL A   1      37.280  32.012  29.550  1.00  0.00     0.014 A 
ATOM     42  C   UNL A   1      37.536  29.254  29.434  1.00  0.00     0.010 A 
ATOM     43  C   UNL A   1      38.550  31.441  29.549  1.00  0.00     0.010 A 
ATOM     44  C   UNL A   1      38.675  30.055  29.564  1.00  0.00    -0.014 A 
BRANCH  44  45
ATOM     45  C   UNL A   1      39.958  29.357  29.603  1.00  0.00     0.031 A 
ATOM     46  C   UNL A   1      40.491  29.129  30.980  1.00  0.00     0.074 A 
ATOM     47  C   UNL A   1      40.631  28.902  28.529  1.00  0.00     0.049 A 
ATOM     48  N   UNL A   1      41.529  29.666  31.533  1.00  0.00    -0.248 NA
ATOM     49  C   UNL A   1      39.670  28.325  31.897  1.00  0.00     0.031 C 
ATOM     50  C   UNL A   1      40.180  28.809  27.139  1.00  0.00     0.029 A 
ATOM     51  N   UNL A   1      41.875  28.347  28.488  1.00  0.00    -0.354 N 
ATOM     52  C   UNL A   1      41.605  29.126  32.815  1.00  0.00     0.074 A 
ATOM     53  C   UNL A   1      40.367  28.423  33.030  1.00  0.00     0.031 C 
ATOM     54  C   UNL A   1      41.044  28.036  26.441  1.00  0.00     0.029 A 
ATOM     55  C   UNL A   1      42.182  27.724  27.288  1.00  0.00     0.049 A 
ATOM     56  H   UNL A   1      42.501  28.383  29.247  1.00  0.00     0.167 HD
ATOM     57  C   UNL A   1      42.759  29.135  33.536  1.00  0.00     0.037 A 
ATOM     58  C   UNL A   1      43.281  26.978  27.027  1.00  0.00     0.037 A 
ATOM     59  C   UNL A   1      43.711  30.072  33.002  1.00  0.00     0.049 A 
ATOM     60  C   UNL A   1      44.330  27.380  27.994  1.00  0.00     0.074 A 
ATOM     61  C   UNL A   1      43.805  31.446  32.909  1.00  0.00     0.029 A 
ATOM     62  N   UNL A   1      44.658  29.559  32.154  1.00  0.00    -0.354 N 
ATOM     63  N   UNL A   1      44.915  28.543  27.994  1.00  0.00    -0.248 NA
ATOM     64  C   UNL A   1      44.518  26.589  29.201  1.00  0.00     0.031 C 
ATOM     65  C   UNL A   1      44.544  31.696  31.715  1.00  0.00     0.029 A 
ATOM     66  C   UNL A   1      44.883  30.466  31.152  1.00  0.00     0.049 A 
ATOM     67  H   UNL A   1      45.102  28.686  32.250  1.00  0.00     0.167 HD
ATOM     68  C   UNL A   1      45.186  28.803  29.326  1.00  0.00     0.074 A 
ATOM     69  C   UNL A   1      45.064  27.514  29.994  1.00  0.00     0.031 C 
ATOM     70  C   UNL A   1      45.211  30.083  29.795  1.00  0.00     0.037 A 
BRANCH  57  71
ATOM     71  C   UNL A   1      43.176  28.038  34.492  1.00  0.00     0.058 A 
ATOM     72  C   UNL A   1      43.405  28.344  35.851  1.00  0.00     0.135 A 
ATOM     73  C   UNL A   1      43.643  26.775  34.069  1.00  0.00     0.135 A 
ATOM     74  F   UNL A   1      43.008  29.521  36.364  1.00  0.00    -0.206 F 
ATOM     75  C   UNL A   1      44.114  27.492  36.701  1.00  0.00     0.059 A 
ATOM     76  C   UNL A   1      44.304  25.889  34.912  1.00  0.00     0.059 A 
ATOM     77  F   UNL A   1      43.574  26.380  32.791  1.00  0.00    -0.206 F 
ATOM     78  C   UNL A   1      44.576  26.274  36.214  1.00  0.00     0.060 A 
BRANCH  78  79
ATOM     79  S   UNL A   1      45.599  25.227  37.266  1.00  0.00     0.124 S 
ATOM     80  O   UNL A   1      46.743  24.974  36.397  1.00  0.00    -0.237 OA
ATOM     81  O   UNL A   1      45.844  26.097  38.412  1.00  0.00    -0.237 OA
ATOM     82  O   UNL A   1      44.739  24.077  37.532  1.00  0.00    -0.744 OA
ENDBRANCH  78  79
ENDBRANCH  57  71
BRANCH  58  83
ATOM     83  C   UNL A   1      43.403  25.746  26.211  1.00  0.00     0.058 A 
ATOM     84  C   UNL A   1      44.493  25.571  25.341  1.00  0.00     0.135 A 
ATOM     85  C   UNL A   1      42.651  24.596  26.517  1.00  0.00     0.135 A 
ATOM     86  F   UNL A   1      45.264  26.617  25.004  1.00  0.00    -0.206 F 
ATOM     87  C   UNL A   1      44.874  24.312  24.873  1.00  0.00     0.059 A 
ATOM     88  C   UNL A   1      43.005  23.330  26.053  1.00  0.00     0.059 A 
ATOM     89  F   UNL A   1      41.611  24.655  27.363  1.00  0.00    -0.206 F 
ATOM     90  C   UNL A   1      44.142  23.192  25.264  1.00  0.00     0.060 A 
BRANCH  90  91
ATOM     91  S   UNL A   1      44.770  21.548  24.851  1.00  0.00     0.124 S 
ATOM     92  O   UNL A   1      44.606  21.517  23.402  1.00  0.00    -0.237 OA
ATOM     93  O   UNL A   1      46.144  21.615  25.338  1.00  0.00    -0.237 OA
ATOM     94  O   UNL A   1      43.890  20.652  25.599  1.00  0.00    -0.744 OA
ENDBRANCH  90  91
ENDBRANCH  58  83
BRANCH  70  95
ATOM     95  C   UNL A   1      45.383  31.182  28.782  1.00  0.00     0.058 A 
ATOM     96  C   UNL A   1      46.624  31.648  28.312  1.00  0.00     0.135 A 
ATOM     97  C   UNL A   1      44.228  31.729  28.206  1.00  0.00     0.135 A 
ATOM     98  F   UNL A   1      47.773  31.109  28.742  1.00  0.00    -0.206 F 
ATOM     99  C   UNL A   1      46.707  32.653  27.345  1.00  0.00     0.059 A 
ATOM    100  C   UNL A   1      44.288  32.709  27.218  1.00  0.00     0.059 A 
ATOM    101  F   UNL A   1      43.016  31.282  28.573  1.00  0.00    -0.206 F 
ATOM    102  C   UNL A   1      45.534  33.178  26.805  1.00  0.00     0.060 A 
BRANCH 102 103
ATOM    103  S   UNL A   1      45.639  34.430  25.508  1.00  0.00     0.124 S 
ATOM    104  O   UNL A   1      45.107  35.615  26.182  1.00  0.00    -0.237 OA
ATOM    105  O   UNL A   1      47.075  34.462  25.220  1.00  0.00    -0.237 OA
ATOM    106  O   UNL A   1      44.811  33.893  24.442  1.00  0.00    -0.744 OA
ENDBRANCH 102 103
ENDBRANCH  70  95
ENDBRANCH  44  45
ENDBRANCH  36  39
ENDBRANCH  34  35
ENDBRANCH  33  34
ENDBRANCH   1  33
TORSDOF 19
ENDMDL
MODEL 3
REMARK VINA RESULT:     -12.4      2.532      4.452
REMARK SMILES CC1=C([C@H](NC(=O)[C@@H]2[C@H](C)c3cc(F)ccc3N2C)C(=O)NCCCCCCNC(=O)c2ccc(-c3c4nc(c(-c5c(F)cc(S(=O)(=O)[O-])cc5F)c5ccc([nH]5)c(-c5c(F)cc(S(=O)(=O)[O-])cc5F)c5nc(c(-c6c(F)cc(S(=O)(=O)[O-])cc6F)c6ccc3[nH]6)C=C5)C=C4)cc2)[C@@H](C)N=N1
REMARK SMILES IDX 26 1 25 2 24 3 23 4 22 5 20 6 21 7 4 9 3 10 1 11 2 12 101 13
REMARK SMILES IDX 98 14 100 15 99 16 5 17 6 18 7 20 8 21 9 22 18 23 11 24
REMARK SMILES IDX 10 25 17 26 19 27 12 28 16 29 13 30 15 31 14 32 27 33 28 34
REMARK SMILES IDX 29 35 30 36 31 38 32 39 33 40 97 41 34 42 96 43 35 44 36 45
REMARK SMILES IDX 37 46 90 47 38 48 95 49 89 50 91 51 39 52 94 53 88 54 87 55
REMARK SMILES IDX 40 57 74 58 53 59 73 60 54 61 57 62 72 63 92 64 55 65 56 66
REMARK SMILES IDX 71 68 93 69 58 70 41 71 42 72 51 73 43 74 44 75 50 76 52 77
REMARK SMILES IDX 45 78 46 79 47 80 48 81 49 82 75 83 76 84 85 85 77 86 78 87
REMARK SMILES IDX 84 88 86 89 79 90 80 91 81 92 82 93 83 94 59 95 60 96 69 97
REMARK SMILES IDX 61 98 62 99 68 100 70 101 63 102 64 103 65 104 66 105 67 106
REMARK H PARENT 22 8 5 19 29 37 91 56 57 67
REMARK Flexibility Score: inf
ROOT
ATOM      1  C   UNL A   1      36.871  21.667  24.388  1.00  0.00     0.002 C 
ENDROOT
BRANCH   1   2
ATOM      2  C   UNL A   1      36.439  23.043  23.894  1.00  0.00     0.002 C 
BRANCH   2   3
ATOM      3  C   UNL A   1      35.186  23.001  23.024  1.00  0.00     0.021 C 
BRANCH   3   4
ATOM      4  C   UNL A   1      34.306  24.230  23.086  1.00  0.00     0.116 C 
BRANCH   4   5
ATOM      5  N   UNL A   1      34.651  25.214  24.073  1.00  0.00    -0.354 N 
ATOM      6  C   UNL A   1      33.870  25.712  25.071  1.00  0.00     0.247 C 
ATOM      7  O   UNL A   1      34.452  26.272  26.008  1.00  0.00    -0.272 OA
ATOM      8  H   UNL A   1      35.566  25.574  24.022  1.00  0.00     0.163 HD
BRANCH   6   9
ATOM      9  C   UNL A   1      32.305  25.565  25.105  1.00  0.00     0.202 C 
BRANCH   9  10
ATOM     10  C   UNL A   1      31.679  26.824  24.564  1.00  0.00     0.011 C 
ATOM     11  C   UNL A   1      31.691  26.265  22.069  1.00  0.00     0.069 C 
ATOM     12  C   UNL A   1      31.422  27.101  23.275  1.00  0.00     0.064 C 
ATOM     13  N   UNL A   1      30.776  28.296  23.102  1.00  0.00    -0.160 NA
ATOM     14  C   UNL A   1      31.083  27.983  25.313  1.00  0.00     0.156 C 
ATOM     15  N   UNL A   1      30.543  28.832  24.215  1.00  0.00    -0.181 NA
ATOM     16  C   UNL A   1      31.991  28.875  26.150  1.00  0.00     0.040 C 
ENDBRANCH   9  10
BRANCH   9  17
ATOM     17  N   UNL A   1      31.586  25.092  26.298  1.00  0.00    -0.339 N 
ATOM     18  C   UNL A   1      30.884  23.903  26.435  1.00  0.00     0.244 C 
ATOM     19  H   UNL A   1      31.607  25.682  27.086  1.00  0.00     0.164 HD
ATOM     20  O   UNL A   1      29.891  23.906  27.164  1.00  0.00    -0.273 OA
BRANCH  18  21
ATOM     21  C   UNL A   1      31.473  22.644  25.803  1.00  0.00     0.178 C 
ATOM     22  C   UNL A   1      32.669  21.954  26.478  1.00  0.00     0.050 C 
ATOM     23  N   UNL A   1      31.782  22.639  24.341  1.00  0.00    -0.362 N 
ATOM     24  C   UNL A   1      32.823  20.873  25.436  1.00  0.00    -0.016 A 
ATOM     25  C   UNL A   1      33.884  22.846  26.667  1.00  0.00     0.015 C 
ATOM     26  C   UNL A   1      32.310  21.333  24.204  1.00  0.00     0.041 A 
ATOM     27  C   UNL A   1      30.906  23.190  23.329  1.00  0.00     0.144 C 
ATOM     28  C   UNL A   1      33.115  19.537  25.650  1.00  0.00     0.045 A 
ATOM     29  C   UNL A   1      32.177  20.462  23.134  1.00  0.00     0.029 A 
ATOM     30  C   UNL A   1      32.908  18.659  24.592  1.00  0.00     0.123 A 
ATOM     31  C   UNL A   1      32.461  19.107  23.343  1.00  0.00     0.041 A 
ATOM     32  F   UNL A   1      33.084  17.346  24.790  1.00  0.00    -0.207 F 
ENDBRANCH  18  21
ENDBRANCH   9  17
ENDBRANCH   6   9
ENDBRANCH   4   5
ENDBRANCH   3   4
ENDBRANCH   2   3
ENDBRANCH   1   2
BRANCH   1  33
ATOM     33  C   UNL A   1      37.410  21.647  25.822  1.00  0.00     0.021 C 
BRANCH  33  34
ATOM     34  C   UNL A   1      38.525  22.660  26.127  1.00  0.00     0.116 C 
BRANCH  34  35
ATOM     35  N   UNL A   1      39.874  22.203  25.877  1.00  0.00    -0.352 N 
ATOM     36  C   UNL A   1      41.102  22.703  26.221  1.00  0.00     0.251 C 
ATOM     37  H   UNL A   1      39.919  21.368  25.357  1.00  0.00     0.163 HD
ATOM     38  O   UNL A   1      42.090  22.012  25.967  1.00  0.00    -0.269 OA
BRANCH  36  39
ATOM     39  C   UNL A   1      41.284  24.065  26.781  1.00  0.00     0.039 A 
ATOM     40  C   UNL A   1      41.852  24.328  28.023  1.00  0.00     0.014 A 
ATOM     41  C   UNL A   1      40.782  25.132  26.022  1.00  0.00     0.014 A 
ATOM     42  C   UNL A   1      41.717  25.581  28.593  1.00  0.00     0.010 A 
ATOM     43  C   UNL A   1      40.736  26.419  26.553  1.00  0.00     0.010 A 
ATOM     44  C   UNL A   1      41.138  26.628  27.869  1.00  0.00    -0.014 A 
BRANCH  44  45
ATOM     45  C   UNL A   1      41.092  27.929  28.535  1.00  0.00     0.031 A 
ATOM     46  C   UNL A   1      42.201  28.853  28.153  1.00  0.00     0.074 A 
ATOM     47  C   UNL A   1      40.139  28.328  29.398  1.00  0.00     0.049 A 
ATOM     48  N   UNL A   1      43.184  29.266  28.884  1.00  0.00    -0.248 NA
ATOM     49  C   UNL A   1      42.307  29.231  26.735  1.00  0.00     0.031 C 
ATOM     50  C   UNL A   1      38.863  27.683  29.716  1.00  0.00     0.029 A 
ATOM     51  N   UNL A   1      40.097  29.476  30.133  1.00  0.00    -0.354 N 
ATOM     52  C   UNL A   1      43.939  30.112  28.074  1.00  0.00     0.074 A 
ATOM     53  C   UNL A   1      43.436  29.941  26.735  1.00  0.00     0.031 C 
ATOM     54  C   UNL A   1      38.085  28.551  30.404  1.00  0.00     0.029 A 
ATOM     55  C   UNL A   1      38.865  29.736  30.713  1.00  0.00     0.049 A 
ATOM     56  H   UNL A   1      40.875  30.069  30.242  1.00  0.00     0.167 HD
ATOM     57  C   UNL A   1      44.797  31.033  28.590  1.00  0.00     0.037 A 
ATOM     58  C   UNL A   1      38.508  30.865  31.370  1.00  0.00     0.037 A 
ATOM     59  C   UNL A   1      45.103  30.758  29.969  1.00  0.00     0.049 A 
ATOM     60  C   UNL A   1      39.752  31.514  31.846  1.00  0.00     0.074 A 
ATOM     61  C   UNL A   1      45.799  29.784  30.655  1.00  0.00     0.029 A 
ATOM     62  N   UNL A   1      44.365  31.438  30.902  1.00  0.00    -0.354 N 
ATOM     63  N   UNL A   1      40.525  31.021  32.771  1.00  0.00    -0.248 NA
ATOM     64  C   UNL A   1      40.337  32.587  31.054  1.00  0.00     0.031 C 
ATOM     65  C   UNL A   1      45.150  29.672  31.920  1.00  0.00     0.029 A 
ATOM     66  C   UNL A   1      44.106  30.597  31.952  1.00  0.00     0.049 A 
ATOM     67  H   UNL A   1      44.071  32.375  30.830  1.00  0.00     0.167 HD
ATOM     68  C   UNL A   1      41.803  31.417  32.414  1.00  0.00     0.074 A 
ATOM     69  C   UNL A   1      41.608  32.494  31.452  1.00  0.00     0.031 C 
ATOM     70  C   UNL A   1      42.883  30.646  32.726  1.00  0.00     0.037 A 
BRANCH  57  71
ATOM     71  C   UNL A   1      45.066  32.388  27.972  1.00  0.00     0.058 A 
ATOM     72  C   UNL A   1      46.350  32.684  27.468  1.00  0.00     0.135 A 
ATOM     73  C   UNL A   1      44.205  33.497  28.127  1.00  0.00     0.135 A 
ATOM     74  F   UNL A   1      47.255  31.708  27.285  1.00  0.00    -0.206 F 
ATOM     75  C   UNL A   1      46.771  33.990  27.212  1.00  0.00     0.059 A 
ATOM     76  C   UNL A   1      44.587  34.800  27.827  1.00  0.00     0.059 A 
ATOM     77  F   UNL A   1      42.989  33.385  28.673  1.00  0.00    -0.206 F 
ATOM     78  C   UNL A   1      45.886  35.044  27.414  1.00  0.00     0.060 A 
BRANCH  78  79
ATOM     79  S   UNL A   1      46.460  36.740  27.208  1.00  0.00     0.124 S 
ATOM     80  O   UNL A   1      45.208  37.439  26.944  1.00  0.00    -0.237 OA
ATOM     81  O   UNL A   1      47.084  37.007  28.500  1.00  0.00    -0.237 OA
ATOM     82  O   UNL A   1      47.383  36.646  26.081  1.00  0.00    -0.744 OA
ENDBRANCH  78  79
ENDBRANCH  57  71
BRANCH  58  83
ATOM     83  C   UNL A   1      37.209  31.579  31.364  1.00  0.00     0.058 A 
ATOM     84  C   UNL A   1      36.434  31.662  32.534  1.00  0.00     0.135 A 
ATOM     85  C   UNL A   1      36.873  32.466  30.323  1.00  0.00     0.135 A 
ATOM     86  F   UNL A   1      36.694  30.856  33.575  1.00  0.00    -0.206 F 
ATOM     87  C   UNL A   1      35.443  32.631  32.701  1.00  0.00     0.059 A 
ATOM     88  C   UNL A   1      35.881  33.434  30.462  1.00  0.00     0.059 A 
ATOM     89  F   UNL A   1      37.574  32.485  29.179  1.00  0.00    -0.206 F 
ATOM     90  C   UNL A   1      35.197  33.535  31.669  1.00  0.00     0.060 A 
BRANCH  90  91
ATOM     91  S   UNL A   1      34.084  34.927  31.971  1.00  0.00     0.124 S 
ATOM     92  O   UNL A   1      33.678  35.289  30.618  1.00  0.00    -0.237 OA
ATOM     93  O   UNL A   1      33.054  34.318  32.806  1.00  0.00    -0.237 OA
ATOM     94  O   UNL A   1      34.937  35.901  32.650  1.00  0.00    -0.744 OA
ENDBRANCH  90  91
ENDBRANCH  58  83
BRANCH  70  95
ATOM     95  C   UNL A   1      42.709  29.629  33.820  1.00  0.00     0.058 A 
ATOM     96  C   UNL A   1      42.915  29.883  35.187  1.00  0.00     0.135 A 
ATOM     97  C   UNL A   1      42.231  28.359  33.465  1.00  0.00     0.135 A 
ATOM     98  F   UNL A   1      43.278  31.100  35.617  1.00  0.00    -0.206 F 
ATOM     99  C   UNL A   1      42.702  28.897  36.153  1.00  0.00     0.059 A 
ATOM    100  C   UNL A   1      41.982  27.372  34.414  1.00  0.00     0.059 A 
ATOM    101  F   UNL A   1      41.960  28.078  32.180  1.00  0.00    -0.206 F 
ATOM    102  C   UNL A   1      42.237  27.644  35.756  1.00  0.00     0.060 A 
BRANCH 102 103
ATOM    103  S   UNL A   1      41.899  26.388  37.009  1.00  0.00     0.124 S 
ATOM    104  O   UNL A   1      40.572  26.779  37.485  1.00  0.00    -0.237 OA
ATOM    105  O   UNL A   1      41.946  25.147  36.229  1.00  0.00    -0.237 OA
ATOM    106  O   UNL A   1      42.980  26.552  37.965  1.00  0.00    -0.744 OA
ENDBRANCH 102 103
ENDBRANCH  70  95
ENDBRANCH  44  45
ENDBRANCH  36  39
ENDBRANCH  34  35
ENDBRANCH  33  34
ENDBRANCH   1  33
TORSDOF 19
ENDMDL
