MODEL 1
REMARK VINA RESULT:     -13.2      0.000      0.000
REMARK SMILES CC[C@@H](Sc1nnc2ccc3ccccc3n12)C(=O)Nc1cccc(C(=O)NCCCCCCNC(=O)c2ccc(-c3c4nc(c(-c5c(F)cc(S(=O)(=O)[O-])cc5F)c5ccc([nH]5)c(-c5c(F)cc(S(=O)(=O)[O-])cc5F)c5nc(c(-c6c(F)cc(S(=O)(=O)[O-])cc6F)c6ccc3[nH]6)C=C5)C=C4)cc2)c1
REMARK SMILES IDX 31 1 30 2 29 3 28 4 26 5 27 6 25 8 21 9 22 10 104 11 23 12
REMARK SMILES IDX 24 13 20 14 18 15 19 16 3 18 2 19 1 20 4 21 5 22 6 23 17 24
REMARK SMILES IDX 7 25 8 26 16 27 9 28 11 29 15 30 10 31 12 32 14 33 13 34
REMARK SMILES IDX 32 35 33 36 34 37 35 38 36 39 37 41 38 42 39 43 103 44 40 45
REMARK SMILES IDX 102 46 41 47 42 48 43 49 96 50 44 51 101 52 95 53 97 54
REMARK SMILES IDX 45 55 100 56 94 57 93 58 46 60 80 61 59 62 79 63 60 64 63 65
REMARK SMILES IDX 78 66 98 67 61 68 62 69 77 71 99 72 64 73 47 74 48 75 57 76
REMARK SMILES IDX 49 77 50 78 56 79 58 80 51 81 52 82 53 83 54 84 55 85 81 86
REMARK SMILES IDX 82 87 91 88 83 89 84 90 90 91 92 92 85 93 86 94 87 95 88 96
REMARK SMILES IDX 89 97 65 98 66 99 75 100 67 101 68 102 74 103 76 104 69 105
REMARK SMILES IDX 70 106 71 107 72 108 73 109
REMARK H PARENT 28 7 20 17 35 40 97 59 63 70
REMARK Flexibility Score: inf
ROOT
ATOM      1  C   UNL A   1      31.441  30.836  25.965  1.00  0.00     0.002 C 
ENDROOT
BRANCH   1   2
ATOM      2  C   UNL A   1      30.821  30.541  24.605  1.00  0.00     0.021 C 
BRANCH   2   3
ATOM      3  C   UNL A   1      29.591  31.351  24.240  1.00  0.00     0.116 C 
BRANCH   3   4
ATOM      4  N   UNL A   1      29.076  31.097  22.910  1.00  0.00    -0.352 N 
ATOM      5  C   UNL A   1      28.894  29.928  22.211  1.00  0.00     0.251 C 
ATOM      6  O   UNL A   1      28.448  30.005  21.065  1.00  0.00    -0.269 OA
ATOM      7  H   UNL A   1      28.806  31.907  22.419  1.00  0.00     0.163 HD
BRANCH   5   8
ATOM      8  C   UNL A   1      29.265  28.587  22.749  1.00  0.00     0.041 A 
ATOM      9  C   UNL A   1      30.678  26.632  22.802  1.00  0.00     0.041 A 
ATOM     10  C   UNL A   1      29.775  26.003  23.636  1.00  0.00     0.026 A 
ATOM     11  C   UNL A   1      30.512  27.988  22.558  1.00  0.00     0.040 A 
ATOM     12  C   UNL A   1      28.566  26.614  23.960  1.00  0.00     0.003 A 
ATOM     13  C   UNL A   1      28.283  27.875  23.450  1.00  0.00     0.014 A 
BRANCH   9  14
ATOM     14  N   UNL A   1      31.747  25.993  22.157  1.00  0.00    -0.325 N 
ATOM     15  C   UNL A   1      33.019  25.732  22.600  1.00  0.00     0.237 C 
ATOM     16  O   UNL A   1      33.658  24.908  21.924  1.00  0.00    -0.273 OA
ATOM     17  H   UNL A   1      31.554  25.683  21.243  1.00  0.00     0.169 HD
BRANCH  15  18
ATOM     18  C   UNL A   1      33.682  26.305  23.887  1.00  0.00     0.144 C 
BRANCH  18  19
ATOM     19  C   UNL A   1      33.921  27.816  23.789  1.00  0.00     0.021 C 
ATOM     20  C   UNL A   1      34.141  28.452  22.426  1.00  0.00     0.005 C 
ENDBRANCH  18  19
BRANCH  18  21
ATOM     21  S   UNL A   1      33.032  25.392  25.314  1.00  0.00    -0.072 SA
BRANCH  21  22
ATOM     22  C   UNL A   1      32.567  23.741  25.056  1.00  0.00     0.196 A 
ATOM     23  N   UNL A   1      31.279  23.452  25.148  1.00  0.00    -0.122 NA
ATOM     24  N   UNL A   1      33.262  22.558  24.840  1.00  0.00    -0.270 N 
ATOM     25  N   UNL A   1      31.123  22.096  25.192  1.00  0.00    -0.129 NA
ATOM     26  C   UNL A   1      32.318  21.564  25.106  1.00  0.00     0.161 A 
ATOM     27  C   UNL A   1      34.608  22.230  24.542  1.00  0.00     0.057 A 
ATOM     28  C   UNL A   1      32.724  20.217  25.257  1.00  0.00     0.050 A 
ATOM     29  C   UNL A   1      35.020  20.919  24.871  1.00  0.00    -0.001 A 
ATOM     30  C   UNL A   1      35.523  23.137  24.025  1.00  0.00     0.027 A 
ATOM     31  C   UNL A   1      34.023  19.893  25.195  1.00  0.00     0.014 A 
ATOM     32  C   UNL A   1      36.382  20.613  24.895  1.00  0.00     0.010 A 
ATOM     33  C   UNL A   1      36.884  22.818  24.048  1.00  0.00     0.002 A 
ATOM     34  C   UNL A   1      37.315  21.582  24.530  1.00  0.00     0.001 A 
ENDBRANCH  21  22
ENDBRANCH  18  21
ENDBRANCH  15  18
ENDBRANCH   9  14
ENDBRANCH   5   8
ENDBRANCH   3   4
ENDBRANCH   2   3
ENDBRANCH   1   2
BRANCH   1  35
ATOM     35  C   UNL A   1      31.521  29.662  26.944  1.00  0.00     0.002 C 
BRANCH  35  36
ATOM     36  C   UNL A   1      32.886  28.975  27.082  1.00  0.00     0.021 C 
BRANCH  36  37
ATOM     37  C   UNL A   1      34.094  29.909  27.129  1.00  0.00     0.116 C 
BRANCH  37  38
ATOM     38  N   UNL A   1      34.010  30.946  28.133  1.00  0.00    -0.352 N 
ATOM     39  C   UNL A   1      34.898  31.546  28.976  1.00  0.00     0.251 C 
ATOM     40  H   UNL A   1      33.097  31.302  28.230  1.00  0.00     0.163 HD
ATOM     41  O   UNL A   1      34.467  32.510  29.615  1.00  0.00    -0.269 OA
BRANCH  39  42
ATOM     42  C   UNL A   1      36.291  31.085  29.219  1.00  0.00     0.039 A 
ATOM     43  C   UNL A   1      37.394  31.906  29.455  1.00  0.00     0.014 A 
ATOM     44  C   UNL A   1      36.486  29.693  29.157  1.00  0.00     0.014 A 
ATOM     45  C   UNL A   1      38.672  31.363  29.514  1.00  0.00     0.010 A 
ATOM     46  C   UNL A   1      37.756  29.142  29.244  1.00  0.00     0.010 A 
ATOM     47  C   UNL A   1      38.855  29.985  29.370  1.00  0.00    -0.014 A 
BRANCH  47  48
ATOM     48  C   UNL A   1      40.212  29.457  29.492  1.00  0.00     0.031 A 
ATOM     49  C   UNL A   1      40.652  29.259  30.906  1.00  0.00     0.074 A 
ATOM     50  C   UNL A   1      40.940  29.058  28.428  1.00  0.00     0.049 A 
ATOM     51  N   UNL A   1      41.643  29.815  31.525  1.00  0.00    -0.248 NA
ATOM     52  C   UNL A   1      39.788  28.449  31.784  1.00  0.00     0.031 C 
ATOM     53  C   UNL A   1      40.487  28.954  27.036  1.00  0.00     0.029 A 
ATOM     54  N   UNL A   1      42.207  28.554  28.369  1.00  0.00    -0.354 N 
ATOM     55  C   UNL A   1      41.659  29.249  32.800  1.00  0.00     0.074 A 
ATOM     56  C   UNL A   1      40.410  28.557  32.958  1.00  0.00     0.031 C 
ATOM     57  C   UNL A   1      41.361  28.198  26.334  1.00  0.00     0.029 A 
ATOM     58  C   UNL A   1      42.500  27.890  27.180  1.00  0.00     0.049 A 
ATOM     59  H   UNL A   1      42.856  28.651  29.103  1.00  0.00     0.167 HD
ATOM     60  C   UNL A   1      42.809  29.170  33.526  1.00  0.00     0.037 A 
ATOM     61  C   UNL A   1      43.573  27.096  26.935  1.00  0.00     0.037 A 
ATOM     62  C   UNL A   1      43.814  30.052  33.002  1.00  0.00     0.049 A 
ATOM     63  C   UNL A   1      44.619  27.464  27.918  1.00  0.00     0.074 A 
ATOM     64  C   UNL A   1      44.038  31.410  32.982  1.00  0.00     0.029 A 
ATOM     65  N   UNL A   1      44.607  29.491  32.038  1.00  0.00    -0.354 N 
ATOM     66  N   UNL A   1      45.210  28.628  27.950  1.00  0.00    -0.248 NA
ATOM     67  C   UNL A   1      44.787  26.647  29.113  1.00  0.00     0.031 C 
ATOM     68  C   UNL A   1      44.790  31.662  31.797  1.00  0.00     0.029 A 
ATOM     69  C   UNL A   1      45.038  30.446  31.158  1.00  0.00     0.049 A 
ATOM     70  H   UNL A   1      44.836  28.534  31.984  1.00  0.00     0.167 HD
ATOM     71  C   UNL A   1      45.453  28.856  29.291  1.00  0.00     0.074 A 
ATOM     72  C   UNL A   1      45.334  27.552  29.929  1.00  0.00     0.031 C 
ATOM     73  C   UNL A   1      45.422  30.121  29.800  1.00  0.00     0.037 A 
BRANCH  60  74
ATOM     74  C   UNL A   1      43.185  27.982  34.390  1.00  0.00     0.058 A 
ATOM     75  C   UNL A   1      43.459  28.173  35.762  1.00  0.00     0.135 A 
ATOM     76  C   UNL A   1      43.582  26.732  33.863  1.00  0.00     0.135 A 
ATOM     77  F   UNL A   1      43.151  29.332  36.365  1.00  0.00    -0.206 F 
ATOM     78  C   UNL A   1      44.117  27.213  36.536  1.00  0.00     0.059 A 
ATOM     79  C   UNL A   1      44.193  25.743  34.628  1.00  0.00     0.059 A 
ATOM     80  F   UNL A   1      43.491  26.447  32.559  1.00  0.00    -0.206 F 
ATOM     81  C   UNL A   1      44.487  26.002  35.956  1.00  0.00     0.060 A 
BRANCH  81  82
ATOM     82  S   UNL A   1      45.398  24.786  36.925  1.00  0.00     0.124 S 
ATOM     83  O   UNL A   1      46.678  25.464  37.120  1.00  0.00    -0.237 OA
ATOM     84  O   UNL A   1      44.557  24.662  38.116  1.00  0.00    -0.237 OA
ATOM     85  O   UNL A   1      45.426  23.618  36.063  1.00  0.00    -0.744 OA
ENDBRANCH  81  82
ENDBRANCH  60  74
BRANCH  61  86
ATOM     86  C   UNL A   1      43.635  25.825  26.156  1.00  0.00     0.058 A 
ATOM     87  C   UNL A   1      44.731  25.545  25.317  1.00  0.00     0.135 A 
ATOM     88  C   UNL A   1      42.793  24.737  26.455  1.00  0.00     0.135 A 
ATOM     89  F   UNL A   1      45.589  26.521  24.979  1.00  0.00    -0.206 F 
ATOM     90  C   UNL A   1      45.025  24.249  24.877  1.00  0.00     0.059 A 
ATOM     91  C   UNL A   1      43.059  23.439  26.019  1.00  0.00     0.059 A 
ATOM     92  F   UNL A   1      41.736  24.880  27.269  1.00  0.00    -0.206 F 
ATOM     93  C   UNL A   1      44.197  23.195  25.260  1.00  0.00     0.060 A 
BRANCH  93  94
ATOM     94  S   UNL A   1      44.688  21.497  24.877  1.00  0.00     0.124 S 
ATOM     95  O   UNL A   1      43.723  20.721  25.650  1.00  0.00    -0.237 OA
ATOM     96  O   UNL A   1      44.528  21.451  23.428  1.00  0.00    -0.237 OA
ATOM     97  O   UNL A   1      46.067  21.426  25.352  1.00  0.00    -0.744 OA
ENDBRANCH  93  94
ENDBRANCH  61  86
BRANCH  73  98
ATOM     98  C   UNL A   1      45.644  31.264  28.850  1.00  0.00     0.058 A 
ATOM     99  C   UNL A   1      46.896  31.703  28.391  1.00  0.00     0.135 A 
ATOM    100  C   UNL A   1      44.504  31.867  28.294  1.00  0.00     0.135 A 
ATOM    101  F   UNL A   1      48.029  31.123  28.812  1.00  0.00    -0.206 F 
ATOM    102  C   UNL A   1      47.009  32.718  27.437  1.00  0.00     0.059 A 
ATOM    103  C   UNL A   1      44.593  32.856  27.322  1.00  0.00     0.059 A 
ATOM    104  F   UNL A   1      43.280  31.457  28.661  1.00  0.00    -0.206 F 
ATOM    105  C   UNL A   1      45.849  33.283  26.903  1.00  0.00     0.060 A 
BRANCH 105 106
ATOM    106  S   UNL A   1      45.992  34.532  25.608  1.00  0.00     0.124 S 
ATOM    107  O   UNL A   1      45.073  34.031  24.591  1.00  0.00    -0.237 OA
ATOM    108  O   UNL A   1      45.573  35.750  26.297  1.00  0.00    -0.237 OA
ATOM    109  O   UNL A   1      47.406  34.488  25.244  1.00  0.00    -0.744 OA
ENDBRANCH 105 106
ENDBRANCH  73  98
ENDBRANCH  47  48
ENDBRANCH  39  42
ENDBRANCH  37  38
ENDBRANCH  36  37
ENDBRANCH  35  36
ENDBRANCH   1  35
TORSDOF 21
ENDMDL
MODEL 2
REMARK VINA RESULT:     -12.7      2.714      8.895
REMARK SMILES CC[C@@H](Sc1nnc2ccc3ccccc3n12)C(=O)Nc1cccc(C(=O)NCCCCCCNC(=O)c2ccc(-c3c4nc(c(-c5c(F)cc(S(=O)(=O)[O-])cc5F)c5ccc([nH]5)c(-c5c(F)cc(S(=O)(=O)[O-])cc5F)c5nc(c(-c6c(F)cc(S(=O)(=O)[O-])cc6F)c6ccc3[nH]6)C=C5)C=C4)cc2)c1
REMARK SMILES IDX 31 1 30 2 29 3 28 4 26 5 27 6 25 8 21 9 22 10 104 11 23 12
REMARK SMILES IDX 24 13 20 14 18 15 19 16 3 18 2 19 1 20 4 21 5 22 6 23 17 24
REMARK SMILES IDX 7 25 8 26 16 27 9 28 11 29 15 30 10 31 12 32 14 33 13 34
REMARK SMILES IDX 32 35 33 36 34 37 35 38 36 39 37 41 38 42 39 43 103 44 40 45
REMARK SMILES IDX 102 46 41 47 42 48 43 49 96 50 44 51 101 52 95 53 97 54
REMARK SMILES IDX 45 55 100 56 94 57 93 58 46 60 80 61 59 62 79 63 60 64 63 65
REMARK SMILES IDX 78 66 98 67 61 68 62 69 77 71 99 72 64 73 47 74 48 75 57 76
REMARK SMILES IDX 49 77 50 78 56 79 58 80 51 81 52 82 53 83 54 84 55 85 81 86
REMARK SMILES IDX 82 87 91 88 83 89 84 90 90 91 92 92 85 93 86 94 87 95 88 96
REMARK SMILES IDX 89 97 65 98 66 99 75 100 67 101 68 102 74 103 76 104 69 105
REMARK SMILES IDX 70 106 71 107 72 108 73 109
REMARK H PARENT 28 7 20 17 35 40 97 59 63 70
REMARK Flexibility Score: inf
ROOT
ATOM      1  C   UNL A   1      36.932  21.893  25.236  1.00  0.00     0.002 C 
ENDROOT
BRANCH   1   2
ATOM      2  C   UNL A   1      36.618  22.579  23.912  1.00  0.00     0.021 C 
BRANCH   2   3
ATOM      3  C   UNL A   1      35.639  23.737  23.974  1.00  0.00     0.116 C 
BRANCH   3   4
ATOM      4  N   UNL A   1      34.684  23.777  22.885  1.00  0.00    -0.352 N 
ATOM      5  C   UNL A   1      33.937  24.806  22.365  1.00  0.00     0.251 C 
ATOM      6  O   UNL A   1      33.173  24.550  21.432  1.00  0.00    -0.269 OA
ATOM      7  H   UNL A   1      34.548  22.911  22.436  1.00  0.00     0.163 HD
BRANCH   5   8
ATOM      8  C   UNL A   1      33.963  26.193  22.912  1.00  0.00     0.041 A 
ATOM      9  C   UNL A   1      33.590  27.790  24.682  1.00  0.00     0.041 A 
ATOM     10  C   UNL A   1      33.826  28.823  23.798  1.00  0.00     0.026 A 
ATOM     11  C   UNL A   1      33.882  26.496  24.272  1.00  0.00     0.040 A 
ATOM     12  C   UNL A   1      34.038  28.565  22.446  1.00  0.00     0.003 A 
ATOM     13  C   UNL A   1      34.028  27.251  21.995  1.00  0.00     0.014 A 
BRANCH   9  14
ATOM     14  N   UNL A   1      33.049  27.946  25.967  1.00  0.00    -0.325 N 
ATOM     15  C   UNL A   1      31.805  27.627  26.449  1.00  0.00     0.237 C 
ATOM     16  O   UNL A   1      31.702  27.618  27.687  1.00  0.00    -0.273 OA
ATOM     17  H   UNL A   1      33.659  28.348  26.626  1.00  0.00     0.169 HD
BRANCH  15  18
ATOM     18  C   UNL A   1      30.569  27.209  25.600  1.00  0.00     0.144 C 
BRANCH  18  19
ATOM     19  C   UNL A   1      30.509  27.953  24.261  1.00  0.00     0.021 C 
ATOM     20  C   UNL A   1      30.306  29.459  24.250  1.00  0.00     0.005 C 
ENDBRANCH  18  19
BRANCH  18  21
ATOM     21  S   UNL A   1      30.256  25.444  25.885  1.00  0.00    -0.072 SA
BRANCH  21  22
ATOM     22  C   UNL A   1      30.822  24.332  24.682  1.00  0.00     0.196 A 
ATOM     23  N   UNL A   1      30.278  24.413  23.478  1.00  0.00    -0.122 NA
ATOM     24  N   UNL A   1      31.705  23.260  24.687  1.00  0.00    -0.270 N 
ATOM     25  N   UNL A   1      30.629  23.311  22.750  1.00  0.00    -0.129 NA
ATOM     26  C   UNL A   1      31.404  22.574  23.509  1.00  0.00     0.161 A 
ATOM     27  C   UNL A   1      32.653  22.751  25.609  1.00  0.00     0.057 A 
ATOM     28  C   UNL A   1      31.910  21.270  23.293  1.00  0.00     0.050 A 
ATOM     29  C   UNL A   1      33.000  21.390  25.462  1.00  0.00    -0.001 A 
ATOM     30  C   UNL A   1      33.180  23.494  26.657  1.00  0.00     0.027 A 
ATOM     31  C   UNL A   1      32.639  20.665  24.240  1.00  0.00     0.014 A 
ATOM     32  C   UNL A   1      33.680  20.740  26.494  1.00  0.00     0.010 A 
ATOM     33  C   UNL A   1      33.864  22.834  27.682  1.00  0.00     0.002 A 
ATOM     34  C   UNL A   1      34.068  21.455  27.626  1.00  0.00     0.001 A 
ENDBRANCH  21  22
ENDBRANCH  18  21
ENDBRANCH  15  18
ENDBRANCH   9  14
ENDBRANCH   5   8
ENDBRANCH   3   4
ENDBRANCH   2   3
ENDBRANCH   1   2
BRANCH   1  35
ATOM     35  C   UNL A   1      38.339  21.305  25.378  1.00  0.00     0.002 C 
BRANCH  35  36
ATOM     36  C   UNL A   1      39.366  22.158  26.133  1.00  0.00     0.021 C 
BRANCH  36  37
ATOM     37  C   UNL A   1      40.736  21.513  26.340  1.00  0.00     0.116 C 
BRANCH  37  38
ATOM     38  N   UNL A   1      41.736  21.912  25.376  1.00  0.00    -0.352 N 
ATOM     39  C   UNL A   1      42.584  22.973  25.249  1.00  0.00     0.251 C 
ATOM     40  H   UNL A   1      41.826  21.266  24.638  1.00  0.00     0.163 HD
ATOM     41  O   UNL A   1      43.407  22.898  24.332  1.00  0.00    -0.269 OA
BRANCH  39  42
ATOM     42  C   UNL A   1      42.537  24.207  26.076  1.00  0.00     0.039 A 
ATOM     43  C   UNL A   1      43.023  24.339  27.377  1.00  0.00     0.014 A 
ATOM     44  C   UNL A   1      41.901  25.312  25.478  1.00  0.00     0.014 A 
ATOM     45  C   UNL A   1      42.782  25.500  28.102  1.00  0.00     0.010 A 
ATOM     46  C   UNL A   1      41.683  26.484  26.186  1.00  0.00     0.010 A 
ATOM     47  C   UNL A   1      42.078  26.556  27.518  1.00  0.00    -0.014 A 
BRANCH  47  48
ATOM     48  C   UNL A   1      41.896  27.776  28.302  1.00  0.00     0.031 A 
ATOM     49  C   UNL A   1      43.022  28.748  28.168  1.00  0.00     0.074 A 
ATOM     50  C   UNL A   1      40.756  28.051  28.971  1.00  0.00     0.049 A 
ATOM     51  N   UNL A   1      43.811  29.196  29.089  1.00  0.00    -0.248 NA
ATOM     52  C   UNL A   1      43.412  29.159  26.807  1.00  0.00     0.031 C 
ATOM     53  C   UNL A   1      39.502  27.291  28.931  1.00  0.00     0.029 A 
ATOM     54  N   UNL A   1      40.430  29.128  29.745  1.00  0.00    -0.354 N 
ATOM     55  C   UNL A   1      44.646  30.119  28.458  1.00  0.00     0.074 A 
ATOM     56  C   UNL A   1      44.475  29.928  27.044  1.00  0.00     0.031 C 
ATOM     57  C   UNL A   1      38.501  28.050  29.431  1.00  0.00     0.029 A 
ATOM     58  C   UNL A   1      39.062  29.280  29.957  1.00  0.00     0.049 A 
ATOM     59  H   UNL A   1      41.102  29.741  30.119  1.00  0.00     0.167 HD
ATOM     60  C   UNL A   1      45.214  31.148  29.146  1.00  0.00     0.037 A 
ATOM     61  C   UNL A   1      38.436  30.369  30.474  1.00  0.00     0.037 A 
ATOM     62  C   UNL A   1      45.166  30.913  30.563  1.00  0.00     0.049 A 
ATOM     63  C   UNL A   1      39.449  31.129  31.242  1.00  0.00     0.074 A 
ATOM     64  C   UNL A   1      45.808  30.090  31.460  1.00  0.00     0.029 A 
ATOM     65  N   UNL A   1      44.033  31.382  31.171  1.00  0.00    -0.354 N 
ATOM     66  N   UNL A   1      40.032  30.679  32.320  1.00  0.00    -0.248 NA
ATOM     67  C   UNL A   1      40.088  32.283  30.623  1.00  0.00     0.031 C 
ATOM     68  C   UNL A   1      44.881  29.878  32.523  1.00  0.00     0.029 A 
ATOM     69  C   UNL A   1      43.723  30.612  32.259  1.00  0.00     0.049 A 
ATOM     70  H   UNL A   1      43.514  32.162  30.869  1.00  0.00     0.167 HD
ATOM     71  C   UNL A   1      41.308  31.208  32.270  1.00  0.00     0.074 A 
ATOM     72  C   UNL A   1      41.230  32.307  31.316  1.00  0.00     0.031 C 
ATOM     73  C   UNL A   1      42.371  30.514  32.769  1.00  0.00     0.037 A 
BRANCH  60  74
ATOM     74  C   UNL A   1      45.379  32.549  28.591  1.00  0.00     0.058 A 
ATOM     75  C   UNL A   1      46.659  33.146  28.563  1.00  0.00     0.135 A 
ATOM     76  C   UNL A   1      44.296  33.433  28.376  1.00  0.00     0.135 A 
ATOM     77  F   UNL A   1      47.760  32.410  28.782  1.00  0.00    -0.206 F 
ATOM     78  C   UNL A   1      46.842  34.520  28.379  1.00  0.00     0.059 A 
ATOM     79  C   UNL A   1      44.460  34.794  28.142  1.00  0.00     0.059 A 
ATOM     80  F   UNL A   1      43.023  33.037  28.483  1.00  0.00    -0.206 F 
ATOM     81  C   UNL A   1      45.733  35.337  28.177  1.00  0.00     0.060 A 
BRANCH  81  82
ATOM     82  S   UNL A   1      45.953  37.118  28.010  1.00  0.00     0.124 S 
ATOM     83  O   UNL A   1      45.019  37.429  26.929  1.00  0.00    -0.237 OA
ATOM     84  O   UNL A   1      45.567  37.593  29.339  1.00  0.00    -0.237 OA
ATOM     85  O   UNL A   1      47.362  37.257  27.687  1.00  0.00    -0.744 OA
ENDBRANCH  81  82
ENDBRANCH  60  74
BRANCH  61  86
ATOM     86  C   UNL A   1      37.134  30.974  30.070  1.00  0.00     0.058 A 
ATOM     87  C   UNL A   1      36.262  31.521  31.032  1.00  0.00     0.135 A 
ATOM     88  C   UNL A   1      36.864  31.314  28.730  1.00  0.00     0.135 A 
ATOM     89  F   UNL A   1      36.442  31.254  32.336  1.00  0.00    -0.206 F 
ATOM     90  C   UNL A   1      35.242  32.418  30.695  1.00  0.00     0.059 A 
ATOM     91  C   UNL A   1      35.846  32.197  28.369  1.00  0.00     0.059 A 
ATOM     92  F   UNL A   1      37.646  30.876  27.732  1.00  0.00    -0.206 F 
ATOM     93  C   UNL A   1      35.063  32.776  29.360  1.00  0.00     0.060 A 
BRANCH  93  94
ATOM     94  S   UNL A   1      33.895  34.093  28.943  1.00  0.00     0.124 S 
ATOM     95  O   UNL A   1      33.322  34.413  30.246  1.00  0.00    -0.237 OA
ATOM     96  O   UNL A   1      34.771  35.107  28.366  1.00  0.00    -0.237 OA
ATOM     97  O   UNL A   1      32.982  33.452  28.001  1.00  0.00    -0.744 OA
ENDBRANCH  93  94
ENDBRANCH  61  86
BRANCH  73  98
ATOM     98  C   UNL A   1      42.096  29.462  33.806  1.00  0.00     0.058 A 
ATOM     99  C   UNL A   1      41.683  28.147  33.536  1.00  0.00     0.135 A 
ATOM    100  C   UNL A   1      42.381  29.788  35.142  1.00  0.00     0.135 A 
ATOM    101  F   UNL A   1      41.469  27.735  32.279  1.00  0.00    -0.206 F 
ATOM    102  C   UNL A   1      41.535  27.205  34.556  1.00  0.00     0.059 A 
ATOM    103  C   UNL A   1      42.272  28.857  36.168  1.00  0.00     0.059 A 
ATOM    104  F   UNL A   1      42.824  31.017  35.454  1.00  0.00    -0.206 F 
ATOM    105  C   UNL A   1      41.840  27.569  35.870  1.00  0.00     0.060 A 
BRANCH 105 106
ATOM    106  S   UNL A   1      41.734  26.328  37.177  1.00  0.00     0.124 S 
ATOM    107  O   UNL A   1      40.419  26.592  37.750  1.00  0.00    -0.237 OA
ATOM    108  O   UNL A   1      41.863  25.076  36.434  1.00  0.00    -0.237 OA
ATOM    109  O   UNL A   1      42.867  26.645  38.043  1.00  0.00    -0.744 OA
ENDBRANCH 105 106
ENDBRANCH  73  98
ENDBRANCH  47  48
ENDBRANCH  39  42
ENDBRANCH  37  38
ENDBRANCH  36  37
ENDBRANCH  35  36
ENDBRANCH   1  35
TORSDOF 21
ENDMDL
MODEL 3
REMARK VINA RESULT:     -12.7      2.390      9.643
REMARK SMILES CC[C@@H](Sc1nnc2ccc3ccccc3n12)C(=O)Nc1cccc(C(=O)NCCCCCCNC(=O)c2ccc(-c3c4nc(c(-c5c(F)cc(S(=O)(=O)[O-])cc5F)c5ccc([nH]5)c(-c5c(F)cc(S(=O)(=O)[O-])cc5F)c5nc(c(-c6c(F)cc(S(=O)(=O)[O-])cc6F)c6ccc3[nH]6)C=C5)C=C4)cc2)c1
REMARK SMILES IDX 31 1 30 2 29 3 28 4 26 5 27 6 25 8 21 9 22 10 104 11 23 12
REMARK SMILES IDX 24 13 20 14 18 15 19 16 3 18 2 19 1 20 4 21 5 22 6 23 17 24
REMARK SMILES IDX 7 25 8 26 16 27 9 28 11 29 15 30 10 31 12 32 14 33 13 34
REMARK SMILES IDX 32 35 33 36 34 37 35 38 36 39 37 41 38 42 39 43 103 44 40 45
REMARK SMILES IDX 102 46 41 47 42 48 43 49 96 50 44 51 101 52 95 53 97 54
REMARK SMILES IDX 45 55 100 56 94 57 93 58 46 60 80 61 59 62 79 63 60 64 63 65
REMARK SMILES IDX 78 66 98 67 61 68 62 69 77 71 99 72 64 73 47 74 48 75 57 76
REMARK SMILES IDX 49 77 50 78 56 79 58 80 51 81 52 82 53 83 54 84 55 85 81 86
REMARK SMILES IDX 82 87 91 88 83 89 84 90 90 91 92 92 85 93 86 94 87 95 88 96
REMARK SMILES IDX 89 97 65 98 66 99 75 100 67 101 68 102 74 103 76 104 69 105
REMARK SMILES IDX 70 106 71 107 72 108 73 109
REMARK H PARENT 28 7 20 17 35 40 97 59 63 70
REMARK Flexibility Score: inf
ROOT
ATOM      1  C   UNL A   1      38.922  21.150  25.987  1.00  0.00     0.002 C 
ENDROOT
BRANCH   1   2
ATOM      2  C   UNL A   1      39.141  22.573  26.484  1.00  0.00     0.021 C 
BRANCH   2   3
ATOM      3  C   UNL A   1      38.100  23.596  26.067  1.00  0.00     0.116 C 
BRANCH   3   4
ATOM      4  N   UNL A   1      37.718  23.532  24.671  1.00  0.00    -0.352 N 
ATOM      5  C   UNL A   1      36.526  23.215  24.066  1.00  0.00     0.251 C 
ATOM      6  O   UNL A   1      36.485  23.219  22.835  1.00  0.00    -0.269 OA
ATOM      7  H   UNL A   1      38.443  23.756  24.043  1.00  0.00     0.163 HD
BRANCH   5   8
ATOM      8  C   UNL A   1      35.306  22.812  24.824  1.00  0.00     0.041 A 
ATOM      9  C   UNL A   1      32.920  22.499  25.005  1.00  0.00     0.041 A 
ATOM     10  C   UNL A   1      33.055  22.258  26.358  1.00  0.00     0.026 A 
ATOM     11  C   UNL A   1      34.070  22.549  24.229  1.00  0.00     0.040 A 
ATOM     12  C   UNL A   1      34.295  22.384  26.979  1.00  0.00     0.003 A 
ATOM     13  C   UNL A   1      35.404  22.738  26.220  1.00  0.00     0.014 A 
BRANCH   9  14
ATOM     14  N   UNL A   1      31.699  22.721  24.352  1.00  0.00    -0.325 N 
ATOM     15  C   UNL A   1      31.229  23.839  23.710  1.00  0.00     0.237 C 
ATOM     16  O   UNL A   1      30.236  23.657  22.986  1.00  0.00    -0.273 OA
ATOM     17  H   UNL A   1      31.082  21.954  24.356  1.00  0.00     0.169 HD
BRANCH  15  18
ATOM     18  C   UNL A   1      31.866  25.259  23.749  1.00  0.00     0.144 C 
BRANCH  18  19
ATOM     19  C   UNL A   1      32.583  25.606  22.439  1.00  0.00     0.021 C 
ATOM     20  C   UNL A   1      33.048  27.033  22.196  1.00  0.00     0.005 C 
ENDBRANCH  18  19
BRANCH  18  21
ATOM     21  S   UNL A   1      30.780  26.340  24.721  1.00  0.00    -0.072 SA
BRANCH  21  22
ATOM     22  C   UNL A   1      31.361  27.935  25.079  1.00  0.00     0.196 A 
ATOM     23  N   UNL A   1      32.375  28.035  25.924  1.00  0.00    -0.122 NA
ATOM     24  N   UNL A   1      30.952  29.218  24.739  1.00  0.00    -0.270 N 
ATOM     25  N   UNL A   1      32.521  29.340  26.300  1.00  0.00    -0.129 NA
ATOM     26  C   UNL A   1      31.606  30.032  25.666  1.00  0.00     0.161 A 
ATOM     27  C   UNL A   1      30.028  29.758  23.811  1.00  0.00     0.057 A 
ATOM     28  C   UNL A   1      31.230  31.388  25.813  1.00  0.00     0.050 A 
ATOM     29  C   UNL A   1      29.544  31.055  24.094  1.00  0.00    -0.001 A 
ATOM     30  C   UNL A   1      29.543  29.059  22.714  1.00  0.00     0.027 A 
ATOM     31  C   UNL A   1      30.210  31.886  25.102  1.00  0.00     0.014 A 
ATOM     32  C   UNL A   1      28.422  31.533  23.413  1.00  0.00     0.010 A 
ATOM     33  C   UNL A   1      28.423  29.549  22.036  1.00  0.00     0.002 A 
ATOM     34  C   UNL A   1      27.834  30.755  22.417  1.00  0.00     0.001 A 
ENDBRANCH  21  22
ENDBRANCH  18  21
ENDBRANCH  15  18
ENDBRANCH   9  14
ENDBRANCH   5   8
ENDBRANCH   3   4
ENDBRANCH   2   3
ENDBRANCH   1   2
BRANCH   1  35
ATOM     35  C   UNL A   1      40.170  20.271  25.873  1.00  0.00     0.002 C 
BRANCH  35  36
ATOM     36  C   UNL A   1      40.965  20.037  27.163  1.00  0.00     0.021 C 
BRANCH  36  37
ATOM     37  C   UNL A   1      42.309  19.329  26.992  1.00  0.00     0.116 C 
BRANCH  37  38
ATOM     38  N   UNL A   1      43.005  19.657  25.768  1.00  0.00    -0.352 N 
ATOM     39  C   UNL A   1      43.667  20.753  25.298  1.00  0.00     0.251 C 
ATOM     40  H   UNL A   1      43.000  18.913  25.122  1.00  0.00     0.163 HD
ATOM     41  O   UNL A   1      44.260  20.606  24.226  1.00  0.00    -0.269 OA
BRANCH  39  42
ATOM     42  C   UNL A   1      43.663  22.093  25.942  1.00  0.00     0.039 A 
ATOM     43  C   UNL A   1      44.454  22.483  27.023  1.00  0.00     0.014 A 
ATOM     44  C   UNL A   1      42.738  23.014  25.416  1.00  0.00     0.014 A 
ATOM     45  C   UNL A   1      44.248  23.715  27.634  1.00  0.00     0.010 A 
ATOM     46  C   UNL A   1      42.548  24.256  26.003  1.00  0.00     0.010 A 
ATOM     47  C   UNL A   1      43.269  24.583  27.147  1.00  0.00    -0.014 A 
BRANCH  47  48
ATOM     48  C   UNL A   1      43.127  25.888  27.790  1.00  0.00     0.031 A 
ATOM     49  C   UNL A   1      44.237  26.835  27.474  1.00  0.00     0.074 A 
ATOM     50  C   UNL A   1      42.028  26.242  28.489  1.00  0.00     0.049 A 
ATOM     51  N   UNL A   1      45.078  27.389  28.286  1.00  0.00    -0.248 NA
ATOM     52  C   UNL A   1      44.542  27.081  26.052  1.00  0.00     0.031 C 
ATOM     53  C   UNL A   1      40.778  25.485  28.616  1.00  0.00     0.029 A 
ATOM     54  N   UNL A   1      41.743  27.403  29.148  1.00  0.00    -0.354 N 
ATOM     55  C   UNL A   1      45.868  28.229  27.500  1.00  0.00     0.074 A 
ATOM     56  C   UNL A   1      45.613  27.871  26.132  1.00  0.00     0.031 C 
ATOM     57  C   UNL A   1      39.804  26.298  29.081  1.00  0.00     0.029 A 
ATOM     58  C   UNL A   1      40.389  27.582  29.423  1.00  0.00     0.049 A 
ATOM     59  H   UNL A   1      42.433  28.056  29.406  1.00  0.00     0.167 HD
ATOM     60  C   UNL A   1      46.471  29.331  28.025  1.00  0.00     0.037 A 
ATOM     61  C   UNL A   1      39.789  28.725  29.843  1.00  0.00     0.037 A 
ATOM     62  C   UNL A   1      46.509  29.267  29.460  1.00  0.00     0.049 A 
ATOM     63  C   UNL A   1      40.842  29.570  30.454  1.00  0.00     0.074 A 
ATOM     64  C   UNL A   1      47.208  28.556  30.409  1.00  0.00     0.029 A 
ATOM     65  N   UNL A   1      45.412  29.806  30.076  1.00  0.00    -0.354 N 
ATOM     66  N   UNL A   1      41.491  29.251  31.540  1.00  0.00    -0.248 NA
ATOM     67  C   UNL A   1      41.436  30.641  29.665  1.00  0.00     0.031 C 
ATOM     68  C   UNL A   1      46.348  28.473  31.543  1.00  0.00     0.029 A 
ATOM     69  C   UNL A   1      45.172  29.172  31.265  1.00  0.00     0.049 A 
ATOM     70  H   UNL A   1      44.871  30.546  29.715  1.00  0.00     0.167 HD
ATOM     71  C   UNL A   1      42.759  29.768  31.351  1.00  0.00     0.074 A 
ATOM     72  C   UNL A   1      42.617  30.746  30.280  1.00  0.00     0.031 C 
ATOM     73  C   UNL A   1      43.854  29.137  31.864  1.00  0.00     0.037 A 
BRANCH  60  74
ATOM     74  C   UNL A   1      46.593  30.657  27.299  1.00  0.00     0.058 A 
ATOM     75  C   UNL A   1      47.858  31.274  27.176  1.00  0.00     0.135 A 
ATOM     76  C   UNL A   1      45.486  31.482  26.994  1.00  0.00     0.135 A 
ATOM     77  F   UNL A   1      48.979  30.596  27.467  1.00  0.00    -0.206 F 
ATOM     78  C   UNL A   1      48.005  32.618  26.822  1.00  0.00     0.059 A 
ATOM     79  C   UNL A   1      45.614  32.807  26.591  1.00  0.00     0.059 A 
ATOM     80  F   UNL A   1      44.225  31.074  27.170  1.00  0.00    -0.206 F 
ATOM     81  C   UNL A   1      46.873  33.379  26.538  1.00  0.00     0.060 A 
BRANCH  81  82
ATOM     82  S   UNL A   1      47.047  35.130  26.149  1.00  0.00     0.124 S 
ATOM     83  O   UNL A   1      48.035  35.095  25.072  1.00  0.00    -0.237 OA
ATOM     84  O   UNL A   1      45.685  35.484  25.750  1.00  0.00    -0.237 OA
ATOM     85  O   UNL A   1      47.497  35.713  27.401  1.00  0.00    -0.744 OA
ENDBRANCH  81  82
ENDBRANCH  60  74
BRANCH  61  86
ATOM     86  C   UNL A   1      38.461  29.280  29.450  1.00  0.00     0.058 A 
ATOM     87  C   UNL A   1      37.499  29.610  30.424  1.00  0.00     0.135 A 
ATOM     88  C   UNL A   1      38.230  29.790  28.158  1.00  0.00     0.135 A 
ATOM     89  F   UNL A   1      37.636  29.170  31.685  1.00  0.00    -0.206 F 
ATOM     90  C   UNL A   1      36.424  30.465  30.155  1.00  0.00     0.059 A 
ATOM     91  C   UNL A   1      37.160  30.635  27.863  1.00  0.00     0.059 A 
ATOM     92  F   UNL A   1      39.096  29.566  27.158  1.00  0.00    -0.206 F 
ATOM     93  C   UNL A   1      36.281  30.999  28.876  1.00  0.00     0.060 A 
BRANCH  93  94
ATOM     94  S   UNL A   1      35.027  32.269  28.579  1.00  0.00     0.124 S 
ATOM     95  O   UNL A   1      34.830  32.819  29.916  1.00  0.00    -0.237 OA
ATOM     96  O   UNL A   1      35.697  33.143  27.622  1.00  0.00    -0.237 OA
ATOM     97  O   UNL A   1      33.898  31.513  28.044  1.00  0.00    -0.744 OA
ENDBRANCH  93  94
ENDBRANCH  61  86
BRANCH  73  98
ATOM     98  C   UNL A   1      43.648  28.216  33.033  1.00  0.00     0.058 A 
ATOM     99  C   UNL A   1      43.439  28.628  34.359  1.00  0.00     0.135 A 
ATOM    100  C   UNL A   1      43.547  26.843  32.759  1.00  0.00     0.135 A 
ATOM    101  F   UNL A   1      43.439  29.927  34.688  1.00  0.00    -0.206 F 
ATOM    102  C   UNL A   1      43.167  27.707  35.374  1.00  0.00     0.059 A 
ATOM    103  C   UNL A   1      43.246  25.914  33.747  1.00  0.00     0.059 A 
ATOM    104  F   UNL A   1      43.693  26.396  31.501  1.00  0.00    -0.206 F 
ATOM    105  C   UNL A   1      43.065  26.351  35.055  1.00  0.00     0.060 A 
BRANCH 105 106
ATOM    106  S   UNL A   1      42.627  25.171  36.349  1.00  0.00     0.124 S 
ATOM    107  O   UNL A   1      41.902  26.007  37.300  1.00  0.00    -0.237 OA
ATOM    108  O   UNL A   1      41.822  24.192  35.623  1.00  0.00    -0.237 OA
ATOM    109  O   UNL A   1      43.921  24.677  36.814  1.00  0.00    -0.744 OA
ENDBRANCH 105 106
ENDBRANCH  73  98
ENDBRANCH  47  48
ENDBRANCH  39  42
ENDBRANCH  37  38
ENDBRANCH  36  37
ENDBRANCH  35  36
ENDBRANCH   1  35
TORSDOF 21
ENDMDL
