MODEL 1
REMARK VINA RESULT:     -10.4      0.000      0.000
REMARK SMILES COc1ccc(-c2sc(N)nc2C(=O)NCCCCCCNC(=O)c2ccc(-c3c4nc(c(-c5c(F)cc(S(=O)(=O)[O-])cc5F)c5ccc([nH]5)c(-c5c(F)cc(S(=O)(=O)[O-])cc5F)c5nc(c(-c6c(F)cc(S(=O)(=O)[O-])cc6F)c6ccc3[nH]6)C=C5)C=C4)cc2)cc1OC
REMARK SMILES IDX 19 1 18 2 17 3 16 4 15 5 13 6 14 7 12 9 7 10 8 11 9 12 11 13
REMARK SMILES IDX 6 14 3 15 4 16 92 17 5 18 91 19 2 20 1 21 93 22 94 23 10 24
REMARK SMILES IDX 20 27 21 28 22 29 23 30 24 32 25 33 26 34 90 35 27 36 89 37
REMARK SMILES IDX 28 38 29 39 30 40 83 41 31 42 88 43 82 44 84 45 32 46 87 47
REMARK SMILES IDX 81 48 80 49 33 51 67 52 46 53 66 54 47 55 50 56 65 57 85 58
REMARK SMILES IDX 48 59 49 60 64 62 86 63 51 64 34 65 35 66 44 67 36 68 37 69
REMARK SMILES IDX 43 70 45 71 38 72 39 73 40 74 41 75 42 76 68 77 69 78 78 79
REMARK SMILES IDX 70 80 71 81 77 82 79 83 72 84 73 85 74 86 75 87 76 88 52 89
REMARK SMILES IDX 53 90 62 91 54 92 55 93 61 94 63 95 56 96 57 97 58 98 59 99
REMARK SMILES IDX 60 100
REMARK H PARENT 15 8 10 25 10 26 22 31 84 50 50 61
REMARK Flexibility Score: inf
ROOT
ATOM      1  C   UNL A   1      40.873  21.903  27.738  1.00  0.00     0.002 C 
ENDROOT
BRANCH   1   2
ATOM      2  C   UNL A   1      39.883  22.938  27.193  1.00  0.00     0.002 C 
BRANCH   2   3
ATOM      3  C   UNL A   1      38.974  22.441  26.064  1.00  0.00     0.021 C 
BRANCH   3   4
ATOM      4  C   UNL A   1      37.778  23.345  25.774  1.00  0.00     0.116 C 
BRANCH   4   5
ATOM      5  N   UNL A   1      37.384  23.270  24.380  1.00  0.00    -0.351 N 
ATOM      6  C   UNL A   1      36.209  22.912  23.762  1.00  0.00     0.271 C 
ATOM      7  O   UNL A   1      36.219  22.962  22.532  1.00  0.00    -0.267 OA
ATOM      8  H   UNL A   1      38.099  23.527  23.752  1.00  0.00     0.163 HD
BRANCH   6   9
ATOM      9  C   UNL A   1      35.017  22.513  24.534  1.00  0.00     0.149 A 
ATOM     10  C   UNL A   1      34.012  23.386  24.954  1.00  0.00     0.069 A 
ATOM     11  S   UNL A   1      32.842  22.521  25.883  1.00  0.00    -0.096 S 
ATOM     12  C   UNL A   1      33.727  21.081  25.667  1.00  0.00     0.181 A 
ATOM     13  N   UNL A   1      34.811  21.200  24.953  1.00  0.00    -0.215 NA
BRANCH  10  14
ATOM     14  C   UNL A   1      33.809  24.821  24.721  1.00  0.00    -0.002 A 
ATOM     15  C   UNL A   1      33.444  27.567  24.213  1.00  0.00     0.160 A 
ATOM     16  C   UNL A   1      33.888  27.125  25.468  1.00  0.00     0.051 A 
ATOM     17  C   UNL A   1      33.211  26.645  23.189  1.00  0.00     0.161 A 
ATOM     18  C   UNL A   1      34.064  25.763  25.723  1.00  0.00     0.014 A 
ATOM     19  C   UNL A   1      33.373  25.279  23.469  1.00  0.00     0.060 A 
BRANCH  15  20
ATOM     20  O   UNL A   1      33.353  28.920  24.028  1.00  0.00    -0.493 OA
ATOM     21  C   UNL A   1      32.720  29.560  25.136  1.00  0.00     0.278 C 
ENDBRANCH  15  20
BRANCH  17  22
ATOM     22  O   UNL A   1      32.838  26.866  21.893  1.00  0.00    -0.493 OA
ATOM     23  C   UNL A   1      32.622  25.766  21.029  1.00  0.00     0.278 C 
ENDBRANCH  17  22
ENDBRANCH  10  14
BRANCH  12  24
ATOM     24  N   UNL A   1      33.342  19.916  26.195  1.00  0.00    -0.375 N 
ATOM     25  H   UNL A   1      33.947  19.140  26.169  1.00  0.00     0.159 HD
ATOM     26  H   UNL A   1      32.454  19.835  26.612  1.00  0.00     0.159 HD
ENDBRANCH  12  24
ENDBRANCH   6   9
ENDBRANCH   4   5
ENDBRANCH   3   4
ENDBRANCH   2   3
ENDBRANCH   1   2
BRANCH   1  27
ATOM     27  C   UNL A   1      40.795  20.521  27.083  1.00  0.00     0.021 C 
BRANCH  27  28
ATOM     28  C   UNL A   1      41.954  19.590  27.424  1.00  0.00     0.116 C 
BRANCH  28  29
ATOM     29  N   UNL A   1      42.585  19.045  26.232  1.00  0.00    -0.352 N 
ATOM     30  C   UNL A   1      43.329  19.685  25.272  1.00  0.00     0.251 C 
ATOM     31  H   UNL A   1      42.460  18.079  26.095  1.00  0.00     0.163 HD
ATOM     32  O   UNL A   1      43.608  19.106  24.226  1.00  0.00    -0.269 OA
BRANCH  30  33
ATOM     33  C   UNL A   1      43.776  21.077  25.493  1.00  0.00     0.039 A 
ATOM     34  C   UNL A   1      43.276  22.087  24.669  1.00  0.00     0.014 A 
ATOM     35  C   UNL A   1      44.687  21.385  26.508  1.00  0.00     0.014 A 
ATOM     36  C   UNL A   1      43.642  23.415  24.903  1.00  0.00     0.010 A 
ATOM     37  C   UNL A   1      44.992  22.715  26.786  1.00  0.00     0.010 A 
ATOM     38  C   UNL A   1      44.473  23.744  25.985  1.00  0.00    -0.014 A 
BRANCH  38  39
ATOM     39  C   UNL A   1      44.799  25.158  26.307  1.00  0.00     0.031 A 
ATOM     40  C   UNL A   1      46.212  25.658  26.178  1.00  0.00     0.074 A 
ATOM     41  C   UNL A   1      43.833  25.971  26.779  1.00  0.00     0.049 A 
ATOM     42  N   UNL A   1      46.702  26.833  26.482  1.00  0.00    -0.248 NA
ATOM     43  C   UNL A   1      47.210  24.706  25.667  1.00  0.00     0.031 C 
ATOM     44  C   UNL A   1      42.434  25.589  26.989  1.00  0.00     0.029 A 
ATOM     45  N   UNL A   1      43.881  27.283  27.179  1.00  0.00    -0.354 N 
ATOM     46  C   UNL A   1      48.063  26.758  26.210  1.00  0.00     0.074 A 
ATOM     47  C   UNL A   1      48.331  25.406  25.769  1.00  0.00     0.031 C 
ATOM     48  C   UNL A   1      41.756  26.646  27.462  1.00  0.00     0.029 A 
ATOM     49  C   UNL A   1      42.675  27.768  27.631  1.00  0.00     0.049 A 
ATOM     50  H   UNL A   1      44.701  27.827  27.146  1.00  0.00     0.167 HD
ATOM     51  C   UNL A   1      49.001  27.732  26.301  1.00  0.00     0.037 A 
ATOM     52  C   UNL A   1      42.349  28.971  28.139  1.00  0.00     0.037 A 
ATOM     53  C   UNL A   1      48.721  29.080  26.728  1.00  0.00     0.049 A 
ATOM     54  C   UNL A   1      43.409  30.032  28.249  1.00  0.00     0.074 A 
ATOM     55  C   UNL A   1      49.588  30.157  26.794  1.00  0.00     0.029 A 
ATOM     56  N   UNL A   1      47.486  29.534  27.170  1.00  0.00    -0.354 N 
ATOM     57  N   UNL A   1      44.679  29.965  27.919  1.00  0.00    -0.248 NA
ATOM     58  C   UNL A   1      42.998  31.332  28.796  1.00  0.00     0.031 C 
ATOM     59  C   UNL A   1      48.892  31.245  27.331  1.00  0.00     0.029 A 
ATOM     60  C   UNL A   1      47.577  30.866  27.543  1.00  0.00     0.049 A 
ATOM     61  H   UNL A   1      46.667  28.990  27.213  1.00  0.00     0.167 HD
ATOM     62  C   UNL A   1      45.211  31.220  28.200  1.00  0.00     0.074 A 
ATOM     63  C   UNL A   1      44.121  32.030  28.708  1.00  0.00     0.031 C 
ATOM     64  C   UNL A   1      46.485  31.660  28.052  1.00  0.00     0.037 A 
BRANCH  51  65
ATOM     65  C   UNL A   1      50.418  27.376  25.941  1.00  0.00     0.058 A 
ATOM     66  C   UNL A   1      51.368  27.032  26.918  1.00  0.00     0.135 A 
ATOM     67  C   UNL A   1      50.826  27.341  24.597  1.00  0.00     0.135 A 
ATOM     68  F   UNL A   1      51.039  27.060  28.219  1.00  0.00    -0.206 F 
ATOM     69  C   UNL A   1      52.675  26.701  26.579  1.00  0.00     0.059 A 
ATOM     70  C   UNL A   1      52.120  26.982  24.233  1.00  0.00     0.059 A 
ATOM     71  F   UNL A   1      49.961  27.658  23.620  1.00  0.00    -0.206 F 
ATOM     72  C   UNL A   1      53.043  26.679  25.233  1.00  0.00     0.060 A 
BRANCH  72  73
ATOM     73  S   UNL A   1      54.743  26.246  24.812  1.00  0.00     0.124 S 
ATOM     74  O   UNL A   1      55.492  26.997  25.815  1.00  0.00    -0.237 OA
ATOM     75  O   UNL A   1      54.745  24.795  24.976  1.00  0.00    -0.237 OA
ATOM     76  O   UNL A   1      54.886  26.719  23.438  1.00  0.00    -0.744 OA
ENDBRANCH  72  73
ENDBRANCH  51  65
BRANCH  52  77
ATOM     77  C   UNL A   1      40.951  29.236  28.576  1.00  0.00     0.058 A 
ATOM     78  C   UNL A   1      39.924  29.427  27.639  1.00  0.00     0.135 A 
ATOM     79  C   UNL A   1      40.609  29.285  29.936  1.00  0.00     0.135 A 
ATOM     80  F   UNL A   1      40.201  29.400  26.326  1.00  0.00    -0.206 F 
ATOM     81  C   UNL A   1      38.612  29.668  28.033  1.00  0.00     0.059 A 
ATOM     82  C   UNL A   1      39.299  29.494  30.356  1.00  0.00     0.059 A 
ATOM     83  F   UNL A   1      41.551  29.093  30.873  1.00  0.00    -0.206 F 
ATOM     84  C   UNL A   1      38.309  29.694  29.396  1.00  0.00     0.060 A 
BRANCH  84  85
ATOM     85  S   UNL A   1      36.592  29.950  29.896  1.00  0.00     0.124 S 
ATOM     86  O   UNL A   1      35.869  29.413  28.749  1.00  0.00    -0.237 OA
ATOM     87  O   UNL A   1      36.512  29.170  31.125  1.00  0.00    -0.237 OA
ATOM     88  O   UNL A   1      36.508  31.397  30.074  1.00  0.00    -0.744 OA
ENDBRANCH  84  85
ENDBRANCH  52  77
BRANCH  64  89
ATOM     89  C   UNL A   1      46.772  33.089  28.426  1.00  0.00     0.058 A 
ATOM     90  C   UNL A   1      46.627  34.137  27.503  1.00  0.00     0.135 A 
ATOM     91  C   UNL A   1      47.146  33.421  29.739  1.00  0.00     0.135 A 
ATOM     92  F   UNL A   1      46.279  33.877  26.233  1.00  0.00    -0.206 F 
ATOM     93  C   UNL A   1      46.867  35.460  27.862  1.00  0.00     0.059 A 
ATOM     94  C   UNL A   1      47.359  34.740  30.127  1.00  0.00     0.059 A 
ATOM     95  F   UNL A   1      47.289  32.460  30.665  1.00  0.00    -0.206 F 
ATOM     96  C   UNL A   1      47.229  35.751  29.178  1.00  0.00     0.060 A 
BRANCH  96  97
ATOM     97  S   UNL A   1      47.501  37.476  29.638  1.00  0.00     0.124 S 
ATOM     98  O   UNL A   1      46.458  37.683  30.638  1.00  0.00    -0.237 OA
ATOM     99  O   UNL A   1      48.869  37.451  30.145  1.00  0.00    -0.237 OA
ATOM    100  O   UNL A   1      47.318  38.196  28.382  1.00  0.00    -0.744 OA
ENDBRANCH  96  97
ENDBRANCH  64  89
ENDBRANCH  38  39
ENDBRANCH  30  33
ENDBRANCH  28  29
ENDBRANCH  27  28
ENDBRANCH   1  27
TORSDOF 20
ENDMDL
MODEL 2
REMARK VINA RESULT:     -10.2      6.357      8.718
REMARK SMILES COc1ccc(-c2sc(N)nc2C(=O)NCCCCCCNC(=O)c2ccc(-c3c4nc(c(-c5c(F)cc(S(=O)(=O)[O-])cc5F)c5ccc([nH]5)c(-c5c(F)cc(S(=O)(=O)[O-])cc5F)c5nc(c(-c6c(F)cc(S(=O)(=O)[O-])cc6F)c6ccc3[nH]6)C=C5)C=C4)cc2)cc1OC
REMARK SMILES IDX 19 1 18 2 17 3 16 4 15 5 13 6 14 7 12 9 7 10 8 11 9 12 11 13
REMARK SMILES IDX 6 14 3 15 4 16 92 17 5 18 91 19 2 20 1 21 93 22 94 23 10 24
REMARK SMILES IDX 20 27 21 28 22 29 23 30 24 32 25 33 26 34 90 35 27 36 89 37
REMARK SMILES IDX 28 38 29 39 30 40 83 41 31 42 88 43 82 44 84 45 32 46 87 47
REMARK SMILES IDX 81 48 80 49 33 51 67 52 46 53 66 54 47 55 50 56 65 57 85 58
REMARK SMILES IDX 48 59 49 60 64 62 86 63 51 64 34 65 35 66 44 67 36 68 37 69
REMARK SMILES IDX 43 70 45 71 38 72 39 73 40 74 41 75 42 76 68 77 69 78 78 79
REMARK SMILES IDX 70 80 71 81 77 82 79 83 72 84 73 85 74 86 75 87 76 88 52 89
REMARK SMILES IDX 53 90 62 91 54 92 55 93 61 94 63 95 56 96 57 97 58 98 59 99
REMARK SMILES IDX 60 100
REMARK H PARENT 15 8 10 25 10 26 22 31 84 50 50 61
REMARK Flexibility Score: inf
ROOT
ATOM      1  C   UNL A   1      39.715  22.593  27.073  1.00  0.00     0.002 C 
ENDROOT
BRANCH   1   2
ATOM      2  C   UNL A   1      39.059  21.581  26.127  1.00  0.00     0.002 C 
BRANCH   2   3
ATOM      3  C   UNL A   1      37.992  22.159  25.190  1.00  0.00     0.021 C 
BRANCH   3   4
ATOM      4  C   UNL A   1      36.772  21.262  24.996  1.00  0.00     0.116 C 
BRANCH   4   5
ATOM      5  N   UNL A   1      35.846  21.379  26.107  1.00  0.00    -0.351 N 
ATOM      6  C   UNL A   1      34.509  21.089  26.239  1.00  0.00     0.271 C 
ATOM      7  O   UNL A   1      34.023  21.315  27.348  1.00  0.00    -0.267 OA
ATOM      8  H   UNL A   1      36.257  21.737  26.928  1.00  0.00     0.163 HD
BRANCH   6   9
ATOM      9  C   UNL A   1      33.723  20.527  25.124  1.00  0.00     0.149 A 
ATOM     10  C   UNL A   1      33.040  21.285  24.171  1.00  0.00     0.069 A 
ATOM     11  S   UNL A   1      32.198  20.235  23.090  1.00  0.00    -0.096 S 
ATOM     12  C   UNL A   1      32.787  18.880  23.938  1.00  0.00     0.181 A 
ATOM     13  N   UNL A   1      33.562  19.154  24.949  1.00  0.00    -0.215 NA
BRANCH  10  14
ATOM     14  C   UNL A   1      32.956  22.735  23.958  1.00  0.00    -0.002 A 
ATOM     15  C   UNL A   1      32.725  25.512  23.547  1.00  0.00     0.160 A 
ATOM     16  C   UNL A   1      33.733  24.775  22.907  1.00  0.00     0.051 A 
ATOM     17  C   UNL A   1      31.801  24.863  24.372  1.00  0.00     0.161 A 
ATOM     18  C   UNL A   1      33.851  23.399  23.114  1.00  0.00     0.014 A 
ATOM     19  C   UNL A   1      31.948  23.483  24.584  1.00  0.00     0.060 A 
BRANCH  15  20
ATOM     20  O   UNL A   1      32.642  26.845  23.246  1.00  0.00    -0.493 OA
ATOM     21  C   UNL A   1      33.472  27.184  22.136  1.00  0.00     0.278 C 
ENDBRANCH  15  20
BRANCH  17  22
ATOM     22  O   UNL A   1      30.721  25.375  25.033  1.00  0.00    -0.493 OA
ATOM     23  C   UNL A   1      30.912  26.369  26.022  1.00  0.00     0.278 C 
ENDBRANCH  17  22
ENDBRANCH  10  14
BRANCH  12  24
ATOM     24  N   UNL A   1      32.471  17.628  23.597  1.00  0.00    -0.375 N 
ATOM     25  H   UNL A   1      32.255  17.413  22.661  1.00  0.00     0.159 HD
ATOM     26  H   UNL A   1      32.455  16.920  24.281  1.00  0.00     0.159 HD
ENDBRANCH  12  24
ENDBRANCH   6   9
ENDBRANCH   4   5
ENDBRANCH   3   4
ENDBRANCH   2   3
ENDBRANCH   1   2
BRANCH   1  27
ATOM     27  C   UNL A   1      41.064  22.159  27.654  1.00  0.00     0.021 C 
BRANCH  27  28
ATOM     28  C   UNL A   1      42.100  23.273  27.753  1.00  0.00     0.116 C 
BRANCH  28  29
ATOM     29  N   UNL A   1      42.290  23.955  26.482  1.00  0.00    -0.352 N 
ATOM     30  C   UNL A   1      42.053  25.267  26.155  1.00  0.00     0.251 C 
ATOM     31  H   UNL A   1      42.640  23.395  25.752  1.00  0.00     0.163 HD
ATOM     32  O   UNL A   1      42.075  25.619  24.980  1.00  0.00    -0.269 OA
BRANCH  30  33
ATOM     33  C   UNL A   1      41.755  26.249  27.220  1.00  0.00     0.039 A 
ATOM     34  C   UNL A   1      40.669  26.018  28.068  1.00  0.00     0.014 A 
ATOM     35  C   UNL A   1      42.540  27.394  27.381  1.00  0.00     0.014 A 
ATOM     36  C   UNL A   1      40.409  26.904  29.116  1.00  0.00     0.010 A 
ATOM     37  C   UNL A   1      42.325  28.235  28.469  1.00  0.00     0.010 A 
ATOM     38  C   UNL A   1      41.257  28.000  29.348  1.00  0.00    -0.014 A 
BRANCH  38  39
ATOM     39  C   UNL A   1      41.052  28.901  30.512  1.00  0.00     0.031 A 
ATOM     40  C   UNL A   1      41.883  28.734  31.755  1.00  0.00     0.074 A 
ATOM     41  C   UNL A   1      40.070  29.823  30.473  1.00  0.00     0.049 A 
ATOM     42  N   UNL A   1      41.802  29.373  32.894  1.00  0.00    -0.248 NA
ATOM     43  C   UNL A   1      42.926  27.697  31.722  1.00  0.00     0.031 C 
ATOM     44  C   UNL A   1      39.168  30.051  29.341  1.00  0.00     0.029 A 
ATOM     45  N   UNL A   1      39.657  30.735  31.413  1.00  0.00    -0.354 N 
ATOM     46  C   UNL A   1      42.770  28.808  33.716  1.00  0.00     0.074 A 
ATOM     47  C   UNL A   1      43.391  27.740  32.963  1.00  0.00     0.031 C 
ATOM     48  C   UNL A   1      38.323  31.047  29.645  1.00  0.00     0.029 A 
ATOM     49  C   UNL A   1      38.589  31.501  31.007  1.00  0.00     0.049 A 
ATOM     50  H   UNL A   1      40.085  30.831  32.294  1.00  0.00     0.167 HD
ATOM     51  C   UNL A   1      43.124  29.161  34.976  1.00  0.00     0.037 A 
ATOM     52  C   UNL A   1      37.892  32.449  31.662  1.00  0.00     0.037 A 
ATOM     53  C   UNL A   1      42.509  30.237  35.712  1.00  0.00     0.049 A 
ATOM     54  C   UNL A   1      38.290  32.812  33.066  1.00  0.00     0.074 A 
ATOM     55  C   UNL A   1      42.837  30.715  36.969  1.00  0.00     0.029 A 
ATOM     56  N   UNL A   1      41.435  30.994  35.265  1.00  0.00    -0.354 N 
ATOM     57  N   UNL A   1      39.257  32.317  33.803  1.00  0.00    -0.248 NA
ATOM     58  C   UNL A   1      37.506  33.863  33.730  1.00  0.00     0.031 C 
ATOM     59  C   UNL A   1      41.925  31.720  37.305  1.00  0.00     0.029 A 
ATOM     60  C   UNL A   1      41.067  31.913  36.235  1.00  0.00     0.049 A 
ATOM     61  H   UNL A   1      41.000  30.894  34.387  1.00  0.00     0.167 HD
ATOM     62  C   UNL A   1      39.210  33.010  35.009  1.00  0.00     0.074 A 
ATOM     63  C   UNL A   1      38.132  33.972  34.894  1.00  0.00     0.031 C 
ATOM     64  C   UNL A   1      39.988  32.863  36.110  1.00  0.00     0.037 A 
BRANCH  51  65
ATOM     65  C   UNL A   1      44.220  28.373  35.642  1.00  0.00     0.058 A 
ATOM     66  C   UNL A   1      45.573  28.726  35.506  1.00  0.00     0.135 A 
ATOM     67  C   UNL A   1      43.913  27.272  36.458  1.00  0.00     0.135 A 
ATOM     68  F   UNL A   1      45.928  29.761  34.728  1.00  0.00    -0.206 F 
ATOM     69  C   UNL A   1      46.582  27.996  36.125  1.00  0.00     0.059 A 
ATOM     70  C   UNL A   1      44.904  26.547  37.113  1.00  0.00     0.059 A 
ATOM     71  F   UNL A   1      42.637  26.890  36.626  1.00  0.00    -0.206 F 
ATOM     72  C   UNL A   1      46.238  26.906  36.927  1.00  0.00     0.060 A 
BRANCH  72  73
ATOM     73  S   UNL A   1      47.559  25.971  37.725  1.00  0.00     0.124 S 
ATOM     74  O   UNL A   1      46.999  24.624  37.731  1.00  0.00    -0.237 OA
ATOM     75  O   UNL A   1      48.683  26.185  36.817  1.00  0.00    -0.237 OA
ATOM     76  O   UNL A   1      47.685  26.606  39.033  1.00  0.00    -0.744 OA
ENDBRANCH  72  73
ENDBRANCH  51  65
BRANCH  52  77
ATOM     77  C   UNL A   1      36.750  33.126  30.989  1.00  0.00     0.058 A 
ATOM     78  C   UNL A   1      36.964  34.061  29.966  1.00  0.00     0.135 A 
ATOM     79  C   UNL A   1      35.422  32.838  31.341  1.00  0.00     0.135 A 
ATOM     80  F   UNL A   1      38.215  34.379  29.599  1.00  0.00    -0.206 F 
ATOM     81  C   UNL A   1      35.906  34.695  29.323  1.00  0.00     0.059 A 
ATOM     82  C   UNL A   1      34.346  33.436  30.693  1.00  0.00     0.059 A 
ATOM     83  F   UNL A   1      35.161  31.939  32.303  1.00  0.00    -0.206 F 
ATOM     84  C   UNL A   1      34.599  34.370  29.691  1.00  0.00     0.060 A 
BRANCH  84  85
ATOM     85  S   UNL A   1      33.231  35.157  28.810  1.00  0.00     0.124 S 
ATOM     86  O   UNL A   1      32.722  34.049  28.010  1.00  0.00    -0.237 OA
ATOM     87  O   UNL A   1      32.377  35.601  29.906  1.00  0.00    -0.237 OA
ATOM     88  O   UNL A   1      33.886  36.227  28.063  1.00  0.00    -0.744 OA
ENDBRANCH  84  85
ENDBRANCH  52  77
BRANCH  64  89
ATOM     89  C   UNL A   1      39.717  33.774  37.276  1.00  0.00     0.058 A 
ATOM     90  C   UNL A   1      38.873  33.391  38.331  1.00  0.00     0.135 A 
ATOM     91  C   UNL A   1      40.350  35.025  37.367  1.00  0.00     0.135 A 
ATOM     92  F   UNL A   1      38.236  32.210  38.294  1.00  0.00    -0.206 F 
ATOM     93  C   UNL A   1      38.648  34.226  39.421  1.00  0.00     0.059 A 
ATOM     94  C   UNL A   1      40.164  35.861  38.462  1.00  0.00     0.059 A 
ATOM     95  F   UNL A   1      41.175  35.437  36.391  1.00  0.00    -0.206 F 
ATOM     96  C   UNL A   1      39.302  35.458  39.479  1.00  0.00     0.060 A 
BRANCH  96  97
ATOM     97  S   UNL A   1      39.028  36.515  40.918  1.00  0.00     0.124 S 
ATOM     98  O   UNL A   1      38.587  37.757  40.291  1.00  0.00    -0.237 OA
ATOM     99  O   UNL A   1      38.003  35.779  41.653  1.00  0.00    -0.237 OA
ATOM    100  O   UNL A   1      40.338  36.565  41.559  1.00  0.00    -0.744 OA
ENDBRANCH  96  97
ENDBRANCH  64  89
ENDBRANCH  38  39
ENDBRANCH  30  33
ENDBRANCH  28  29
ENDBRANCH  27  28
ENDBRANCH   1  27
TORSDOF 20
ENDMDL
MODEL 3
REMARK VINA RESULT:     -10.2      2.496      8.949
REMARK SMILES COc1ccc(-c2sc(N)nc2C(=O)NCCCCCCNC(=O)c2ccc(-c3c4nc(c(-c5c(F)cc(S(=O)(=O)[O-])cc5F)c5ccc([nH]5)c(-c5c(F)cc(S(=O)(=O)[O-])cc5F)c5nc(c(-c6c(F)cc(S(=O)(=O)[O-])cc6F)c6ccc3[nH]6)C=C5)C=C4)cc2)cc1OC
REMARK SMILES IDX 19 1 18 2 17 3 16 4 15 5 13 6 14 7 12 9 7 10 8 11 9 12 11 13
REMARK SMILES IDX 6 14 3 15 4 16 92 17 5 18 91 19 2 20 1 21 93 22 94 23 10 24
REMARK SMILES IDX 20 27 21 28 22 29 23 30 24 32 25 33 26 34 90 35 27 36 89 37
REMARK SMILES IDX 28 38 29 39 30 40 83 41 31 42 88 43 82 44 84 45 32 46 87 47
REMARK SMILES IDX 81 48 80 49 33 51 67 52 46 53 66 54 47 55 50 56 65 57 85 58
REMARK SMILES IDX 48 59 49 60 64 62 86 63 51 64 34 65 35 66 44 67 36 68 37 69
REMARK SMILES IDX 43 70 45 71 38 72 39 73 40 74 41 75 42 76 68 77 69 78 78 79
REMARK SMILES IDX 70 80 71 81 77 82 79 83 72 84 73 85 74 86 75 87 76 88 52 89
REMARK SMILES IDX 53 90 62 91 54 92 55 93 61 94 63 95 56 96 57 97 58 98 59 99
REMARK SMILES IDX 60 100
REMARK H PARENT 15 8 10 25 10 26 22 31 84 50 50 61
REMARK Flexibility Score: inf
ROOT
ATOM      1  C   UNL A   1      32.994  29.460  26.770  1.00  0.00     0.002 C 
ENDROOT
BRANCH   1   2
ATOM      2  C   UNL A   1      32.685  28.610  25.531  1.00  0.00     0.002 C 
BRANCH   2   3
ATOM      3  C   UNL A   1      33.794  28.571  24.474  1.00  0.00     0.021 C 
BRANCH   3   4
ATOM      4  C   UNL A   1      33.316  28.843  23.049  1.00  0.00     0.116 C 
BRANCH   4   5
ATOM      5  N   UNL A   1      33.563  27.706  22.182  1.00  0.00    -0.351 N 
ATOM      6  C   UNL A   1      33.044  26.434  22.144  1.00  0.00     0.271 C 
ATOM      7  O   UNL A   1      33.487  25.706  21.255  1.00  0.00    -0.267 OA
ATOM      8  H   UNL A   1      34.235  27.881  21.483  1.00  0.00     0.163 HD
BRANCH   6   9
ATOM      9  C   UNL A   1      32.012  25.988  23.099  1.00  0.00     0.149 A 
ATOM     10  C   UNL A   1      32.211  25.035  24.099  1.00  0.00     0.069 A 
ATOM     11  S   UNL A   1      30.731  24.761  24.944  1.00  0.00    -0.096 S 
ATOM     12  C   UNL A   1      29.946  25.903  23.950  1.00  0.00     0.181 A 
ATOM     13  N   UNL A   1      30.704  26.469  23.055  1.00  0.00    -0.215 NA
BRANCH  10  14
ATOM     14  C   UNL A   1      33.410  24.300  24.519  1.00  0.00    -0.002 A 
ATOM     15  C   UNL A   1      35.671  22.839  25.347  1.00  0.00     0.160 A 
ATOM     16  C   UNL A   1      35.621  24.232  25.507  1.00  0.00     0.051 A 
ATOM     17  C   UNL A   1      34.579  22.159  24.802  1.00  0.00     0.161 A 
ATOM     18  C   UNL A   1      34.502  24.958  25.093  1.00  0.00     0.014 A 
ATOM     19  C   UNL A   1      33.471  22.906  24.372  1.00  0.00     0.060 A 
BRANCH  15  20
ATOM     20  O   UNL A   1      36.779  22.197  25.832  1.00  0.00    -0.493 OA
ATOM     21  C   UNL A   1      37.532  21.587  24.784  1.00  0.00     0.278 C 
ENDBRANCH  15  20
BRANCH  17  22
ATOM     22  O   UNL A   1      34.400  20.817  24.616  1.00  0.00    -0.493 OA
ATOM     23  C   UNL A   1      33.363  20.146  25.307  1.00  0.00     0.278 C 
ENDBRANCH  17  22
ENDBRANCH  10  14
BRANCH  12  24
ATOM     24  N   UNL A   1      28.648  26.191  24.077  1.00  0.00    -0.375 N 
ATOM     25  H   UNL A   1      28.180  26.677  23.360  1.00  0.00     0.159 HD
ATOM     26  H   UNL A   1      28.159  25.916  24.885  1.00  0.00     0.159 HD
ENDBRANCH  12  24
ENDBRANCH   6   9
ENDBRANCH   4   5
ENDBRANCH   3   4
ENDBRANCH   2   3
ENDBRANCH   1   2
BRANCH   1  27
ATOM     27  C   UNL A   1      34.432  29.978  26.860  1.00  0.00     0.021 C 
BRANCH  27  28
ATOM     28  C   UNL A   1      35.251  29.382  27.999  1.00  0.00     0.116 C 
BRANCH  28  29
ATOM     29  N   UNL A   1      35.364  30.295  29.126  1.00  0.00    -0.352 N 
ATOM     30  C   UNL A   1      36.453  30.576  29.912  1.00  0.00     0.251 C 
ATOM     31  H   UNL A   1      34.540  30.781  29.358  1.00  0.00     0.163 HD
ATOM     32  O   UNL A   1      36.312  31.218  30.949  1.00  0.00    -0.269 OA
BRANCH  30  33
ATOM     33  C   UNL A   1      37.793  30.089  29.516  1.00  0.00     0.039 A 
ATOM     34  C   UNL A   1      38.129  30.064  28.161  1.00  0.00     0.014 A 
ATOM     35  C   UNL A   1      38.712  29.658  30.477  1.00  0.00     0.014 A 
ATOM     36  C   UNL A   1      39.411  29.664  27.774  1.00  0.00     0.010 A 
ATOM     37  C   UNL A   1      40.011  29.332  30.096  1.00  0.00     0.010 A 
ATOM     38  C   UNL A   1      40.373  29.330  28.740  1.00  0.00    -0.014 A 
BRANCH  38  39
ATOM     39  C   UNL A   1      41.768  28.992  28.355  1.00  0.00     0.031 A 
ATOM     40  C   UNL A   1      42.130  27.580  27.980  1.00  0.00     0.074 A 
ATOM     41  C   UNL A   1      42.721  29.943  28.409  1.00  0.00     0.049 A 
ATOM     42  N   UNL A   1      43.303  27.079  27.687  1.00  0.00    -0.248 NA
ATOM     43  C   UNL A   1      41.035  26.598  27.956  1.00  0.00     0.031 C 
ATOM     44  C   UNL A   1      42.503  31.338  28.801  1.00  0.00     0.029 A 
ATOM     45  N   UNL A   1      44.067  29.882  28.147  1.00  0.00    -0.354 N 
ATOM     46  C   UNL A   1      43.090  25.725  27.457  1.00  0.00     0.074 A 
ATOM     47  C   UNL A   1      41.686  25.473  27.696  1.00  0.00     0.031 C 
ATOM     48  C   UNL A   1      43.667  32.002  28.735  1.00  0.00     0.029 A 
ATOM     49  C   UNL A   1      44.724  31.075  28.341  1.00  0.00     0.049 A 
ATOM     50  H   UNL A   1      44.521  29.061  27.847  1.00  0.00     0.167 HD
ATOM     51  C   UNL A   1      43.980  24.782  27.062  1.00  0.00     0.037 A 
ATOM     52  C   UNL A   1      46.030  31.385  28.232  1.00  0.00     0.037 A 
ATOM     53  C   UNL A   1      45.374  25.047  26.813  1.00  0.00     0.049 A 
ATOM     54  C   UNL A   1      47.003  30.318  27.811  1.00  0.00     0.074 A 
ATOM     55  C   UNL A   1      46.345  24.175  26.349  1.00  0.00     0.029 A 
ATOM     56  N   UNL A   1      46.000  26.269  27.014  1.00  0.00    -0.354 N 
ATOM     57  N   UNL A   1      46.772  29.057  27.527  1.00  0.00    -0.248 NA
ATOM     58  C   UNL A   1      48.413  30.712  27.693  1.00  0.00     0.031 C 
ATOM     59  C   UNL A   1      47.567  24.854  26.327  1.00  0.00     0.029 A 
ATOM     60  C   UNL A   1      47.350  26.166  26.717  1.00  0.00     0.049 A 
ATOM     61  H   UNL A   1      45.551  27.090  27.322  1.00  0.00     0.167 HD
ATOM     62  C   UNL A   1      48.004  28.514  27.176  1.00  0.00     0.074 A 
ATOM     63  C   UNL A   1      48.973  29.589  27.266  1.00  0.00     0.031 C 
ATOM     64  C   UNL A   1      48.306  27.242  26.815  1.00  0.00     0.037 A 
BRANCH  51  65
ATOM     65  C   UNL A   1      43.476  23.375  26.884  1.00  0.00     0.058 A 
ATOM     66  C   UNL A   1      43.257  22.522  27.979  1.00  0.00     0.135 A 
ATOM     67  C   UNL A   1      43.172  22.882  25.604  1.00  0.00     0.135 A 
ATOM     68  F   UNL A   1      43.542  22.934  29.224  1.00  0.00    -0.206 F 
ATOM     69  C   UNL A   1      42.790  21.223  27.809  1.00  0.00     0.059 A 
ATOM     70  C   UNL A   1      42.673  21.597  25.413  1.00  0.00     0.059 A 
ATOM     71  F   UNL A   1      43.360  23.653  24.521  1.00  0.00    -0.206 F 
ATOM     72  C   UNL A   1      42.500  20.769  26.521  1.00  0.00     0.060 A 
BRANCH  72  73
ATOM     73  S   UNL A   1      41.893  19.082  26.319  1.00  0.00     0.124 S 
ATOM     74  O   UNL A   1      42.873  18.529  25.389  1.00  0.00    -0.237 OA
ATOM     75  O   UNL A   1      41.952  18.564  27.683  1.00  0.00    -0.237 OA
ATOM     76  O   UNL A   1      40.549  19.265  25.779  1.00  0.00    -0.744 OA
ENDBRANCH  72  73
ENDBRANCH  51  65
BRANCH  52  77
ATOM     77  C   UNL A   1      46.488  32.771  28.520  1.00  0.00     0.058 A 
ATOM     78  C   UNL A   1      46.566  33.733  27.503  1.00  0.00     0.135 A 
ATOM     79  C   UNL A   1      46.840  33.167  29.820  1.00  0.00     0.135 A 
ATOM     80  F   UNL A   1      46.250  33.403  26.241  1.00  0.00    -0.206 F 
ATOM     81  C   UNL A   1      46.985  35.035  27.760  1.00  0.00     0.059 A 
ATOM     82  C   UNL A   1      47.234  34.470  30.108  1.00  0.00     0.059 A 
ATOM     83  F   UNL A   1      46.769  32.289  30.833  1.00  0.00    -0.206 F 
ATOM     84  C   UNL A   1      47.312  35.395  29.069  1.00  0.00     0.060 A 
BRANCH  84  85
ATOM     85  S   UNL A   1      47.799  37.102  29.400  1.00  0.00     0.124 S 
ATOM     86  O   UNL A   1      47.999  37.618  28.051  1.00  0.00    -0.237 OA
ATOM     87  O   UNL A   1      46.639  37.617  30.118  1.00  0.00    -0.237 OA
ATOM     88  O   UNL A   1      49.009  36.954  30.205  1.00  0.00    -0.744 OA
ENDBRANCH  84  85
ENDBRANCH  52  77
BRANCH  64  89
ATOM     89  C   UNL A   1      49.739  26.942  26.470  1.00  0.00     0.058 A 
ATOM     90  C   UNL A   1      50.652  26.491  27.436  1.00  0.00     0.135 A 
ATOM     91  C   UNL A   1      50.192  27.054  25.145  1.00  0.00     0.135 A 
ATOM     92  F   UNL A   1      50.275  26.372  28.719  1.00  0.00    -0.206 F 
ATOM     93  C   UNL A   1      51.969  26.188  27.106  1.00  0.00     0.059 A 
ATOM     94  C   UNL A   1      51.496  26.726  24.787  1.00  0.00     0.059 A 
ATOM     95  F   UNL A   1      49.359  27.471  24.178  1.00  0.00    -0.206 F 
ATOM     96  C   UNL A   1      52.380  26.305  25.777  1.00  0.00     0.060 A 
BRANCH  96  97
ATOM     97  S   UNL A   1      54.083  25.872  25.359  1.00  0.00     0.124 S 
ATOM     98  O   UNL A   1      54.192  24.529  25.921  1.00  0.00    -0.237 OA
ATOM     99  O   UNL A   1      54.074  25.950  23.901  1.00  0.00    -0.237 OA
ATOM    100  O   UNL A   1      54.870  26.900  26.031  1.00  0.00    -0.744 OA
ENDBRANCH  96  97
ENDBRANCH  64  89
ENDBRANCH  38  39
ENDBRANCH  30  33
ENDBRANCH  28  29
ENDBRANCH  27  28
ENDBRANCH   1  27
TORSDOF 20
ENDMDL
