MODEL 1
REMARK VINA RESULT:     -12.3      0.000      0.000
REMARK SMILES O=C(NCCCCCCNC(=O)c1cn(C2CN(C(=O)[C@@H]3CC=CCC3)C2)nn1)c1ccc(-c2c3nc(c(-c4c(F)cc(S(=O)(=O)[O-])cc4F)c4ccc([nH]4)c(-c4c(F)cc(S(=O)(=O)[O-])cc4F)c4nc(c(-c5c(F)cc(S(=O)(=O)[O-])cc5F)c5ccc2[nH]5)C=C4)C=C3)cc1
REMARK SMILES IDX 6 1 5 2 4 3 3 4 1 5 2 6 30 8 31 9 95 10 32 11 94 12 33 13
REMARK SMILES IDX 34 14 35 15 88 16 36 17 93 18 87 19 89 20 37 21 92 22 86 23
REMARK SMILES IDX 85 24 38 26 72 27 51 28 71 29 52 30 55 31 70 32 90 33 53 34
REMARK SMILES IDX 54 35 69 37 91 38 56 39 39 40 40 41 49 42 41 43 42 44 48 45
REMARK SMILES IDX 50 46 43 47 44 48 45 49 46 50 47 51 73 52 74 53 83 54 75 55
REMARK SMILES IDX 76 56 82 57 84 58 77 59 78 60 79 61 80 62 81 63 57 64 58 65
REMARK SMILES IDX 67 66 59 67 60 68 66 69 68 70 61 71 62 72 63 73 64 74 65 75
REMARK SMILES IDX 7 76 8 77 9 78 10 79 11 80 12 82 13 83 14 84 29 85 15 86
REMARK SMILES IDX 28 87 16 88 17 89 27 90 18 91 19 92 20 93 21 94 22 95 26 96
REMARK SMILES IDX 23 97 25 98 24 99
REMARK H PARENT 3 7 89 25 55 36 10 81
REMARK Flexibility Score: inf
ROOT
ATOM      1  C   UNL A   1      40.475  21.021  26.921  1.00  0.00     0.002 C 
ENDROOT
BRANCH   1   2
ATOM      2  C   UNL A   1      40.721  19.858  25.953  1.00  0.00     0.021 C 
BRANCH   2   3
ATOM      3  C   UNL A   1      42.018  19.087  26.189  1.00  0.00     0.116 C 
BRANCH   3   4
ATOM      4  N   UNL A   1      43.099  19.442  25.295  1.00  0.00    -0.352 N 
ATOM      5  O   UNL A   1      44.737  20.498  24.250  1.00  0.00    -0.269 OA
ATOM      6  C   UNL A   1      43.854  20.568  25.108  1.00  0.00     0.251 C 
ATOM      7  H   UNL A   1      43.346  18.711  24.684  1.00  0.00     0.163 HD
BRANCH   6   8
ATOM      8  C   UNL A   1      43.653  21.855  25.830  1.00  0.00     0.039 A 
ATOM      9  C   UNL A   1      44.158  22.156  27.096  1.00  0.00     0.014 A 
ATOM     10  C   UNL A   1      42.924  22.846  25.148  1.00  0.00     0.014 A 
ATOM     11  C   UNL A   1      43.893  23.388  27.691  1.00  0.00     0.010 A 
ATOM     12  C   UNL A   1      42.682  24.091  25.727  1.00  0.00     0.010 A 
ATOM     13  C   UNL A   1      43.154  24.357  27.012  1.00  0.00    -0.014 A 
BRANCH  13  14
ATOM     14  C   UNL A   1      42.999  25.666  27.648  1.00  0.00     0.031 A 
ATOM     15  C   UNL A   1      44.063  26.680  27.372  1.00  0.00     0.074 A 
ATOM     16  C   UNL A   1      41.895  26.056  28.314  1.00  0.00     0.049 A 
ATOM     17  N   UNL A   1      44.810  27.322  28.214  1.00  0.00    -0.248 NA
ATOM     18  C   UNL A   1      44.344  26.996  25.964  1.00  0.00     0.031 C 
ATOM     19  C   UNL A   1      40.610  25.361  28.402  1.00  0.00     0.029 A 
ATOM     20  N   UNL A   1      41.661  27.236  28.962  1.00  0.00    -0.354 N 
ATOM     21  C   UNL A   1      45.540  28.245  27.463  1.00  0.00     0.074 A 
ATOM     22  C   UNL A   1      45.283  27.936  26.079  1.00  0.00     0.031 C 
ATOM     23  C   UNL A   1      39.678  26.221  28.867  1.00  0.00     0.029 A 
ATOM     24  C   UNL A   1      40.322  27.476  29.223  1.00  0.00     0.049 A 
ATOM     25  H   UNL A   1      42.379  27.860  29.219  1.00  0.00     0.167 HD
ATOM     26  C   UNL A   1      46.193  29.307  28.016  1.00  0.00     0.037 A 
ATOM     27  C   UNL A   1      39.770  28.647  29.621  1.00  0.00     0.037 A 
ATOM     28  C   UNL A   1      46.348  29.180  29.437  1.00  0.00     0.049 A 
ATOM     29  C   UNL A   1      40.838  29.491  30.211  1.00  0.00     0.074 A 
ATOM     30  C   UNL A   1      46.976  28.285  30.278  1.00  0.00     0.029 A 
ATOM     31  N   UNL A   1      45.563  29.961  30.247  1.00  0.00    -0.354 N 
ATOM     32  N   UNL A   1      41.447  29.243  31.338  1.00  0.00    -0.248 NA
ATOM     33  C   UNL A   1      41.482  30.486  29.365  1.00  0.00     0.031 C 
ATOM     34  C   UNL A   1      46.191  28.270  31.467  1.00  0.00     0.029 A 
ATOM     35  C   UNL A   1      45.134  29.160  31.273  1.00  0.00     0.049 A 
ATOM     36  H   UNL A   1      45.348  30.913  30.117  1.00  0.00     0.167 HD
ATOM     37  C   UNL A   1      42.729  29.740  31.170  1.00  0.00     0.074 A 
ATOM     38  C   UNL A   1      42.651  30.604  29.999  1.00  0.00     0.031 C 
ATOM     39  C   UNL A   1      43.795  29.193  31.824  1.00  0.00     0.037 A 
BRANCH  26  40
ATOM     40  C   UNL A   1      46.459  30.610  27.305  1.00  0.00     0.058 A 
ATOM     41  C   UNL A   1      47.774  31.116  27.228  1.00  0.00     0.135 A 
ATOM     42  C   UNL A   1      45.433  31.509  26.945  1.00  0.00     0.135 A 
ATOM     43  F   UNL A   1      48.822  30.348  27.565  1.00  0.00    -0.206 F 
ATOM     44  C   UNL A   1      48.044  32.440  26.875  1.00  0.00     0.059 A 
ATOM     45  C   UNL A   1      45.682  32.817  26.542  1.00  0.00     0.059 A 
ATOM     46  F   UNL A   1      44.139  31.179  27.065  1.00  0.00    -0.206 F 
ATOM     47  C   UNL A   1      46.988  33.288  26.554  1.00  0.00     0.060 A 
BRANCH  47  48
ATOM     48  S   UNL A   1      47.320  35.028  26.223  1.00  0.00     0.124 S 
ATOM     49  O   UNL A   1      46.103  35.425  25.524  1.00  0.00    -0.237 OA
ATOM     50  O   UNL A   1      47.492  35.573  27.566  1.00  0.00    -0.237 OA
ATOM     51  O   UNL A   1      48.533  34.987  25.411  1.00  0.00    -0.744 OA
ENDBRANCH  47  48
ENDBRANCH  26  40
BRANCH  27  52
ATOM     52  C   UNL A   1      38.430  29.184  29.272  1.00  0.00     0.058 A 
ATOM     53  C   UNL A   1      37.469  29.445  30.264  1.00  0.00     0.135 A 
ATOM     54  C   UNL A   1      38.155  29.698  27.989  1.00  0.00     0.135 A 
ATOM     55  F   UNL A   1      37.665  29.022  31.522  1.00  0.00    -0.206 F 
ATOM     56  C   UNL A   1      36.321  30.201  30.008  1.00  0.00     0.059 A 
ATOM     57  C   UNL A   1      37.008  30.436  27.704  1.00  0.00     0.059 A 
ATOM     58  F   UNL A   1      39.039  29.577  26.987  1.00  0.00    -0.206 F 
ATOM     59  C   UNL A   1      36.108  30.705  28.726  1.00  0.00     0.060 A 
BRANCH  59  60
ATOM     60  S   UNL A   1      34.718  31.820  28.429  1.00  0.00     0.124 S 
ATOM     61  O   UNL A   1      33.718  30.914  27.875  1.00  0.00    -0.237 OA
ATOM     62  O   UNL A   1      34.444  32.333  29.767  1.00  0.00    -0.237 OA
ATOM     63  O   UNL A   1      35.261  32.799  27.490  1.00  0.00    -0.744 OA
ENDBRANCH  59  60
ENDBRANCH  27  52
BRANCH  39  64
ATOM     64  C   UNL A   1      43.531  28.310  33.013  1.00  0.00     0.058 A 
ATOM     65  C   UNL A   1      43.258  28.796  34.303  1.00  0.00     0.135 A 
ATOM     66  C   UNL A   1      43.388  26.930  32.802  1.00  0.00     0.135 A 
ATOM     67  F   UNL A   1      43.262  30.112  34.560  1.00  0.00    -0.206 F 
ATOM     68  C   UNL A   1      42.897  27.943  35.346  1.00  0.00     0.059 A 
ATOM     69  C   UNL A   1      42.999  26.063  33.821  1.00  0.00     0.059 A 
ATOM     70  F   UNL A   1      43.573  26.413  31.576  1.00  0.00    -0.206 F 
ATOM     71  C   UNL A   1      42.765  26.577  35.096  1.00  0.00     0.060 A 
BRANCH  71  72
ATOM     72  S   UNL A   1      42.184  25.496  36.420  1.00  0.00     0.124 S 
ATOM     73  O   UNL A   1      43.395  25.298  37.209  1.00  0.00    -0.237 OA
ATOM     74  O   UNL A   1      41.140  26.297  37.055  1.00  0.00    -0.237 OA
ATOM     75  O   UNL A   1      41.699  24.315  35.710  1.00  0.00    -0.744 OA
ENDBRANCH  71  72
ENDBRANCH  39  64
ENDBRANCH  13  14
ENDBRANCH   6   8
ENDBRANCH   3   4
ENDBRANCH   2   3
ENDBRANCH   1   2
BRANCH   1  76
ATOM     76  C   UNL A   1      39.418  22.040  26.485  1.00  0.00     0.002 C 
BRANCH  76  77
ATOM     77  C   UNL A   1      38.301  21.495  25.591  1.00  0.00     0.021 C 
BRANCH  77  78
ATOM     78  C   UNL A   1      36.986  22.268  25.663  1.00  0.00     0.116 C 
BRANCH  78  79
ATOM     79  N   UNL A   1      35.945  21.490  26.313  1.00  0.00    -0.351 N 
ATOM     80  C   UNL A   1      34.628  21.817  26.530  1.00  0.00     0.273 C 
ATOM     81  H   UNL A   1      36.222  20.606  26.643  1.00  0.00     0.163 HD
ATOM     82  O   UNL A   1      33.973  21.134  27.320  1.00  0.00    -0.267 OA
BRANCH  80  83
ATOM     83  C   UNL A   1      34.053  22.945  25.820  1.00  0.00     0.170 A 
ATOM     84  C   UNL A   1      34.088  24.285  26.164  1.00  0.00     0.145 A 
ATOM     85  N   UNL A   1      33.410  22.820  24.612  1.00  0.00    -0.125 NA
ATOM     86  N   UNL A   1      33.412  24.908  25.155  1.00  0.00    -0.245 N 
ATOM     87  N   UNL A   1      33.002  24.023  24.230  1.00  0.00    -0.066 NA
BRANCH  86  88
ATOM     88  C   UNL A   1      33.150  26.305  25.003  1.00  0.00     0.148 C 
ATOM     89  C   UNL A   1      33.204  26.811  23.551  1.00  0.00     0.148 C 
ATOM     90  C   UNL A   1      31.644  26.652  24.963  1.00  0.00     0.148 C 
ATOM     91  N   UNL A   1      31.973  27.524  23.863  1.00  0.00    -0.338 N 
ATOM     92  C   UNL A   1      31.440  28.596  23.218  1.00  0.00     0.226 C 
ATOM     93  O   UNL A   1      32.107  29.182  22.358  1.00  0.00    -0.275 OA
BRANCH  92  94
ATOM     94  C   UNL A   1      29.995  29.018  23.464  1.00  0.00     0.083 C 
ATOM     95  C   UNL A   1      28.904  28.032  23.034  1.00  0.00     0.040 C 
ATOM     96  C   UNL A   1      29.742  30.413  22.880  1.00  0.00     0.018 C 
ATOM     97  C   UNL A   1      27.520  28.613  23.137  1.00  0.00    -0.030 C 
ATOM     98  C   UNL A   1      28.383  30.956  23.334  1.00  0.00     0.028 C 
ATOM     99  C   UNL A   1      27.291  29.926  23.280  1.00  0.00    -0.031 C 
ENDBRANCH  92  94
ENDBRANCH  86  88
ENDBRANCH  80  83
ENDBRANCH  78  79
ENDBRANCH  77  78
ENDBRANCH  76  77
ENDBRANCH   1  76
TORSDOF 18
ENDMDL
MODEL 2
REMARK VINA RESULT:     -12.0      0.901      1.715
REMARK SMILES O=C(NCCCCCCNC(=O)c1cn(C2CN(C(=O)[C@@H]3CC=CCC3)C2)nn1)c1ccc(-c2c3nc(c(-c4c(F)cc(S(=O)(=O)[O-])cc4F)c4ccc([nH]4)c(-c4c(F)cc(S(=O)(=O)[O-])cc4F)c4nc(c(-c5c(F)cc(S(=O)(=O)[O-])cc5F)c5ccc2[nH]5)C=C4)C=C3)cc1
REMARK SMILES IDX 6 1 5 2 4 3 3 4 1 5 2 6 30 8 31 9 95 10 32 11 94 12 33 13
REMARK SMILES IDX 34 14 35 15 88 16 36 17 93 18 87 19 89 20 37 21 92 22 86 23
REMARK SMILES IDX 85 24 38 26 72 27 51 28 71 29 52 30 55 31 70 32 90 33 53 34
REMARK SMILES IDX 54 35 69 37 91 38 56 39 39 40 40 41 49 42 41 43 42 44 48 45
REMARK SMILES IDX 50 46 43 47 44 48 45 49 46 50 47 51 73 52 74 53 83 54 75 55
REMARK SMILES IDX 76 56 82 57 84 58 77 59 78 60 79 61 80 62 81 63 57 64 58 65
REMARK SMILES IDX 67 66 59 67 60 68 66 69 68 70 61 71 62 72 63 73 64 74 65 75
REMARK SMILES IDX 7 76 8 77 9 78 10 79 11 80 12 82 13 83 14 84 29 85 15 86
REMARK SMILES IDX 28 87 16 88 17 89 27 90 18 91 19 92 20 93 21 94 22 95 26 96
REMARK SMILES IDX 23 97 25 98 24 99
REMARK H PARENT 3 7 89 25 55 36 10 81
REMARK Flexibility Score: inf
ROOT
ATOM      1  C   UNL A   1      40.776  21.505  27.850  1.00  0.00     0.002 C 
ENDROOT
BRANCH   1   2
ATOM      2  C   UNL A   1      41.674  20.306  27.523  1.00  0.00     0.021 C 
BRANCH   2   3
ATOM      3  C   UNL A   1      41.744  19.938  26.042  1.00  0.00     0.116 C 
BRANCH   3   4
ATOM      4  N   UNL A   1      43.039  20.149  25.432  1.00  0.00    -0.352 N 
ATOM      5  O   UNL A   1      44.980  20.997  24.797  1.00  0.00    -0.269 OA
ATOM      6  C   UNL A   1      43.928  21.190  25.411  1.00  0.00     0.251 C 
ATOM      7  H   UNL A   1      43.351  19.370  24.917  1.00  0.00     0.163 HD
BRANCH   6   8
ATOM      8  C   UNL A   1      43.690  22.522  26.032  1.00  0.00     0.039 A 
ATOM      9  C   UNL A   1      42.873  23.522  25.503  1.00  0.00     0.014 A 
ATOM     10  C   UNL A   1      44.318  22.755  27.269  1.00  0.00     0.014 A 
ATOM     11  C   UNL A   1      42.734  24.745  26.158  1.00  0.00     0.010 A 
ATOM     12  C   UNL A   1      44.159  23.965  27.942  1.00  0.00     0.010 A 
ATOM     13  C   UNL A   1      43.377  24.972  27.376  1.00  0.00    -0.014 A 
BRANCH  13  14
ATOM     14  C   UNL A   1      43.109  26.236  28.063  1.00  0.00     0.031 A 
ATOM     15  C   UNL A   1      44.145  27.307  27.934  1.00  0.00     0.074 A 
ATOM     16  C   UNL A   1      41.936  26.541  28.650  1.00  0.00     0.049 A 
ATOM     17  N   UNL A   1      44.787  27.931  28.870  1.00  0.00    -0.248 NA
ATOM     18  C   UNL A   1      44.529  27.712  26.574  1.00  0.00     0.031 C 
ATOM     19  C   UNL A   1      40.682  25.790  28.590  1.00  0.00     0.029 A 
ATOM     20  N   UNL A   1      41.594  27.673  29.336  1.00  0.00    -0.354 N 
ATOM     21  C   UNL A   1      45.535  28.925  28.234  1.00  0.00     0.074 A 
ATOM     22  C   UNL A   1      45.410  28.682  26.818  1.00  0.00     0.031 C 
ATOM     23  C   UNL A   1      39.674  26.584  29.016  1.00  0.00     0.029 A 
ATOM     24  C   UNL A   1      40.228  27.842  29.492  1.00  0.00     0.049 A 
ATOM     25  H   UNL A   1      42.258  28.311  29.686  1.00  0.00     0.167 HD
ATOM     26  C   UNL A   1      46.089  29.980  28.895  1.00  0.00     0.037 A 
ATOM     27  C   UNL A   1      39.590  28.965  29.900  1.00  0.00     0.037 A 
ATOM     28  C   UNL A   1      46.130  29.781  30.316  1.00  0.00     0.049 A 
ATOM     29  C   UNL A   1      40.565  29.819  30.624  1.00  0.00     0.074 A 
ATOM     30  C   UNL A   1      46.725  28.867  31.161  1.00  0.00     0.029 A 
ATOM     31  N   UNL A   1      45.243  30.482  31.094  1.00  0.00    -0.354 N 
ATOM     32  N   UNL A   1      41.088  29.534  31.785  1.00  0.00    -0.248 NA
ATOM     33  C   UNL A   1      41.232  30.885  29.889  1.00  0.00     0.031 C 
ATOM     34  C   UNL A   1      45.843  28.753  32.275  1.00  0.00     0.029 A 
ATOM     35  C   UNL A   1      44.766  29.608  32.036  1.00  0.00     0.049 A 
ATOM     36  H   UNL A   1      44.996  31.430  30.996  1.00  0.00     0.167 HD
ATOM     37  C   UNL A   1      42.355  30.093  31.755  1.00  0.00     0.074 A 
ATOM     38  C   UNL A   1      42.336  31.016  30.627  1.00  0.00     0.031 C 
ATOM     39  C   UNL A   1      43.386  29.555  32.470  1.00  0.00     0.037 A 
BRANCH  26  40
ATOM     40  C   UNL A   1      46.354  31.331  28.279  1.00  0.00     0.058 A 
ATOM     41  C   UNL A   1      45.277  32.132  27.843  1.00  0.00     0.135 A 
ATOM     42  C   UNL A   1      47.635  31.739  27.852  1.00  0.00     0.135 A 
ATOM     43  F   UNL A   1      44.015  31.821  28.180  1.00  0.00    -0.206 F 
ATOM     44  C   UNL A   1      45.456  33.225  26.994  1.00  0.00     0.059 A 
ATOM     45  C   UNL A   1      47.842  32.855  27.047  1.00  0.00     0.059 A 
ATOM     46  F   UNL A   1      48.728  31.011  28.122  1.00  0.00    -0.206 F 
ATOM     47  C   UNL A   1      46.743  33.565  26.585  1.00  0.00     0.060 A 
BRANCH  47  48
ATOM     48  S   UNL A   1      46.968  34.894  25.388  1.00  0.00     0.124 S 
ATOM     49  O   UNL A   1      46.670  36.067  26.202  1.00  0.00    -0.237 OA
ATOM     50  O   UNL A   1      48.363  34.727  24.995  1.00  0.00    -0.237 OA
ATOM     51  O   UNL A   1      45.990  34.577  24.351  1.00  0.00    -0.744 OA
ENDBRANCH  47  48
ENDBRANCH  26  40
BRANCH  27  52
ATOM     52  C   UNL A   1      38.261  29.465  29.465  1.00  0.00     0.058 A 
ATOM     53  C   UNL A   1      37.265  29.794  30.399  1.00  0.00     0.135 A 
ATOM     54  C   UNL A   1      38.030  29.878  28.137  1.00  0.00     0.135 A 
ATOM     55  F   UNL A   1      37.418  29.470  31.693  1.00  0.00    -0.206 F 
ATOM     56  C   UNL A   1      36.124  30.520  30.047  1.00  0.00     0.059 A 
ATOM     57  C   UNL A   1      36.891  30.584  27.757  1.00  0.00     0.059 A 
ATOM     58  F   UNL A   1      38.950  29.687  27.179  1.00  0.00    -0.206 F 
ATOM     59  C   UNL A   1      35.954  30.924  28.723  1.00  0.00     0.060 A 
BRANCH  59  60
ATOM     60  S   UNL A   1      34.570  32.003  28.293  1.00  0.00     0.124 S 
ATOM     61  O   UNL A   1      34.061  32.377  29.608  1.00  0.00    -0.237 OA
ATOM     62  O   UNL A   1      35.230  33.063  27.538  1.00  0.00    -0.237 OA
ATOM     63  O   UNL A   1      33.694  31.137  27.508  1.00  0.00    -0.744 OA
ENDBRANCH  59  60
ENDBRANCH  27  52
BRANCH  39  64
ATOM     64  C   UNL A   1      43.063  28.597  33.584  1.00  0.00     0.058 A 
ATOM     65  C   UNL A   1      43.087  27.199  33.445  1.00  0.00     0.135 A 
ATOM     66  C   UNL A   1      42.883  29.112  34.877  1.00  0.00     0.135 A 
ATOM     67  F   UNL A   1      43.364  26.627  32.265  1.00  0.00    -0.206 F 
ATOM     68  C   UNL A   1      42.901  26.351  34.538  1.00  0.00     0.059 A 
ATOM     69  C   UNL A   1      42.727  28.285  35.987  1.00  0.00     0.059 A 
ATOM     70  F   UNL A   1      42.915  30.439  35.084  1.00  0.00    -0.206 F 
ATOM     71  C   UNL A   1      42.727  26.902  35.808  1.00  0.00     0.060 A 
BRANCH  71  72
ATOM     72  S   UNL A   1      42.604  25.799  37.232  1.00  0.00     0.124 S 
ATOM     73  O   UNL A   1      43.437  26.477  38.219  1.00  0.00    -0.237 OA
ATOM     74  O   UNL A   1      41.170  25.794  37.512  1.00  0.00    -0.237 OA
ATOM     75  O   UNL A   1      43.132  24.534  36.729  1.00  0.00    -0.744 OA
ENDBRANCH  71  72
ENDBRANCH  39  64
ENDBRANCH  13  14
ENDBRANCH   6   8
ENDBRANCH   3   4
ENDBRANCH   2   3
ENDBRANCH   1   2
BRANCH   1  76
ATOM     76  C   UNL A   1      39.807  21.933  26.743  1.00  0.00     0.002 C 
BRANCH  76  77
ATOM     77  C   UNL A   1      39.329  23.386  26.807  1.00  0.00     0.021 C 
BRANCH  77  78
ATOM     78  C   UNL A   1      38.002  23.657  26.103  1.00  0.00     0.116 C 
BRANCH  78  79
ATOM     79  N   UNL A   1      37.139  22.488  26.123  1.00  0.00    -0.351 N 
ATOM     80  C   UNL A   1      35.807  22.389  25.799  1.00  0.00     0.273 C 
ATOM     81  H   UNL A   1      37.569  21.650  26.407  1.00  0.00     0.163 HD
ATOM     82  O   UNL A   1      35.195  21.369  26.123  1.00  0.00    -0.267 OA
BRANCH  80  83
ATOM     83  C   UNL A   1      35.170  23.480  25.084  1.00  0.00     0.170 A 
ATOM     84  C   UNL A   1      34.706  24.683  25.588  1.00  0.00     0.145 A 
ATOM     85  N   UNL A   1      34.988  23.478  23.722  1.00  0.00    -0.125 NA
ATOM     86  N   UNL A   1      34.215  25.337  24.495  1.00  0.00    -0.245 N 
ATOM     87  N   UNL A   1      34.382  24.606  23.379  1.00  0.00    -0.066 NA
BRANCH  86  88
ATOM     88  C   UNL A   1      33.616  26.634  24.442  1.00  0.00     0.148 C 
ATOM     89  C   UNL A   1      33.398  27.180  23.020  1.00  0.00     0.148 C 
ATOM     90  C   UNL A   1      32.074  26.608  24.561  1.00  0.00     0.148 C 
ATOM     91  N   UNL A   1      32.072  27.566  23.483  1.00  0.00    -0.338 N 
ATOM     92  C   UNL A   1      31.237  28.496  22.948  1.00  0.00     0.226 C 
ATOM     93  O   UNL A   1      31.654  29.250  22.062  1.00  0.00    -0.275 OA
BRANCH  92  94
ATOM     94  C   UNL A   1      29.766  28.549  23.349  1.00  0.00     0.083 C 
ATOM     95  C   UNL A   1      29.034  27.209  23.475  1.00  0.00     0.040 C 
ATOM     96  C   UNL A   1      29.001  29.515  22.436  1.00  0.00     0.018 C 
ATOM     97  C   UNL A   1      27.554  27.371  23.683  1.00  0.00    -0.030 C 
ATOM     98  C   UNL A   1      27.591  29.774  22.976  1.00  0.00     0.028 C 
ATOM     99  C   UNL A   1      26.910  28.527  23.465  1.00  0.00    -0.031 C 
ENDBRANCH  92  94
ENDBRANCH  86  88
ENDBRANCH  80  83
ENDBRANCH  78  79
ENDBRANCH  77  78
ENDBRANCH  76  77
ENDBRANCH   1  76
TORSDOF 18
ENDMDL
MODEL 3
REMARK VINA RESULT:     -11.7      2.598      4.490
REMARK SMILES O=C(NCCCCCCNC(=O)c1cn(C2CN(C(=O)[C@@H]3CC=CCC3)C2)nn1)c1ccc(-c2c3nc(c(-c4c(F)cc(S(=O)(=O)[O-])cc4F)c4ccc([nH]4)c(-c4c(F)cc(S(=O)(=O)[O-])cc4F)c4nc(c(-c5c(F)cc(S(=O)(=O)[O-])cc5F)c5ccc2[nH]5)C=C4)C=C3)cc1
REMARK SMILES IDX 6 1 5 2 4 3 3 4 1 5 2 6 30 8 31 9 95 10 32 11 94 12 33 13
REMARK SMILES IDX 34 14 35 15 88 16 36 17 93 18 87 19 89 20 37 21 92 22 86 23
REMARK SMILES IDX 85 24 38 26 72 27 51 28 71 29 52 30 55 31 70 32 90 33 53 34
REMARK SMILES IDX 54 35 69 37 91 38 56 39 39 40 40 41 49 42 41 43 42 44 48 45
REMARK SMILES IDX 50 46 43 47 44 48 45 49 46 50 47 51 73 52 74 53 83 54 75 55
REMARK SMILES IDX 76 56 82 57 84 58 77 59 78 60 79 61 80 62 81 63 57 64 58 65
REMARK SMILES IDX 67 66 59 67 60 68 66 69 68 70 61 71 62 72 63 73 64 74 65 75
REMARK SMILES IDX 7 76 8 77 9 78 10 79 11 80 12 82 13 83 14 84 29 85 15 86
REMARK SMILES IDX 28 87 16 88 17 89 27 90 18 91 19 92 20 93 21 94 22 95 26 96
REMARK SMILES IDX 23 97 25 98 24 99
REMARK H PARENT 3 7 89 25 55 36 10 81
REMARK Flexibility Score: inf
ROOT
ATOM      1  C   UNL A   1      34.796  21.936  25.429  1.00  0.00     0.002 C 
ENDROOT
BRANCH   1   2
ATOM      2  C   UNL A   1      35.839  22.907  24.866  1.00  0.00     0.021 C 
BRANCH   2   3
ATOM      3  C   UNL A   1      36.843  23.439  25.889  1.00  0.00     0.116 C 
BRANCH   3   4
ATOM      4  N   UNL A   1      38.045  22.645  26.017  1.00  0.00    -0.352 N 
ATOM      5  O   UNL A   1      40.061  21.905  26.548  1.00  0.00    -0.269 OA
ATOM      6  C   UNL A   1      39.263  22.843  26.612  1.00  0.00     0.251 C 
ATOM      7  H   UNL A   1      37.973  21.766  25.580  1.00  0.00     0.163 HD
BRANCH   6   8
ATOM      8  C   UNL A   1      39.687  24.107  27.277  1.00  0.00     0.039 A 
ATOM      9  C   UNL A   1      38.932  25.279  27.335  1.00  0.00     0.014 A 
ATOM     10  C   UNL A   1      40.935  24.082  27.924  1.00  0.00     0.014 A 
ATOM     11  C   UNL A   1      39.433  26.415  27.968  1.00  0.00     0.010 A 
ATOM     12  C   UNL A   1      41.428  25.207  28.585  1.00  0.00     0.010 A 
ATOM     13  C   UNL A   1      40.681  26.384  28.592  1.00  0.00    -0.014 A 
BRANCH  13  14
ATOM     14  C   UNL A   1      41.105  27.577  29.327  1.00  0.00     0.031 A 
ATOM     15  C   UNL A   1      42.326  28.280  28.825  1.00  0.00     0.074 A 
ATOM     16  C   UNL A   1      40.381  28.159  30.302  1.00  0.00     0.049 A 
ATOM     17  N   UNL A   1      43.422  28.556  29.459  1.00  0.00    -0.248 NA
ATOM     18  C   UNL A   1      42.327  28.706  27.418  1.00  0.00     0.031 C 
ATOM     19  C   UNL A   1      39.010  27.847  30.707  1.00  0.00     0.029 A 
ATOM     20  N   UNL A   1      40.696  29.249  31.063  1.00  0.00    -0.354 N 
ATOM     21  C   UNL A   1      44.188  29.337  28.592  1.00  0.00     0.074 A 
ATOM     22  C   UNL A   1      43.508  29.318  27.320  1.00  0.00     0.031 C 
ATOM     23  C   UNL A   1      38.539  28.857  31.471  1.00  0.00     0.029 A 
ATOM     24  C   UNL A   1      39.608  29.815  31.709  1.00  0.00     0.049 A 
ATOM     25  H   UNL A   1      41.612  29.602  31.144  1.00  0.00     0.167 HD
ATOM     26  C   UNL A   1      45.254  30.080  29.002  1.00  0.00     0.037 A 
ATOM     27  C   UNL A   1      39.565  31.022  32.320  1.00  0.00     0.037 A 
ATOM     28  C   UNL A   1      45.715  29.709  30.309  1.00  0.00     0.049 A 
ATOM     29  C   UNL A   1      40.955  31.437  32.635  1.00  0.00     0.074 A 
ATOM     30  C   UNL A   1      46.225  28.560  30.880  1.00  0.00     0.029 A 
ATOM     31  N   UNL A   1      45.441  30.552  31.357  1.00  0.00    -0.354 N 
ATOM     32  N   UNL A   1      41.720  30.866  33.524  1.00  0.00    -0.248 NA
ATOM     33  C   UNL A   1      41.640  32.323  31.705  1.00  0.00     0.031 C 
ATOM     34  C   UNL A   1      45.800  28.593  32.239  1.00  0.00     0.029 A 
ATOM     35  C   UNL A   1      45.057  29.762  32.410  1.00  0.00     0.049 A 
ATOM     36  H   UNL A   1      45.507  31.534  31.354  1.00  0.00     0.167 HD
ATOM     37  C   UNL A   1      43.007  31.003  33.031  1.00  0.00     0.074 A 
ATOM     38  C   UNL A   1      42.908  32.015  31.987  1.00  0.00     0.031 C 
ATOM     39  C   UNL A   1      43.979  30.089  33.319  1.00  0.00     0.037 A 
BRANCH  26  40
ATOM     40  C   UNL A   1      45.724  31.346  28.329  1.00  0.00     0.058 A 
ATOM     41  C   UNL A   1      44.859  32.456  28.231  1.00  0.00     0.135 A 
ATOM     42  C   UNL A   1      46.890  31.404  27.538  1.00  0.00     0.135 A 
ATOM     43  F   UNL A   1      43.713  32.493  28.931  1.00  0.00    -0.206 F 
ATOM     44  C   UNL A   1      45.106  33.520  27.362  1.00  0.00     0.059 A 
ATOM     45  C   UNL A   1      47.183  32.478  26.702  1.00  0.00     0.059 A 
ATOM     46  F   UNL A   1      47.744  30.372  27.472  1.00  0.00    -0.206 F 
ATOM     47  C   UNL A   1      46.263  33.510  26.586  1.00  0.00     0.060 A 
BRANCH  47  48
ATOM     48  S   UNL A   1      46.523  34.816  25.371  1.00  0.00     0.124 S 
ATOM     49  O   UNL A   1      45.567  34.440  24.337  1.00  0.00    -0.237 OA
ATOM     50  O   UNL A   1      46.202  36.019  26.133  1.00  0.00    -0.237 OA
ATOM     51  O   UNL A   1      47.932  34.665  25.017  1.00  0.00    -0.744 OA
ENDBRANCH  47  48
ENDBRANCH  26  40
BRANCH  27  52
ATOM     52  C   UNL A   1      38.415  31.959  32.401  1.00  0.00     0.058 A 
ATOM     53  C   UNL A   1      38.114  32.836  31.345  1.00  0.00     0.135 A 
ATOM     54  C   UNL A   1      37.433  31.832  33.405  1.00  0.00     0.135 A 
ATOM     55  F   UNL A   1      38.977  32.992  30.330  1.00  0.00    -0.206 F 
ATOM     56  C   UNL A   1      36.897  33.520  31.269  1.00  0.00     0.059 A 
ATOM     57  C   UNL A   1      36.222  32.519  33.362  1.00  0.00     0.059 A 
ATOM     58  F   UNL A   1      37.581  30.964  34.416  1.00  0.00    -0.206 F 
ATOM     59  C   UNL A   1      35.950  33.342  32.277  1.00  0.00     0.060 A 
BRANCH  59  60
ATOM     60  S   UNL A   1      34.314  34.088  32.101  1.00  0.00     0.124 S 
ATOM     61  O   UNL A   1      33.951  33.699  30.743  1.00  0.00    -0.237 OA
ATOM     62  O   UNL A   1      33.565  33.441  33.173  1.00  0.00    -0.237 OA
ATOM     63  O   UNL A   1      34.568  35.513  32.296  1.00  0.00    -0.744 OA
ENDBRANCH  59  60
ENDBRANCH  27  52
BRANCH  39  64
ATOM     64  C   UNL A   1      43.763  29.152  34.476  1.00  0.00     0.058 A 
ATOM     65  C   UNL A   1      43.044  27.948  34.384  1.00  0.00     0.135 A 
ATOM     66  C   UNL A   1      44.444  29.404  35.677  1.00  0.00     0.135 A 
ATOM     67  F   UNL A   1      42.459  27.580  33.235  1.00  0.00    -0.206 F 
ATOM     68  C   UNL A   1      42.975  27.053  35.452  1.00  0.00     0.059 A 
ATOM     69  C   UNL A   1      44.414  28.510  36.745  1.00  0.00     0.059 A 
ATOM     70  F   UNL A   1      45.200  30.507  35.804  1.00  0.00    -0.206 F 
ATOM     71  C   UNL A   1      43.667  27.338  36.628  1.00  0.00     0.060 A 
BRANCH  71  72
ATOM     72  S   UNL A   1      43.669  26.121  37.962  1.00  0.00     0.124 S 
ATOM     73  O   UNL A   1      44.359  26.835  39.030  1.00  0.00    -0.237 OA
ATOM     74  O   UNL A   1      42.243  25.881  38.179  1.00  0.00    -0.237 OA
ATOM     75  O   UNL A   1      44.397  24.991  37.391  1.00  0.00    -0.744 OA
ENDBRANCH  71  72
ENDBRANCH  39  64
ENDBRANCH  13  14
ENDBRANCH   6   8
ENDBRANCH   3   4
ENDBRANCH   2   3
ENDBRANCH   1   2
BRANCH   1  76
ATOM     76  C   UNL A   1      33.351  22.177  24.983  1.00  0.00     0.002 C 
BRANCH  76  77
ATOM     77  C   UNL A   1      33.104  22.118  23.473  1.00  0.00     0.021 C 
BRANCH  77  78
ATOM     78  C   UNL A   1      32.400  23.340  22.889  1.00  0.00     0.116 C 
BRANCH  78  79
ATOM     79  N   UNL A   1      32.935  23.691  21.585  1.00  0.00    -0.351 N 
ATOM     80  C   UNL A   1      32.796  24.862  20.879  1.00  0.00     0.273 C 
ATOM     81  H   UNL A   1      33.471  22.993  21.146  1.00  0.00     0.163 HD
ATOM     82  O   UNL A   1      33.110  24.872  19.686  1.00  0.00    -0.267 OA
BRANCH  80  83
ATOM     83  C   UNL A   1      32.295  26.043  21.558  1.00  0.00     0.170 A 
ATOM     84  C   UNL A   1      32.985  26.923  22.372  1.00  0.00     0.145 A 
ATOM     85  N   UNL A   1      31.004  26.493  21.422  1.00  0.00    -0.125 NA
ATOM     86  N   UNL A   1      32.050  27.850  22.732  1.00  0.00    -0.245 N 
ATOM     87  N   UNL A   1      30.861  27.583  22.164  1.00  0.00    -0.066 NA
BRANCH  86  88
ATOM     88  C   UNL A   1      32.224  28.996  23.570  1.00  0.00     0.148 C 
ATOM     89  C   UNL A   1      31.669  28.836  24.995  1.00  0.00     0.148 C 
ATOM     90  C   UNL A   1      33.621  29.073  24.229  1.00  0.00     0.148 C 
ATOM     91  N   UNL A   1      32.922  29.430  25.439  1.00  0.00    -0.338 N 
ATOM     92  C   UNL A   1      33.187  30.036  26.628  1.00  0.00     0.226 C 
ATOM     93  O   UNL A   1      32.258  30.288  27.402  1.00  0.00    -0.275 OA
BRANCH  92  94
ATOM     94  C   UNL A   1      34.623  30.311  27.062  1.00  0.00     0.083 C 
ATOM     95  C   UNL A   1      35.381  29.153  27.718  1.00  0.00     0.040 C 
ATOM     96  C   UNL A   1      34.682  31.573  27.932  1.00  0.00     0.018 C 
ATOM     97  C   UNL A   1      36.710  29.572  28.284  1.00  0.00    -0.030 C 
ATOM     98  C   UNL A   1      36.132  32.006  28.166  1.00  0.00     0.028 C 
ATOM     99  C   UNL A   1      37.047  30.855  28.477  1.00  0.00    -0.031 C 
ENDBRANCH  92  94
ENDBRANCH  86  88
ENDBRANCH  80  83
ENDBRANCH  78  79
ENDBRANCH  77  78
ENDBRANCH  76  77
ENDBRANCH   1  76
TORSDOF 18
ENDMDL
