MODEL 1
REMARK VINA RESULT:      -9.7      0.000      0.000
REMARK SMILES CC1=C[C@@H]([C@@H]2N=N[C@H](S)N2/N=C/c2ccc(C(=O)NCCCCCCNC(=O)c3ccc(-c4c5nc(c(-c6c(F)cc(S(=O)(=O)[O-])cc6F)c6ccc([nH]6)c(-c6c(F)cc(S(=O)(=O)[O-])cc6F)c6nc(c(-c7c(F)cc(S(=O)(=O)[O-])cc7F)c7ccc4[nH]7)C=C6)C=C5)cc3)cc2)N=N1
REMARK SMILES IDX 22 1 21 2 20 3 19 4 17 5 18 6 16 8 13 9 14 10 96 11 15 12
REMARK SMILES IDX 95 13 12 14 11 15 10 16 5 17 6 18 7 19 8 20 4 21 1 22 2 23
REMARK SMILES IDX 3 24 98 25 97 26 9 27 23 29 24 30 25 31 26 32 27 33 28 35
REMARK SMILES IDX 29 36 30 37 94 38 31 39 93 40 32 41 33 42 34 43 87 44 35 45
REMARK SMILES IDX 92 46 86 47 88 48 36 49 91 50 85 51 84 52 37 54 71 55 50 56
REMARK SMILES IDX 70 57 51 58 54 59 69 60 89 61 52 62 53 63 68 65 90 66 55 67
REMARK SMILES IDX 38 68 39 69 48 70 40 71 41 72 47 73 49 74 42 75 43 76 44 77
REMARK SMILES IDX 45 78 46 79 72 80 73 81 82 82 74 83 75 84 81 85 83 86 76 87
REMARK SMILES IDX 77 88 78 89 79 90 80 91 56 92 57 93 66 94 58 95 59 96 65 97
REMARK SMILES IDX 67 98 60 99 61 100 62 101 63 102 64 103
REMARK H PARENT 19 7 9 28 26 34 88 53 54 64
REMARK Flexibility Score: inf
ROOT
ATOM      1  C   UNL A   1      46.240  24.470  26.190  1.00  0.00     0.002 C 
ENDROOT
BRANCH   1   2
ATOM      2  C   UNL A   1      45.817  25.474  27.269  1.00  0.00     0.021 C 
BRANCH   2   3
ATOM      3  C   UNL A   1      47.007  26.116  27.986  1.00  0.00     0.116 C 
BRANCH   3   4
ATOM      4  N   UNL A   1      48.075  25.151  28.142  1.00  0.00    -0.352 N 
ATOM      5  C   UNL A   1      49.314  25.050  27.569  1.00  0.00     0.251 C 
ATOM      6  O   UNL A   1      50.032  24.115  27.924  1.00  0.00    -0.269 OA
ATOM      7  H   UNL A   1      47.872  24.431  28.781  1.00  0.00     0.163 HD
BRANCH   5   8
ATOM      8  C   UNL A   1      49.847  26.047  26.598  1.00  0.00     0.039 A 
ATOM      9  C   UNL A   1      50.926  28.006  24.924  1.00  0.00    -0.005 A 
ATOM     10  C   UNL A   1      51.285  27.981  26.273  1.00  0.00     0.010 A 
ATOM     11  C   UNL A   1      50.057  27.062  24.395  1.00  0.00     0.010 A 
ATOM     12  C   UNL A   1      50.727  27.015  27.110  1.00  0.00     0.014 A 
ATOM     13  C   UNL A   1      49.566  26.053  25.224  1.00  0.00     0.014 A 
BRANCH   9  14
ATOM     14  C   UNL A   1      51.638  28.910  24.023  1.00  0.00     0.141 C 
ATOM     15  N   UNL A   1      51.132  29.361  22.918  1.00  0.00    -0.180 NA
BRANCH  15  16
ATOM     16  N   UNL A   1      51.927  30.241  22.201  1.00  0.00    -0.233 NA
ATOM     17  C   UNL A   1      53.038  30.875  22.962  1.00  0.00     0.274 C 
ATOM     18  N   UNL A   1      54.319  30.380  22.379  1.00  0.00    -0.161 NA
ATOM     19  N   UNL A   1      54.121  29.926  21.230  1.00  0.00    -0.153 NA
ATOM     20  C   UNL A   1      52.673  29.773  21.006  1.00  0.00     0.298 C 
BRANCH  17  21
ATOM     21  C   UNL A   1      53.057  32.452  22.947  1.00  0.00     0.201 C 
ATOM     22  C   UNL A   1      54.185  33.624  26.233  1.00  0.00     0.068 C 
ATOM     23  C   UNL A   1      53.523  33.402  24.922  1.00  0.00     0.058 C 
ATOM     24  C   UNL A   1      54.132  33.052  23.789  1.00  0.00     0.031 C 
ATOM     25  N   UNL A   1      52.156  33.372  24.809  1.00  0.00    -0.160 NA
ATOM     26  N   UNL A   1      51.829  32.939  23.663  1.00  0.00    -0.177 NA
ENDBRANCH  17  21
BRANCH  20  27
ATOM     27  S   UNL A   1      51.961  30.520  19.504  1.00  0.00    -0.128 SA
ATOM     28  H   UNL A   1      51.405  29.547  18.733  1.00  0.00     0.106 HD
ENDBRANCH  20  27
ENDBRANCH  15  16
ENDBRANCH   9  14
ENDBRANCH   5   8
ENDBRANCH   3   4
ENDBRANCH   2   3
ENDBRANCH   1   2
BRANCH   1  29
ATOM     29  C   UNL A   1      45.798  23.020  26.442  1.00  0.00     0.002 C 
BRANCH  29  30
ATOM     30  C   UNL A   1      45.196  22.287  25.234  1.00  0.00     0.021 C 
BRANCH  30  31
ATOM     31  C   UNL A   1      44.018  23.022  24.611  1.00  0.00     0.116 C 
BRANCH  31  32
ATOM     32  N   UNL A   1      42.791  22.241  24.719  1.00  0.00    -0.352 N 
ATOM     33  C   UNL A   1      41.839  22.250  25.718  1.00  0.00     0.251 C 
ATOM     34  H   UNL A   1      42.618  21.619  23.977  1.00  0.00     0.163 HD
ATOM     35  O   UNL A   1      41.084  21.302  25.856  1.00  0.00    -0.269 OA
BRANCH  33  36
ATOM     36  C   UNL A   1      41.751  23.419  26.612  1.00  0.00     0.039 A 
ATOM     37  C   UNL A   1      42.413  23.416  27.842  1.00  0.00     0.014 A 
ATOM     38  C   UNL A   1      41.000  24.521  26.208  1.00  0.00     0.014 A 
ATOM     39  C   UNL A   1      42.377  24.566  28.627  1.00  0.00     0.010 A 
ATOM     40  C   UNL A   1      41.069  25.694  26.921  1.00  0.00     0.010 A 
ATOM     41  C   UNL A   1      41.722  25.712  28.149  1.00  0.00    -0.014 A 
BRANCH  41  42
ATOM     42  C   UNL A   1      41.840  26.979  28.864  1.00  0.00     0.031 A 
ATOM     43  C   UNL A   1      42.993  27.816  28.434  1.00  0.00     0.074 A 
ATOM     44  C   UNL A   1      40.875  27.468  29.673  1.00  0.00     0.049 A 
ATOM     45  N   UNL A   1      44.053  28.109  29.113  1.00  0.00    -0.248 NA
ATOM     46  C   UNL A   1      43.056  28.250  27.028  1.00  0.00     0.031 C 
ATOM     47  C   UNL A   1      39.551  26.898  29.947  1.00  0.00     0.029 A 
ATOM     48  N   UNL A   1      40.829  28.654  30.341  1.00  0.00    -0.354 N 
ATOM     49  C   UNL A   1      44.793  28.973  28.310  1.00  0.00     0.074 A 
ATOM     50  C   UNL A   1      44.251  28.842  26.984  1.00  0.00     0.031 C 
ATOM     51  C   UNL A   1      38.761  27.838  30.509  1.00  0.00     0.029 A 
ATOM     52  C   UNL A   1      39.561  29.018  30.785  1.00  0.00     0.049 A 
ATOM     53  H   UNL A   1      41.626  29.210  30.495  1.00  0.00     0.167 HD
ATOM     54  C   UNL A   1      45.608  29.918  28.860  1.00  0.00     0.037 A 
ATOM     55  C   UNL A   1      39.188  30.212  31.313  1.00  0.00     0.037 A 
ATOM     56  C   UNL A   1      45.856  29.633  30.254  1.00  0.00     0.049 A 
ATOM     57  C   UNL A   1      40.427  30.878  31.792  1.00  0.00     0.074 A 
ATOM     58  C   UNL A   1      46.364  28.552  30.951  1.00  0.00     0.029 A 
ATOM     59  N   UNL A   1      45.196  30.398  31.188  1.00  0.00    -0.354 N 
ATOM     60  N   UNL A   1      41.140  30.444  32.795  1.00  0.00    -0.248 NA
ATOM     61  C   UNL A   1      41.126  31.762  30.871  1.00  0.00     0.031 C 
ATOM     62  C   UNL A   1      45.568  28.467  32.132  1.00  0.00     0.029 A 
ATOM     63  C   UNL A   1      44.682  29.545  32.129  1.00  0.00     0.049 A 
ATOM     64  H   UNL A   1      45.109  31.378  31.180  1.00  0.00     0.167 HD
ATOM     65  C   UNL A   1      42.456  30.616  32.393  1.00  0.00     0.074 A 
ATOM     66  C   UNL A   1      42.385  31.524  31.249  1.00  0.00     0.031 C 
ATOM     67  C   UNL A   1      43.442  29.782  32.836  1.00  0.00     0.037 A 
BRANCH  54  68
ATOM     68  C   UNL A   1      45.854  31.293  28.272  1.00  0.00     0.058 A 
ATOM     69  C   UNL A   1      44.744  32.096  27.928  1.00  0.00     0.135 A 
ATOM     70  C   UNL A   1      47.095  31.732  27.762  1.00  0.00     0.135 A 
ATOM     71  F   UNL A   1      43.512  31.783  28.361  1.00  0.00    -0.206 F 
ATOM     72  C   UNL A   1      44.846  33.186  27.062  1.00  0.00     0.059 A 
ATOM     73  C   UNL A   1      47.227  32.848  26.944  1.00  0.00     0.059 A 
ATOM     74  F   UNL A   1      48.233  31.053  27.946  1.00  0.00    -0.206 F 
ATOM     75  C   UNL A   1      46.093  33.541  26.560  1.00  0.00     0.060 A 
BRANCH  75  76
ATOM     76  S   UNL A   1      46.218  34.870  25.353  1.00  0.00     0.124 S 
ATOM     77  O   UNL A   1      45.238  34.450  24.359  1.00  0.00    -0.237 OA
ATOM     78  O   UNL A   1      45.861  36.038  26.154  1.00  0.00    -0.237 OA
ATOM     79  O   UNL A   1      47.615  34.809  24.932  1.00  0.00    -0.744 OA
ENDBRANCH  75  76
ENDBRANCH  54  68
BRANCH  55  80
ATOM     80  C   UNL A   1      37.892  30.934  31.181  1.00  0.00     0.058 A 
ATOM     81  C   UNL A   1      36.869  30.769  32.135  1.00  0.00     0.135 A 
ATOM     82  C   UNL A   1      37.735  32.014  30.290  1.00  0.00     0.135 A 
ATOM     83  F   UNL A   1      36.936  29.774  33.031  1.00  0.00    -0.206 F 
ATOM     84  C   UNL A   1      35.796  31.663  32.245  1.00  0.00     0.059 A 
ATOM     85  C   UNL A   1      36.669  32.908  30.371  1.00  0.00     0.059 A 
ATOM     86  F   UNL A   1      38.670  32.296  29.370  1.00  0.00    -0.206 F 
ATOM     87  C   UNL A   1      35.719  32.747  31.373  1.00  0.00     0.060 A 
BRANCH  87  88
ATOM     88  S   UNL A   1      34.465  34.023  31.643  1.00  0.00     0.124 S 
ATOM     89  O   UNL A   1      33.555  33.363  32.571  1.00  0.00    -0.237 OA
ATOM     90  O   UNL A   1      35.254  35.121  32.193  1.00  0.00    -0.237 OA
ATOM     91  O   UNL A   1      33.930  34.259  30.304  1.00  0.00    -0.744 OA
ENDBRANCH  87  88
ENDBRANCH  55  80
BRANCH  67  92
ATOM     92  C   UNL A   1      43.148  28.890  34.016  1.00  0.00     0.058 A 
ATOM     93  C   UNL A   1      43.193  29.293  35.363  1.00  0.00     0.135 A 
ATOM     94  C   UNL A   1      42.678  27.594  33.754  1.00  0.00     0.135 A 
ATOM     95  F   UNL A   1      43.520  30.549  35.699  1.00  0.00    -0.206 F 
ATOM     96  C   UNL A   1      42.844  28.429  36.402  1.00  0.00     0.059 A 
ATOM     97  C   UNL A   1      42.291  26.727  34.772  1.00  0.00     0.059 A 
ATOM     98  F   UNL A   1      42.548  27.168  32.487  1.00  0.00    -0.206 F 
ATOM     99  C   UNL A   1      42.397  27.143  36.096  1.00  0.00     0.060 A 
BRANCH  99 100
ATOM    100  S   UNL A   1      41.907  26.038  37.435  1.00  0.00     0.124 S 
ATOM    101  O   UNL A   1      41.986  24.728  36.795  1.00  0.00    -0.237 OA
ATOM    102  O   UNL A   1      42.917  26.306  38.456  1.00  0.00    -0.237 OA
ATOM    103  O   UNL A   1      40.558  26.486  37.773  1.00  0.00    -0.744 OA
ENDBRANCH  99 100
ENDBRANCH  67  92
ENDBRANCH  41  42
ENDBRANCH  33  36
ENDBRANCH  31  32
ENDBRANCH  30  31
ENDBRANCH  29  30
ENDBRANCH   1  29
TORSDOF 20
ENDMDL
MODEL 2
REMARK VINA RESULT:      -9.5      4.454     11.953
REMARK SMILES CC1=C[C@@H]([C@@H]2N=N[C@H](S)N2/N=C/c2ccc(C(=O)NCCCCCCNC(=O)c3ccc(-c4c5nc(c(-c6c(F)cc(S(=O)(=O)[O-])cc6F)c6ccc([nH]6)c(-c6c(F)cc(S(=O)(=O)[O-])cc6F)c6nc(c(-c7c(F)cc(S(=O)(=O)[O-])cc7F)c7ccc4[nH]7)C=C6)C=C5)cc3)cc2)N=N1
REMARK SMILES IDX 22 1 21 2 20 3 19 4 17 5 18 6 16 8 13 9 14 10 96 11 15 12
REMARK SMILES IDX 95 13 12 14 11 15 10 16 5 17 6 18 7 19 8 20 4 21 1 22 2 23
REMARK SMILES IDX 3 24 98 25 97 26 9 27 23 29 24 30 25 31 26 32 27 33 28 35
REMARK SMILES IDX 29 36 30 37 94 38 31 39 93 40 32 41 33 42 34 43 87 44 35 45
REMARK SMILES IDX 92 46 86 47 88 48 36 49 91 50 85 51 84 52 37 54 71 55 50 56
REMARK SMILES IDX 70 57 51 58 54 59 69 60 89 61 52 62 53 63 68 65 90 66 55 67
REMARK SMILES IDX 38 68 39 69 48 70 40 71 41 72 47 73 49 74 42 75 43 76 44 77
REMARK SMILES IDX 45 78 46 79 72 80 73 81 82 82 74 83 75 84 81 85 83 86 76 87
REMARK SMILES IDX 77 88 78 89 79 90 80 91 56 92 57 93 66 94 58 95 59 96 65 97
REMARK SMILES IDX 67 98 60 99 61 100 62 101 63 102 64 103
REMARK H PARENT 19 7 9 28 26 34 88 53 54 64
REMARK Flexibility Score: inf
ROOT
ATOM      1  C   UNL A   1      37.743  32.472  32.732  1.00  0.00     0.002 C 
ENDROOT
BRANCH   1   2
ATOM      2  C   UNL A   1      38.879  32.366  33.755  1.00  0.00     0.021 C 
BRANCH   2   3
ATOM      3  C   UNL A   1      38.493  32.909  35.133  1.00  0.00     0.116 C 
BRANCH   3   4
ATOM      4  N   UNL A   1      39.373  32.366  36.147  1.00  0.00    -0.352 N 
ATOM      5  C   UNL A   1      40.552  32.816  36.679  1.00  0.00     0.251 C 
ATOM      6  O   UNL A   1      41.071  32.139  37.567  1.00  0.00    -0.269 OA
ATOM      7  H   UNL A   1      39.065  31.511  36.525  1.00  0.00     0.163 HD
BRANCH   5   8
ATOM      8  C   UNL A   1      41.187  34.103  36.281  1.00  0.00     0.039 A 
ATOM      9  C   UNL A   1      42.460  36.424  35.390  1.00  0.00    -0.005 A 
ATOM     10  C   UNL A   1      42.514  35.268  34.609  1.00  0.00     0.010 A 
ATOM     11  C   UNL A   1      41.767  36.447  36.593  1.00  0.00     0.010 A 
ATOM     12  C   UNL A   1      41.897  34.105  35.068  1.00  0.00     0.014 A 
ATOM     13  C   UNL A   1      41.087  35.300  37.003  1.00  0.00     0.014 A 
BRANCH   9  14
ATOM     14  C   UNL A   1      42.963  37.677  34.828  1.00  0.00     0.141 C 
ATOM     15  N   UNL A   1      43.327  37.809  33.591  1.00  0.00    -0.180 NA
BRANCH  15  16
ATOM     16  N   UNL A   1      43.744  39.076  33.214  1.00  0.00    -0.233 NA
ATOM     17  C   UNL A   1      43.098  39.633  31.995  1.00  0.00     0.274 C 
ATOM     18  N   UNL A   1      42.290  40.814  32.417  1.00  0.00    -0.161 NA
ATOM     19  N   UNL A   1      42.683  41.227  33.531  1.00  0.00    -0.153 NA
ATOM     20  C   UNL A   1      43.577  40.226  34.138  1.00  0.00     0.298 C 
BRANCH  17  21
ATOM     21  C   UNL A   1      44.084  40.083  30.849  1.00  0.00     0.201 C 
ATOM     22  C   UNL A   1      42.227  40.152  27.689  1.00  0.00     0.068 C 
ATOM     23  C   UNL A   1      43.219  40.004  28.784  1.00  0.00     0.058 C 
ATOM     24  C   UNL A   1      43.433  40.878  29.768  1.00  0.00     0.031 C 
ATOM     25  N   UNL A   1      43.902  38.829  28.974  1.00  0.00    -0.160 NA
ATOM     26  N   UNL A   1      44.504  38.857  30.089  1.00  0.00    -0.177 NA
ENDBRANCH  17  21
BRANCH  20  27
ATOM     27  S   UNL A   1      45.208  40.786  34.727  1.00  0.00    -0.128 SA
ATOM     28  H   UNL A   1      46.084  39.745  34.695  1.00  0.00     0.106 HD
ENDBRANCH  20  27
ENDBRANCH  15  16
ENDBRANCH   9  14
ENDBRANCH   5   8
ENDBRANCH   3   4
ENDBRANCH   2   3
ENDBRANCH   1   2
BRANCH   1  29
ATOM     29  C   UNL A   1      37.138  33.877  32.575  1.00  0.00     0.002 C 
BRANCH  29  30
ATOM     30  C   UNL A   1      35.677  33.924  32.104  1.00  0.00     0.021 C 
BRANCH  30  31
ATOM     31  C   UNL A   1      35.022  32.551  32.037  1.00  0.00     0.116 C 
BRANCH  31  32
ATOM     32  N   UNL A   1      34.309  32.367  30.778  1.00  0.00    -0.352 N 
ATOM     33  C   UNL A   1      34.813  32.090  29.524  1.00  0.00     0.251 C 
ATOM     34  H   UNL A   1      33.330  32.453  30.830  1.00  0.00     0.163 HD
ATOM     35  O   UNL A   1      34.150  32.331  28.529  1.00  0.00    -0.269 OA
BRANCH  33  36
ATOM     36  C   UNL A   1      36.161  31.505  29.408  1.00  0.00     0.039 A 
ATOM     37  C   UNL A   1      37.265  32.323  29.161  1.00  0.00     0.014 A 
ATOM     38  C   UNL A   1      36.311  30.127  29.551  1.00  0.00     0.014 A 
ATOM     39  C   UNL A   1      38.535  31.751  29.138  1.00  0.00     0.010 A 
ATOM     40  C   UNL A   1      37.569  29.583  29.653  1.00  0.00     0.010 A 
ATOM     41  C   UNL A   1      38.682  30.381  29.408  1.00  0.00    -0.014 A 
BRANCH  41  42
ATOM     42  C   UNL A   1      40.012  29.804  29.582  1.00  0.00     0.031 A 
ATOM     43  C   UNL A   1      40.410  29.608  31.003  1.00  0.00     0.074 A 
ATOM     44  C   UNL A   1      40.730  29.275  28.568  1.00  0.00     0.049 A 
ATOM     45  N   UNL A   1      41.334  30.232  31.656  1.00  0.00    -0.248 NA
ATOM     46  C   UNL A   1      39.582  28.730  31.846  1.00  0.00     0.031 C 
ATOM     47  C   UNL A   1      40.331  29.117  27.165  1.00  0.00     0.029 A 
ATOM     48  N   UNL A   1      41.941  28.652  28.601  1.00  0.00    -0.354 N 
ATOM     49  C   UNL A   1      41.372  29.644  32.918  1.00  0.00     0.074 A 
ATOM     50  C   UNL A   1      40.147  28.900  33.044  1.00  0.00     0.031 C 
ATOM     51  C   UNL A   1      41.159  28.242  26.554  1.00  0.00     0.029 A 
ATOM     52  C   UNL A   1      42.237  27.904  27.466  1.00  0.00     0.049 A 
ATOM     53  H   UNL A   1      42.555  28.724  29.367  1.00  0.00     0.167 HD
ATOM     54  C   UNL A   1      42.528  29.603  33.639  1.00  0.00     0.037 A 
ATOM     55  C   UNL A   1      43.276  27.044  27.298  1.00  0.00     0.037 A 
ATOM     56  C   UNL A   1      43.500  30.528  33.105  1.00  0.00     0.049 A 
ATOM     57  C   UNL A   1      44.300  27.402  28.312  1.00  0.00     0.074 A 
ATOM     58  C   UNL A   1      43.512  31.888  32.853  1.00  0.00     0.029 A 
ATOM     59  N   UNL A   1      44.541  30.007  32.374  1.00  0.00    -0.354 N 
ATOM     60  N   UNL A   1      44.976  28.518  28.296  1.00  0.00    -0.248 NA
ATOM     61  C   UNL A   1      44.248  26.728  29.601  1.00  0.00     0.031 C 
ATOM     62  C   UNL A   1      44.217  32.029  31.621  1.00  0.00     0.029 A 
ATOM     63  C   UNL A   1      44.665  30.764  31.238  1.00  0.00     0.049 A 
ATOM     64  H   UNL A   1      45.095  29.232  32.620  1.00  0.00     0.167 HD
ATOM     65  C   UNL A   1      45.038  28.913  29.623  1.00  0.00     0.074 A 
ATOM     66  C   UNL A   1      44.666  27.724  30.388  1.00  0.00     0.031 C 
ATOM     67  C   UNL A   1      45.097  30.235  29.963  1.00  0.00     0.037 A 
BRANCH  54  68
ATOM     68  C   UNL A   1      42.932  28.466  34.558  1.00  0.00     0.058 A 
ATOM     69  C   UNL A   1      43.329  28.765  35.879  1.00  0.00     0.135 A 
ATOM     70  C   UNL A   1      43.229  27.156  34.122  1.00  0.00     0.135 A 
ATOM     71  F   UNL A   1      43.093  29.977  36.408  1.00  0.00    -0.206 F 
ATOM     72  C   UNL A   1      44.055  27.869  36.666  1.00  0.00     0.059 A 
ATOM     73  C   UNL A   1      43.901  26.229  34.909  1.00  0.00     0.059 A 
ATOM     74  F   UNL A   1      42.974  26.732  32.879  1.00  0.00    -0.206 F 
ATOM     75  C   UNL A   1      44.353  26.609  36.161  1.00  0.00     0.060 A 
BRANCH  75  76
ATOM     76  S   UNL A   1      45.387  25.490  37.120  1.00  0.00     0.124 S 
ATOM     77  O   UNL A   1      44.394  24.825  37.956  1.00  0.00    -0.237 OA
ATOM     78  O   UNL A   1      45.998  24.675  36.076  1.00  0.00    -0.237 OA
ATOM     79  O   UNL A   1      46.298  26.395  37.817  1.00  0.00    -0.744 OA
ENDBRANCH  75  76
ENDBRANCH  54  68
BRANCH  55  80
ATOM     80  C   UNL A   1      43.328  25.774  26.521  1.00  0.00     0.058 A 
ATOM     81  C   UNL A   1      44.215  25.622  25.438  1.00  0.00     0.135 A 
ATOM     82  C   UNL A   1      42.729  24.592  26.999  1.00  0.00     0.135 A 
ATOM     83  F   UNL A   1      44.839  26.690  24.921  1.00  0.00    -0.206 F 
ATOM     84  C   UNL A   1      44.543  24.367  24.910  1.00  0.00     0.059 A 
ATOM     85  C   UNL A   1      43.029  23.333  26.480  1.00  0.00     0.059 A 
ATOM     86  F   UNL A   1      41.903  24.610  28.056  1.00  0.00    -0.206 F 
ATOM     87  C   UNL A   1      43.963  23.223  25.457  1.00  0.00     0.060 A 
BRANCH  87  88
ATOM     88  S   UNL A   1      44.541  21.591  24.932  1.00  0.00     0.124 S 
ATOM     89  O   UNL A   1      44.626  21.750  23.485  1.00  0.00    -0.237 OA
ATOM     90  O   UNL A   1      45.812  21.470  25.639  1.00  0.00    -0.237 OA
ATOM     91  O   UNL A   1      43.487  20.693  25.401  1.00  0.00    -0.744 OA
ENDBRANCH  87  88
ENDBRANCH  55  80
BRANCH  67  92
ATOM     92  C   UNL A   1      45.431  31.236  28.886  1.00  0.00     0.058 A 
ATOM     93  C   UNL A   1      44.492  31.856  28.042  1.00  0.00     0.135 A 
ATOM     94  C   UNL A   1      46.760  31.677  28.793  1.00  0.00     0.135 A 
ATOM     95  F   UNL A   1      43.184  31.580  28.141  1.00  0.00    -0.206 F 
ATOM     96  C   UNL A   1      44.867  32.824  27.109  1.00  0.00     0.059 A 
ATOM     97  C   UNL A   1      47.151  32.666  27.895  1.00  0.00     0.059 A 
ATOM     98  F   UNL A   1      47.695  31.173  29.615  1.00  0.00    -0.206 F 
ATOM     99  C   UNL A   1      46.203  33.220  27.040  1.00  0.00     0.060 A 
BRANCH  99 100
ATOM    100  S   UNL A   1      46.684  34.500  25.863  1.00  0.00     0.124 S 
ATOM    101  O   UNL A   1      46.492  35.720  26.641  1.00  0.00    -0.237 OA
ATOM    102  O   UNL A   1      48.070  34.153  25.561  1.00  0.00    -0.237 OA
ATOM    103  O   UNL A   1      45.750  34.315  24.755  1.00  0.00    -0.744 OA
ENDBRANCH  99 100
ENDBRANCH  67  92
ENDBRANCH  41  42
ENDBRANCH  33  36
ENDBRANCH  31  32
ENDBRANCH  30  31
ENDBRANCH  29  30
ENDBRANCH   1  29
TORSDOF 20
ENDMDL
MODEL 3
REMARK VINA RESULT:      -9.5      6.153     11.243
REMARK SMILES CC1=C[C@@H]([C@@H]2N=N[C@H](S)N2/N=C/c2ccc(C(=O)NCCCCCCNC(=O)c3ccc(-c4c5nc(c(-c6c(F)cc(S(=O)(=O)[O-])cc6F)c6ccc([nH]6)c(-c6c(F)cc(S(=O)(=O)[O-])cc6F)c6nc(c(-c7c(F)cc(S(=O)(=O)[O-])cc7F)c7ccc4[nH]7)C=C6)C=C5)cc3)cc2)N=N1
REMARK SMILES IDX 22 1 21 2 20 3 19 4 17 5 18 6 16 8 13 9 14 10 96 11 15 12
REMARK SMILES IDX 95 13 12 14 11 15 10 16 5 17 6 18 7 19 8 20 4 21 1 22 2 23
REMARK SMILES IDX 3 24 98 25 97 26 9 27 23 29 24 30 25 31 26 32 27 33 28 35
REMARK SMILES IDX 29 36 30 37 94 38 31 39 93 40 32 41 33 42 34 43 87 44 35 45
REMARK SMILES IDX 92 46 86 47 88 48 36 49 91 50 85 51 84 52 37 54 71 55 50 56
REMARK SMILES IDX 70 57 51 58 54 59 69 60 89 61 52 62 53 63 68 65 90 66 55 67
REMARK SMILES IDX 38 68 39 69 48 70 40 71 41 72 47 73 49 74 42 75 43 76 44 77
REMARK SMILES IDX 45 78 46 79 72 80 73 81 82 82 74 83 75 84 81 85 83 86 76 87
REMARK SMILES IDX 77 88 78 89 79 90 80 91 56 92 57 93 66 94 58 95 59 96 65 97
REMARK SMILES IDX 67 98 60 99 61 100 62 101 63 102 64 103
REMARK H PARENT 19 7 9 28 26 34 88 53 54 64
REMARK Flexibility Score: inf
ROOT
ATOM      1  C   UNL A   1      45.237  37.704  29.142  1.00  0.00     0.002 C 
ENDROOT
BRANCH   1   2
ATOM      2  C   UNL A   1      44.447  37.796  30.453  1.00  0.00     0.021 C 
BRANCH   2   3
ATOM      3  C   UNL A   1      44.836  39.010  31.300  1.00  0.00     0.116 C 
BRANCH   3   4
ATOM      4  N   UNL A   1      43.650  39.736  31.704  1.00  0.00    -0.352 N 
ATOM      5  C   UNL A   1      42.780  40.535  31.011  1.00  0.00     0.251 C 
ATOM      6  O   UNL A   1      41.825  41.007  31.628  1.00  0.00    -0.269 OA
ATOM      7  H   UNL A   1      43.427  39.637  32.657  1.00  0.00     0.163 HD
BRANCH   5   8
ATOM      8  C   UNL A   1      42.903  40.799  29.550  1.00  0.00     0.039 A 
ATOM      9  C   UNL A   1      43.281  41.407  26.850  1.00  0.00    -0.005 A 
ATOM     10  C   UNL A   1      44.223  41.833  27.788  1.00  0.00     0.010 A 
ATOM     11  C   UNL A   1      42.169  40.669  27.232  1.00  0.00     0.010 A 
ATOM     12  C   UNL A   1      44.019  41.547  29.138  1.00  0.00     0.014 A 
ATOM     13  C   UNL A   1      42.017  40.321  28.575  1.00  0.00     0.014 A 
BRANCH   9  14
ATOM     14  C   UNL A   1      43.584  41.564  25.428  1.00  0.00     0.141 C 
ATOM     15  N   UNL A   1      44.470  42.394  24.975  1.00  0.00    -0.180 NA
BRANCH  15  16
ATOM     16  N   UNL A   1      44.660  42.388  23.602  1.00  0.00    -0.233 NA
ATOM     17  C   UNL A   1      43.658  43.149  22.807  1.00  0.00     0.274 C 
ATOM     18  N   UNL A   1      44.369  44.296  22.171  1.00  0.00    -0.161 NA
ATOM     19  N   UNL A   1      45.601  44.077  22.148  1.00  0.00    -0.153 NA
ATOM     20  C   UNL A   1      45.912  42.928  23.016  1.00  0.00     0.298 C 
BRANCH  17  21
ATOM     21  C   UNL A   1      42.921  42.328  21.679  1.00  0.00     0.201 C 
ATOM     22  C   UNL A   1      42.211  44.590  18.883  1.00  0.00     0.068 C 
ATOM     23  C   UNL A   1      42.204  43.553  19.947  1.00  0.00     0.058 C 
ATOM     24  C   UNL A   1      43.235  42.784  20.295  1.00  0.00     0.031 C 
ATOM     25  N   UNL A   1      41.141  43.419  20.804  1.00  0.00    -0.160 NA
ATOM     26  N   UNL A   1      41.454  42.645  21.758  1.00  0.00    -0.177 NA
ENDBRANCH  17  21
BRANCH  20  27
ATOM     27  S   UNL A   1      46.898  41.569  22.308  1.00  0.00    -0.128 SA
ATOM     28  H   UNL A   1      46.071  40.556  21.933  1.00  0.00     0.106 HD
ENDBRANCH  20  27
ENDBRANCH  15  16
ENDBRANCH   9  14
ENDBRANCH   5   8
ENDBRANCH   3   4
ENDBRANCH   2   3
ENDBRANCH   1   2
BRANCH   1  29
ATOM     29  C   UNL A   1      44.397  37.856  27.865  1.00  0.00     0.002 C 
BRANCH  29  30
ATOM     30  C   UNL A   1      45.185  38.144  26.579  1.00  0.00     0.021 C 
BRANCH  30  31
ATOM     31  C   UNL A   1      46.645  37.721  26.662  1.00  0.00     0.116 C 
BRANCH  31  32
ATOM     32  N   UNL A   1      46.945  36.666  25.700  1.00  0.00    -0.352 N 
ATOM     33  C   UNL A   1      46.819  35.300  25.839  1.00  0.00     0.251 C 
ATOM     34  H   UNL A   1      47.287  36.972  24.829  1.00  0.00     0.163 HD
ATOM     35  O   UNL A   1      47.446  34.547  25.111  1.00  0.00    -0.269 OA
BRANCH  33  36
ATOM     36  C   UNL A   1      45.922  34.766  26.880  1.00  0.00     0.039 A 
ATOM     37  C   UNL A   1      44.599  34.443  26.573  1.00  0.00     0.014 A 
ATOM     38  C   UNL A   1      46.419  34.588  28.170  1.00  0.00     0.014 A 
ATOM     39  C   UNL A   1      43.801  33.865  27.557  1.00  0.00     0.010 A 
ATOM     40  C   UNL A   1      45.674  33.905  29.102  1.00  0.00     0.010 A 
ATOM     41  C   UNL A   1      44.353  33.576  28.815  1.00  0.00    -0.014 A 
BRANCH  41  42
ATOM     42  C   UNL A   1      43.596  32.797  29.790  1.00  0.00     0.031 A 
ATOM     43  C   UNL A   1      44.017  31.372  29.889  1.00  0.00     0.074 A 
ATOM     44  C   UNL A   1      42.752  33.348  30.688  1.00  0.00     0.049 A 
ATOM     45  N   UNL A   1      43.347  30.325  29.538  1.00  0.00    -0.248 NA
ATOM     46  C   UNL A   1      45.407  31.080  30.276  1.00  0.00     0.031 C 
ATOM     47  C   UNL A   1      42.475  34.772  30.912  1.00  0.00     0.029 A 
ATOM     48  N   UNL A   1      42.042  32.751  31.685  1.00  0.00    -0.354 N 
ATOM     49  C   UNL A   1      44.132  29.232  29.898  1.00  0.00     0.074 A 
ATOM     50  C   UNL A   1      45.452  29.754  30.133  1.00  0.00     0.031 C 
ATOM     51  C   UNL A   1      41.865  34.933  32.106  1.00  0.00     0.029 A 
ATOM     52  C   UNL A   1      41.562  33.624  32.657  1.00  0.00     0.049 A 
ATOM     53  H   UNL A   1      41.882  31.780  31.716  1.00  0.00     0.167 HD
ATOM     54  C   UNL A   1      43.563  28.039  30.232  1.00  0.00     0.037 A 
ATOM     55  C   UNL A   1      40.985  33.296  33.842  1.00  0.00     0.037 A 
ATOM     56  C   UNL A   1      42.185  27.989  29.803  1.00  0.00     0.049 A 
ATOM     57  C   UNL A   1      40.506  31.896  33.715  1.00  0.00     0.074 A 
ATOM     58  C   UNL A   1      41.536  28.147  28.592  1.00  0.00     0.029 A 
ATOM     59  N   UNL A   1      41.213  28.136  30.765  1.00  0.00    -0.354 N 
ATOM     60  N   UNL A   1      39.532  31.533  32.926  1.00  0.00    -0.248 NA
ATOM     61  C   UNL A   1      41.408  30.827  34.118  1.00  0.00     0.031 C 
ATOM     62  C   UNL A   1      40.345  28.868  28.902  1.00  0.00     0.029 A 
ATOM     63  C   UNL A   1      40.293  29.033  30.287  1.00  0.00     0.049 A 
ATOM     64  H   UNL A   1      41.184  27.681  31.637  1.00  0.00     0.167 HD
ATOM     65  C   UNL A   1      39.952  30.331  32.377  1.00  0.00     0.074 A 
ATOM     66  C   UNL A   1      41.061  29.896  33.225  1.00  0.00     0.031 C 
ATOM     67  C   UNL A   1      39.556  29.952  31.126  1.00  0.00     0.037 A 
BRANCH  54  68
ATOM     68  C   UNL A   1      44.106  27.088  31.280  1.00  0.00     0.058 A 
ATOM     69  C   UNL A   1      44.262  25.724  30.949  1.00  0.00     0.135 A 
ATOM     70  C   UNL A   1      44.196  27.387  32.657  1.00  0.00     0.135 A 
ATOM     71  F   UNL A   1      44.203  25.319  29.671  1.00  0.00    -0.206 F 
ATOM     72  C   UNL A   1      44.392  24.727  31.917  1.00  0.00     0.059 A 
ATOM     73  C   UNL A   1      44.382  26.415  33.634  1.00  0.00     0.059 A 
ATOM     74  F   UNL A   1      44.012  28.620  33.143  1.00  0.00    -0.206 F 
ATOM     75  C   UNL A   1      44.430  25.084  33.260  1.00  0.00     0.060 A 
BRANCH  75  76
ATOM     76  S   UNL A   1      44.480  23.798  34.519  1.00  0.00     0.124 S 
ATOM     77  O   UNL A   1      43.137  23.888  35.077  1.00  0.00    -0.237 OA
ATOM     78  O   UNL A   1      44.768  22.609  33.723  1.00  0.00    -0.237 OA
ATOM     79  O   UNL A   1      45.562  24.234  35.398  1.00  0.00    -0.744 OA
ENDBRANCH  75  76
ENDBRANCH  54  68
BRANCH  55  80
ATOM     80  C   UNL A   1      41.068  33.999  35.153  1.00  0.00     0.058 A 
ATOM     81  C   UNL A   1      39.938  34.625  35.713  1.00  0.00     0.135 A 
ATOM     82  C   UNL A   1      42.167  33.822  36.017  1.00  0.00     0.135 A 
ATOM     83  F   UNL A   1      38.840  34.828  34.970  1.00  0.00    -0.206 F 
ATOM     84  C   UNL A   1      39.876  34.988  37.064  1.00  0.00     0.059 A 
ATOM     85  C   UNL A   1      42.133  34.188  37.362  1.00  0.00     0.059 A 
ATOM     86  F   UNL A   1      43.280  33.196  35.606  1.00  0.00    -0.206 F 
ATOM     87  C   UNL A   1      40.971  34.740  37.889  1.00  0.00     0.060 A 
BRANCH  87  88
ATOM     88  S   UNL A   1      40.824  35.001  39.673  1.00  0.00     0.124 S 
ATOM     89  O   UNL A   1      40.249  33.738  40.119  1.00  0.00    -0.237 OA
ATOM     90  O   UNL A   1      42.208  35.248  40.065  1.00  0.00    -0.237 OA
ATOM     91  O   UNL A   1      39.939  36.160  39.772  1.00  0.00    -0.744 OA
ENDBRANCH  87  88
ENDBRANCH  55  80
BRANCH  67  92
ATOM     92  C   UNL A   1      38.404  30.685  30.487  1.00  0.00     0.058 A 
ATOM     93  C   UNL A   1      38.495  31.941  29.860  1.00  0.00     0.135 A 
ATOM     94  C   UNL A   1      37.172  30.017  30.402  1.00  0.00     0.135 A 
ATOM     95  F   UNL A   1      39.660  32.598  29.792  1.00  0.00    -0.206 F 
ATOM     96  C   UNL A   1      37.396  32.530  29.232  1.00  0.00     0.059 A 
ATOM     97  C   UNL A   1      36.074  30.570  29.750  1.00  0.00     0.059 A 
ATOM     98  F   UNL A   1      37.036  28.787  30.923  1.00  0.00    -0.206 F 
ATOM     99  C   UNL A   1      36.186  31.838  29.185  1.00  0.00     0.060 A 
BRANCH  99 100
ATOM    100  S   UNL A   1      34.776  32.580  28.338  1.00  0.00     0.124 S 
ATOM    101  O   UNL A   1      33.992  33.105  29.452  1.00  0.00    -0.237 OA
ATOM    102  O   UNL A   1      35.409  33.580  27.482  1.00  0.00    -0.237 OA
ATOM    103  O   UNL A   1      34.174  31.455  27.626  1.00  0.00    -0.744 OA
ENDBRANCH  99 100
ENDBRANCH  67  92
ENDBRANCH  41  42
ENDBRANCH  33  36
ENDBRANCH  31  32
ENDBRANCH  30  31
ENDBRANCH  29  30
ENDBRANCH   1  29
TORSDOF 20
ENDMDL
