MODEL 1
REMARK VINA RESULT:     -11.6      0.000      0.000
REMARK SMILES CCCC(=O)N(c1cc2sc(=O)oc2c2ccccc12)S(=O)(=O)c1ccc(C(=O)NCCCCCCNC(=O)c2ccc(-c3c4nc(c(-c5c(F)cc(S(=O)(=O)[O-])cc5F)c5ccc([nH]5)c(-c5c(F)cc(S(=O)(=O)[O-])cc5F)c5nc(c(-c6c(F)cc(S(=O)(=O)[O-])cc6F)c6ccc3[nH]6)C=C5)C=C4)cc2)cc1
REMARK SMILES IDX 32 1 31 2 30 3 28 4 29 5 27 7 24 8 25 9 107 10 26 11 106 12
REMARK SMILES IDX 21 13 22 14 23 15 6 16 4 17 5 18 3 19 2 20 1 21 7 22 8 23
REMARK SMILES IDX 20 24 9 25 15 26 19 27 10 28 14 29 16 30 18 31 11 32 13 33
REMARK SMILES IDX 17 34 12 35 33 36 34 37 35 38 36 39 37 40 38 41 39 43 40 44
REMARK SMILES IDX 41 45 105 46 42 47 104 48 43 49 44 50 45 51 98 52 46 53
REMARK SMILES IDX 103 54 97 55 99 56 47 57 102 58 96 59 95 60 48 62 82 63
REMARK SMILES IDX 61 64 81 65 62 66 65 67 80 68 100 69 63 70 64 71 79 73
REMARK SMILES IDX 101 74 66 75 49 76 50 77 59 78 51 79 52 80 58 81 60 82 53 83
REMARK SMILES IDX 54 84 55 85 56 86 57 87 83 88 84 89 93 90 85 91 86 92 92 93
REMARK SMILES IDX 94 94 87 95 88 96 89 97 90 98 91 99 67 100 68 101 77 102
REMARK SMILES IDX 69 103 70 104 76 105 78 106 71 107 72 108 73 109 74 110
REMARK SMILES IDX 75 111
REMARK H PARENT 30 6 37 42 99 61 65 72
REMARK Flexibility Score: inf
ROOT
ATOM      1  C   UNL A   1      33.196  28.293  23.664  1.00  0.00     0.021 C 
ENDROOT
BRANCH   1   2
ATOM      2  C   UNL A   1      32.479  28.608  22.357  1.00  0.00     0.116 C 
BRANCH   2   3
ATOM      3  N   UNL A   1      31.039  28.691  22.510  1.00  0.00    -0.352 N 
ATOM      4  C   UNL A   1      30.128  27.866  23.115  1.00  0.00     0.251 C 
ATOM      5  O   UNL A   1      28.935  28.154  23.008  1.00  0.00    -0.269 OA
ATOM      6  H   UNL A   1      30.642  29.493  22.102  1.00  0.00     0.163 HD
BRANCH   4   7
ATOM      7  C   UNL A   1      30.502  26.609  23.825  1.00  0.00     0.039 A 
ATOM      8  C   UNL A   1      30.973  24.278  25.312  1.00  0.00     0.088 A 
ATOM      9  C   UNL A   1      30.665  25.469  25.972  1.00  0.00     0.023 A 
ATOM     10  C   UNL A   1      31.172  24.272  23.928  1.00  0.00     0.023 A 
ATOM     11  C   UNL A   1      30.400  26.619  25.226  1.00  0.00     0.015 A 
ATOM     12  C   UNL A   1      30.976  25.451  23.198  1.00  0.00     0.015 A 
BRANCH   8  13
ATOM     13  S   UNL A   1      31.184  22.790  26.277  1.00  0.00     0.270 S 
ATOM     14  O   UNL A   1      30.096  21.922  25.897  1.00  0.00    -0.201 OA
ATOM     15  O   UNL A   1      31.372  23.225  27.653  1.00  0.00    -0.201 OA
BRANCH  13  16
ATOM     16  N   UNL A   1      32.660  22.096  25.793  1.00  0.00    -0.202 N 
BRANCH  16  17
ATOM     17  C   UNL A   1      33.878  22.653  26.298  1.00  0.00     0.241 C 
ATOM     18  O   UNL A   1      34.027  22.918  27.488  1.00  0.00    -0.273 OA
BRANCH  17  19
ATOM     19  C   UNL A   1      35.001  22.991  25.324  1.00  0.00     0.101 C 
BRANCH  19  20
ATOM     20  C   UNL A   1      35.195  24.489  25.091  1.00  0.00     0.006 C 
ATOM     21  C   UNL A   1      34.201  25.327  25.884  1.00  0.00     0.004 C 
ENDBRANCH  19  20
ENDBRANCH  17  19
ENDBRANCH  16  17
BRANCH  16  22
ATOM     22  C   UNL A   1      32.684  20.796  25.181  1.00  0.00     0.070 A 
ATOM     23  C   UNL A   1      32.860  19.699  26.040  1.00  0.00     0.051 A 
ATOM     24  C   UNL A   1      32.520  20.603  23.770  1.00  0.00     0.010 A 
ATOM     25  C   UNL A   1      32.873  18.423  25.508  1.00  0.00     0.080 A 
ATOM     26  C   UNL A   1      32.419  19.276  23.269  1.00  0.00     0.028 A 
ATOM     27  C   UNL A   1      32.403  21.657  22.834  1.00  0.00     0.011 A 
ATOM     28  S   UNL A   1      33.129  16.909  26.350  1.00  0.00    -0.052 S 
ATOM     29  C   UNL A   1      32.635  18.214  24.156  1.00  0.00     0.157 A 
ATOM     30  C   UNL A   1      32.068  19.056  21.922  1.00  0.00     0.013 A 
ATOM     31  C   UNL A   1      32.045  21.421  21.503  1.00  0.00     0.001 A 
ATOM     32  C   UNL A   1      32.882  16.066  24.817  1.00  0.00     0.396 A 
ATOM     33  O   UNL A   1      32.616  16.883  23.722  1.00  0.00    -0.413 OA
ATOM     34  C   UNL A   1      31.845  20.122  21.056  1.00  0.00     0.001 A 
ATOM     35  O   UNL A   1      32.924  14.846  24.733  1.00  0.00    -0.233 OA
ENDBRANCH  16  22
ENDBRANCH  13  16
ENDBRANCH   8  13
ENDBRANCH   4   7
ENDBRANCH   2   3
ENDBRANCH   1   2
BRANCH   1  36
ATOM     36  C   UNL A   1      33.074  29.348  24.768  1.00  0.00     0.002 C 
BRANCH  36  37
ATOM     37  C   UNL A   1      32.466  28.878  26.097  1.00  0.00     0.002 C 
BRANCH  37  38
ATOM     38  C   UNL A   1      32.732  29.778  27.305  1.00  0.00     0.021 C 
BRANCH  38  39
ATOM     39  C   UNL A   1      34.200  30.151  27.493  1.00  0.00     0.116 C 
BRANCH  39  40
ATOM     40  N   UNL A   1      34.465  31.570  27.347  1.00  0.00    -0.352 N 
ATOM     41  C   UNL A   1      35.534  32.299  27.811  1.00  0.00     0.251 C 
ATOM     42  H   UNL A   1      33.788  32.080  26.847  1.00  0.00     0.163 HD
ATOM     43  O   UNL A   1      35.588  33.510  27.634  1.00  0.00    -0.269 OA
BRANCH  41  44
ATOM     44  C   UNL A   1      36.585  31.600  28.574  1.00  0.00     0.039 A 
ATOM     45  C   UNL A   1      36.740  31.832  29.944  1.00  0.00     0.014 A 
ATOM     46  C   UNL A   1      37.459  30.757  27.889  1.00  0.00     0.014 A 
ATOM     47  C   UNL A   1      37.850  31.329  30.608  1.00  0.00     0.010 A 
ATOM     48  C   UNL A   1      38.548  30.214  28.566  1.00  0.00     0.010 A 
ATOM     49  C   UNL A   1      38.755  30.515  29.923  1.00  0.00    -0.014 A 
BRANCH  49  50
ATOM     50  C   UNL A   1      39.762  29.824  30.747  1.00  0.00     0.031 A 
ATOM     51  C   UNL A   1      39.831  28.373  30.413  1.00  0.00     0.074 A 
ATOM     52  C   UNL A   1      40.832  30.452  31.283  1.00  0.00     0.049 A 
ATOM     53  N   UNL A   1      40.448  27.997  29.337  1.00  0.00    -0.248 NA
ATOM     54  C   UNL A   1      38.971  27.335  30.975  1.00  0.00     0.031 C 
ATOM     55  C   UNL A   1      41.410  31.689  30.739  1.00  0.00     0.029 A 
ATOM     56  N   UNL A   1      41.733  30.057  32.251  1.00  0.00    -0.354 N 
ATOM     57  C   UNL A   1      40.032  26.717  29.024  1.00  0.00     0.074 A 
ATOM     58  C   UNL A   1      39.137  26.334  30.089  1.00  0.00     0.031 C 
ATOM     59  C   UNL A   1      42.643  31.856  31.259  1.00  0.00     0.029 A 
ATOM     60  C   UNL A   1      42.897  30.826  32.269  1.00  0.00     0.049 A 
ATOM     61  H   UNL A   1      41.570  29.308  32.868  1.00  0.00     0.167 HD
ATOM     62  C   UNL A   1      40.507  26.089  27.909  1.00  0.00     0.037 A 
ATOM     63  C   UNL A   1      44.142  30.346  32.544  1.00  0.00     0.037 A 
ATOM     64  C   UNL A   1      41.466  26.845  27.130  1.00  0.00     0.049 A 
ATOM     65  C   UNL A   1      44.418  29.484  31.339  1.00  0.00     0.074 A 
ATOM     66  C   UNL A   1      41.722  27.234  25.835  1.00  0.00     0.029 A 
ATOM     67  N   UNL A   1      42.449  27.416  27.887  1.00  0.00    -0.354 N 
ATOM     68  N   UNL A   1      44.787  29.908  30.160  1.00  0.00    -0.248 NA
ATOM     69  C   UNL A   1      44.030  28.065  31.382  1.00  0.00     0.031 C 
ATOM     70  C   UNL A   1      42.853  28.128  25.880  1.00  0.00     0.029 A 
ATOM     71  C   UNL A   1      43.284  28.236  27.197  1.00  0.00     0.049 A 
ATOM     72  H   UNL A   1      42.545  27.247  28.852  1.00  0.00     0.167 HD
ATOM     73  C   UNL A   1      44.442  28.885  29.282  1.00  0.00     0.074 A 
ATOM     74  C   UNL A   1      44.160  27.727  30.105  1.00  0.00     0.031 C 
ATOM     75  C   UNL A   1      44.179  29.086  27.957  1.00  0.00     0.037 A 
BRANCH  62  76
ATOM     76  C   UNL A   1      40.388  24.631  27.689  1.00  0.00     0.058 A 
ATOM     77  C   UNL A   1      41.467  23.832  28.112  1.00  0.00     0.135 A 
ATOM     78  C   UNL A   1      39.374  24.024  26.945  1.00  0.00     0.135 A 
ATOM     79  F   UNL A   1      42.460  24.374  28.836  1.00  0.00    -0.206 F 
ATOM     80  C   UNL A   1      41.562  22.491  27.776  1.00  0.00     0.059 A 
ATOM     81  C   UNL A   1      39.443  22.671  26.602  1.00  0.00     0.059 A 
ATOM     82  F   UNL A   1      38.327  24.744  26.513  1.00  0.00    -0.206 F 
ATOM     83  C   UNL A   1      40.551  21.919  27.007  1.00  0.00     0.060 A 
BRANCH  83  84
ATOM     84  S   UNL A   1      40.731  20.186  26.533  1.00  0.00     0.124 S 
ATOM     85  O   UNL A   1      41.951  20.215  25.732  1.00  0.00    -0.237 OA
ATOM     86  O   UNL A   1      40.841  19.529  27.832  1.00  0.00    -0.237 OA
ATOM     87  O   UNL A   1      39.504  19.905  25.795  1.00  0.00    -0.744 OA
ENDBRANCH  83  84
ENDBRANCH  62  76
BRANCH  63  88
ATOM     88  C   UNL A   1      44.448  29.917  33.947  1.00  0.00     0.058 A 
ATOM     89  C   UNL A   1      45.698  30.248  34.513  1.00  0.00     0.135 A 
ATOM     90  C   UNL A   1      43.596  29.152  34.763  1.00  0.00     0.135 A 
ATOM     91  F   UNL A   1      46.645  30.841  33.768  1.00  0.00    -0.206 F 
ATOM     92  C   UNL A   1      46.010  29.984  35.847  1.00  0.00     0.059 A 
ATOM     93  C   UNL A   1      43.866  28.911  36.111  1.00  0.00     0.059 A 
ATOM     94  F   UNL A   1      42.468  28.619  34.279  1.00  0.00    -0.206 F 
ATOM     95  C   UNL A   1      45.063  29.360  36.653  1.00  0.00     0.060 A 
BRANCH  95  96
ATOM     96  S   UNL A   1      45.391  29.212  38.422  1.00  0.00     0.124 S 
ATOM     97  O   UNL A   1      44.343  30.048  38.995  1.00  0.00    -0.237 OA
ATOM     98  O   UNL A   1      45.245  27.774  38.631  1.00  0.00    -0.237 OA
ATOM     99  O   UNL A   1      46.751  29.722  38.558  1.00  0.00    -0.744 OA
ENDBRANCH  95  96
ENDBRANCH  63  88
BRANCH  75 100
ATOM    100  C   UNL A   1      44.766  30.311  27.362  1.00  0.00     0.058 A 
ATOM    101  C   UNL A   1      43.987  31.478  27.317  1.00  0.00     0.135 A 
ATOM    102  C   UNL A   1      46.091  30.381  26.912  1.00  0.00     0.135 A 
ATOM    103  F   UNL A   1      42.720  31.466  27.762  1.00  0.00    -0.206 F 
ATOM    104  C   UNL A   1      44.507  32.679  26.864  1.00  0.00     0.059 A 
ATOM    105  C   UNL A   1      46.639  31.584  26.470  1.00  0.00     0.059 A 
ATOM    106  F   UNL A   1      46.878  29.293  26.917  1.00  0.00    -0.206 F 
ATOM    107  C   UNL A   1      45.840  32.729  26.461  1.00  0.00     0.060 A 
BRANCH 107 108
ATOM    108  S   UNL A   1      46.525  34.334  26.012  1.00  0.00     0.124 S 
ATOM    109  O   UNL A   1      45.750  34.676  24.824  1.00  0.00    -0.237 OA
ATOM    110  O   UNL A   1      46.243  35.132  27.203  1.00  0.00    -0.237 OA
ATOM    111  O   UNL A   1      47.938  34.050  25.778  1.00  0.00    -0.744 OA
ENDBRANCH 107 108
ENDBRANCH  75 100
ENDBRANCH  49  50
ENDBRANCH  41  44
ENDBRANCH  39  40
ENDBRANCH  38  39
ENDBRANCH  37  38
ENDBRANCH  36  37
ENDBRANCH   1  36
TORSDOF 22
ENDMDL
MODEL 2
REMARK VINA RESULT:     -11.6      1.878      2.801
REMARK SMILES CCCC(=O)N(c1cc2sc(=O)oc2c2ccccc12)S(=O)(=O)c1ccc(C(=O)NCCCCCCNC(=O)c2ccc(-c3c4nc(c(-c5c(F)cc(S(=O)(=O)[O-])cc5F)c5ccc([nH]5)c(-c5c(F)cc(S(=O)(=O)[O-])cc5F)c5nc(c(-c6c(F)cc(S(=O)(=O)[O-])cc6F)c6ccc3[nH]6)C=C5)C=C4)cc2)cc1
REMARK SMILES IDX 32 1 31 2 30 3 28 4 29 5 27 7 24 8 25 9 107 10 26 11 106 12
REMARK SMILES IDX 21 13 22 14 23 15 6 16 4 17 5 18 3 19 2 20 1 21 7 22 8 23
REMARK SMILES IDX 20 24 9 25 15 26 19 27 10 28 14 29 16 30 18 31 11 32 13 33
REMARK SMILES IDX 17 34 12 35 33 36 34 37 35 38 36 39 37 40 38 41 39 43 40 44
REMARK SMILES IDX 41 45 105 46 42 47 104 48 43 49 44 50 45 51 98 52 46 53
REMARK SMILES IDX 103 54 97 55 99 56 47 57 102 58 96 59 95 60 48 62 82 63
REMARK SMILES IDX 61 64 81 65 62 66 65 67 80 68 100 69 63 70 64 71 79 73
REMARK SMILES IDX 101 74 66 75 49 76 50 77 59 78 51 79 52 80 58 81 60 82 53 83
REMARK SMILES IDX 54 84 55 85 56 86 57 87 83 88 84 89 93 90 85 91 86 92 92 93
REMARK SMILES IDX 94 94 87 95 88 96 89 97 90 98 91 99 67 100 68 101 77 102
REMARK SMILES IDX 69 103 70 104 76 105 78 106 71 107 72 108 73 109 74 110
REMARK SMILES IDX 75 111
REMARK H PARENT 30 6 37 42 99 61 65 72
REMARK Flexibility Score: inf
ROOT
ATOM      1  C   UNL A   1      31.669  29.196  26.562  1.00  0.00     0.021 C 
ENDROOT
BRANCH   1   2
ATOM      2  C   UNL A   1      31.898  29.120  25.058  1.00  0.00     0.116 C 
BRANCH   2   3
ATOM      3  N   UNL A   1      30.665  29.169  24.297  1.00  0.00    -0.352 N 
ATOM      4  C   UNL A   1      30.041  28.250  23.494  1.00  0.00     0.251 C 
ATOM      5  O   UNL A   1      29.026  28.608  22.894  1.00  0.00    -0.269 OA
ATOM      6  H   UNL A   1      30.185  30.024  24.372  1.00  0.00     0.163 HD
BRANCH   4   7
ATOM      7  C   UNL A   1      30.567  26.875  23.257  1.00  0.00     0.039 A 
ATOM      8  C   UNL A   1      31.801  24.379  22.918  1.00  0.00     0.088 A 
ATOM      9  C   UNL A   1      32.441  25.534  22.463  1.00  0.00     0.023 A 
ATOM     10  C   UNL A   1      30.499  24.448  23.422  1.00  0.00     0.023 A 
ATOM     11  C   UNL A   1      31.837  26.777  22.665  1.00  0.00     0.015 A 
ATOM     12  C   UNL A   1      29.874  25.695  23.549  1.00  0.00     0.015 A 
BRANCH   8  13
ATOM     13  S   UNL A   1      32.646  22.813  22.766  1.00  0.00     0.270 S 
ATOM     14  O   UNL A   1      33.898  23.108  22.111  1.00  0.00    -0.201 OA
ATOM     15  O   UNL A   1      31.681  21.888  22.191  1.00  0.00    -0.201 OA
BRANCH  13  16
ATOM     16  N   UNL A   1      32.947  22.262  24.347  1.00  0.00    -0.202 N 
BRANCH  16  17
ATOM     17  C   UNL A   1      32.171  22.802  25.422  1.00  0.00     0.241 C 
ATOM     18  O   UNL A   1      30.956  22.632  25.495  1.00  0.00    -0.273 OA
BRANCH  17  19
ATOM     19  C   UNL A   1      32.855  23.670  26.470  1.00  0.00     0.101 C 
BRANCH  19  20
ATOM     20  C   UNL A   1      33.065  25.121  26.040  1.00  0.00     0.006 C 
ATOM     21  C   UNL A   1      34.444  25.347  25.435  1.00  0.00     0.004 C 
ENDBRANCH  19  20
ENDBRANCH  17  19
ENDBRANCH  16  17
BRANCH  16  22
ATOM     22  C   UNL A   1      33.705  21.060  24.564  1.00  0.00     0.070 A 
ATOM     23  C   UNL A   1      32.993  19.850  24.516  1.00  0.00     0.051 A 
ATOM     24  C   UNL A   1      35.118  21.069  24.802  1.00  0.00     0.010 A 
ATOM     25  C   UNL A   1      33.674  18.662  24.700  1.00  0.00     0.080 A 
ATOM     26  C   UNL A   1      35.808  19.828  24.868  1.00  0.00     0.028 A 
ATOM     27  C   UNL A   1      35.893  22.247  24.928  1.00  0.00     0.011 A 
ATOM     28  S   UNL A   1      33.014  17.039  24.741  1.00  0.00    -0.052 S 
ATOM     29  C   UNL A   1      35.054  18.648  24.850  1.00  0.00     0.157 A 
ATOM     30  C   UNL A   1      37.217  19.806  24.909  1.00  0.00     0.013 A 
ATOM     31  C   UNL A   1      37.290  22.206  24.958  1.00  0.00     0.001 A 
ATOM     32  C   UNL A   1      34.658  16.424  24.944  1.00  0.00     0.396 A 
ATOM     33  O   UNL A   1      35.659  17.392  24.977  1.00  0.00    -0.413 OA
ATOM     34  C   UNL A   1      37.953  20.987  24.915  1.00  0.00     0.001 A 
ATOM     35  O   UNL A   1      34.897  15.227  25.031  1.00  0.00    -0.233 OA
ENDBRANCH  16  22
ENDBRANCH  13  16
ENDBRANCH   8  13
ENDBRANCH   4   7
ENDBRANCH   2   3
ENDBRANCH   1   2
BRANCH   1  36
ATOM     36  C   UNL A   1      32.635  28.382  27.430  1.00  0.00     0.002 C 
BRANCH  36  37
ATOM     37  C   UNL A   1      34.130  28.530  27.110  1.00  0.00     0.002 C 
BRANCH  37  38
ATOM     38  C   UNL A   1      34.903  29.516  27.987  1.00  0.00     0.021 C 
BRANCH  38  39
ATOM     39  C   UNL A   1      35.248  30.831  27.293  1.00  0.00     0.116 C 
BRANCH  39  40
ATOM     40  N   UNL A   1      34.690  32.000  27.946  1.00  0.00    -0.352 N 
ATOM     41  C   UNL A   1      35.097  32.615  29.106  1.00  0.00     0.251 C 
ATOM     42  H   UNL A   1      33.916  32.409  27.496  1.00  0.00     0.163 HD
ATOM     43  O   UNL A   1      34.487  33.582  29.548  1.00  0.00    -0.269 OA
BRANCH  41  44
ATOM     44  C   UNL A   1      36.248  32.051  29.836  1.00  0.00     0.039 A 
ATOM     45  C   UNL A   1      36.064  31.405  31.062  1.00  0.00     0.014 A 
ATOM     46  C   UNL A   1      37.526  32.235  29.310  1.00  0.00     0.014 A 
ATOM     47  C   UNL A   1      37.164  31.059  31.833  1.00  0.00     0.010 A 
ATOM     48  C   UNL A   1      38.631  31.846  30.063  1.00  0.00     0.010 A 
ATOM     49  C   UNL A   1      38.451  31.274  31.334  1.00  0.00    -0.014 A 
BRANCH  49  50
ATOM     50  C   UNL A   1      39.555  30.661  32.095  1.00  0.00     0.031 A 
ATOM     51  C   UNL A   1      39.868  29.296  31.587  1.00  0.00     0.074 A 
ATOM     52  C   UNL A   1      40.500  31.385  32.734  1.00  0.00     0.049 A 
ATOM     53  N   UNL A   1      40.547  29.166  30.490  1.00  0.00    -0.248 NA
ATOM     54  C   UNL A   1      39.191  28.067  31.993  1.00  0.00     0.031 C 
ATOM     55  C   UNL A   1      40.866  32.759  32.362  1.00  0.00     0.029 A 
ATOM     56  N   UNL A   1      41.447  31.026  33.671  1.00  0.00    -0.354 N 
ATOM     57  C   UNL A   1      40.355  27.884  30.011  1.00  0.00     0.074 A 
ATOM     58  C   UNL A   1      39.528  27.227  30.996  1.00  0.00     0.031 C 
ATOM     59  C   UNL A   1      42.050  33.061  32.934  1.00  0.00     0.029 A 
ATOM     60  C   UNL A   1      42.467  31.969  33.816  1.00  0.00     0.049 A 
ATOM     61  H   UNL A   1      41.409  30.189  34.186  1.00  0.00     0.167 HD
ATOM     62  C   UNL A   1      40.936  27.489  28.841  1.00  0.00     0.037 A 
ATOM     63  C   UNL A   1      43.772  31.671  34.064  1.00  0.00     0.037 A 
ATOM     64  C   UNL A   1      41.760  28.485  28.188  1.00  0.00     0.049 A 
ATOM     65  C   UNL A   1      44.198  31.025  32.771  1.00  0.00     0.074 A 
ATOM     66  C   UNL A   1      41.956  29.071  26.959  1.00  0.00     0.029 A 
ATOM     67  N   UNL A   1      42.627  29.112  29.037  1.00  0.00    -0.354 N 
ATOM     68  N   UNL A   1      44.499  31.650  31.663  1.00  0.00    -0.248 NA
ATOM     69  C   UNL A   1      44.052  29.568  32.628  1.00  0.00     0.031 C 
ATOM     70  C   UNL A   1      42.921  30.127  27.145  1.00  0.00     0.029 A 
ATOM     71  C   UNL A   1      43.318  30.138  28.477  1.00  0.00     0.049 A 
ATOM     72  H   UNL A   1      42.744  28.841  29.976  1.00  0.00     0.167 HD
ATOM     73  C   UNL A   1      44.335  30.702  30.657  1.00  0.00     0.074 A 
ATOM     74  C   UNL A   1      44.246  29.420  31.324  1.00  0.00     0.031 C 
ATOM     75  C   UNL A   1      44.052  31.022  29.360  1.00  0.00     0.037 A 
BRANCH  62  76
ATOM     76  C   UNL A   1      41.065  26.071  28.440  1.00  0.00     0.058 A 
ATOM     77  C   UNL A   1      42.243  25.404  28.824  1.00  0.00     0.135 A 
ATOM     78  C   UNL A   1      40.192  25.413  27.571  1.00  0.00     0.135 A 
ATOM     79  F   UNL A   1      43.106  25.998  29.665  1.00  0.00    -0.206 F 
ATOM     80  C   UNL A   1      42.568  24.149  28.335  1.00  0.00     0.059 A 
ATOM     81  C   UNL A   1      40.493  24.143  27.072  1.00  0.00     0.059 A 
ATOM     82  F   UNL A   1      39.058  26.008  27.170  1.00  0.00    -0.206 F 
ATOM     83  C   UNL A   1      41.694  23.529  27.446  1.00  0.00     0.060 A 
BRANCH  83  84
ATOM     84  S   UNL A   1      42.172  21.921  26.778  1.00  0.00     0.124 S 
ATOM     85  O   UNL A   1      43.599  22.105  26.535  1.00  0.00    -0.237 OA
ATOM     86  O   UNL A   1      41.825  21.024  27.876  1.00  0.00    -0.237 OA
ATOM     87  O   UNL A   1      41.346  21.790  25.582  1.00  0.00    -0.744 OA
ENDBRANCH  83  84
ENDBRANCH  62  76
BRANCH  63  88
ATOM     88  C   UNL A   1      44.136  31.126  35.412  1.00  0.00     0.058 A 
ATOM     89  C   UNL A   1      43.662  29.852  35.793  1.00  0.00     0.135 A 
ATOM     90  C   UNL A   1      44.894  31.805  36.382  1.00  0.00     0.135 A 
ATOM     91  F   UNL A   1      42.802  29.185  35.005  1.00  0.00    -0.206 F 
ATOM     92  C   UNL A   1      44.050  29.232  36.980  1.00  0.00     0.059 A 
ATOM     93  C   UNL A   1      45.331  31.192  37.557  1.00  0.00     0.059 A 
ATOM     94  F   UNL A   1      45.242  33.088  36.216  1.00  0.00    -0.206 F 
ATOM     95  C   UNL A   1      44.930  29.892  37.832  1.00  0.00     0.060 A 
BRANCH  95  96
ATOM     96  S   UNL A   1      45.591  29.001  39.257  1.00  0.00     0.124 S 
ATOM     97  O   UNL A   1      46.978  28.788  38.864  1.00  0.00    -0.237 OA
ATOM     98  O   UNL A   1      45.374  29.963  40.334  1.00  0.00    -0.237 OA
ATOM     99  O   UNL A   1      44.761  27.802  39.322  1.00  0.00    -0.744 OA
ENDBRANCH  95  96
ENDBRANCH  63  88
BRANCH  75 100
ATOM    100  C   UNL A   1      44.430  32.393  28.937  1.00  0.00     0.058 A 
ATOM    101  C   UNL A   1      45.723  32.610  28.436  1.00  0.00     0.135 A 
ATOM    102  C   UNL A   1      43.531  33.467  28.940  1.00  0.00     0.135 A 
ATOM    103  F   UNL A   1      46.612  31.604  28.388  1.00  0.00    -0.206 F 
ATOM    104  C   UNL A   1      46.108  33.842  27.933  1.00  0.00     0.059 A 
ATOM    105  C   UNL A   1      43.892  34.710  28.421  1.00  0.00     0.059 A 
ATOM    106  F   UNL A   1      42.286  33.322  29.421  1.00  0.00    -0.206 F 
ATOM    107  C   UNL A   1      45.180  34.882  27.910  1.00  0.00     0.060 A 
BRANCH 107 108
ATOM    108  S   UNL A   1      45.666  36.428  27.123  1.00  0.00     0.124 S 
ATOM    109  O   UNL A   1      46.544  37.020  28.127  1.00  0.00    -0.237 OA
ATOM    110  O   UNL A   1      46.322  35.959  25.905  1.00  0.00    -0.237 OA
ATOM    111  O   UNL A   1      44.397  37.120  26.914  1.00  0.00    -0.744 OA
ENDBRANCH 107 108
ENDBRANCH  75 100
ENDBRANCH  49  50
ENDBRANCH  41  44
ENDBRANCH  39  40
ENDBRANCH  38  39
ENDBRANCH  37  38
ENDBRANCH  36  37
ENDBRANCH   1  36
TORSDOF 22
ENDMDL
MODEL 3
REMARK VINA RESULT:     -11.0      3.850      5.788
REMARK SMILES CCCC(=O)N(c1cc2sc(=O)oc2c2ccccc12)S(=O)(=O)c1ccc(C(=O)NCCCCCCNC(=O)c2ccc(-c3c4nc(c(-c5c(F)cc(S(=O)(=O)[O-])cc5F)c5ccc([nH]5)c(-c5c(F)cc(S(=O)(=O)[O-])cc5F)c5nc(c(-c6c(F)cc(S(=O)(=O)[O-])cc6F)c6ccc3[nH]6)C=C5)C=C4)cc2)cc1
REMARK SMILES IDX 32 1 31 2 30 3 28 4 29 5 27 7 24 8 25 9 107 10 26 11 106 12
REMARK SMILES IDX 21 13 22 14 23 15 6 16 4 17 5 18 3 19 2 20 1 21 7 22 8 23
REMARK SMILES IDX 20 24 9 25 15 26 19 27 10 28 14 29 16 30 18 31 11 32 13 33
REMARK SMILES IDX 17 34 12 35 33 36 34 37 35 38 36 39 37 40 38 41 39 43 40 44
REMARK SMILES IDX 41 45 105 46 42 47 104 48 43 49 44 50 45 51 98 52 46 53
REMARK SMILES IDX 103 54 97 55 99 56 47 57 102 58 96 59 95 60 48 62 82 63
REMARK SMILES IDX 61 64 81 65 62 66 65 67 80 68 100 69 63 70 64 71 79 73
REMARK SMILES IDX 101 74 66 75 49 76 50 77 59 78 51 79 52 80 58 81 60 82 53 83
REMARK SMILES IDX 54 84 55 85 56 86 57 87 83 88 84 89 93 90 85 91 86 92 92 93
REMARK SMILES IDX 94 94 87 95 88 96 89 97 90 98 91 99 67 100 68 101 77 102
REMARK SMILES IDX 69 103 70 104 76 105 78 106 71 107 72 108 73 109 74 110
REMARK SMILES IDX 75 111
REMARK H PARENT 30 6 37 42 99 61 65 72
REMARK Flexibility Score: inf
ROOT
ATOM      1  C   UNL A   1      37.389  30.285  28.349  1.00  0.00     0.021 C 
ENDROOT
BRANCH   1   2
ATOM      2  C   UNL A   1      36.399  30.070  27.212  1.00  0.00     0.116 C 
BRANCH   2   3
ATOM      3  N   UNL A   1      35.167  30.814  27.389  1.00  0.00    -0.352 N 
ATOM      4  C   UNL A   1      33.849  30.448  27.299  1.00  0.00     0.251 C 
ATOM      5  O   UNL A   1      33.000  31.332  27.417  1.00  0.00    -0.269 OA
ATOM      6  H   UNL A   1      35.303  31.760  27.618  1.00  0.00     0.163 HD
BRANCH   4   7
ATOM      7  C   UNL A   1      33.401  29.059  26.995  1.00  0.00     0.039 A 
ATOM      8  C   UNL A   1      32.328  26.560  26.311  1.00  0.00     0.088 A 
ATOM      9  C   UNL A   1      31.540  27.486  26.998  1.00  0.00     0.023 A 
ATOM     10  C   UNL A   1      33.681  26.822  26.078  1.00  0.00     0.023 A 
ATOM     11  C   UNL A   1      32.069  28.740  27.306  1.00  0.00     0.015 A 
ATOM     12  C   UNL A   1      34.220  28.057  26.460  1.00  0.00     0.015 A 
BRANCH   8  13
ATOM     13  S   UNL A   1      31.594  25.009  25.813  1.00  0.00     0.270 S 
ATOM     14  O   UNL A   1      30.247  25.329  25.406  1.00  0.00    -0.201 OA
ATOM     15  O   UNL A   1      31.865  24.069  26.890  1.00  0.00    -0.201 OA
BRANCH  13  16
ATOM     16  N   UNL A   1      32.477  24.457  24.468  1.00  0.00    -0.202 N 
BRANCH  16  17
ATOM     17  C   UNL A   1      32.332  25.144  23.221  1.00  0.00     0.241 C 
ATOM     18  O   UNL A   1      33.281  25.315  22.459  1.00  0.00    -0.273 OA
BRANCH  17  19
ATOM     19  C   UNL A   1      30.980  25.743  22.855  1.00  0.00     0.101 C 
BRANCH  19  20
ATOM     20  C   UNL A   1      31.059  27.148  22.259  1.00  0.00     0.006 C 
ATOM     21  C   UNL A   1      31.124  28.224  23.334  1.00  0.00     0.004 C 
ENDBRANCH  19  20
ENDBRANCH  17  19
ENDBRANCH  16  17
BRANCH  16  22
ATOM     22  C   UNL A   1      33.584  23.556  24.648  1.00  0.00     0.070 A 
ATOM     23  C   UNL A   1      34.797  24.127  25.067  1.00  0.00     0.051 A 
ATOM     24  C   UNL A   1      33.474  22.144  24.434  1.00  0.00     0.010 A 
ATOM     25  C   UNL A   1      35.890  23.306  25.273  1.00  0.00     0.080 A 
ATOM     26  C   UNL A   1      34.579  21.314  24.768  1.00  0.00     0.028 A 
ATOM     27  C   UNL A   1      32.308  21.504  23.952  1.00  0.00     0.011 A 
ATOM     28  S   UNL A   1      37.513  23.773  25.736  1.00  0.00    -0.052 S 
ATOM     29  C   UNL A   1      35.779  21.928  25.148  1.00  0.00     0.157 A 
ATOM     30  C   UNL A   1      34.438  19.911  24.751  1.00  0.00     0.013 A 
ATOM     31  C   UNL A   1      32.182  20.111  23.951  1.00  0.00     0.001 A 
ATOM     32  C   UNL A   1      37.953  22.062  25.754  1.00  0.00     0.396 A 
ATOM     33  O   UNL A   1      36.927  21.178  25.429  1.00  0.00    -0.413 OA
ATOM     34  C   UNL A   1      33.235  19.316  24.382  1.00  0.00     0.001 A 
ATOM     35  O   UNL A   1      39.078  21.684  26.050  1.00  0.00    -0.233 OA
ENDBRANCH  16  22
ENDBRANCH  13  16
ENDBRANCH   8  13
ENDBRANCH   4   7
ENDBRANCH   2   3
ENDBRANCH   1   2
BRANCH   1  36
ATOM     36  C   UNL A   1      38.751  29.598  28.194  1.00  0.00     0.002 C 
BRANCH  36  37
ATOM     37  C   UNL A   1      39.119  28.565  29.268  1.00  0.00     0.002 C 
BRANCH  37  38
ATOM     38  C   UNL A   1      38.227  28.550  30.510  1.00  0.00     0.021 C 
BRANCH  38  39
ATOM     39  C   UNL A   1      38.825  27.802  31.698  1.00  0.00     0.116 C 
BRANCH  39  40
ATOM     40  N   UNL A   1      38.899  28.595  32.911  1.00  0.00    -0.352 N 
ATOM     41  C   UNL A   1      39.970  28.787  33.751  1.00  0.00     0.251 C 
ATOM     42  H   UNL A   1      38.069  29.059  33.166  1.00  0.00     0.163 HD
ATOM     43  O   UNL A   1      39.853  29.464  34.767  1.00  0.00    -0.269 OA
BRANCH  41  44
ATOM     44  C   UNL A   1      41.244  28.117  33.433  1.00  0.00     0.039 A 
ATOM     45  C   UNL A   1      41.799  27.190  34.320  1.00  0.00     0.014 A 
ATOM     46  C   UNL A   1      41.913  28.475  32.263  1.00  0.00     0.014 A 
ATOM     47  C   UNL A   1      43.087  26.719  34.111  1.00  0.00     0.010 A 
ATOM     48  C   UNL A   1      43.188  27.967  32.029  1.00  0.00     0.010 A 
ATOM     49  C   UNL A   1      43.784  27.102  32.962  1.00  0.00    -0.014 A 
BRANCH  49  50
ATOM     50  C   UNL A   1      45.036  26.374  32.687  1.00  0.00     0.031 A 
ATOM     51  C   UNL A   1      44.819  25.283  31.695  1.00  0.00     0.074 A 
ATOM     52  C   UNL A   1      46.258  26.929  32.835  1.00  0.00     0.049 A 
ATOM     53  N   UNL A   1      44.712  25.580  30.437  1.00  0.00    -0.248 NA
ATOM     54  C   UNL A   1      44.355  23.934  32.009  1.00  0.00     0.031 C 
ATOM     55  C   UNL A   1      46.510  28.376  32.774  1.00  0.00     0.029 A 
ATOM     56  N   UNL A   1      47.519  26.369  32.862  1.00  0.00    -0.354 N 
ATOM     57  C   UNL A   1      44.116  24.514  29.791  1.00  0.00     0.074 A 
ATOM     58  C   UNL A   1      43.941  23.500  30.803  1.00  0.00     0.031 C 
ATOM     59  C   UNL A   1      47.832  28.578  32.599  1.00  0.00     0.029 A 
ATOM     60  C   UNL A   1      48.542  27.299  32.667  1.00  0.00     0.049 A 
ATOM     61  H   UNL A   1      47.682  25.409  33.006  1.00  0.00     0.167 HD
ATOM     62  C   UNL A   1      43.853  24.576  28.453  1.00  0.00     0.037 A 
ATOM     63  C   UNL A   1      49.698  27.053  31.991  1.00  0.00     0.037 A 
ATOM     64  C   UNL A   1      44.262  25.800  27.795  1.00  0.00     0.049 A 
ATOM     65  C   UNL A   1      49.207  26.906  30.574  1.00  0.00     0.074 A 
ATOM     66  C   UNL A   1      43.779  26.771  26.948  1.00  0.00     0.029 A 
ATOM     67  N   UNL A   1      45.531  26.189  28.114  1.00  0.00    -0.354 N 
ATOM     68  N   UNL A   1      48.884  27.883  29.768  1.00  0.00    -0.248 NA
ATOM     69  C   UNL A   1      48.823  25.569  30.095  1.00  0.00     0.031 C 
ATOM     70  C   UNL A   1      44.796  27.789  26.851  1.00  0.00     0.029 A 
ATOM     71  C   UNL A   1      45.891  27.399  27.613  1.00  0.00     0.049 A 
ATOM     72  H   UNL A   1      46.137  25.637  28.660  1.00  0.00     0.167 HD
ATOM     73  C   UNL A   1      48.048  27.306  28.817  1.00  0.00     0.074 A 
ATOM     74  C   UNL A   1      48.201  25.874  28.962  1.00  0.00     0.031 C 
ATOM     75  C   UNL A   1      47.107  28.006  28.117  1.00  0.00     0.037 A 
BRANCH  62  76
ATOM     76  C   UNL A   1      43.544  23.385  27.632  1.00  0.00     0.058 A 
ATOM     77  C   UNL A   1      42.333  22.722  27.901  1.00  0.00     0.135 A 
ATOM     78  C   UNL A   1      44.439  22.783  26.745  1.00  0.00     0.135 A 
ATOM     79  F   UNL A   1      41.440  23.270  28.742  1.00  0.00    -0.206 F 
ATOM     80  C   UNL A   1      42.034  21.488  27.346  1.00  0.00     0.059 A 
ATOM     81  C   UNL A   1      44.155  21.544  26.164  1.00  0.00     0.059 A 
ATOM     82  F   UNL A   1      45.611  23.373  26.459  1.00  0.00    -0.206 F 
ATOM     83  C   UNL A   1      42.958  20.897  26.487  1.00  0.00     0.060 A 
BRANCH  83  84
ATOM     84  S   UNL A   1      42.568  19.262  25.827  1.00  0.00     0.124 S 
ATOM     85  O   UNL A   1      43.334  19.246  24.584  1.00  0.00    -0.237 OA
ATOM     86  O   UNL A   1      43.058  18.385  26.886  1.00  0.00    -0.237 OA
ATOM     87  O   UNL A   1      41.118  19.296  25.667  1.00  0.00    -0.744 OA
ENDBRANCH  83  84
ENDBRANCH  62  76
BRANCH  63  88
ATOM     88  C   UNL A   1      50.705  26.131  32.609  1.00  0.00     0.058 A 
ATOM     89  C   UNL A   1      50.677  25.913  34.003  1.00  0.00     0.135 A 
ATOM     90  C   UNL A   1      51.737  25.476  31.914  1.00  0.00     0.135 A 
ATOM     91  F   UNL A   1      49.833  26.609  34.782  1.00  0.00    -0.206 F 
ATOM     92  C   UNL A   1      51.506  24.984  34.634  1.00  0.00     0.059 A 
ATOM     93  C   UNL A   1      52.550  24.512  32.511  1.00  0.00     0.059 A 
ATOM     94  F   UNL A   1      51.984  25.746  30.626  1.00  0.00    -0.206 F 
ATOM     95  C   UNL A   1      52.404  24.249  33.867  1.00  0.00     0.060 A 
BRANCH  95  96
ATOM     96  S   UNL A   1      53.320  22.906  34.653  1.00  0.00     0.124 S 
ATOM     97  O   UNL A   1      53.965  22.271  33.510  1.00  0.00    -0.237 OA
ATOM     98  O   UNL A   1      54.203  23.639  35.557  1.00  0.00    -0.237 OA
ATOM     99  O   UNL A   1      52.277  22.122  35.306  1.00  0.00    -0.744 OA
ENDBRANCH  95  96
ENDBRANCH  63  88
BRANCH  75 100
ATOM    100  C   UNL A   1      47.337  29.468  28.011  1.00  0.00     0.058 A 
ATOM    101  C   UNL A   1      48.285  29.934  27.085  1.00  0.00     0.135 A 
ATOM    102  C   UNL A   1      46.599  30.412  28.735  1.00  0.00     0.135 A 
ATOM    103  F   UNL A   1      48.998  29.067  26.348  1.00  0.00    -0.206 F 
ATOM    104  C   UNL A   1      48.479  31.288  26.866  1.00  0.00     0.059 A 
ATOM    105  C   UNL A   1      46.765  31.779  28.517  1.00  0.00     0.059 A 
ATOM    106  F   UNL A   1      45.690  30.024  29.645  1.00  0.00    -0.206 F 
ATOM    107  C   UNL A   1      47.700  32.205  27.572  1.00  0.00     0.060 A 
BRANCH 107 108
ATOM    108  S   UNL A   1      47.876  33.950  27.163  1.00  0.00     0.124 S 
ATOM    109  O   UNL A   1      47.400  33.991  25.785  1.00  0.00    -0.237 OA
ATOM    110  O   UNL A   1      47.010  34.586  28.152  1.00  0.00    -0.237 OA
ATOM    111  O   UNL A   1      49.304  34.201  27.339  1.00  0.00    -0.744 OA
ENDBRANCH 107 108
ENDBRANCH  75 100
ENDBRANCH  49  50
ENDBRANCH  41  44
ENDBRANCH  39  40
ENDBRANCH  38  39
ENDBRANCH  37  38
ENDBRANCH  36  37
ENDBRANCH   1  36
TORSDOF 22
ENDMDL
