MODEL 1
REMARK VINA RESULT:     -11.9      0.000      0.000
REMARK SMILES O=C(NCCCCCCNC(=O)c1ccccc1-c1ccc(/C=C2/SC(=S)N(Cc3ccccc3)C2=O)o1)c1ccc(-c2c3nc(c(-c4c(F)cc(S(=O)(=O)[O-])cc4F)c4ccc([nH]4)c(-c4c(F)cc(S(=O)(=O)[O-])cc4F)c4nc(c(-c5c(F)cc(S(=O)(=O)[O-])cc5F)c5ccc2[nH]5)C=C4)C=C3)cc1
REMARK SMILES IDX 7 1 6 2 5 3 4 4 3 5 1 6 2 7 39 9 40 10 104 11 41 12 103 13
REMARK SMILES IDX 42 14 43 15 44 16 97 17 45 18 102 19 96 20 98 21 46 22
REMARK SMILES IDX 101 23 95 24 94 25 47 27 81 28 60 29 80 30 61 31 64 32 79 33
REMARK SMILES IDX 99 34 62 35 63 36 78 38 100 39 65 40 48 41 49 42 58 43 50 44
REMARK SMILES IDX 51 45 57 46 59 47 52 48 53 49 54 50 55 51 56 52 82 53 83 54
REMARK SMILES IDX 92 55 84 56 85 57 91 58 93 59 86 60 87 61 88 62 89 63 90 64
REMARK SMILES IDX 66 65 67 66 76 67 68 68 69 69 75 70 77 71 70 72 71 73 72 74
REMARK SMILES IDX 73 75 74 76 8 77 9 78 10 79 11 80 12 82 13 83 14 84 18 85
REMARK SMILES IDX 15 86 17 87 16 88 19 89 20 90 38 91 21 92 22 93 23 94 24 95
REMARK SMILES IDX 25 96 36 97 26 98 28 99 37 100 27 101 29 102 30 103 31 104
REMARK SMILES IDX 35 105 32 106 34 107 33 108
REMARK H PARENT 3 8 98 26 64 37 10 81
REMARK Flexibility Score: inf
ROOT
ATOM      1  C   UNL A   1      35.314  29.972  27.453  1.00  0.00     0.002 C 
ENDROOT
BRANCH   1   2
ATOM      2  C   UNL A   1      34.277  31.073  27.705  1.00  0.00     0.002 C 
BRANCH   2   3
ATOM      3  C   UNL A   1      34.749  32.233  28.577  1.00  0.00     0.021 C 
BRANCH   3   4
ATOM      4  C   UNL A   1      36.042  31.994  29.338  1.00  0.00     0.116 C 
BRANCH   4   5
ATOM      5  N   UNL A   1      35.839  31.317  30.608  1.00  0.00    -0.352 N 
ATOM      6  O   UNL A   1      36.234  29.813  32.240  1.00  0.00    -0.269 OA
ATOM      7  C   UNL A   1      36.632  30.380  31.228  1.00  0.00     0.251 C 
ATOM      8  H   UNL A   1      35.017  31.562  31.091  1.00  0.00     0.163 HD
BRANCH   7   9
ATOM      9  C   UNL A   1      37.955  30.041  30.654  1.00  0.00     0.039 A 
ATOM     10  C   UNL A   1      39.027  29.713  31.486  1.00  0.00     0.014 A 
ATOM     11  C   UNL A   1      38.126  30.055  29.267  1.00  0.00     0.014 A 
ATOM     12  C   UNL A   1      40.297  29.554  30.947  1.00  0.00     0.010 A 
ATOM     13  C   UNL A   1      39.384  29.786  28.718  1.00  0.00     0.010 A 
ATOM     14  C   UNL A   1      40.487  29.556  29.555  1.00  0.00    -0.014 A 
BRANCH  14  15
ATOM     15  C   UNL A   1      41.825  29.212  29.010  1.00  0.00     0.031 A 
ATOM     16  C   UNL A   1      42.928  30.230  28.928  1.00  0.00     0.074 A 
ATOM     17  C   UNL A   1      42.039  27.943  28.607  1.00  0.00     0.049 A 
ATOM     18  N   UNL A   1      44.150  30.079  28.484  1.00  0.00    -0.248 NA
ATOM     19  C   UNL A   1      42.624  31.593  29.390  1.00  0.00     0.031 C 
ATOM     20  C   UNL A   1      41.033  26.875  28.626  1.00  0.00     0.029 A 
ATOM     21  N   UNL A   1      43.162  27.327  28.119  1.00  0.00    -0.354 N 
ATOM     22  C   UNL A   1      44.758  31.325  28.600  1.00  0.00     0.074 A 
ATOM     23  C   UNL A   1      43.759  32.228  29.130  1.00  0.00     0.031 C 
ATOM     24  C   UNL A   1      41.597  25.729  28.220  1.00  0.00     0.029 A 
ATOM     25  C   UNL A   1      42.977  25.994  27.835  1.00  0.00     0.049 A 
ATOM     26  H   UNL A   1      44.018  27.793  27.984  1.00  0.00     0.167 HD
ATOM     27  C   UNL A   1      46.033  31.674  28.297  1.00  0.00     0.037 A 
ATOM     28  C   UNL A   1      43.813  25.086  27.298  1.00  0.00     0.037 A 
ATOM     29  C   UNL A   1      47.018  30.758  27.773  1.00  0.00     0.049 A 
ATOM     30  C   UNL A   1      45.206  25.511  26.939  1.00  0.00     0.074 A 
ATOM     31  C   UNL A   1      48.344  31.006  27.464  1.00  0.00     0.029 A 
ATOM     32  N   UNL A   1      46.785  29.423  27.470  1.00  0.00    -0.354 N 
ATOM     33  N   UNL A   1      45.774  26.685  27.092  1.00  0.00    -0.248 NA
ATOM     34  C   UNL A   1      46.074  24.494  26.333  1.00  0.00     0.031 C 
ATOM     35  C   UNL A   1      48.897  29.840  26.924  1.00  0.00     0.029 A 
ATOM     36  C   UNL A   1      47.934  28.844  26.954  1.00  0.00     0.049 A 
ATOM     37  H   UNL A   1      45.928  28.955  27.604  1.00  0.00     0.167 HD
ATOM     38  C   UNL A   1      47.072  26.541  26.619  1.00  0.00     0.074 A 
ATOM     39  C   UNL A   1      47.211  25.162  26.197  1.00  0.00     0.031 C 
ATOM     40  C   UNL A   1      48.057  27.469  26.537  1.00  0.00     0.037 A 
BRANCH  27  41
ATOM     41  C   UNL A   1      46.442  33.109  28.505  1.00  0.00     0.058 A 
ATOM     42  C   UNL A   1      46.296  34.077  27.499  1.00  0.00     0.135 A 
ATOM     43  C   UNL A   1      46.926  33.537  29.754  1.00  0.00     0.135 A 
ATOM     44  F   UNL A   1      45.851  33.725  26.281  1.00  0.00    -0.206 F 
ATOM     45  C   UNL A   1      46.629  35.411  27.716  1.00  0.00     0.059 A 
ATOM     46  C   UNL A   1      47.239  34.871  30.002  1.00  0.00     0.059 A 
ATOM     47  F   UNL A   1      47.086  32.657  30.755  1.00  0.00    -0.206 F 
ATOM     48  C   UNL A   1      47.096  35.800  28.972  1.00  0.00     0.060 A 
BRANCH  48  49
ATOM     49  S   UNL A   1      47.499  37.540  29.241  1.00  0.00     0.124 S 
ATOM     50  O   UNL A   1      46.308  38.200  28.717  1.00  0.00    -0.237 OA
ATOM     51  O   UNL A   1      47.667  37.598  30.690  1.00  0.00    -0.237 OA
ATOM     52  O   UNL A   1      48.718  37.733  28.463  1.00  0.00    -0.744 OA
ENDBRANCH  48  49
ENDBRANCH  27  41
BRANCH  28  53
ATOM     53  C   UNL A   1      43.340  23.698  27.052  1.00  0.00     0.058 A 
ATOM     54  C   UNL A   1      42.989  23.267  25.764  1.00  0.00     0.135 A 
ATOM     55  C   UNL A   1      43.244  22.768  28.100  1.00  0.00     0.135 A 
ATOM     56  F   UNL A   1      43.062  24.118  24.729  1.00  0.00    -0.206 F 
ATOM     57  C   UNL A   1      42.540  21.973  25.527  1.00  0.00     0.059 A 
ATOM     58  C   UNL A   1      42.830  21.459  27.883  1.00  0.00     0.059 A 
ATOM     59  F   UNL A   1      43.587  23.123  29.349  1.00  0.00    -0.206 F 
ATOM     60  C   UNL A   1      42.466  21.075  26.594  1.00  0.00     0.060 A 
BRANCH  60  61
ATOM     61  S   UNL A   1      41.914  19.388  26.269  1.00  0.00     0.124 S 
ATOM     62  O   UNL A   1      42.614  19.085  25.026  1.00  0.00    -0.237 OA
ATOM     63  O   UNL A   1      42.383  18.678  27.456  1.00  0.00    -0.237 OA
ATOM     64  O   UNL A   1      40.465  19.524  26.162  1.00  0.00    -0.744 OA
ENDBRANCH  60  61
ENDBRANCH  28  53
BRANCH  40  65
ATOM     65  C   UNL A   1      49.386  27.010  26.001  1.00  0.00     0.058 A 
ATOM     66  C   UNL A   1      49.741  27.184  24.654  1.00  0.00     0.135 A 
ATOM     67  C   UNL A   1      50.329  26.413  26.854  1.00  0.00     0.135 A 
ATOM     68  F   UNL A   1      48.873  27.739  23.793  1.00  0.00    -0.206 F 
ATOM     69  C   UNL A   1      50.971  26.755  24.165  1.00  0.00     0.059 A 
ATOM     70  C   UNL A   1      51.578  26.007  26.394  1.00  0.00     0.059 A 
ATOM     71  F   UNL A   1      50.045  26.230  28.154  1.00  0.00    -0.206 F 
ATOM     72  C   UNL A   1      51.884  26.169  25.044  1.00  0.00     0.060 A 
BRANCH  72  73
ATOM     73  S   UNL A   1      53.484  25.640  24.402  1.00  0.00     0.124 S 
ATOM     74  O   UNL A   1      53.311  25.850  22.968  1.00  0.00    -0.237 OA
ATOM     75  O   UNL A   1      54.406  26.554  25.070  1.00  0.00    -0.237 OA
ATOM     76  O   UNL A   1      53.577  24.246  24.826  1.00  0.00    -0.744 OA
ENDBRANCH  72  73
ENDBRANCH  40  65
ENDBRANCH  14  15
ENDBRANCH   7   9
ENDBRANCH   4   5
ENDBRANCH   3   4
ENDBRANCH   2   3
ENDBRANCH   1   2
BRANCH   1  77
ATOM     77  C   UNL A   1      34.801  28.701  26.763  1.00  0.00     0.021 C 
BRANCH  77  78
ATOM     78  C   UNL A   1      33.477  28.855  26.026  1.00  0.00     0.116 C 
BRANCH  78  79
ATOM     79  N   UNL A   1      32.494  27.852  26.391  1.00  0.00    -0.352 N 
ATOM     80  C   UNL A   1      31.375  27.460  25.700  1.00  0.00     0.252 C 
ATOM     81  H   UNL A   1      32.651  27.391  27.246  1.00  0.00     0.163 HD
ATOM     82  O   UNL A   1      30.647  26.577  26.148  1.00  0.00    -0.269 OA
BRANCH  80  83
ATOM     83  C   UNL A   1      31.000  28.129  24.433  1.00  0.00     0.050 A 
ATOM     84  C   UNL A   1      30.199  29.273  24.546  1.00  0.00     0.014 A 
ATOM     85  C   UNL A   1      31.392  27.652  23.170  1.00  0.00     0.030 A 
ATOM     86  C   UNL A   1      29.822  29.977  23.403  1.00  0.00     0.001 A 
ATOM     87  C   UNL A   1      31.018  28.381  22.031  1.00  0.00     0.013 A 
ATOM     88  C   UNL A   1      30.240  29.537  22.147  1.00  0.00     0.001 A 
BRANCH  85  89
ATOM     89  C   UNL A   1      32.156  26.428  23.014  1.00  0.00     0.135 A 
ATOM     90  C   UNL A   1      33.483  26.161  22.772  1.00  0.00     0.051 A 
ATOM     91  O   UNL A   1      31.429  25.276  22.981  1.00  0.00    -0.457 OA
ATOM     92  C   UNL A   1      33.562  24.771  22.546  1.00  0.00     0.051 A 
ATOM     93  C   UNL A   1      32.282  24.240  22.686  1.00  0.00     0.128 A 
BRANCH  93  94
ATOM     94  C   UNL A   1      31.868  22.896  22.494  1.00  0.00     0.068 C 
ATOM     95  C   UNL A   1      32.175  21.942  23.379  1.00  0.00     0.084 C 
ATOM     96  S   UNL A   1      32.169  20.258  23.038  1.00  0.00    -0.054 SA
ATOM     97  C   UNL A   1      32.743  22.168  24.727  1.00  0.00     0.266 C 
ATOM     98  C   UNL A   1      33.313  19.930  24.349  1.00  0.00     0.148 C 
ATOM     99  N   UNL A   1      33.471  21.065  25.117  1.00  0.00    -0.288 N 
ATOM    100  O   UNL A   1      32.559  23.183  25.385  1.00  0.00    -0.268 OA
ATOM    101  S   UNL A   1      34.066  18.455  24.521  1.00  0.00    -0.052 S 
BRANCH  99 102
ATOM    102  C   UNL A   1      34.284  21.175  26.323  1.00  0.00     0.163 C 
BRANCH 102 103
ATOM    103  C   UNL A   1      35.635  21.821  26.066  1.00  0.00    -0.028 A 
ATOM    104  C   UNL A   1      35.840  23.173  26.372  1.00  0.00     0.005 A 
ATOM    105  C   UNL A   1      36.689  21.106  25.473  1.00  0.00     0.005 A 
ATOM    106  C   UNL A   1      37.062  23.790  26.089  1.00  0.00     0.000 A 
ATOM    107  C   UNL A   1      37.916  21.718  25.207  1.00  0.00     0.000 A 
ATOM    108  C   UNL A   1      38.100  23.063  25.509  1.00  0.00     0.000 A 
ENDBRANCH 102 103
ENDBRANCH  99 102
ENDBRANCH  93  94
ENDBRANCH  85  89
ENDBRANCH  80  83
ENDBRANCH  78  79
ENDBRANCH  77  78
ENDBRANCH   1  77
TORSDOF 20
ENDMDL
MODEL 2
REMARK VINA RESULT:     -11.5      5.974     14.870
REMARK SMILES O=C(NCCCCCCNC(=O)c1ccccc1-c1ccc(/C=C2/SC(=S)N(Cc3ccccc3)C2=O)o1)c1ccc(-c2c3nc(c(-c4c(F)cc(S(=O)(=O)[O-])cc4F)c4ccc([nH]4)c(-c4c(F)cc(S(=O)(=O)[O-])cc4F)c4nc(c(-c5c(F)cc(S(=O)(=O)[O-])cc5F)c5ccc2[nH]5)C=C4)C=C3)cc1
REMARK SMILES IDX 7 1 6 2 5 3 4 4 3 5 1 6 2 7 39 9 40 10 104 11 41 12 103 13
REMARK SMILES IDX 42 14 43 15 44 16 97 17 45 18 102 19 96 20 98 21 46 22
REMARK SMILES IDX 101 23 95 24 94 25 47 27 81 28 60 29 80 30 61 31 64 32 79 33
REMARK SMILES IDX 99 34 62 35 63 36 78 38 100 39 65 40 48 41 49 42 58 43 50 44
REMARK SMILES IDX 51 45 57 46 59 47 52 48 53 49 54 50 55 51 56 52 82 53 83 54
REMARK SMILES IDX 92 55 84 56 85 57 91 58 93 59 86 60 87 61 88 62 89 63 90 64
REMARK SMILES IDX 66 65 67 66 76 67 68 68 69 69 75 70 77 71 70 72 71 73 72 74
REMARK SMILES IDX 73 75 74 76 8 77 9 78 10 79 11 80 12 82 13 83 14 84 18 85
REMARK SMILES IDX 15 86 17 87 16 88 19 89 20 90 38 91 21 92 22 93 23 94 24 95
REMARK SMILES IDX 25 96 36 97 26 98 28 99 37 100 27 101 29 102 30 103 31 104
REMARK SMILES IDX 35 105 32 106 34 107 33 108
REMARK H PARENT 3 8 98 26 64 37 10 81
REMARK Flexibility Score: inf
ROOT
ATOM      1  C   UNL A   1      48.152  37.972  25.458  1.00  0.00     0.002 C 
ENDROOT
BRANCH   1   2
ATOM      2  C   UNL A   1      49.517  38.027  26.154  1.00  0.00     0.002 C 
BRANCH   2   3
ATOM      3  C   UNL A   1      50.123  36.675  26.520  1.00  0.00     0.021 C 
BRANCH   3   4
ATOM      4  C   UNL A   1      50.210  36.380  28.009  1.00  0.00     0.116 C 
BRANCH   4   5
ATOM      5  N   UNL A   1      49.291  37.179  28.802  1.00  0.00    -0.352 N 
ATOM      6  O   UNL A   1      47.339  37.719  29.791  1.00  0.00    -0.269 OA
ATOM      7  C   UNL A   1      48.027  36.864  29.242  1.00  0.00     0.251 C 
ATOM      8  H   UNL A   1      49.619  38.071  29.059  1.00  0.00     0.163 HD
BRANCH   7   9
ATOM      9  C   UNL A   1      47.491  35.500  29.027  1.00  0.00     0.039 A 
ATOM     10  C   UNL A   1      47.582  34.535  30.032  1.00  0.00     0.014 A 
ATOM     11  C   UNL A   1      46.896  35.182  27.803  1.00  0.00     0.014 A 
ATOM     12  C   UNL A   1      47.222  33.221  29.762  1.00  0.00     0.010 A 
ATOM     13  C   UNL A   1      46.433  33.882  27.572  1.00  0.00     0.010 A 
ATOM     14  C   UNL A   1      46.614  32.884  28.542  1.00  0.00    -0.014 A 
BRANCH  14  15
ATOM     15  C   UNL A   1      46.087  31.507  28.356  1.00  0.00     0.031 A 
ATOM     16  C   UNL A   1      44.657  31.161  28.669  1.00  0.00     0.074 A 
ATOM     17  C   UNL A   1      46.924  30.568  27.871  1.00  0.00     0.049 A 
ATOM     18  N   UNL A   1      44.049  30.009  28.550  1.00  0.00    -0.248 NA
ATOM     19  C   UNL A   1      43.801  32.238  29.189  1.00  0.00     0.031 C 
ATOM     20  C   UNL A   1      48.338  30.788  27.549  1.00  0.00     0.029 A 
ATOM     21  N   UNL A   1      46.717  29.252  27.551  1.00  0.00    -0.354 N 
ATOM     22  C   UNL A   1      42.746  30.214  28.992  1.00  0.00     0.074 A 
ATOM     23  C   UNL A   1      42.660  31.597  29.408  1.00  0.00     0.031 C 
ATOM     24  C   UNL A   1      48.855  29.665  27.031  1.00  0.00     0.029 A 
ATOM     25  C   UNL A   1      47.837  28.623  27.059  1.00  0.00     0.049 A 
ATOM     26  H   UNL A   1      45.849  28.799  27.661  1.00  0.00     0.167 HD
ATOM     27  C   UNL A   1      41.721  29.328  29.037  1.00  0.00     0.037 A 
ATOM     28  C   UNL A   1      48.038  27.343  26.696  1.00  0.00     0.037 A 
ATOM     29  C   UNL A   1      41.824  27.951  28.613  1.00  0.00     0.049 A 
ATOM     30  C   UNL A   1      46.894  26.377  26.791  1.00  0.00     0.074 A 
ATOM     31  C   UNL A   1      40.834  26.983  28.590  1.00  0.00     0.029 A 
ATOM     32  N   UNL A   1      42.982  27.344  28.150  1.00  0.00    -0.354 N 
ATOM     33  N   UNL A   1      45.658  26.600  27.175  1.00  0.00    -0.248 NA
ATOM     34  C   UNL A   1      47.166  24.987  26.407  1.00  0.00     0.031 C 
ATOM     35  C   UNL A   1      41.406  25.779  28.166  1.00  0.00     0.029 A 
ATOM     36  C   UNL A   1      42.739  26.009  27.864  1.00  0.00     0.049 A 
ATOM     37  H   UNL A   1      43.851  27.795  28.039  1.00  0.00     0.167 HD
ATOM     38  C   UNL A   1      45.002  25.382  27.060  1.00  0.00     0.074 A 
ATOM     39  C   UNL A   1      45.971  24.433  26.549  1.00  0.00     0.031 C 
ATOM     40  C   UNL A   1      43.714  25.076  27.356  1.00  0.00     0.037 A 
BRANCH  27  41
ATOM     41  C   UNL A   1      40.397  29.804  29.577  1.00  0.00     0.058 A 
ATOM     42  C   UNL A   1      40.200  30.058  30.943  1.00  0.00     0.135 A 
ATOM     43  C   UNL A   1      39.329  30.076  28.704  1.00  0.00     0.135 A 
ATOM     44  F   UNL A   1      41.180  29.805  31.827  1.00  0.00    -0.206 F 
ATOM     45  C   UNL A   1      38.990  30.547  31.427  1.00  0.00     0.059 A 
ATOM     46  C   UNL A   1      38.120  30.592  29.162  1.00  0.00     0.059 A 
ATOM     47  F   UNL A   1      39.459  29.854  27.387  1.00  0.00    -0.206 F 
ATOM     48  C   UNL A   1      37.957  30.815  30.529  1.00  0.00     0.060 A 
BRANCH  48  49
ATOM     49  S   UNL A   1      36.403  31.472  31.173  1.00  0.00     0.124 S 
ATOM     50  O   UNL A   1      35.997  30.415  32.093  1.00  0.00    -0.237 OA
ATOM     51  O   UNL A   1      36.830  32.721  31.796  1.00  0.00    -0.237 OA
ATOM     52  O   UNL A   1      35.573  31.621  29.982  1.00  0.00    -0.744 OA
ENDBRANCH  48  49
ENDBRANCH  27  41
BRANCH  28  53
ATOM     53  C   UNL A   1      49.382  26.907  26.230  1.00  0.00     0.058 A 
ATOM     54  C   UNL A   1      50.302  26.324  27.113  1.00  0.00     0.135 A 
ATOM     55  C   UNL A   1      49.766  27.052  24.888  1.00  0.00     0.135 A 
ATOM     56  F   UNL A   1      49.983  26.165  28.407  1.00  0.00    -0.206 F 
ATOM     57  C   UNL A   1      51.563  25.919  26.688  1.00  0.00     0.059 A 
ATOM     58  C   UNL A   1      51.008  26.625  24.431  1.00  0.00     0.059 A 
ATOM     59  F   UNL A   1      48.915  27.585  23.996  1.00  0.00    -0.206 F 
ATOM     60  C   UNL A   1      51.905  26.072  25.343  1.00  0.00     0.060 A 
BRANCH  60  61
ATOM     61  S   UNL A   1      53.531  25.514  24.795  1.00  0.00     0.124 S 
ATOM     62  O   UNL A   1      53.531  25.937  23.399  1.00  0.00    -0.237 OA
ATOM     63  O   UNL A   1      54.424  26.249  25.686  1.00  0.00    -0.237 OA
ATOM     64  O   UNL A   1      53.484  24.072  25.018  1.00  0.00    -0.744 OA
ENDBRANCH  60  61
ENDBRANCH  28  53
BRANCH  40  65
ATOM     65  C   UNL A   1      43.271  23.661  27.099  1.00  0.00     0.058 A 
ATOM     66  C   UNL A   1      43.030  22.759  28.148  1.00  0.00     0.135 A 
ATOM     67  C   UNL A   1      43.057  23.211  25.787  1.00  0.00     0.135 A 
ATOM     68  F   UNL A   1      43.229  23.134  29.421  1.00  0.00    -0.206 F 
ATOM     69  C   UNL A   1      42.623  21.451  27.903  1.00  0.00     0.059 A 
ATOM     70  C   UNL A   1      42.618  21.917  25.520  1.00  0.00     0.059 A 
ATOM     71  F   UNL A   1      43.265  24.034  24.746  1.00  0.00    -0.206 F 
ATOM     72  C   UNL A   1      42.417  21.041  26.584  1.00  0.00     0.060 A 
BRANCH  72  73
ATOM     73  S   UNL A   1      41.865  19.350  26.282  1.00  0.00     0.124 S 
ATOM     74  O   UNL A   1      42.278  18.681  27.511  1.00  0.00    -0.237 OA
ATOM     75  O   UNL A   1      40.425  19.519  26.105  1.00  0.00    -0.237 OA
ATOM     76  O   UNL A   1      42.596  18.963  25.080  1.00  0.00    -0.744 OA
ENDBRANCH  72  73
ENDBRANCH  40  65
ENDBRANCH  14  15
ENDBRANCH   7   9
ENDBRANCH   4   5
ENDBRANCH   3   4
ENDBRANCH   2   3
ENDBRANCH   1   2
BRANCH   1  77
ATOM     77  C   UNL A   1      46.973  38.583  26.226  1.00  0.00     0.021 C 
BRANCH  77  78
ATOM     78  C   UNL A   1      46.742  40.069  25.978  1.00  0.00     0.116 C 
BRANCH  78  79
ATOM     79  N   UNL A   1      46.629  40.407  24.572  1.00  0.00    -0.352 N 
ATOM     80  C   UNL A   1      46.495  41.648  23.998  1.00  0.00     0.252 C 
ATOM     81  H   UNL A   1      46.651  39.648  23.946  1.00  0.00     0.163 HD
ATOM     82  O   UNL A   1      46.425  41.761  22.777  1.00  0.00    -0.269 OA
BRANCH  80  83
ATOM     83  C   UNL A   1      46.382  42.858  24.843  1.00  0.00     0.050 A 
ATOM     84  C   UNL A   1      47.583  43.401  25.319  1.00  0.00     0.014 A 
ATOM     85  C   UNL A   1      45.149  43.441  25.186  1.00  0.00     0.030 A 
ATOM     86  C   UNL A   1      47.567  44.555  26.101  1.00  0.00     0.001 A 
ATOM     87  C   UNL A   1      45.151  44.611  25.959  1.00  0.00     0.013 A 
ATOM     88  C   UNL A   1      46.352  45.165  26.412  1.00  0.00     0.001 A 
BRANCH  85  89
ATOM     89  C   UNL A   1      43.885  42.860  24.774  1.00  0.00     0.135 A 
ATOM     90  C   UNL A   1      43.158  41.772  25.195  1.00  0.00     0.051 A 
ATOM     91  O   UNL A   1      43.315  43.408  23.663  1.00  0.00    -0.457 OA
ATOM     92  C   UNL A   1      42.103  41.630  24.268  1.00  0.00     0.051 A 
ATOM     93  C   UNL A   1      42.214  42.656  23.332  1.00  0.00     0.128 A 
BRANCH  93  94
ATOM     94  C   UNL A   1      41.410  42.880  22.184  1.00  0.00     0.068 C 
ATOM     95  C   UNL A   1      41.958  43.071  20.979  1.00  0.00     0.084 C 
ATOM     96  S   UNL A   1      41.160  43.817  19.653  1.00  0.00    -0.054 SA
ATOM     97  C   UNL A   1      43.380  42.850  20.635  1.00  0.00     0.266 C 
ATOM     98  C   UNL A   1      42.700  44.281  18.914  1.00  0.00     0.148 C 
ATOM     99  N   UNL A   1      43.736  43.662  19.581  1.00  0.00    -0.288 N 
ATOM    100  O   UNL A   1      44.104  42.044  21.203  1.00  0.00    -0.268 OA
ATOM    101  S   UNL A   1      42.785  45.344  17.634  1.00  0.00    -0.052 S 
BRANCH  99 102
ATOM    102  C   UNL A   1      45.149  43.747  19.231  1.00  0.00     0.163 C 
BRANCH 102 103
ATOM    103  C   UNL A   1      45.997  44.344  20.342  1.00  0.00    -0.028 A 
ATOM    104  C   UNL A   1      45.464  45.327  21.187  1.00  0.00     0.005 A 
ATOM    105  C   UNL A   1      47.340  43.971  20.522  1.00  0.00     0.005 A 
ATOM    106  C   UNL A   1      46.253  45.921  22.176  1.00  0.00     0.000 A 
ATOM    107  C   UNL A   1      48.123  44.551  21.522  1.00  0.00     0.000 A 
ATOM    108  C   UNL A   1      47.580  45.531  22.346  1.00  0.00     0.000 A 
ENDBRANCH 102 103
ENDBRANCH  99 102
ENDBRANCH  93  94
ENDBRANCH  85  89
ENDBRANCH  80  83
ENDBRANCH  78  79
ENDBRANCH  77  78
ENDBRANCH   1  77
TORSDOF 20
ENDMDL
MODEL 3
REMARK VINA RESULT:     -11.2      6.940     14.513
REMARK SMILES O=C(NCCCCCCNC(=O)c1ccccc1-c1ccc(/C=C2/SC(=S)N(Cc3ccccc3)C2=O)o1)c1ccc(-c2c3nc(c(-c4c(F)cc(S(=O)(=O)[O-])cc4F)c4ccc([nH]4)c(-c4c(F)cc(S(=O)(=O)[O-])cc4F)c4nc(c(-c5c(F)cc(S(=O)(=O)[O-])cc5F)c5ccc2[nH]5)C=C4)C=C3)cc1
REMARK SMILES IDX 7 1 6 2 5 3 4 4 3 5 1 6 2 7 39 9 40 10 104 11 41 12 103 13
REMARK SMILES IDX 42 14 43 15 44 16 97 17 45 18 102 19 96 20 98 21 46 22
REMARK SMILES IDX 101 23 95 24 94 25 47 27 81 28 60 29 80 30 61 31 64 32 79 33
REMARK SMILES IDX 99 34 62 35 63 36 78 38 100 39 65 40 48 41 49 42 58 43 50 44
REMARK SMILES IDX 51 45 57 46 59 47 52 48 53 49 54 50 55 51 56 52 82 53 83 54
REMARK SMILES IDX 92 55 84 56 85 57 91 58 93 59 86 60 87 61 88 62 89 63 90 64
REMARK SMILES IDX 66 65 67 66 76 67 68 68 69 69 75 70 77 71 70 72 71 73 72 74
REMARK SMILES IDX 73 75 74 76 8 77 9 78 10 79 11 80 12 82 13 83 14 84 18 85
REMARK SMILES IDX 15 86 17 87 16 88 19 89 20 90 38 91 21 92 22 93 23 94 24 95
REMARK SMILES IDX 25 96 36 97 26 98 28 99 37 100 27 101 29 102 30 103 31 104
REMARK SMILES IDX 35 105 32 106 34 107 33 108
REMARK H PARENT 3 8 98 26 64 37 10 81
REMARK Flexibility Score: inf
ROOT
ATOM      1  C   UNL A   1      44.248  24.195  30.366  1.00  0.00     0.002 C 
ENDROOT
BRANCH   1   2
ATOM      2  C   UNL A   1      43.218  23.145  29.936  1.00  0.00     0.002 C 
BRANCH   2   3
ATOM      3  C   UNL A   1      43.118  22.898  28.433  1.00  0.00     0.021 C 
BRANCH   3   4
ATOM      4  C   UNL A   1      44.029  23.754  27.569  1.00  0.00     0.116 C 
BRANCH   4   5
ATOM      5  N   UNL A   1      43.373  24.257  26.374  1.00  0.00    -0.352 N 
ATOM      6  O   UNL A   1      41.933  25.507  25.172  1.00  0.00    -0.269 OA
ATOM      7  C   UNL A   1      42.496  25.308  26.244  1.00  0.00     0.251 C 
ATOM      8  H   UNL A   1      43.584  23.777  25.541  1.00  0.00     0.163 HD
BRANCH   7   9
ATOM      9  C   UNL A   1      42.214  26.180  27.408  1.00  0.00     0.039 A 
ATOM     10  C   UNL A   1      43.043  27.266  27.699  1.00  0.00     0.014 A 
ATOM     11  C   UNL A   1      41.112  25.904  28.221  1.00  0.00     0.014 A 
ATOM     12  C   UNL A   1      42.862  27.976  28.878  1.00  0.00     0.010 A 
ATOM     13  C   UNL A   1      40.868  26.691  29.352  1.00  0.00     0.010 A 
ATOM     14  C   UNL A   1      41.755  27.720  29.703  1.00  0.00    -0.014 A 
BRANCH  14  15
ATOM     15  C   UNL A   1      41.500  28.612  30.864  1.00  0.00     0.031 A 
ATOM     16  C   UNL A   1      42.348  28.554  32.104  1.00  0.00     0.074 A 
ATOM     17  C   UNL A   1      40.491  29.502  30.770  1.00  0.00     0.049 A 
ATOM     18  N   UNL A   1      42.254  29.271  33.194  1.00  0.00    -0.248 NA
ATOM     19  C   UNL A   1      43.433  27.561  32.133  1.00  0.00     0.031 C 
ATOM     20  C   UNL A   1      39.592  29.635  29.618  1.00  0.00     0.029 A 
ATOM     21  N   UNL A   1      40.057  30.470  31.637  1.00  0.00    -0.354 N 
ATOM     22  C   UNL A   1      43.254  28.811  34.045  1.00  0.00     0.074 A 
ATOM     23  C   UNL A   1      43.926  27.732  33.353  1.00  0.00     0.031 C 
ATOM     24  C   UNL A   1      38.750  30.655  29.829  1.00  0.00     0.029 A 
ATOM     25  C   UNL A   1      38.993  31.198  31.159  1.00  0.00     0.049 A 
ATOM     26  H   UNL A   1      40.468  30.630  32.518  1.00  0.00     0.167 HD
ATOM     27  C   UNL A   1      43.580  29.257  35.283  1.00  0.00     0.037 A 
ATOM     28  C   UNL A   1      38.269  32.176  31.734  1.00  0.00     0.037 A 
ATOM     29  C   UNL A   1      42.901  30.339  35.956  1.00  0.00     0.049 A 
ATOM     30  C   UNL A   1      38.631  32.623  33.119  1.00  0.00     0.074 A 
ATOM     31  C   UNL A   1      43.177  30.886  37.198  1.00  0.00     0.029 A 
ATOM     32  N   UNL A   1      41.809  31.031  35.453  1.00  0.00    -0.354 N 
ATOM     33  N   UNL A   1      39.605  32.203  33.892  1.00  0.00    -0.248 NA
ATOM     34  C   UNL A   1      37.798  33.675  33.715  1.00  0.00     0.031 C 
ATOM     35  C   UNL A   1      42.219  31.869  37.469  1.00  0.00     0.029 A 
ATOM     36  C   UNL A   1      41.382  31.980  36.370  1.00  0.00     0.049 A 
ATOM     37  H   UNL A   1      41.396  30.872  34.573  1.00  0.00     0.167 HD
ATOM     38  C   UNL A   1      39.513  32.952  35.058  1.00  0.00     0.074 A 
ATOM     39  C   UNL A   1      38.404  33.867  34.878  1.00  0.00     0.031 C 
ATOM     40  C   UNL A   1      40.276  32.885  36.177  1.00  0.00     0.037 A 
BRANCH  27  41
ATOM     41  C   UNL A   1      44.710  28.572  36.007  1.00  0.00     0.058 A 
ATOM     42  C   UNL A   1      46.031  29.040  35.932  1.00  0.00     0.135 A 
ATOM     43  C   UNL A   1      44.456  27.470  36.843  1.00  0.00     0.135 A 
ATOM     44  F   UNL A   1      46.337  30.082  35.140  1.00  0.00    -0.206 F 
ATOM     45  C   UNL A   1      47.062  28.432  36.644  1.00  0.00     0.059 A 
ATOM     46  C   UNL A   1      45.466  26.864  37.585  1.00  0.00     0.059 A 
ATOM     47  F   UNL A   1      43.212  26.979  36.954  1.00  0.00    -0.206 F 
ATOM     48  C   UNL A   1      46.769  27.348  37.472  1.00  0.00     0.060 A 
BRANCH  48  49
ATOM     49  S   UNL A   1      48.115  26.589  38.407  1.00  0.00     0.124 S 
ATOM     50  O   UNL A   1      49.286  27.091  37.694  1.00  0.00    -0.237 OA
ATOM     51  O   UNL A   1      47.909  27.134  39.745  1.00  0.00    -0.237 OA
ATOM     52  O   UNL A   1      47.863  25.158  38.270  1.00  0.00    -0.744 OA
ENDBRANCH  48  49
ENDBRANCH  27  41
BRANCH  28  53
ATOM     53  C   UNL A   1      37.121  32.776  31.002  1.00  0.00     0.058 A 
ATOM     54  C   UNL A   1      37.321  33.738  30.002  1.00  0.00     0.135 A 
ATOM     55  C   UNL A   1      35.801  32.387  31.281  1.00  0.00     0.135 A 
ATOM     56  F   UNL A   1      38.564  34.145  29.699  1.00  0.00    -0.206 F 
ATOM     57  C   UNL A   1      36.253  34.309  29.317  1.00  0.00     0.059 A 
ATOM     58  C   UNL A   1      34.720  32.918  30.587  1.00  0.00     0.059 A 
ATOM     59  F   UNL A   1      35.556  31.455  32.215  1.00  0.00    -0.206 F 
ATOM     60  C   UNL A   1      34.955  33.890  29.616  1.00  0.00     0.060 A 
BRANCH  60  61
ATOM     61  S   UNL A   1      33.579  34.612  28.700  1.00  0.00     0.124 S 
ATOM     62  O   UNL A   1      32.620  34.871  29.767  1.00  0.00    -0.237 OA
ATOM     63  O   UNL A   1      34.197  35.790  28.097  1.00  0.00    -0.237 OA
ATOM     64  O   UNL A   1      33.210  33.558  27.761  1.00  0.00    -0.744 OA
ENDBRANCH  60  61
ENDBRANCH  28  53
BRANCH  40  65
ATOM     65  C   UNL A   1      39.955  33.855  37.282  1.00  0.00     0.058 A 
ATOM     66  C   UNL A   1      39.063  33.530  38.316  1.00  0.00     0.135 A 
ATOM     67  C   UNL A   1      40.572  35.115  37.322  1.00  0.00     0.135 A 
ATOM     68  F   UNL A   1      38.437  32.343  38.321  1.00  0.00    -0.206 F 
ATOM     69  C   UNL A   1      38.769  34.433  39.334  1.00  0.00     0.059 A 
ATOM     70  C   UNL A   1      40.320  36.021  38.348  1.00  0.00     0.059 A 
ATOM     71  F   UNL A   1      41.441  35.474  36.363  1.00  0.00    -0.206 F 
ATOM     72  C   UNL A   1      39.406  35.676  39.341  1.00  0.00     0.060 A 
BRANCH  72  73
ATOM     73  S   UNL A   1      39.035  36.827  40.680  1.00  0.00     0.124 S 
ATOM     74  O   UNL A   1      40.374  37.210  41.119  1.00  0.00    -0.237 OA
ATOM     75  O   UNL A   1      38.271  37.866  39.996  1.00  0.00    -0.237 OA
ATOM     76  O   UNL A   1      38.273  36.016  41.625  1.00  0.00    -0.744 OA
ENDBRANCH  72  73
ENDBRANCH  40  65
ENDBRANCH  14  15
ENDBRANCH   7   9
ENDBRANCH   4   5
ENDBRANCH   3   4
ENDBRANCH   2   3
ENDBRANCH   1   2
BRANCH   1  77
ATOM     77  C   UNL A   1      44.595  24.235  31.860  1.00  0.00     0.021 C 
BRANCH  77  78
ATOM     78  C   UNL A   1      43.857  23.218  32.722  1.00  0.00     0.116 C 
BRANCH  78  79
ATOM     79  N   UNL A   1      43.754  23.611  34.115  1.00  0.00    -0.352 N 
ATOM     80  C   UNL A   1      44.499  23.178  35.183  1.00  0.00     0.252 C 
ATOM     81  H   UNL A   1      43.058  24.277  34.321  1.00  0.00     0.163 HD
ATOM     82  O   UNL A   1      44.289  23.627  36.308  1.00  0.00    -0.269 OA
BRANCH  80  83
ATOM     83  C   UNL A   1      45.529  22.130  35.006  1.00  0.00     0.050 A 
ATOM     84  C   UNL A   1      45.123  20.810  35.247  1.00  0.00     0.014 A 
ATOM     85  C   UNL A   1      46.857  22.414  34.639  1.00  0.00     0.030 A 
ATOM     86  C   UNL A   1      46.025  19.760  35.080  1.00  0.00     0.001 A 
ATOM     87  C   UNL A   1      47.746  21.344  34.458  1.00  0.00     0.013 A 
ATOM     88  C   UNL A   1      47.333  20.027  34.676  1.00  0.00     0.001 A 
BRANCH  85  89
ATOM     89  C   UNL A   1      47.328  23.773  34.458  1.00  0.00     0.135 A 
ATOM     90  C   UNL A   1      46.832  25.006  34.810  1.00  0.00     0.051 A 
ATOM     91  O   UNL A   1      48.439  23.916  33.680  1.00  0.00    -0.457 OA
ATOM     92  C   UNL A   1      47.670  25.953  34.183  1.00  0.00     0.051 A 
ATOM     93  C   UNL A   1      48.661  25.259  33.494  1.00  0.00     0.128 A 
BRANCH  93  94
ATOM     94  C   UNL A   1      49.690  25.792  32.673  1.00  0.00     0.068 C 
ATOM     95  C   UNL A   1      49.498  25.994  31.365  1.00  0.00     0.084 C 
ATOM     96  S   UNL A   1      50.760  26.156  30.209  1.00  0.00    -0.054 SA
ATOM     97  C   UNL A   1      48.197  25.928  30.665  1.00  0.00     0.266 C 
ATOM     98  C   UNL A   1      49.695  25.641  28.891  1.00  0.00     0.148 C 
ATOM     99  N   UNL A   1      48.394  25.588  29.344  1.00  0.00    -0.288 N 
ATOM    100  O   UNL A   1      47.120  26.167  31.197  1.00  0.00    -0.268 OA
ATOM    101  S   UNL A   1      50.278  25.261  27.379  1.00  0.00    -0.052 S 
BRANCH  99 102
ATOM    102  C   UNL A   1      47.221  25.265  28.539  1.00  0.00     0.163 C 
BRANCH 102 103
ATOM    103  C   UNL A   1      46.796  26.407  27.632  1.00  0.00    -0.028 A 
ATOM    104  C   UNL A   1      46.474  26.161  26.291  1.00  0.00     0.005 A 
ATOM    105  C   UNL A   1      46.764  27.736  28.090  1.00  0.00     0.005 A 
ATOM    106  C   UNL A   1      46.135  27.212  25.434  1.00  0.00     0.000 A 
ATOM    107  C   UNL A   1      46.407  28.784  27.239  1.00  0.00     0.000 A 
ATOM    108  C   UNL A   1      46.099  28.522  25.908  1.00  0.00     0.000 A 
ENDBRANCH 102 103
ENDBRANCH  99 102
ENDBRANCH  93  94
ENDBRANCH  85  89
ENDBRANCH  80  83
ENDBRANCH  78  79
ENDBRANCH  77  78
ENDBRANCH   1  77
TORSDOF 20
ENDMDL
