MODEL 1
REMARK VINA RESULT:     -12.7      0.000      0.000
REMARK SMILES Cn1c(=O)[nH]c(=O)c2c1nc(N1CCOCC1)n2CC(=O)NCCCCCCNC(=O)c1ccc(-c2c3nc(c(-c4c(F)cc(S(=O)(=O)[O-])cc4F)c4ccc([nH]4)c(-c4c(F)cc(S(=O)(=O)[O-])cc4F)c4nc(c(-c5c(F)cc(S(=O)(=O)[O-])cc5F)c5ccc2[nH]5)C=C4)C=C3)cc1
REMARK SMILES IDX 26 1 25 2 24 3 23 4 22 5 20 6 21 7 19 9 18 10 1 11 2 12 3 13
REMARK SMILES IDX 9 14 4 15 5 16 8 17 10 18 6 19 11 21 7 22 12 23 13 24 17 25
REMARK SMILES IDX 14 26 16 27 15 28 27 29 28 30 29 31 30 32 31 34 32 35 33 36
REMARK SMILES IDX 97 37 34 38 96 39 35 40 36 41 37 42 90 43 38 44 95 45 89 46
REMARK SMILES IDX 91 47 39 48 94 49 88 50 87 51 40 53 74 54 53 55 73 56 54 57
REMARK SMILES IDX 57 58 72 59 92 60 55 61 56 62 71 64 93 65 58 66 41 67 42 68
REMARK SMILES IDX 51 69 43 70 44 71 50 72 52 73 45 74 46 75 47 76 48 77 49 78
REMARK SMILES IDX 75 79 76 80 85 81 77 82 78 83 84 84 86 85 79 86 80 87 81 88
REMARK SMILES IDX 82 89 83 90 59 91 60 92 69 93 61 94 62 95 68 96 70 97 63 98
REMARK SMILES IDX 64 99 65 100 66 101 67 102
REMARK H PARENT 22 8 5 20 29 33 91 52 57 63
REMARK Flexibility Score: inf
ROOT
ATOM      1  C   UNL A   1      40.888  21.212  27.493  1.00  0.00     0.002 C 
ENDROOT
BRANCH   1   2
ATOM      2  C   UNL A   1      40.104  21.709  26.267  1.00  0.00     0.002 C 
BRANCH   2   3
ATOM      3  C   UNL A   1      39.105  22.844  26.526  1.00  0.00     0.021 C 
BRANCH   3   4
ATOM      4  C   UNL A   1      37.818  22.749  25.710  1.00  0.00     0.116 C 
BRANCH   4   5
ATOM      5  N   UNL A   1      36.634  22.999  26.500  1.00  0.00    -0.355 N 
ATOM      6  C   UNL A   1      35.319  22.830  26.196  1.00  0.00     0.240 C 
ATOM      7  O   UNL A   1      34.516  22.996  27.122  1.00  0.00    -0.273 OA
ATOM      8  H   UNL A   1      36.807  23.347  27.405  1.00  0.00     0.163 HD
BRANCH   6   9
ATOM      9  C   UNL A   1      34.833  22.392  24.829  1.00  0.00     0.226 C 
BRANCH   9  10
ATOM     10  N   UNL A   1      33.995  21.206  24.800  1.00  0.00    -0.295 N 
ATOM     11  C   UNL A   1      32.146  16.956  24.832  1.00  0.00     0.157 C 
ATOM     12  N   UNL A   1      33.347  17.770  24.853  1.00  0.00    -0.279 N 
ATOM     13  C   UNL A   1      34.590  17.150  24.769  1.00  0.00     0.329 A 
ATOM     14  C   UNL A   1      33.292  19.151  24.879  1.00  0.00     0.170 A 
ATOM     15  O   UNL A   1      34.763  15.939  24.638  1.00  0.00    -0.248 OA
ATOM     16  N   UNL A   1      35.704  17.961  24.818  1.00  0.00    -0.272 N 
ATOM     17  C   UNL A   1      34.427  19.907  24.875  1.00  0.00     0.154 A 
ATOM     18  N   UNL A   1      32.175  19.931  24.903  1.00  0.00    -0.194 NA
ATOM     19  C   UNL A   1      35.734  19.334  24.881  1.00  0.00     0.279 A 
ATOM     20  H   UNL A   1      36.577  17.506  24.807  1.00  0.00     0.175 HD
ATOM     21  C   UNL A   1      32.611  21.173  24.848  1.00  0.00     0.208 A 
ATOM     22  O   UNL A   1      36.781  19.957  24.888  1.00  0.00    -0.267 OA
BRANCH  21  23
ATOM     23  N   UNL A   1      31.897  22.315  24.951  1.00  0.00    -0.338 N 
ATOM     24  C   UNL A   1      31.490  23.074  23.762  1.00  0.00     0.148 C 
ATOM     25  C   UNL A   1      30.930  22.471  26.045  1.00  0.00     0.148 C 
ATOM     26  C   UNL A   1      31.447  24.559  24.158  1.00  0.00     0.181 C 
ATOM     27  C   UNL A   1      30.842  23.976  26.378  1.00  0.00     0.181 C 
ATOM     28  O   UNL A   1      30.501  24.776  25.225  1.00  0.00    -0.378 OA
ENDBRANCH  21  23
ENDBRANCH   9  10
ENDBRANCH   6   9
ENDBRANCH   4   5
ENDBRANCH   3   4
ENDBRANCH   2   3
ENDBRANCH   1   2
BRANCH   1  29
ATOM     29  C   UNL A   1      42.006  20.192  27.227  1.00  0.00     0.021 C 
BRANCH  29  30
ATOM     30  C   UNL A   1      42.128  19.788  25.770  1.00  0.00     0.116 C 
BRANCH  30  31
ATOM     31  N   UNL A   1      43.512  19.537  25.371  1.00  0.00    -0.352 N 
ATOM     32  C   UNL A   1      44.463  20.466  24.991  1.00  0.00     0.251 C 
ATOM     33  H   UNL A   1      43.800  18.596  25.371  1.00  0.00     0.163 HD
ATOM     34  O   UNL A   1      45.441  20.130  24.334  1.00  0.00    -0.269 OA
BRANCH  32  35
ATOM     35  C   UNL A   1      44.269  21.867  25.403  1.00  0.00     0.039 A 
ATOM     36  C   UNL A   1      43.384  22.720  24.742  1.00  0.00     0.014 A 
ATOM     37  C   UNL A   1      44.977  22.305  26.519  1.00  0.00     0.014 A 
ATOM     38  C   UNL A   1      43.171  23.994  25.264  1.00  0.00     0.010 A 
ATOM     39  C   UNL A   1      44.613  23.466  27.142  1.00  0.00     0.010 A 
ATOM     40  C   UNL A   1      43.780  24.353  26.479  1.00  0.00    -0.014 A 
BRANCH  40  41
ATOM     41  C   UNL A   1      43.527  25.641  27.107  1.00  0.00     0.031 A 
ATOM     42  C   UNL A   1      44.512  26.704  26.779  1.00  0.00     0.074 A 
ATOM     43  C   UNL A   1      42.391  25.911  27.790  1.00  0.00     0.049 A 
ATOM     44  N   UNL A   1      45.423  27.191  27.553  1.00  0.00    -0.248 NA
ATOM     45  C   UNL A   1      44.607  27.171  25.388  1.00  0.00     0.031 C 
ATOM     46  C   UNL A   1      41.184  25.089  27.955  1.00  0.00     0.029 A 
ATOM     47  N   UNL A   1      42.050  27.057  28.431  1.00  0.00    -0.354 N 
ATOM     48  C   UNL A   1      46.066  28.188  26.823  1.00  0.00     0.074 A 
ATOM     49  C   UNL A   1      45.652  28.000  25.456  1.00  0.00     0.031 C 
ATOM     50  C   UNL A   1      40.176  25.848  28.441  1.00  0.00     0.029 A 
ATOM     51  C   UNL A   1      40.713  27.146  28.801  1.00  0.00     0.049 A 
ATOM     52  H   UNL A   1      42.700  27.772  28.621  1.00  0.00     0.167 HD
ATOM     53  C   UNL A   1      46.719  29.209  27.449  1.00  0.00     0.037 A 
ATOM     54  C   UNL A   1      40.099  28.217  29.362  1.00  0.00     0.037 A 
ATOM     55  C   UNL A   1      46.898  28.913  28.851  1.00  0.00     0.049 A 
ATOM     56  C   UNL A   1      41.175  29.037  29.985  1.00  0.00     0.074 A 
ATOM     57  C   UNL A   1      47.566  27.934  29.559  1.00  0.00     0.029 A 
ATOM     58  N   UNL A   1      46.007  29.473  29.738  1.00  0.00    -0.354 N 
ATOM     59  N   UNL A   1      41.899  28.630  30.994  1.00  0.00    -0.248 NA
ATOM     60  C   UNL A   1      41.769  30.091  29.176  1.00  0.00     0.031 C 
ATOM     61  C   UNL A   1      46.710  27.626  30.658  1.00  0.00     0.029 A 
ATOM     62  C   UNL A   1      45.609  28.482  30.599  1.00  0.00     0.049 A 
ATOM     63  H   UNL A   1      45.710  30.411  29.752  1.00  0.00     0.167 HD
ATOM     64  C   UNL A   1      43.188  29.061  30.708  1.00  0.00     0.074 A 
ATOM     65  C   UNL A   1      43.030  30.017  29.611  1.00  0.00     0.031 C 
ATOM     66  C   UNL A   1      44.286  28.400  31.183  1.00  0.00     0.037 A 
BRANCH  53  67
ATOM     67  C   UNL A   1      46.881  30.615  26.914  1.00  0.00     0.058 A 
ATOM     68  C   UNL A   1      48.158  31.217  26.961  1.00  0.00     0.135 A 
ATOM     69  C   UNL A   1      45.810  31.492  26.636  1.00  0.00     0.135 A 
ATOM     70  F   UNL A   1      49.257  30.479  27.191  1.00  0.00    -0.206 F 
ATOM     71  C   UNL A   1      48.342  32.595  26.861  1.00  0.00     0.059 A 
ATOM     72  C   UNL A   1      45.978  32.864  26.480  1.00  0.00     0.059 A 
ATOM     73  F   UNL A   1      44.539  31.082  26.595  1.00  0.00    -0.206 F 
ATOM     74  C   UNL A   1      47.239  33.414  26.646  1.00  0.00     0.060 A 
BRANCH  74  75
ATOM     75  S   UNL A   1      47.455  35.201  26.658  1.00  0.00     0.124 S 
ATOM     76  O   UNL A   1      48.188  35.412  25.415  1.00  0.00    -0.237 OA
ATOM     77  O   UNL A   1      46.073  35.671  26.674  1.00  0.00    -0.237 OA
ATOM     78  O   UNL A   1      48.208  35.440  27.885  1.00  0.00    -0.744 OA
ENDBRANCH  74  75
ENDBRANCH  53  67
BRANCH  54  79
ATOM     79  C   UNL A   1      38.749  28.757  29.045  1.00  0.00     0.058 A 
ATOM     80  C   UNL A   1      37.774  28.903  30.049  1.00  0.00     0.135 A 
ATOM     81  C   UNL A   1      38.484  29.413  27.825  1.00  0.00     0.135 A 
ATOM     82  F   UNL A   1      37.948  28.324  31.246  1.00  0.00    -0.206 F 
ATOM     83  C   UNL A   1      36.638  29.704  29.877  1.00  0.00     0.059 A 
ATOM     84  C   UNL A   1      37.355  30.210  27.629  1.00  0.00     0.059 A 
ATOM     85  F   UNL A   1      39.365  29.379  26.814  1.00  0.00    -0.206 F 
ATOM     86  C   UNL A   1      36.451  30.376  28.670  1.00  0.00     0.060 A 
BRANCH  86  87
ATOM     87  S   UNL A   1      35.090  31.558  28.508  1.00  0.00     0.124 S 
ATOM     88  O   UNL A   1      34.900  31.992  29.888  1.00  0.00    -0.237 OA
ATOM     89  O   UNL A   1      35.653  32.551  27.598  1.00  0.00    -0.237 OA
ATOM     90  O   UNL A   1      34.006  30.752  27.952  1.00  0.00    -0.744 OA
ENDBRANCH  86  87
ENDBRANCH  54  79
BRANCH  66  91
ATOM     91  C   UNL A   1      44.090  27.344  32.246  1.00  0.00     0.058 A 
ATOM     92  C   UNL A   1      44.032  25.961  31.996  1.00  0.00     0.135 A 
ATOM     93  C   UNL A   1      44.153  27.745  33.589  1.00  0.00     0.135 A 
ATOM     94  F   UNL A   1      44.065  25.484  30.746  1.00  0.00    -0.206 F 
ATOM     95  C   UNL A   1      44.010  25.024  33.033  1.00  0.00     0.059 A 
ATOM     96  C   UNL A   1      44.163  26.828  34.638  1.00  0.00     0.059 A 
ATOM     97  F   UNL A   1      44.271  29.047  33.896  1.00  0.00    -0.206 F 
ATOM     98  C   UNL A   1      44.083  25.467  34.353  1.00  0.00     0.060 A 
BRANCH  98  99
ATOM     99  S   UNL A   1      44.137  24.253  35.689  1.00  0.00     0.124 S 
ATOM    100  O   UNL A   1      43.302  24.879  36.708  1.00  0.00    -0.237 OA
ATOM    101  O   UNL A   1      43.580  23.061  35.057  1.00  0.00    -0.237 OA
ATOM    102  O   UNL A   1      45.559  24.168  36.016  1.00  0.00    -0.744 OA
ENDBRANCH  98  99
ENDBRANCH  66  91
ENDBRANCH  40  41
ENDBRANCH  32  35
ENDBRANCH  30  31
ENDBRANCH  29  30
ENDBRANCH   1  29
TORSDOF 18
ENDMDL
MODEL 2
REMARK VINA RESULT:     -12.4      3.048      4.998
REMARK SMILES Cn1c(=O)[nH]c(=O)c2c1nc(N1CCOCC1)n2CC(=O)NCCCCCCNC(=O)c1ccc(-c2c3nc(c(-c4c(F)cc(S(=O)(=O)[O-])cc4F)c4ccc([nH]4)c(-c4c(F)cc(S(=O)(=O)[O-])cc4F)c4nc(c(-c5c(F)cc(S(=O)(=O)[O-])cc5F)c5ccc2[nH]5)C=C4)C=C3)cc1
REMARK SMILES IDX 26 1 25 2 24 3 23 4 22 5 20 6 21 7 19 9 18 10 1 11 2 12 3 13
REMARK SMILES IDX 9 14 4 15 5 16 8 17 10 18 6 19 11 21 7 22 12 23 13 24 17 25
REMARK SMILES IDX 14 26 16 27 15 28 27 29 28 30 29 31 30 32 31 34 32 35 33 36
REMARK SMILES IDX 97 37 34 38 96 39 35 40 36 41 37 42 90 43 38 44 95 45 89 46
REMARK SMILES IDX 91 47 39 48 94 49 88 50 87 51 40 53 74 54 53 55 73 56 54 57
REMARK SMILES IDX 57 58 72 59 92 60 55 61 56 62 71 64 93 65 58 66 41 67 42 68
REMARK SMILES IDX 51 69 43 70 44 71 50 72 52 73 45 74 46 75 47 76 48 77 49 78
REMARK SMILES IDX 75 79 76 80 85 81 77 82 78 83 84 84 86 85 79 86 80 87 81 88
REMARK SMILES IDX 82 89 83 90 59 91 60 92 69 93 61 94 62 95 68 96 70 97 63 98
REMARK SMILES IDX 64 99 65 100 66 101 67 102
REMARK H PARENT 22 8 5 20 29 33 91 52 57 63
REMARK Flexibility Score: inf
ROOT
ATOM      1  C   UNL A   1      37.859  22.476  25.752  1.00  0.00     0.002 C 
ENDROOT
BRANCH   1   2
ATOM      2  C   UNL A   1      36.424  21.923  25.713  1.00  0.00     0.002 C 
BRANCH   2   3
ATOM      3  C   UNL A   1      35.567  22.368  24.521  1.00  0.00     0.021 C 
BRANCH   3   4
ATOM      4  C   UNL A   1      35.261  23.863  24.488  1.00  0.00     0.116 C 
BRANCH   4   5
ATOM      5  N   UNL A   1      34.686  24.289  23.232  1.00  0.00    -0.355 N 
ATOM      6  C   UNL A   1      33.872  25.342  22.947  1.00  0.00     0.240 C 
ATOM      7  O   UNL A   1      33.643  25.549  21.750  1.00  0.00    -0.273 OA
ATOM      8  H   UNL A   1      34.922  23.728  22.458  1.00  0.00     0.163 HD
BRANCH   6   9
ATOM      9  C   UNL A   1      33.318  26.273  24.006  1.00  0.00     0.226 C 
BRANCH   9  10
ATOM     10  N   UNL A   1      31.931  26.670  23.844  1.00  0.00    -0.295 N 
ATOM     11  C   UNL A   1      27.869  28.631  22.776  1.00  0.00     0.157 C 
ATOM     12  N   UNL A   1      29.315  28.684  22.688  1.00  0.00    -0.279 N 
ATOM     13  C   UNL A   1      29.922  29.804  22.126  1.00  0.00     0.329 A 
ATOM     14  C   UNL A   1      30.116  27.686  23.212  1.00  0.00     0.170 A 
ATOM     15  O   UNL A   1      29.320  30.798  21.720  1.00  0.00    -0.248 OA
ATOM     16  N   UNL A   1      31.298  29.801  22.039  1.00  0.00    -0.272 N 
ATOM     17  C   UNL A   1      31.476  27.758  23.143  1.00  0.00     0.154 A 
ATOM     18  N   UNL A   1      29.709  26.551  23.846  1.00  0.00    -0.194 NA
ATOM     19  C   UNL A   1      32.160  28.834  22.501  1.00  0.00     0.279 A 
ATOM     20  H   UNL A   1      31.709  30.577  21.596  1.00  0.00     0.175 HD
ATOM     21  C   UNL A   1      30.815  25.947  24.231  1.00  0.00     0.208 A 
ATOM     22  O   UNL A   1      33.369  28.946  22.401  1.00  0.00    -0.267 OA
BRANCH  21  23
ATOM     23  N   UNL A   1      30.946  24.732  24.807  1.00  0.00    -0.338 N 
ATOM     24  C   UNL A   1      30.479  24.479  26.176  1.00  0.00     0.148 C 
ATOM     25  C   UNL A   1      30.864  23.522  23.979  1.00  0.00     0.148 C 
ATOM     26  C   UNL A   1      31.405  23.414  26.787  1.00  0.00     0.181 C 
ATOM     27  C   UNL A   1      31.738  22.439  24.648  1.00  0.00     0.181 C 
ATOM     28  O   UNL A   1      31.356  22.194  26.019  1.00  0.00    -0.378 OA
ENDBRANCH  21  23
ENDBRANCH   9  10
ENDBRANCH   6   9
ENDBRANCH   4   5
ENDBRANCH   3   4
ENDBRANCH   2   3
ENDBRANCH   1   2
BRANCH   1  29
ATOM     29  C   UNL A   1      38.994  21.442  25.756  1.00  0.00     0.021 C 
BRANCH  29  30
ATOM     30  C   UNL A   1      40.153  21.814  26.662  1.00  0.00     0.116 C 
BRANCH  30  31
ATOM     31  N   UNL A   1      41.419  21.925  25.937  1.00  0.00    -0.352 N 
ATOM     32  C   UNL A   1      42.138  23.073  25.663  1.00  0.00     0.251 C 
ATOM     33  H   UNL A   1      41.803  21.081  25.605  1.00  0.00     0.163 HD
ATOM     34  O   UNL A   1      42.959  23.098  24.754  1.00  0.00    -0.269 OA
BRANCH  32  35
ATOM     35  C   UNL A   1      41.892  24.263  26.496  1.00  0.00     0.039 A 
ATOM     36  C   UNL A   1      42.502  24.438  27.740  1.00  0.00     0.014 A 
ATOM     37  C   UNL A   1      41.052  25.242  25.973  1.00  0.00     0.014 A 
ATOM     38  C   UNL A   1      42.308  25.643  28.412  1.00  0.00     0.010 A 
ATOM     39  C   UNL A   1      41.033  26.490  26.531  1.00  0.00     0.010 A 
ATOM     40  C   UNL A   1      41.583  26.673  27.789  1.00  0.00    -0.014 A 
BRANCH  40  41
ATOM     41  C   UNL A   1      41.420  27.977  28.415  1.00  0.00     0.031 A 
ATOM     42  C   UNL A   1      42.497  28.957  28.114  1.00  0.00     0.074 A 
ATOM     43  C   UNL A   1      40.294  28.338  29.070  1.00  0.00     0.049 A 
ATOM     44  N   UNL A   1      43.425  29.367  28.911  1.00  0.00    -0.248 NA
ATOM     45  C   UNL A   1      42.663  29.415  26.727  1.00  0.00     0.031 C 
ATOM     46  C   UNL A   1      39.020  27.617  29.203  1.00  0.00     0.029 A 
ATOM     47  N   UNL A   1      40.032  29.508  29.707  1.00  0.00    -0.354 N 
ATOM     48  C   UNL A   1      44.165  30.309  28.199  1.00  0.00     0.074 A 
ATOM     49  C   UNL A   1      43.770  30.157  26.822  1.00  0.00     0.031 C 
ATOM     50  C   UNL A   1      38.066  28.455  29.667  1.00  0.00     0.029 A 
ATOM     51  C   UNL A   1      38.697  29.704  30.044  1.00  0.00     0.049 A 
ATOM     52  H   UNL A   1      40.732  30.166  29.913  1.00  0.00     0.167 HD
ATOM     53  C   UNL A   1      44.882  31.273  28.844  1.00  0.00     0.037 A 
ATOM     54  C   UNL A   1      38.159  30.821  30.592  1.00  0.00     0.037 A 
ATOM     55  C   UNL A   1      45.002  30.962  30.249  1.00  0.00     0.049 A 
ATOM     56  C   UNL A   1      39.282  31.550  31.243  1.00  0.00     0.074 A 
ATOM     57  C   UNL A   1      45.571  29.932  30.971  1.00  0.00     0.029 A 
ATOM     58  N   UNL A   1      44.138  31.592  31.116  1.00  0.00    -0.354 N 
ATOM     59  N   UNL A   1      39.946  31.086  32.269  1.00  0.00    -0.248 NA
ATOM     60  C   UNL A   1      39.979  32.554  30.453  1.00  0.00     0.031 C 
ATOM     61  C   UNL A   1      44.667  29.694  32.047  1.00  0.00     0.029 A 
ATOM     62  C   UNL A   1      43.640  30.637  31.964  1.00  0.00     0.049 A 
ATOM     63  H   UNL A   1      43.919  32.551  31.125  1.00  0.00     0.167 HD
ATOM     64  C   UNL A   1      41.272  31.410  32.015  1.00  0.00     0.074 A 
ATOM     65  C   UNL A   1      41.219  32.377  30.918  1.00  0.00     0.031 C 
ATOM     66  C   UNL A   1      42.300  30.662  32.516  1.00  0.00     0.037 A 
BRANCH  53  67
ATOM     67  C   UNL A   1      45.171  32.662  28.317  1.00  0.00     0.058 A 
ATOM     68  C   UNL A   1      46.516  33.054  28.135  1.00  0.00     0.135 A 
ATOM     69  C   UNL A   1      44.226  33.709  28.264  1.00  0.00     0.135 A 
ATOM     70  F   UNL A   1      47.503  32.142  28.138  1.00  0.00    -0.206 F 
ATOM     71  C   UNL A   1      46.901  34.389  28.030  1.00  0.00     0.059 A 
ATOM     72  C   UNL A   1      44.584  35.044  28.107  1.00  0.00     0.059 A 
ATOM     73  F   UNL A   1      42.918  33.505  28.455  1.00  0.00    -0.206 F 
ATOM     74  C   UNL A   1      45.926  35.380  28.044  1.00  0.00     0.060 A 
BRANCH  74  75
ATOM     75  S   UNL A   1      46.430  37.108  28.052  1.00  0.00     0.124 S 
ATOM     76  O   UNL A   1      45.724  37.610  29.226  1.00  0.00    -0.237 OA
ATOM     77  O   UNL A   1      47.880  36.998  28.176  1.00  0.00    -0.237 OA
ATOM     78  O   UNL A   1      45.951  37.604  26.766  1.00  0.00    -0.744 OA
ENDBRANCH  74  75
ENDBRANCH  53  67
BRANCH  54  79
ATOM     79  C   UNL A   1      36.865  31.469  30.245  1.00  0.00     0.058 A 
ATOM     80  C   UNL A   1      36.104  32.138  31.221  1.00  0.00     0.135 A 
ATOM     81  C   UNL A   1      36.494  31.703  28.904  1.00  0.00     0.135 A 
ATOM     82  F   UNL A   1      36.394  31.983  32.522  1.00  0.00    -0.206 F 
ATOM     83  C   UNL A   1      35.081  33.034  30.889  1.00  0.00     0.059 A 
ATOM     84  C   UNL A   1      35.473  32.586  28.549  1.00  0.00     0.059 A 
ATOM     85  F   UNL A   1      37.178  31.154  27.889  1.00  0.00    -0.206 F 
ATOM     86  C   UNL A   1      34.791  33.271  29.546  1.00  0.00     0.060 A 
BRANCH  86  87
ATOM     87  S   UNL A   1      33.603  34.565  29.105  1.00  0.00     0.124 S 
ATOM     88  O   UNL A   1      34.472  35.599  28.554  1.00  0.00    -0.237 OA
ATOM     89  O   UNL A   1      32.743  33.878  28.147  1.00  0.00    -0.237 OA
ATOM     90  O   UNL A   1      32.971  34.894  30.380  1.00  0.00    -0.744 OA
ENDBRANCH  86  87
ENDBRANCH  54  79
BRANCH  66  91
ATOM     91  C   UNL A   1      41.994  29.625  33.571  1.00  0.00     0.058 A 
ATOM     92  C   UNL A   1      41.628  28.293  33.299  1.00  0.00     0.135 A 
ATOM     93  C   UNL A   1      42.266  29.948  34.908  1.00  0.00     0.135 A 
ATOM     94  F   UNL A   1      41.443  27.872  32.042  1.00  0.00    -0.206 F 
ATOM     95  C   UNL A   1      41.512  27.338  34.312  1.00  0.00     0.059 A 
ATOM     96  C   UNL A   1      42.186  29.005  35.931  1.00  0.00     0.059 A 
ATOM     97  F   UNL A   1      42.678  31.185  35.229  1.00  0.00    -0.206 F 
ATOM     98  C   UNL A   1      41.801  27.702  35.627  1.00  0.00     0.060 A 
BRANCH  98  99
ATOM     99  S   UNL A   1      41.731  26.448  36.925  1.00  0.00     0.124 S 
ATOM    100  O   UNL A   1      40.456  26.742  37.569  1.00  0.00    -0.237 OA
ATOM    101  O   UNL A   1      41.786  25.203  36.165  1.00  0.00    -0.237 OA
ATOM    102  O   UNL A   1      42.915  26.727  37.734  1.00  0.00    -0.744 OA
ENDBRANCH  98  99
ENDBRANCH  66  91
ENDBRANCH  40  41
ENDBRANCH  32  35
ENDBRANCH  30  31
ENDBRANCH  29  30
ENDBRANCH   1  29
TORSDOF 18
ENDMDL
MODEL 3
REMARK VINA RESULT:     -12.1      2.612      3.406
REMARK SMILES Cn1c(=O)[nH]c(=O)c2c1nc(N1CCOCC1)n2CC(=O)NCCCCCCNC(=O)c1ccc(-c2c3nc(c(-c4c(F)cc(S(=O)(=O)[O-])cc4F)c4ccc([nH]4)c(-c4c(F)cc(S(=O)(=O)[O-])cc4F)c4nc(c(-c5c(F)cc(S(=O)(=O)[O-])cc5F)c5ccc2[nH]5)C=C4)C=C3)cc1
REMARK SMILES IDX 26 1 25 2 24 3 23 4 22 5 20 6 21 7 19 9 18 10 1 11 2 12 3 13
REMARK SMILES IDX 9 14 4 15 5 16 8 17 10 18 6 19 11 21 7 22 12 23 13 24 17 25
REMARK SMILES IDX 14 26 16 27 15 28 27 29 28 30 29 31 30 32 31 34 32 35 33 36
REMARK SMILES IDX 97 37 34 38 96 39 35 40 36 41 37 42 90 43 38 44 95 45 89 46
REMARK SMILES IDX 91 47 39 48 94 49 88 50 87 51 40 53 74 54 53 55 73 56 54 57
REMARK SMILES IDX 57 58 72 59 92 60 55 61 56 62 71 64 93 65 58 66 41 67 42 68
REMARK SMILES IDX 51 69 43 70 44 71 50 72 52 73 45 74 46 75 47 76 48 77 49 78
REMARK SMILES IDX 75 79 76 80 85 81 77 82 78 83 84 84 86 85 79 86 80 87 81 88
REMARK SMILES IDX 82 89 83 90 59 91 60 92 69 93 61 94 62 95 68 96 70 97 63 98
REMARK SMILES IDX 64 99 65 100 66 101 67 102
REMARK H PARENT 22 8 5 20 29 33 91 52 57 63
REMARK Flexibility Score: inf
ROOT
ATOM      1  C   UNL A   1      39.191  21.440  25.795  1.00  0.00     0.002 C 
ENDROOT
BRANCH   1   2
ATOM      2  C   UNL A   1      37.786  21.371  25.175  1.00  0.00     0.002 C 
BRANCH   2   3
ATOM      3  C   UNL A   1      37.154  22.716  24.796  1.00  0.00     0.021 C 
BRANCH   3   4
ATOM      4  C   UNL A   1      36.180  23.269  25.833  1.00  0.00     0.116 C 
BRANCH   4   5
ATOM      5  N   UNL A   1      35.588  24.526  25.432  1.00  0.00    -0.355 N 
ATOM      6  C   UNL A   1      34.291  24.936  25.452  1.00  0.00     0.240 C 
ATOM      7  O   UNL A   1      34.087  26.124  25.177  1.00  0.00    -0.273 OA
ATOM      8  H   UNL A   1      36.227  25.194  25.091  1.00  0.00     0.163 HD
BRANCH   6   9
ATOM      9  C   UNL A   1      33.142  24.034  25.854  1.00  0.00     0.226 C 
BRANCH   9  10
ATOM     10  N   UNL A   1      32.886  22.900  24.984  1.00  0.00    -0.295 N 
ATOM     11  C   UNL A   1      32.188  18.769  23.002  1.00  0.00     0.157 C 
ATOM     12  N   UNL A   1      32.550  19.510  24.195  1.00  0.00    -0.279 N 
ATOM     13  C   UNL A   1      32.984  18.816  25.321  1.00  0.00     0.329 A 
ATOM     14  C   UNL A   1      32.546  20.892  24.226  1.00  0.00     0.170 A 
ATOM     15  O   UNL A   1      33.127  17.595  25.381  1.00  0.00    -0.248 OA
ATOM     16  N   UNL A   1      33.292  19.559  26.441  1.00  0.00    -0.272 N 
ATOM     17  C   UNL A   1      32.909  21.578  25.347  1.00  0.00     0.154 A 
ATOM     18  N   UNL A   1      32.210  21.738  23.211  1.00  0.00    -0.194 NA
ATOM     19  C   UNL A   1      33.278  20.929  26.563  1.00  0.00     0.279 A 
ATOM     20  H   UNL A   1      33.551  19.052  27.244  1.00  0.00     0.175 HD
ATOM     21  C   UNL A   1      32.427  22.951  23.677  1.00  0.00     0.208 A 
ATOM     22  O   UNL A   1      33.601  21.488  27.595  1.00  0.00    -0.267 OA
BRANCH  21  23
ATOM     23  N   UNL A   1      32.146  24.134  23.090  1.00  0.00    -0.338 N 
ATOM     24  C   UNL A   1      32.859  24.580  21.886  1.00  0.00     0.148 C 
ATOM     25  C   UNL A   1      30.775  24.657  23.126  1.00  0.00     0.148 C 
ATOM     26  C   UNL A   1      32.930  26.115  21.937  1.00  0.00     0.181 C 
ATOM     27  C   UNL A   1      30.862  26.198  23.099  1.00  0.00     0.181 C 
ATOM     28  O   UNL A   1      31.606  26.687  21.962  1.00  0.00    -0.378 OA
ENDBRANCH  21  23
ENDBRANCH   9  10
ENDBRANCH   6   9
ENDBRANCH   4   5
ENDBRANCH   3   4
ENDBRANCH   2   3
ENDBRANCH   1   2
BRANCH   1  29
ATOM     29  C   UNL A   1      39.435  22.553  26.826  1.00  0.00     0.021 C 
BRANCH  29  30
ATOM     30  C   UNL A   1      40.741  22.406  27.583  1.00  0.00     0.116 C 
BRANCH  30  31
ATOM     31  N   UNL A   1      41.897  22.296  26.693  1.00  0.00    -0.352 N 
ATOM     32  C   UNL A   1      42.523  23.310  25.993  1.00  0.00     0.251 C 
ATOM     33  H   UNL A   1      42.270  21.392  26.578  1.00  0.00     0.163 HD
ATOM     34  O   UNL A   1      43.218  23.061  25.015  1.00  0.00    -0.269 OA
BRANCH  32  35
ATOM     35  C   UNL A   1      42.336  24.695  26.459  1.00  0.00     0.039 A 
ATOM     36  C   UNL A   1      41.446  25.573  25.838  1.00  0.00     0.014 A 
ATOM     37  C   UNL A   1      43.054  25.089  27.584  1.00  0.00     0.014 A 
ATOM     38  C   UNL A   1      41.240  26.827  26.410  1.00  0.00     0.010 A 
ATOM     39  C   UNL A   1      42.698  26.226  28.254  1.00  0.00     0.010 A 
ATOM     40  C   UNL A   1      41.860  27.139  27.632  1.00  0.00    -0.014 A 
BRANCH  40  41
ATOM     41  C   UNL A   1      41.615  28.403  28.311  1.00  0.00     0.031 A 
ATOM     42  C   UNL A   1      42.654  29.444  28.094  1.00  0.00     0.074 A 
ATOM     43  C   UNL A   1      40.452  28.681  28.941  1.00  0.00     0.049 A 
ATOM     44  N   UNL A   1      43.535  29.857  28.943  1.00  0.00    -0.248 NA
ATOM     45  C   UNL A   1      42.846  29.975  26.737  1.00  0.00     0.031 C 
ATOM     46  C   UNL A   1      39.210  27.897  28.995  1.00  0.00     0.029 A 
ATOM     47  N   UNL A   1      40.114  29.806  29.620  1.00  0.00    -0.354 N 
ATOM     48  C   UNL A   1      44.253  30.864  28.302  1.00  0.00     0.074 A 
ATOM     49  C   UNL A   1      43.913  30.760  26.906  1.00  0.00     0.031 C 
ATOM     50  C   UNL A   1      38.202  28.668  29.462  1.00  0.00     0.029 A 
ATOM     51  C   UNL A   1      38.761  29.926  29.918  1.00  0.00     0.049 A 
ATOM     52  H   UNL A   1      40.775  30.485  29.883  1.00  0.00     0.167 HD
ATOM     53  C   UNL A   1      44.902  31.828  29.016  1.00  0.00     0.037 A 
ATOM     54  C   UNL A   1      38.153  30.990  30.498  1.00  0.00     0.037 A 
ATOM     55  C   UNL A   1      44.989  31.456  30.409  1.00  0.00     0.049 A 
ATOM     56  C   UNL A   1      39.217  31.737  31.222  1.00  0.00     0.074 A 
ATOM     57  C   UNL A   1      45.581  30.420  31.102  1.00  0.00     0.029 A 
ATOM     58  N   UNL A   1      44.068  32.005  31.271  1.00  0.00    -0.354 N 
ATOM     59  N   UNL A   1      39.867  31.255  32.248  1.00  0.00    -0.248 NA
ATOM     60  C   UNL A   1      39.893  32.808  30.504  1.00  0.00     0.031 C 
ATOM     61  C   UNL A   1      44.653  30.090  32.133  1.00  0.00     0.029 A 
ATOM     62  C   UNL A   1      43.586  30.988  32.056  1.00  0.00     0.049 A 
ATOM     63  H   UNL A   1      43.803  32.951  31.317  1.00  0.00     0.167 HD
ATOM     64  C   UNL A   1      41.184  31.650  32.058  1.00  0.00     0.074 A 
ATOM     65  C   UNL A   1      41.123  32.665  31.005  1.00  0.00     0.031 C 
ATOM     66  C   UNL A   1      42.229  30.926  32.560  1.00  0.00     0.037 A 
BRANCH  53  67
ATOM     67  C   UNL A   1      45.144  33.252  28.564  1.00  0.00     0.058 A 
ATOM     68  C   UNL A   1      46.469  33.740  28.532  1.00  0.00     0.135 A 
ATOM     69  C   UNL A   1      44.137  34.235  28.448  1.00  0.00     0.135 A 
ATOM     70  F   UNL A   1      47.513  32.897  28.607  1.00  0.00    -0.206 F 
ATOM     71  C   UNL A   1      46.768  35.101  28.508  1.00  0.00     0.059 A 
ATOM     72  C   UNL A   1      44.414  35.596  28.370  1.00  0.00     0.059 A 
ATOM     73  F   UNL A   1      42.835  33.937  28.499  1.00  0.00    -0.206 F 
ATOM     74  C   UNL A   1      45.729  36.023  28.453  1.00  0.00     0.060 A 
BRANCH  74  75
ATOM     75  S   UNL A   1      46.106  37.780  28.566  1.00  0.00     0.124 S 
ATOM     76  O   UNL A   1      47.002  37.957  27.428  1.00  0.00    -0.237 OA
ATOM     77  O   UNL A   1      44.782  38.381  28.437  1.00  0.00    -0.237 OA
ATOM     78  O   UNL A   1      46.722  37.908  29.883  1.00  0.00    -0.744 OA
ENDBRANCH  74  75
ENDBRANCH  53  67
BRANCH  54  79
ATOM     79  C   UNL A   1      36.842  31.595  30.134  1.00  0.00     0.058 A 
ATOM     80  C   UNL A   1      36.027  32.198  31.109  1.00  0.00     0.135 A 
ATOM     81  C   UNL A   1      36.498  31.857  28.791  1.00  0.00     0.135 A 
ATOM     82  F   UNL A   1      36.288  32.013  32.412  1.00  0.00    -0.206 F 
ATOM     83  C   UNL A   1      34.976  33.062  30.775  1.00  0.00     0.059 A 
ATOM     84  C   UNL A   1      35.451  32.707  28.435  1.00  0.00     0.059 A 
ATOM     85  F   UNL A   1      37.232  31.369  27.779  1.00  0.00    -0.206 F 
ATOM     86  C   UNL A   1      34.713  33.331  29.433  1.00  0.00     0.060 A 
BRANCH  86  87
ATOM     87  S   UNL A   1      33.484  34.587  29.000  1.00  0.00     0.124 S 
ATOM     88  O   UNL A   1      32.898  34.899  30.299  1.00  0.00    -0.237 OA
ATOM     89  O   UNL A   1      34.312  35.633  28.407  1.00  0.00    -0.237 OA
ATOM     90  O   UNL A   1      32.602  33.891  28.067  1.00  0.00    -0.744 OA
ENDBRANCH  86  87
ENDBRANCH  54  79
BRANCH  66  91
ATOM     91  C   UNL A   1      41.936  29.827  33.554  1.00  0.00     0.058 A 
ATOM     92  C   UNL A   1      41.657  28.492  33.209  1.00  0.00     0.135 A 
ATOM     93  C   UNL A   1      42.131  30.104  34.916  1.00  0.00     0.135 A 
ATOM     94  F   UNL A   1      41.551  28.118  31.928  1.00  0.00    -0.206 F 
ATOM     95  C   UNL A   1      41.552  27.487  34.174  1.00  0.00     0.059 A 
ATOM     96  C   UNL A   1      42.061  29.113  35.892  1.00  0.00     0.059 A 
ATOM     97  F   UNL A   1      42.459  31.346  35.308  1.00  0.00    -0.206 F 
ATOM     98  C   UNL A   1      41.762  27.806  35.515  1.00  0.00     0.060 A 
BRANCH  98  99
ATOM     99  S   UNL A   1      41.707  26.492  36.754  1.00  0.00     0.124 S 
ATOM    100  O   UNL A   1      41.672  25.291  35.927  1.00  0.00    -0.237 OA
ATOM    101  O   UNL A   1      42.940  26.711  37.503  1.00  0.00    -0.237 OA
ATOM    102  O   UNL A   1      40.479  26.773  37.495  1.00  0.00    -0.744 OA
ENDBRANCH  98  99
ENDBRANCH  66  91
ENDBRANCH  40  41
ENDBRANCH  32  35
ENDBRANCH  30  31
ENDBRANCH  29  30
ENDBRANCH   1  29
TORSDOF 18
ENDMDL
