MODEL 1
REMARK VINA RESULT:     -12.2      0.000      0.000
REMARK SMILES CCCCN(c1ccccc1C(=O)NCCCCCCNC(=O)c1ccc(-c2c3nc(c(-c4c(F)cc(S(=O)(=O)[O-])cc4F)c4ccc([nH]4)c(-c4c(F)cc(S(=O)(=O)[O-])cc4F)c4nc(c(-c5c(F)cc(S(=O)(=O)[O-])cc5F)c5ccc2[nH]5)C=C4)C=C3)cc1)S(=O)(=O)c1ccc2c(c1)oc(=O)n2C
REMARK SMILES IDX 17 1 16 2 15 3 14 4 12 5 13 6 11 8 6 9 7 10 8 11 10 12 9 13
REMARK SMILES IDX 5 14 4 15 3 16 2 17 1 18 90 19 91 20 92 21 93 22 94 23 98 24
REMARK SMILES IDX 95 25 97 26 96 27 99 28 102 29 100 30 103 31 101 32 18 33
REMARK SMILES IDX 19 34 20 35 21 36 22 37 23 39 24 40 25 41 89 42 26 43 88 44
REMARK SMILES IDX 27 45 28 46 29 47 82 48 30 49 87 50 81 51 83 52 31 53 86 54
REMARK SMILES IDX 80 55 79 56 32 58 66 59 45 60 65 61 46 62 49 63 64 64 84 65
REMARK SMILES IDX 47 66 48 67 63 69 85 70 50 71 33 72 34 73 43 74 35 75 36 76
REMARK SMILES IDX 42 77 44 78 37 79 38 80 39 81 40 82 41 83 67 84 68 85 77 86
REMARK SMILES IDX 69 87 70 88 76 89 78 90 71 91 72 92 73 93 74 94 75 95 51 96
REMARK SMILES IDX 52 97 61 98 53 99 54 100 60 101 62 102 55 103 56 104 57 105
REMARK SMILES IDX 58 106 59 107
REMARK H PARENT 14 7 21 38 83 57 49 68
REMARK Flexibility Score: inf
ROOT
ATOM      1  C   UNL A   1      32.638  28.956  26.309  1.00  0.00     0.002 C 
ENDROOT
BRANCH   1   2
ATOM      2  C   UNL A   1      31.826  27.789  26.878  1.00  0.00     0.021 C 
BRANCH   2   3
ATOM      3  C   UNL A   1      32.192  26.378  26.441  1.00  0.00     0.116 C 
BRANCH   3   4
ATOM      4  N   UNL A   1      31.307  25.296  26.703  1.00  0.00    -0.352 N 
ATOM      5  C   UNL A   1      31.539  23.939  26.740  1.00  0.00     0.253 C 
ATOM      6  O   UNL A   1      30.567  23.320  27.206  1.00  0.00    -0.269 OA
ATOM      7  H   UNL A   1      30.377  25.560  26.889  1.00  0.00     0.163 HD
BRANCH   5   8
ATOM      8  C   UNL A   1      32.774  23.110  26.338  1.00  0.00     0.064 A 
ATOM      9  C   UNL A   1      33.398  22.714  25.117  1.00  0.00     0.065 A 
ATOM     10  C   UNL A   1      34.663  22.064  25.156  1.00  0.00     0.028 A 
ATOM     11  C   UNL A   1      35.270  21.658  26.338  1.00  0.00     0.002 A 
ATOM     12  C   UNL A   1      33.442  22.657  27.522  1.00  0.00     0.016 A 
ATOM     13  C   UNL A   1      34.638  21.929  27.530  1.00  0.00     0.001 A 
BRANCH   9  14
ATOM     14  N   UNL A   1      32.858  22.639  23.766  1.00  0.00    -0.266 N 
BRANCH  14  15
ATOM     15  C   UNL A   1      32.328  21.350  23.245  1.00  0.00     0.136 C 
BRANCH  15  16
ATOM     16  C   UNL A   1      32.195  20.191  24.229  1.00  0.00     0.022 C 
BRANCH  16  17
ATOM     17  C   UNL A   1      32.705  18.810  23.790  1.00  0.00    -0.002 C 
ATOM     18  C   UNL A   1      32.342  18.327  22.387  1.00  0.00     0.004 C 
ENDBRANCH  16  17
ENDBRANCH  15  16
ENDBRANCH  14  15
BRANCH  14  19
ATOM     19  S   UNL A   1      33.513  23.832  22.707  1.00  0.00     0.264 S 
ATOM     20  O   UNL A   1      34.819  24.228  23.202  1.00  0.00    -0.201 OA
ATOM     21  O   UNL A   1      33.359  23.413  21.335  1.00  0.00    -0.201 OA
BRANCH  19  22
ATOM     22  C   UNL A   1      32.438  25.241  22.928  1.00  0.00     0.091 A 
ATOM     23  C   UNL A   1      32.960  26.544  22.766  1.00  0.00     0.025 A 
ATOM     24  C   UNL A   1      31.078  25.028  23.184  1.00  0.00     0.071 A 
ATOM     25  C   UNL A   1      32.121  27.659  22.854  1.00  0.00     0.032 A 
ATOM     26  C   UNL A   1      30.281  26.149  23.277  1.00  0.00     0.157 A 
ATOM     27  C   UNL A   1      30.786  27.423  23.105  1.00  0.00     0.090 A 
ATOM     28  O   UNL A   1      28.916  26.140  23.517  1.00  0.00    -0.408 OA
ATOM     29  N   UNL A   1      29.712  28.270  23.226  1.00  0.00    -0.277 N 
ATOM     30  C   UNL A   1      28.589  27.502  23.460  1.00  0.00     0.419 A 
ATOM     31  C   UNL A   1      29.708  29.689  23.026  1.00  0.00     0.157 C 
ATOM     32  O   UNL A   1      27.449  27.926  23.603  1.00  0.00    -0.223 OA
ENDBRANCH  19  22
ENDBRANCH  14  19
ENDBRANCH   9  14
ENDBRANCH   5   8
ENDBRANCH   3   4
ENDBRANCH   2   3
ENDBRANCH   1   2
BRANCH   1  33
ATOM     33  C   UNL A   1      33.230  30.007  27.258  1.00  0.00     0.002 C 
BRANCH  33  34
ATOM     34  C   UNL A   1      34.721  29.966  27.621  1.00  0.00     0.021 C 
BRANCH  34  35
ATOM     35  C   UNL A   1      35.338  31.163  28.350  1.00  0.00     0.116 C 
BRANCH  35  36
ATOM     36  N   UNL A   1      35.349  31.032  29.793  1.00  0.00    -0.352 N 
ATOM     37  C   UNL A   1      36.325  30.526  30.624  1.00  0.00     0.251 C 
ATOM     38  H   UNL A   1      34.536  31.353  30.248  1.00  0.00     0.163 HD
ATOM     39  O   UNL A   1      36.075  30.403  31.822  1.00  0.00    -0.269 OA
BRANCH  37  40
ATOM     40  C   UNL A   1      37.660  30.103  30.113  1.00  0.00     0.039 A 
ATOM     41  C   UNL A   1      38.659  29.795  31.045  1.00  0.00     0.014 A 
ATOM     42  C   UNL A   1      37.975  30.086  28.751  1.00  0.00     0.014 A 
ATOM     43  C   UNL A   1      39.947  29.439  30.620  1.00  0.00     0.010 A 
ATOM     44  C   UNL A   1      39.255  29.693  28.325  1.00  0.00     0.010 A 
ATOM     45  C   UNL A   1      40.259  29.370  29.252  1.00  0.00    -0.014 A 
BRANCH  45  46
ATOM     46  C   UNL A   1      41.628  28.975  28.802  1.00  0.00     0.031 A 
ATOM     47  C   UNL A   1      42.741  29.991  28.728  1.00  0.00     0.074 A 
ATOM     48  C   UNL A   1      41.880  27.697  28.448  1.00  0.00     0.049 A 
ATOM     49  N   UNL A   1      43.988  29.829  28.356  1.00  0.00    -0.248 NA
ATOM     50  C   UNL A   1      42.409  31.371  29.114  1.00  0.00     0.031 C 
ATOM     51  C   UNL A   1      40.897  26.612  28.447  1.00  0.00     0.029 A 
ATOM     52  N   UNL A   1      43.037  27.094  28.015  1.00  0.00    -0.354 N 
ATOM     53  C   UNL A   1      44.588  31.080  28.460  1.00  0.00     0.074 A 
ATOM     54  C   UNL A   1      43.555  32.000  28.889  1.00  0.00     0.031 C 
ATOM     55  C   UNL A   1      41.495  25.477  28.047  1.00  0.00     0.029 A 
ATOM     56  C   UNL A   1      42.895  25.754  27.733  1.00  0.00     0.049 A 
ATOM     57  H   UNL A   1      43.891  27.575  27.915  1.00  0.00     0.167 HD
ATOM     58  C   UNL A   1      45.879  31.429  28.240  1.00  0.00     0.037 A 
ATOM     59  C   UNL A   1      43.781  24.850  27.269  1.00  0.00     0.037 A 
ATOM     60  C   UNL A   1      46.914  30.514  27.827  1.00  0.00     0.049 A 
ATOM     61  C   UNL A   1      45.206  25.267  27.009  1.00  0.00     0.074 A 
ATOM     62  C   UNL A   1      48.260  30.775  27.621  1.00  0.00     0.029 A 
ATOM     63  N   UNL A   1      46.726  29.168  27.555  1.00  0.00    -0.354 N 
ATOM     64  N   UNL A   1      45.763  26.443  27.170  1.00  0.00    -0.248 NA
ATOM     65  C   UNL A   1      46.125  24.233  26.511  1.00  0.00     0.031 C 
ATOM     66  C   UNL A   1      48.875  29.597  27.183  1.00  0.00     0.029 A 
ATOM     67  C   UNL A   1      47.925  28.590  27.163  1.00  0.00     0.049 A 
ATOM     68  H   UNL A   1      45.868  28.692  27.629  1.00  0.00     0.167 HD
ATOM     69  C   UNL A   1      47.102  26.282  26.822  1.00  0.00     0.074 A 
ATOM     70  C   UNL A   1      47.274  24.893  26.454  1.00  0.00     0.031 C 
ATOM     71  C   UNL A   1      48.096  27.203  26.811  1.00  0.00     0.037 A 
BRANCH  58  72
ATOM     72  C   UNL A   1      46.263  32.869  28.448  1.00  0.00     0.058 A 
ATOM     73  C   UNL A   1      46.719  33.335  29.692  1.00  0.00     0.135 A 
ATOM     74  C   UNL A   1      46.242  33.779  27.378  1.00  0.00     0.135 A 
ATOM     75  F   UNL A   1      46.751  32.512  30.751  1.00  0.00    -0.206 F 
ATOM     76  C   UNL A   1      47.121  34.655  29.873  1.00  0.00     0.059 A 
ATOM     77  C   UNL A   1      46.664  35.097  27.529  1.00  0.00     0.059 A 
ATOM     78  F   UNL A   1      45.820  33.387  26.166  1.00  0.00    -0.206 F 
ATOM     79  C   UNL A   1      47.092  35.530  28.785  1.00  0.00     0.060 A 
BRANCH  79  80
ATOM     80  S   UNL A   1      47.634  37.233  29.032  1.00  0.00     0.124 S 
ATOM     81  O   UNL A   1      48.055  37.603  27.684  1.00  0.00    -0.237 OA
ATOM     82  O   UNL A   1      46.420  37.881  29.517  1.00  0.00    -0.237 OA
ATOM     83  O   UNL A   1      48.709  37.110  30.011  1.00  0.00    -0.744 OA
ENDBRANCH  79  80
ENDBRANCH  58  72
BRANCH  59  84
ATOM     84  C   UNL A   1      43.356  23.444  27.021  1.00  0.00     0.058 A 
ATOM     85  C   UNL A   1      43.033  23.000  25.730  1.00  0.00     0.135 A 
ATOM     86  C   UNL A   1      43.247  22.523  28.074  1.00  0.00     0.135 A 
ATOM     87  F   UNL A   1      43.111  23.845  24.690  1.00  0.00    -0.206 F 
ATOM     88  C   UNL A   1      42.592  21.701  25.494  1.00  0.00     0.059 A 
ATOM     89  C   UNL A   1      42.835  21.211  27.859  1.00  0.00     0.059 A 
ATOM     90  F   UNL A   1      43.558  22.891  29.326  1.00  0.00    -0.206 F 
ATOM     91  C   UNL A   1      42.496  20.813  26.567  1.00  0.00     0.060 A 
BRANCH  91  92
ATOM     92  S   UNL A   1      41.955  19.120  26.248  1.00  0.00     0.124 S 
ATOM     93  O   UNL A   1      42.884  18.706  25.204  1.00  0.00    -0.237 OA
ATOM     94  O   UNL A   1      42.134  18.489  27.552  1.00  0.00    -0.237 OA
ATOM     95  O   UNL A   1      40.566  19.287  25.830  1.00  0.00    -0.744 OA
ENDBRANCH  91  92
ENDBRANCH  59  84
BRANCH  71  96
ATOM     96  C   UNL A   1      49.476  26.738  26.427  1.00  0.00     0.058 A 
ATOM     97  C   UNL A   1      50.317  26.085  27.341  1.00  0.00     0.135 A 
ATOM     98  C   UNL A   1      49.942  26.905  25.113  1.00  0.00     0.135 A 
ATOM     99  F   UNL A   1      49.926  25.905  28.612  1.00  0.00    -0.206 F 
ATOM    100  C   UNL A   1      51.581  25.633  26.970  1.00  0.00     0.059 A 
ATOM    101  C   UNL A   1      51.190  26.437  24.714  1.00  0.00     0.059 A 
ATOM    102  F   UNL A   1      49.174  27.515  24.195  1.00  0.00    -0.206 F 
ATOM    103  C   UNL A   1      52.008  25.813  25.654  1.00  0.00     0.060 A 
BRANCH 103 104
ATOM    104  S   UNL A   1      53.636  25.192  25.177  1.00  0.00     0.124 S 
ATOM    105  O   UNL A   1      54.498  25.836  26.162  1.00  0.00    -0.237 OA
ATOM    106  O   UNL A   1      53.476  23.748  25.324  1.00  0.00    -0.237 OA
ATOM    107  O   UNL A   1      53.792  25.661  23.804  1.00  0.00    -0.744 OA
ENDBRANCH 103 104
ENDBRANCH  71  96
ENDBRANCH  45  46
ENDBRANCH  37  40
ENDBRANCH  35  36
ENDBRANCH  34  35
ENDBRANCH  33  34
ENDBRANCH   1  33
TORSDOF 22
ENDMDL
MODEL 2
REMARK VINA RESULT:     -11.2      1.122      7.868
REMARK SMILES CCCCN(c1ccccc1C(=O)NCCCCCCNC(=O)c1ccc(-c2c3nc(c(-c4c(F)cc(S(=O)(=O)[O-])cc4F)c4ccc([nH]4)c(-c4c(F)cc(S(=O)(=O)[O-])cc4F)c4nc(c(-c5c(F)cc(S(=O)(=O)[O-])cc5F)c5ccc2[nH]5)C=C4)C=C3)cc1)S(=O)(=O)c1ccc2c(c1)oc(=O)n2C
REMARK SMILES IDX 17 1 16 2 15 3 14 4 12 5 13 6 11 8 6 9 7 10 8 11 10 12 9 13
REMARK SMILES IDX 5 14 4 15 3 16 2 17 1 18 90 19 91 20 92 21 93 22 94 23 98 24
REMARK SMILES IDX 95 25 97 26 96 27 99 28 102 29 100 30 103 31 101 32 18 33
REMARK SMILES IDX 19 34 20 35 21 36 22 37 23 39 24 40 25 41 89 42 26 43 88 44
REMARK SMILES IDX 27 45 28 46 29 47 82 48 30 49 87 50 81 51 83 52 31 53 86 54
REMARK SMILES IDX 80 55 79 56 32 58 66 59 45 60 65 61 46 62 49 63 64 64 84 65
REMARK SMILES IDX 47 66 48 67 63 69 85 70 50 71 33 72 34 73 43 74 35 75 36 76
REMARK SMILES IDX 42 77 44 78 37 79 38 80 39 81 40 82 41 83 67 84 68 85 77 86
REMARK SMILES IDX 69 87 70 88 76 89 78 90 71 91 72 92 73 93 74 94 75 95 51 96
REMARK SMILES IDX 52 97 61 98 53 99 54 100 60 101 62 102 55 103 56 104 57 105
REMARK SMILES IDX 58 106 59 107
REMARK H PARENT 14 7 21 38 83 57 49 68
REMARK Flexibility Score: inf
ROOT
ATOM      1  C   UNL A   1      32.895  28.203  27.299  1.00  0.00     0.002 C 
ENDROOT
BRANCH   1   2
ATOM      2  C   UNL A   1      32.646  27.152  26.214  1.00  0.00     0.021 C 
BRANCH   2   3
ATOM      3  C   UNL A   1      31.357  26.345  26.279  1.00  0.00     0.116 C 
BRANCH   3   4
ATOM      4  N   UNL A   1      31.358  25.041  26.848  1.00  0.00    -0.352 N 
ATOM      5  C   UNL A   1      32.276  24.020  26.743  1.00  0.00     0.253 C 
ATOM      6  O   UNL A   1      32.036  23.104  27.548  1.00  0.00    -0.269 OA
ATOM      7  H   UNL A   1      30.576  24.835  27.409  1.00  0.00     0.163 HD
BRANCH   5   8
ATOM      8  C   UNL A   1      33.515  23.859  25.841  1.00  0.00     0.064 A 
ATOM      9  C   UNL A   1      33.833  24.102  24.471  1.00  0.00     0.065 A 
ATOM     10  C   UNL A   1      35.181  23.978  24.032  1.00  0.00     0.028 A 
ATOM     11  C   UNL A   1      36.198  23.487  24.842  1.00  0.00     0.002 A 
ATOM     12  C   UNL A   1      34.602  23.349  26.623  1.00  0.00     0.016 A 
ATOM     13  C   UNL A   1      35.899  23.139  26.138  1.00  0.00     0.001 A 
BRANCH   9  14
ATOM     14  N   UNL A   1      32.959  24.243  23.314  1.00  0.00    -0.266 N 
BRANCH  14  15
ATOM     15  C   UNL A   1      32.563  23.044  22.527  1.00  0.00     0.136 C 
BRANCH  15  16
ATOM     16  C   UNL A   1      31.844  21.920  23.267  1.00  0.00     0.022 C 
BRANCH  16  17
ATOM     17  C   UNL A   1      32.559  20.565  23.390  1.00  0.00    -0.002 C 
ATOM     18  C   UNL A   1      33.456  20.338  24.604  1.00  0.00     0.004 C 
ENDBRANCH  16  17
ENDBRANCH  15  16
ENDBRANCH  14  15
BRANCH  14  19
ATOM     19  S   UNL A   1      33.047  25.805  22.585  1.00  0.00     0.264 S 
ATOM     20  O   UNL A   1      33.905  26.649  23.395  1.00  0.00    -0.201 OA
ATOM     21  O   UNL A   1      33.292  25.675  21.169  1.00  0.00    -0.201 OA
BRANCH  19  22
ATOM     22  C   UNL A   1      31.392  26.452  22.754  1.00  0.00     0.091 A 
ATOM     23  C   UNL A   1      30.379  25.632  23.301  1.00  0.00     0.025 A 
ATOM     24  C   UNL A   1      31.142  27.786  22.412  1.00  0.00     0.071 A 
ATOM     25  C   UNL A   1      29.095  26.142  23.519  1.00  0.00     0.032 A 
ATOM     26  C   UNL A   1      29.863  28.253  22.629  1.00  0.00     0.157 A 
ATOM     27  C   UNL A   1      28.875  27.458  23.176  1.00  0.00     0.090 A 
ATOM     28  O   UNL A   1      29.428  29.542  22.361  1.00  0.00    -0.408 OA
ATOM     29  N   UNL A   1      27.765  28.259  23.279  1.00  0.00    -0.277 N 
ATOM     30  C   UNL A   1      28.098  29.512  22.803  1.00  0.00     0.419 A 
ATOM     31  C   UNL A   1      26.511  27.918  23.882  1.00  0.00     0.157 C 
ATOM     32  O   UNL A   1      27.354  30.483  22.760  1.00  0.00    -0.223 OA
ENDBRANCH  19  22
ENDBRANCH  14  19
ENDBRANCH   9  14
ENDBRANCH   5   8
ENDBRANCH   3   4
ENDBRANCH   2   3
ENDBRANCH   1   2
BRANCH   1  33
ATOM     33  C   UNL A   1      34.180  29.042  27.264  1.00  0.00     0.002 C 
BRANCH  33  34
ATOM     34  C   UNL A   1      34.184  30.471  27.828  1.00  0.00     0.021 C 
BRANCH  34  35
ATOM     35  C   UNL A   1      35.480  31.028  28.422  1.00  0.00     0.116 C 
BRANCH  35  36
ATOM     36  N   UNL A   1      35.429  31.239  29.854  1.00  0.00    -0.352 N 
ATOM     37  C   UNL A   1      36.400  31.032  30.810  1.00  0.00     0.251 C 
ATOM     38  H   UNL A   1      34.571  31.582  30.197  1.00  0.00     0.163 HD
ATOM     39  O   UNL A   1      36.102  31.168  31.995  1.00  0.00    -0.269 OA
BRANCH  37  40
ATOM     40  C   UNL A   1      37.789  30.624  30.454  1.00  0.00     0.039 A 
ATOM     41  C   UNL A   1      38.270  30.953  29.180  1.00  0.00     0.014 A 
ATOM     42  C   UNL A   1      38.590  29.854  31.303  1.00  0.00     0.014 A 
ATOM     43  C   UNL A   1      39.551  30.551  28.776  1.00  0.00     0.010 A 
ATOM     44  C   UNL A   1      39.887  29.484  30.911  1.00  0.00     0.010 A 
ATOM     45  C   UNL A   1      40.383  29.822  29.641  1.00  0.00    -0.014 A 
BRANCH  45  46
ATOM     46  C   UNL A   1      41.754  29.408  29.211  1.00  0.00     0.031 A 
ATOM     47  C   UNL A   1      42.025  28.000  28.743  1.00  0.00     0.074 A 
ATOM     48  C   UNL A   1      42.769  30.296  29.247  1.00  0.00     0.049 A 
ATOM     49  N   UNL A   1      43.152  27.464  28.339  1.00  0.00    -0.248 NA
ATOM     50  C   UNL A   1      40.886  27.070  28.735  1.00  0.00     0.031 C 
ATOM     51  C   UNL A   1      42.661  31.684  29.699  1.00  0.00     0.029 A 
ATOM     52  N   UNL A   1      44.094  30.164  28.904  1.00  0.00    -0.354 N 
ATOM     53  C   UNL A   1      42.860  26.139  28.031  1.00  0.00     0.074 A 
ATOM     54  C   UNL A   1      41.458  25.941  28.337  1.00  0.00     0.031 C 
ATOM     55  C   UNL A   1      43.863  32.277  29.593  1.00  0.00     0.029 A 
ATOM     56  C   UNL A   1      44.835  31.308  29.094  1.00  0.00     0.049 A 
ATOM     57  H   UNL A   1      44.479  29.328  28.553  1.00  0.00     0.167 HD
ATOM     58  C   UNL A   1      43.673  25.181  27.522  1.00  0.00     0.037 A 
ATOM     59  C   UNL A   1      46.148  31.553  28.900  1.00  0.00     0.037 A 
ATOM     60  C   UNL A   1      45.065  25.376  27.202  1.00  0.00     0.049 A 
ATOM     61  C   UNL A   1      47.037  30.465  28.356  1.00  0.00     0.074 A 
ATOM     62  C   UNL A   1      45.954  24.471  26.644  1.00  0.00     0.029 A 
ATOM     63  N   UNL A   1      45.774  26.549  27.410  1.00  0.00    -0.354 N 
ATOM     64  N   UNL A   1      46.725  29.237  28.019  1.00  0.00    -0.248 NA
ATOM     65  C   UNL A   1      48.456  30.797  28.161  1.00  0.00     0.031 C 
ATOM     66  C   UNL A   1      47.209  25.083  26.555  1.00  0.00     0.029 A 
ATOM     67  C   UNL A   1      47.092  26.385  27.011  1.00  0.00     0.049 A 
ATOM     68  H   UNL A   1      45.397  27.377  27.786  1.00  0.00     0.167 HD
ATOM     69  C   UNL A   1      47.901  28.662  27.544  1.00  0.00     0.074 A 
ATOM     70  C   UNL A   1      48.927  29.679  27.626  1.00  0.00     0.031 C 
ATOM     71  C   UNL A   1      48.108  27.404  27.081  1.00  0.00     0.037 A 
BRANCH  58  72
ATOM     72  C   UNL A   1      43.082  23.820  27.266  1.00  0.00     0.058 A 
ATOM     73  C   UNL A   1      42.925  22.882  28.298  1.00  0.00     0.135 A 
ATOM     74  C   UNL A   1      42.604  23.475  25.991  1.00  0.00     0.135 A 
ATOM     75  F   UNL A   1      43.373  23.155  29.533  1.00  0.00    -0.206 F 
ATOM     76  C   UNL A   1      42.334  21.642  28.072  1.00  0.00     0.059 A 
ATOM     77  C   UNL A   1      41.986  22.251  25.748  1.00  0.00     0.059 A 
ATOM     78  F   UNL A   1      42.723  24.335  24.968  1.00  0.00    -0.206 F 
ATOM     79  C   UNL A   1      41.866  21.336  26.793  1.00  0.00     0.060 A 
BRANCH  79  80
ATOM     80  S   UNL A   1      41.085  19.731  26.523  1.00  0.00     0.124 S 
ATOM     81  O   UNL A   1      39.860  20.117  25.827  1.00  0.00    -0.237 OA
ATOM     82  O   UNL A   1      42.078  19.032  25.714  1.00  0.00    -0.237 OA
ATOM     83  O   UNL A   1      40.900  19.209  27.873  1.00  0.00    -0.744 OA
ENDBRANCH  79  80
ENDBRANCH  58  72
BRANCH  59  84
ATOM     84  C   UNL A   1      46.713  32.894  29.216  1.00  0.00     0.058 A 
ATOM     85  C   UNL A   1      46.781  33.901  28.241  1.00  0.00     0.135 A 
ATOM     86  C   UNL A   1      47.216  33.188  30.493  1.00  0.00     0.135 A 
ATOM     87  F   UNL A   1      46.323  33.667  27.001  1.00  0.00    -0.206 F 
ATOM     88  C   UNL A   1      47.348  35.143  28.513  1.00  0.00     0.059 A 
ATOM     89  C   UNL A   1      47.762  34.430  30.797  1.00  0.00     0.059 A 
ATOM     90  F   UNL A   1      47.163  32.265  31.466  1.00  0.00    -0.206 F 
ATOM     91  C   UNL A   1      47.837  35.398  29.796  1.00  0.00     0.060 A 
BRANCH  91  92
ATOM     92  S   UNL A   1      48.542  37.022  30.150  1.00  0.00     0.124 S 
ATOM     93  O   UNL A   1      49.431  37.211  29.011  1.00  0.00    -0.237 OA
ATOM     94  O   UNL A   1      47.356  37.872  30.184  1.00  0.00    -0.237 OA
ATOM     95  O   UNL A   1      49.199  36.827  31.439  1.00  0.00    -0.744 OA
ENDBRANCH  91  92
ENDBRANCH  59  84
BRANCH  71  96
ATOM     96  C   UNL A   1      49.488  27.060  26.585  1.00  0.00     0.058 A 
ATOM     97  C   UNL A   1      49.862  27.254  25.246  1.00  0.00     0.135 A 
ATOM     98  C   UNL A   1      50.462  26.577  27.473  1.00  0.00     0.135 A 
ATOM     99  F   UNL A   1      48.969  27.707  24.353  1.00  0.00    -0.206 F 
ATOM    100  C   UNL A   1      51.148  26.960  24.801  1.00  0.00     0.059 A 
ATOM    101  C   UNL A   1      51.761  26.303  27.056  1.00  0.00     0.059 A 
ATOM    102  F   UNL A   1      50.161  26.382  28.767  1.00  0.00    -0.206 F 
ATOM    103  C   UNL A   1      52.091  26.485  25.714  1.00  0.00     0.060 A 
BRANCH 103 104
ATOM    104  S   UNL A   1      53.766  26.139  25.132  1.00  0.00     0.124 S 
ATOM    105  O   UNL A   1      54.000  27.259  24.227  1.00  0.00    -0.237 OA
ATOM    106  O   UNL A   1      54.538  26.154  26.371  1.00  0.00    -0.237 OA
ATOM    107  O   UNL A   1      53.642  24.832  24.494  1.00  0.00    -0.744 OA
ENDBRANCH 103 104
ENDBRANCH  71  96
ENDBRANCH  45  46
ENDBRANCH  37  40
ENDBRANCH  35  36
ENDBRANCH  34  35
ENDBRANCH  33  34
ENDBRANCH   1  33
TORSDOF 22
ENDMDL
MODEL 3
REMARK VINA RESULT:     -11.2      1.603      3.725
REMARK SMILES CCCCN(c1ccccc1C(=O)NCCCCCCNC(=O)c1ccc(-c2c3nc(c(-c4c(F)cc(S(=O)(=O)[O-])cc4F)c4ccc([nH]4)c(-c4c(F)cc(S(=O)(=O)[O-])cc4F)c4nc(c(-c5c(F)cc(S(=O)(=O)[O-])cc5F)c5ccc2[nH]5)C=C4)C=C3)cc1)S(=O)(=O)c1ccc2c(c1)oc(=O)n2C
REMARK SMILES IDX 17 1 16 2 15 3 14 4 12 5 13 6 11 8 6 9 7 10 8 11 10 12 9 13
REMARK SMILES IDX 5 14 4 15 3 16 2 17 1 18 90 19 91 20 92 21 93 22 94 23 98 24
REMARK SMILES IDX 95 25 97 26 96 27 99 28 102 29 100 30 103 31 101 32 18 33
REMARK SMILES IDX 19 34 20 35 21 36 22 37 23 39 24 40 25 41 89 42 26 43 88 44
REMARK SMILES IDX 27 45 28 46 29 47 82 48 30 49 87 50 81 51 83 52 31 53 86 54
REMARK SMILES IDX 80 55 79 56 32 58 66 59 45 60 65 61 46 62 49 63 64 64 84 65
REMARK SMILES IDX 47 66 48 67 63 69 85 70 50 71 33 72 34 73 43 74 35 75 36 76
REMARK SMILES IDX 42 77 44 78 37 79 38 80 39 81 40 82 41 83 67 84 68 85 77 86
REMARK SMILES IDX 69 87 70 88 76 89 78 90 71 91 72 92 73 93 74 94 75 95 51 96
REMARK SMILES IDX 52 97 61 98 53 99 54 100 60 101 62 102 55 103 56 104 57 105
REMARK SMILES IDX 58 106 59 107
REMARK H PARENT 14 7 21 38 83 57 49 68
REMARK Flexibility Score: inf
ROOT
ATOM      1  C   UNL A   1      32.242  29.119  24.741  1.00  0.00     0.002 C 
ENDROOT
BRANCH   1   2
ATOM      2  C   UNL A   1      32.873  28.627  23.436  1.00  0.00     0.021 C 
BRANCH   2   3
ATOM      3  C   UNL A   1      33.837  27.451  23.503  1.00  0.00     0.116 C 
BRANCH   3   4
ATOM      4  N   UNL A   1      33.671  26.341  22.630  1.00  0.00    -0.352 N 
ATOM      5  C   UNL A   1      33.915  25.000  22.831  1.00  0.00     0.253 C 
ATOM      6  O   UNL A   1      33.454  24.307  21.908  1.00  0.00    -0.269 OA
ATOM      7  H   UNL A   1      33.325  26.567  21.736  1.00  0.00     0.163 HD
BRANCH   5   8
ATOM      8  C   UNL A   1      34.614  24.259  23.986  1.00  0.00     0.064 A 
ATOM      9  C   UNL A   1      34.233  23.739  25.260  1.00  0.00     0.065 A 
ATOM     10  C   UNL A   1      35.156  22.946  25.998  1.00  0.00     0.028 A 
ATOM     11  C   UNL A   1      36.477  22.764  25.608  1.00  0.00     0.002 A 
ATOM     12  C   UNL A   1      35.989  24.046  23.644  1.00  0.00     0.016 A 
ATOM     13  C   UNL A   1      36.906  23.346  24.438  1.00  0.00     0.001 A 
BRANCH   9  14
ATOM     14  N   UNL A   1      33.094  24.067  26.106  1.00  0.00    -0.266 N 
BRANCH  14  15
ATOM     15  C   UNL A   1      32.866  25.472  26.541  1.00  0.00     0.136 C 
BRANCH  15  16
ATOM     16  C   UNL A   1      31.435  25.999  26.505  1.00  0.00     0.022 C 
BRANCH  16  17
ATOM     17  C   UNL A   1      30.451  25.346  25.522  1.00  0.00    -0.002 C 
ATOM     18  C   UNL A   1      30.526  25.760  24.054  1.00  0.00     0.004 C 
ENDBRANCH  16  17
ENDBRANCH  15  16
ENDBRANCH  14  15
BRANCH  14  19
ATOM     19  S   UNL A   1      32.553  22.735  27.061  1.00  0.00     0.264 S 
ATOM     20  O   UNL A   1      33.587  22.401  28.022  1.00  0.00    -0.201 OA
ATOM     21  O   UNL A   1      31.200  22.964  27.506  1.00  0.00    -0.201 OA
BRANCH  19  22
ATOM     22  C   UNL A   1      32.480  21.378  25.902  1.00  0.00     0.091 A 
ATOM     23  C   UNL A   1      32.052  21.619  24.577  1.00  0.00     0.025 A 
ATOM     24  C   UNL A   1      32.920  20.111  26.305  1.00  0.00     0.071 A 
ATOM     25  C   UNL A   1      32.064  20.590  23.630  1.00  0.00     0.032 A 
ATOM     26  C   UNL A   1      32.908  19.117  25.351  1.00  0.00     0.157 A 
ATOM     27  C   UNL A   1      32.503  19.353  24.051  1.00  0.00     0.090 A 
ATOM     28  O   UNL A   1      33.312  17.807  25.557  1.00  0.00    -0.408 OA
ATOM     29  N   UNL A   1      32.660  18.161  23.388  1.00  0.00    -0.277 N 
ATOM     30  C   UNL A   1      33.157  17.237  24.286  1.00  0.00     0.419 A 
ATOM     31  C   UNL A   1      32.470  17.924  21.988  1.00  0.00     0.157 C 
ATOM     32  O   UNL A   1      33.433  16.071  24.034  1.00  0.00    -0.223 OA
ENDBRANCH  19  22
ENDBRANCH  14  19
ENDBRANCH   9  14
ENDBRANCH   5   8
ENDBRANCH   3   4
ENDBRANCH   2   3
ENDBRANCH   1   2
BRANCH   1  33
ATOM     33  C   UNL A   1      33.102  29.867  25.769  1.00  0.00     0.002 C 
BRANCH  33  34
ATOM     34  C   UNL A   1      33.611  29.141  27.023  1.00  0.00     0.021 C 
BRANCH  34  35
ATOM     35  C   UNL A   1      35.046  29.395  27.493  1.00  0.00     0.116 C 
BRANCH  35  36
ATOM     36  N   UNL A   1      35.136  30.075  28.769  1.00  0.00    -0.352 N 
ATOM     37  C   UNL A   1      36.227  30.266  29.590  1.00  0.00     0.251 C 
ATOM     38  H   UNL A   1      34.291  30.458  29.100  1.00  0.00     0.163 HD
ATOM     39  O   UNL A   1      36.052  30.776  30.695  1.00  0.00    -0.269 OA
BRANCH  37  40
ATOM     40  C   UNL A   1      37.601  29.851  29.192  1.00  0.00     0.039 A 
ATOM     41  C   UNL A   1      38.532  29.582  30.203  1.00  0.00     0.014 A 
ATOM     42  C   UNL A   1      38.018  29.805  27.857  1.00  0.00     0.014 A 
ATOM     43  C   UNL A   1      39.853  29.235  29.884  1.00  0.00     0.010 A 
ATOM     44  C   UNL A   1      39.331  29.421  27.538  1.00  0.00     0.010 A 
ATOM     45  C   UNL A   1      40.268  29.137  28.546  1.00  0.00    -0.014 A 
BRANCH  45  46
ATOM     46  C   UNL A   1      41.672  28.752  28.209  1.00  0.00     0.031 A 
ATOM     47  C   UNL A   1      42.770  29.786  28.175  1.00  0.00     0.074 A 
ATOM     48  C   UNL A   1      41.970  27.468  27.922  1.00  0.00     0.049 A 
ATOM     49  N   UNL A   1      44.043  29.635  27.899  1.00  0.00    -0.248 NA
ATOM     50  C   UNL A   1      42.389  31.173  28.484  1.00  0.00     0.031 C 
ATOM     51  C   UNL A   1      41.008  26.365  27.893  1.00  0.00     0.029 A 
ATOM     52  N   UNL A   1      43.165  26.871  27.596  1.00  0.00    -0.354 N 
ATOM     53  C   UNL A   1      44.613  30.900  27.997  1.00  0.00     0.074 A 
ATOM     54  C   UNL A   1      43.537  31.816  28.317  1.00  0.00     0.031 C 
ATOM     55  C   UNL A   1      41.652  25.227  27.580  1.00  0.00     0.029 A 
ATOM     56  C   UNL A   1      43.065  25.520  27.356  1.00  0.00     0.049 A 
ATOM     57  H   UNL A   1      44.015  27.365  27.539  1.00  0.00     0.167 HD
ATOM     58  C   UNL A   1      45.911  31.266  27.856  1.00  0.00     0.037 A 
ATOM     59  C   UNL A   1      43.998  24.616  26.991  1.00  0.00     0.037 A 
ATOM     60  C   UNL A   1      46.988  30.357  27.553  1.00  0.00     0.049 A 
ATOM     61  C   UNL A   1      45.431  25.051  26.817  1.00  0.00     0.074 A 
ATOM     62  C   UNL A   1      48.340  30.636  27.433  1.00  0.00     0.029 A 
ATOM     63  N   UNL A   1      46.842  28.998  27.320  1.00  0.00    -0.354 N 
ATOM     64  N   UNL A   1      45.954  26.243  26.972  1.00  0.00    -0.248 NA
ATOM     65  C   UNL A   1      46.400  24.017  26.425  1.00  0.00     0.031 C 
ATOM     66  C   UNL A   1      49.004  29.455  27.085  1.00  0.00     0.029 A 
ATOM     67  C   UNL A   1      48.075  28.430  27.036  1.00  0.00     0.049 A 
ATOM     68  H   UNL A   1      45.989  28.509  27.351  1.00  0.00     0.167 HD
ATOM     69  C   UNL A   1      47.317  26.095  26.726  1.00  0.00     0.074 A 
ATOM     70  C   UNL A   1      47.538  24.697  26.425  1.00  0.00     0.031 C 
ATOM     71  C   UNL A   1      48.295  27.035  26.750  1.00  0.00     0.037 A 
BRANCH  58  72
ATOM     72  C   UNL A   1      46.255  32.721  28.036  1.00  0.00     0.058 A 
ATOM     73  C   UNL A   1      46.736  33.215  29.259  1.00  0.00     0.135 A 
ATOM     74  C   UNL A   1      46.169  33.616  26.958  1.00  0.00     0.135 A 
ATOM     75  F   UNL A   1      46.828  32.406  30.325  1.00  0.00    -0.206 F 
ATOM     76  C   UNL A   1      47.100  34.550  29.412  1.00  0.00     0.059 A 
ATOM     77  C   UNL A   1      46.554  34.949  27.080  1.00  0.00     0.059 A 
ATOM     78  F   UNL A   1      45.721  33.197  25.764  1.00  0.00    -0.206 F 
ATOM     79  C   UNL A   1      47.007  35.410  28.316  1.00  0.00     0.060 A 
BRANCH  79  80
ATOM     80  S   UNL A   1      47.503  37.132  28.527  1.00  0.00     0.124 S 
ATOM     81  O   UNL A   1      48.951  37.040  28.368  1.00  0.00    -0.237 OA
ATOM     82  O   UNL A   1      46.788  37.799  27.443  1.00  0.00    -0.237 OA
ATOM     83  O   UNL A   1      47.040  37.458  29.872  1.00  0.00    -0.744 OA
ENDBRANCH  79  80
ENDBRANCH  58  72
BRANCH  59  84
ATOM     84  C   UNL A   1      43.616  23.194  26.767  1.00  0.00     0.058 A 
ATOM     85  C   UNL A   1      43.583  22.645  25.476  1.00  0.00     0.135 A 
ATOM     86  C   UNL A   1      43.256  22.362  27.839  1.00  0.00     0.135 A 
ATOM     87  F   UNL A   1      43.909  23.402  24.417  1.00  0.00    -0.206 F 
ATOM     88  C   UNL A   1      43.185  21.330  25.252  1.00  0.00     0.059 A 
ATOM     89  C   UNL A   1      42.880  21.037  27.643  1.00  0.00     0.059 A 
ATOM     90  F   UNL A   1      43.283  22.833  29.095  1.00  0.00    -0.206 F 
ATOM     91  C   UNL A   1      42.834  20.534  26.344  1.00  0.00     0.060 A 
BRANCH  91  92
ATOM     92  S   UNL A   1      42.349  18.819  26.048  1.00  0.00     0.124 S 
ATOM     93  O   UNL A   1      43.233  18.449  24.951  1.00  0.00    -0.237 OA
ATOM     94  O   UNL A   1      42.630  18.193  27.337  1.00  0.00    -0.237 OA
ATOM     95  O   UNL A   1      40.932  18.927  25.710  1.00  0.00    -0.744 OA
ENDBRANCH  91  92
ENDBRANCH  59  84
BRANCH  71  96
ATOM     96  C   UNL A   1      49.706  26.583  26.483  1.00  0.00     0.058 A 
ATOM     97  C   UNL A   1      50.487  25.970  27.475  1.00  0.00     0.135 A 
ATOM     98  C   UNL A   1      50.265  26.720  25.202  1.00  0.00     0.135 A 
ATOM     99  F   UNL A   1      50.004  25.819  28.718  1.00  0.00    -0.206 F 
ATOM    100  C   UNL A   1      51.781  25.529  27.212  1.00  0.00     0.059 A 
ATOM    101  C   UNL A   1      51.547  26.262  24.910  1.00  0.00     0.059 A 
ATOM    102  F   UNL A   1      49.559  27.291  24.213  1.00  0.00    -0.206 F 
ATOM    103  C   UNL A   1      52.302  25.679  25.926  1.00  0.00     0.060 A 
BRANCH 103 104
ATOM    104  S   UNL A   1      53.970  25.073  25.589  1.00  0.00     0.124 S 
ATOM    105  O   UNL A   1      54.217  25.613  24.257  1.00  0.00    -0.237 OA
ATOM    106  O   UNL A   1      54.746  25.674  26.670  1.00  0.00    -0.237 OA
ATOM    107  O   UNL A   1      53.827  23.622  25.663  1.00  0.00    -0.744 OA
ENDBRANCH 103 104
ENDBRANCH  71  96
ENDBRANCH  45  46
ENDBRANCH  37  40
ENDBRANCH  35  36
ENDBRANCH  34  35
ENDBRANCH  33  34
ENDBRANCH   1  33
TORSDOF 22
ENDMDL
