MODEL 1
REMARK VINA RESULT:     -11.9      0.000      0.000
REMARK SMILES CS(=O)(=O)c1cc(F)ccc1N1CCC[C@@H](C(=O)NCCCCCCNC(=O)c2ccc(-c3c4nc(c(-c5c(F)cc(S(=O)(=O)[O-])cc5F)c5ccc([nH]5)c(-c5c(F)cc(S(=O)(=O)[O-])cc5F)c5nc(c(-c6c(F)cc(S(=O)(=O)[O-])cc6F)c6ccc3[nH]6)C=C5)C=C4)cc2)C1
REMARK SMILES IDX 23 1 22 2 21 3 20 4 19 5 17 6 18 7 16 9 12 10 13 11 95 12
REMARK SMILES IDX 14 13 15 14 11 15 5 16 6 17 7 18 10 19 8 20 9 21 2 22 1 23
REMARK SMILES IDX 3 24 4 25 24 26 25 27 26 28 27 29 28 31 29 32 30 33 94 34
REMARK SMILES IDX 31 35 93 36 32 37 33 38 34 39 87 40 35 41 92 42 86 43 88 44
REMARK SMILES IDX 36 45 91 46 85 47 84 48 37 50 71 51 50 52 70 53 51 54 54 55
REMARK SMILES IDX 69 56 89 57 52 58 53 59 68 61 90 62 55 63 38 64 39 65 48 66
REMARK SMILES IDX 40 67 41 68 47 69 49 70 42 71 43 72 44 73 45 74 46 75 72 76
REMARK SMILES IDX 73 77 82 78 74 79 75 80 81 81 83 82 76 83 77 84 78 85 79 86
REMARK SMILES IDX 80 87 56 88 57 89 66 90 58 91 59 92 65 93 67 94 60 95 61 96
REMARK SMILES IDX 62 97 63 98 64 99
REMARK H PARENT 19 8 26 30 88 49 54 60
REMARK Flexibility Score: inf
ROOT
ATOM      1  C   UNL A   1      32.490  28.684  24.885  1.00  0.00     0.002 C 
ENDROOT
BRANCH   1   2
ATOM      2  C   UNL A   1      31.345  27.697  24.632  1.00  0.00     0.002 C 
BRANCH   2   3
ATOM      3  C   UNL A   1      30.825  26.966  25.880  1.00  0.00     0.021 C 
BRANCH   3   4
ATOM      4  C   UNL A   1      29.724  25.943  25.595  1.00  0.00     0.116 C 
BRANCH   4   5
ATOM      5  N   UNL A   1      29.817  24.838  26.530  1.00  0.00    -0.356 N 
ATOM      6  C   UNL A   1      30.380  23.612  26.383  1.00  0.00     0.224 C 
ATOM      7  O   UNL A   1      30.112  22.750  27.224  1.00  0.00    -0.275 OA
ATOM      8  H   UNL A   1      29.408  25.004  27.411  1.00  0.00     0.163 HD
BRANCH   6   9
ATOM      9  C   UNL A   1      31.404  23.361  25.291  1.00  0.00     0.098 C 
ATOM     10  N   UNL A   1      32.617  21.385  24.350  1.00  0.00    -0.370 N 
ATOM     11  C   UNL A   1      32.145  21.666  22.989  1.00  0.00     0.116 C 
ATOM     12  C   UNL A   1      31.851  21.910  25.485  1.00  0.00     0.130 C 
ATOM     13  C   UNL A   1      31.748  23.130  22.822  1.00  0.00     0.022 C 
ATOM     14  C   UNL A   1      30.772  23.562  23.911  1.00  0.00     0.017 C 
BRANCH  10  15
ATOM     15  C   UNL A   1      33.918  20.956  24.545  1.00  0.00     0.056 A 
ATOM     16  C   UNL A   1      34.323  19.616  24.689  1.00  0.00     0.093 A 
ATOM     17  C   UNL A   1      35.684  19.296  24.888  1.00  0.00     0.061 A 
ATOM     18  C   UNL A   1      36.643  20.291  24.932  1.00  0.00     0.124 A 
ATOM     19  C   UNL A   1      34.934  21.939  24.605  1.00  0.00     0.030 A 
ATOM     20  F   UNL A   1      37.932  19.964  25.097  1.00  0.00    -0.207 F 
ATOM     21  C   UNL A   1      36.282  21.615  24.791  1.00  0.00     0.041 A 
BRANCH  16  22
ATOM     22  S   UNL A   1      33.306  18.167  24.550  1.00  0.00     0.177 S 
ATOM     23  C   UNL A   1      32.736  17.872  22.918  1.00  0.00     0.164 C 
ATOM     24  O   UNL A   1      32.130  18.424  25.364  1.00  0.00    -0.224 OA
ATOM     25  O   UNL A   1      34.180  17.049  24.870  1.00  0.00    -0.224 OA
ENDBRANCH  16  22
ENDBRANCH  10  15
ENDBRANCH   6   9
ENDBRANCH   4   5
ENDBRANCH   3   4
ENDBRANCH   2   3
ENDBRANCH   1   2
BRANCH   1  26
ATOM     26  C   UNL A   1      33.688  28.106  25.642  1.00  0.00     0.021 C 
BRANCH  26  27
ATOM     27  C   UNL A   1      33.665  28.339  27.148  1.00  0.00     0.116 C 
BRANCH  27  28
ATOM     28  N   UNL A   1      33.545  29.747  27.488  1.00  0.00    -0.352 N 
ATOM     29  C   UNL A   1      34.458  30.569  28.100  1.00  0.00     0.251 C 
ATOM     30  H   UNL A   1      32.690  30.170  27.244  1.00  0.00     0.163 HD
ATOM     31  O   UNL A   1      34.123  31.692  28.466  1.00  0.00    -0.269 OA
BRANCH  29  32
ATOM     32  C   UNL A   1      35.838  30.090  28.336  1.00  0.00     0.039 A 
ATOM     33  C   UNL A   1      36.757  30.132  27.285  1.00  0.00     0.014 A 
ATOM     34  C   UNL A   1      36.224  29.603  29.589  1.00  0.00     0.014 A 
ATOM     35  C   UNL A   1      38.080  29.739  27.506  1.00  0.00     0.010 A 
ATOM     36  C   UNL A   1      37.557  29.275  29.824  1.00  0.00     0.010 A 
ATOM     37  C   UNL A   1      38.497  29.338  28.786  1.00  0.00    -0.014 A 
BRANCH  37  38
ATOM     38  C   UNL A   1      39.915  28.984  29.056  1.00  0.00     0.031 A 
ATOM     39  C   UNL A   1      40.840  29.991  29.683  1.00  0.00     0.074 A 
ATOM     40  C   UNL A   1      40.383  27.775  28.689  1.00  0.00     0.049 A 
ATOM     41  N   UNL A   1      42.120  29.892  29.931  1.00  0.00    -0.248 NA
ATOM     42  C   UNL A   1      40.255  31.290  30.057  1.00  0.00     0.031 C 
ATOM     43  C   UNL A   1      39.592  26.726  28.041  1.00  0.00     0.029 A 
ATOM     44  N   UNL A   1      41.634  27.224  28.801  1.00  0.00    -0.354 N 
ATOM     45  C   UNL A   1      42.495  31.112  30.483  1.00  0.00     0.074 A 
ATOM     46  C   UNL A   1      41.319  31.954  30.482  1.00  0.00     0.031 C 
ATOM     47  C   UNL A   1      40.370  25.649  27.842  1.00  0.00     0.029 A 
ATOM     48  C   UNL A   1      41.721  25.944  28.311  1.00  0.00     0.049 A 
ATOM     49  H   UNL A   1      42.399  27.702  29.198  1.00  0.00     0.167 HD
ATOM     50  C   UNL A   1      43.703  31.485  30.969  1.00  0.00     0.037 A 
ATOM     51  C   UNL A   1      42.770  25.100  28.241  1.00  0.00     0.037 A 
ATOM     52  C   UNL A   1      44.863  30.632  30.990  1.00  0.00     0.049 A 
ATOM     53  C   UNL A   1      44.105  25.540  28.774  1.00  0.00     0.074 A 
ATOM     54  C   UNL A   1      46.120  30.906  31.501  1.00  0.00     0.029 A 
ATOM     55  N   UNL A   1      44.910  29.342  30.482  1.00  0.00    -0.354 N 
ATOM     56  N   UNL A   1      44.432  26.685  29.325  1.00  0.00    -0.248 NA
ATOM     57  C   UNL A   1      45.212  24.579  28.679  1.00  0.00     0.031 C 
ATOM     58  C   UNL A   1      46.937  29.795  31.268  1.00  0.00     0.029 A 
ATOM     59  C   UNL A   1      46.179  28.813  30.652  1.00  0.00     0.049 A 
ATOM     60  H   UNL A   1      44.153  28.872  30.063  1.00  0.00     0.167 HD
ATOM     61  C   UNL A   1      45.777  26.574  29.661  1.00  0.00     0.074 A 
ATOM     62  C   UNL A   1      46.199  25.248  29.260  1.00  0.00     0.031 C 
ATOM     63  C   UNL A   1      46.586  27.490  30.249  1.00  0.00     0.037 A 
BRANCH  50  64
ATOM     64  C   UNL A   1      43.831  32.874  31.532  1.00  0.00     0.058 A 
ATOM     65  C   UNL A   1      43.559  33.127  32.885  1.00  0.00     0.135 A 
ATOM     66  C   UNL A   1      44.178  33.965  30.718  1.00  0.00     0.135 A 
ATOM     67  F   UNL A   1      43.229  32.121  33.710  1.00  0.00    -0.206 F 
ATOM     68  C   UNL A   1      43.617  34.414  33.410  1.00  0.00     0.059 A 
ATOM     69  C   UNL A   1      44.268  35.256  31.227  1.00  0.00     0.059 A 
ATOM     70  F   UNL A   1      44.469  33.774  29.421  1.00  0.00    -0.206 F 
ATOM     71  C   UNL A   1      43.974  35.472  32.573  1.00  0.00     0.060 A 
BRANCH  71  72
ATOM     72  S   UNL A   1      44.090  37.131  33.280  1.00  0.00     0.124 S 
ATOM     73  O   UNL A   1      42.886  37.193  34.098  1.00  0.00    -0.237 OA
ATOM     74  O   UNL A   1      45.354  37.064  34.008  1.00  0.00    -0.237 OA
ATOM     75  O   UNL A   1      44.101  37.997  32.105  1.00  0.00    -0.744 OA
ENDBRANCH  71  72
ENDBRANCH  50  64
BRANCH  51  76
ATOM     76  C   UNL A   1      42.578  23.738  27.676  1.00  0.00     0.058 A 
ATOM     77  C   UNL A   1      42.366  22.626  28.504  1.00  0.00     0.135 A 
ATOM     78  C   UNL A   1      42.655  23.520  26.292  1.00  0.00     0.135 A 
ATOM     79  F   UNL A   1      42.295  22.781  29.835  1.00  0.00    -0.206 F 
ATOM     80  C   UNL A   1      42.273  21.339  27.984  1.00  0.00     0.059 A 
ATOM     81  C   UNL A   1      42.541  22.245  25.746  1.00  0.00     0.059 A 
ATOM     82  F   UNL A   1      42.843  24.556  25.461  1.00  0.00    -0.206 F 
ATOM     83  C   UNL A   1      42.369  21.159  26.603  1.00  0.00     0.060 A 
BRANCH  83  84
ATOM     84  S   UNL A   1      42.280  19.478  25.951  1.00  0.00     0.124 S 
ATOM     85  O   UNL A   1      43.187  19.561  24.811  1.00  0.00    -0.237 OA
ATOM     86  O   UNL A   1      42.753  18.686  27.082  1.00  0.00    -0.237 OA
ATOM     87  O   UNL A   1      40.868  19.315  25.622  1.00  0.00    -0.744 OA
ENDBRANCH  83  84
ENDBRANCH  51  76
BRANCH  63  88
ATOM     88  C   UNL A   1      48.012  27.094  30.515  1.00  0.00     0.058 A 
ATOM     89  C   UNL A   1      48.398  26.640  31.785  1.00  0.00     0.135 A 
ATOM     90  C   UNL A   1      49.009  27.249  29.541  1.00  0.00     0.135 A 
ATOM     91  F   UNL A   1      47.484  26.478  32.754  1.00  0.00    -0.206 F 
ATOM     92  C   UNL A   1      49.729  26.373  32.088  1.00  0.00     0.059 A 
ATOM     93  C   UNL A   1      50.344  26.965  29.813  1.00  0.00     0.059 A 
ATOM     94  F   UNL A   1      48.689  27.671  28.306  1.00  0.00    -0.206 F 
ATOM     95  C   UNL A   1      50.696  26.546  31.096  1.00  0.00     0.060 A 
BRANCH  95  96
ATOM     96  S   UNL A   1      52.420  26.196  31.506  1.00  0.00     0.124 S 
ATOM     97  O   UNL A   1      52.683  27.180  32.552  1.00  0.00    -0.237 OA
ATOM     98  O   UNL A   1      52.358  24.805  31.943  1.00  0.00    -0.237 OA
ATOM     99  O   UNL A   1      53.120  26.419  30.244  1.00  0.00    -0.744 OA
ENDBRANCH  95  96
ENDBRANCH  63  88
ENDBRANCH  37  38
ENDBRANCH  29  32
ENDBRANCH  27  28
ENDBRANCH  26  27
ENDBRANCH   1  26
TORSDOF 18
ENDMDL
MODEL 2
REMARK VINA RESULT:     -11.9      2.692      3.492
REMARK SMILES CS(=O)(=O)c1cc(F)ccc1N1CCC[C@@H](C(=O)NCCCCCCNC(=O)c2ccc(-c3c4nc(c(-c5c(F)cc(S(=O)(=O)[O-])cc5F)c5ccc([nH]5)c(-c5c(F)cc(S(=O)(=O)[O-])cc5F)c5nc(c(-c6c(F)cc(S(=O)(=O)[O-])cc6F)c6ccc3[nH]6)C=C5)C=C4)cc2)C1
REMARK SMILES IDX 23 1 22 2 21 3 20 4 19 5 17 6 18 7 16 9 12 10 13 11 95 12
REMARK SMILES IDX 14 13 15 14 11 15 5 16 6 17 7 18 10 19 8 20 9 21 2 22 1 23
REMARK SMILES IDX 3 24 4 25 24 26 25 27 26 28 27 29 28 31 29 32 30 33 94 34
REMARK SMILES IDX 31 35 93 36 32 37 33 38 34 39 87 40 35 41 92 42 86 43 88 44
REMARK SMILES IDX 36 45 91 46 85 47 84 48 37 50 71 51 50 52 70 53 51 54 54 55
REMARK SMILES IDX 69 56 89 57 52 58 53 59 68 61 90 62 55 63 38 64 39 65 48 66
REMARK SMILES IDX 40 67 41 68 47 69 49 70 42 71 43 72 44 73 45 74 46 75 72 76
REMARK SMILES IDX 73 77 82 78 74 79 75 80 81 81 83 82 76 83 77 84 78 85 79 86
REMARK SMILES IDX 80 87 56 88 57 89 66 90 58 91 59 92 65 93 67 94 60 95 61 96
REMARK SMILES IDX 62 97 63 98 64 99
REMARK H PARENT 19 8 26 30 88 49 54 60
REMARK Flexibility Score: inf
ROOT
ATOM      1  C   UNL A   1      33.071  29.630  26.604  1.00  0.00     0.002 C 
ENDROOT
BRANCH   1   2
ATOM      2  C   UNL A   1      31.904  28.716  26.213  1.00  0.00     0.002 C 
BRANCH   2   3
ATOM      3  C   UNL A   1      32.063  27.243  26.621  1.00  0.00     0.021 C 
BRANCH   3   4
ATOM      4  C   UNL A   1      31.080  26.292  25.937  1.00  0.00     0.116 C 
BRANCH   4   5
ATOM      5  N   UNL A   1      30.820  25.146  26.788  1.00  0.00    -0.356 N 
ATOM      6  C   UNL A   1      30.938  23.820  26.530  1.00  0.00     0.224 C 
ATOM      7  O   UNL A   1      30.418  23.030  27.321  1.00  0.00    -0.275 OA
ATOM      8  H   UNL A   1      30.511  25.366  27.697  1.00  0.00     0.163 HD
BRANCH   6   9
ATOM      9  C   UNL A   1      31.794  23.334  25.374  1.00  0.00     0.098 C 
ATOM     10  N   UNL A   1      32.699  21.143  24.571  1.00  0.00    -0.370 N 
ATOM     11  C   UNL A   1      32.091  21.308  23.246  1.00  0.00     0.116 C 
ATOM     12  C   UNL A   1      32.127  21.877  25.706  1.00  0.00     0.130 C 
ATOM     13  C   UNL A   1      31.812  22.776  22.933  1.00  0.00     0.022 C 
ATOM     14  C   UNL A   1      31.019  23.434  24.057  1.00  0.00     0.017 C 
BRANCH  10  15
ATOM     15  C   UNL A   1      33.969  20.605  24.677  1.00  0.00     0.056 A 
ATOM     16  C   UNL A   1      34.282  19.234  24.636  1.00  0.00     0.093 A 
ATOM     17  C   UNL A   1      35.620  18.799  24.758  1.00  0.00     0.061 A 
ATOM     18  C   UNL A   1      36.647  19.714  24.907  1.00  0.00     0.124 A 
ATOM     19  C   UNL A   1      35.052  21.502  24.840  1.00  0.00     0.030 A 
ATOM     20  F   UNL A   1      37.912  19.283  24.997  1.00  0.00    -0.207 F 
ATOM     21  C   UNL A   1      36.377  21.066  24.949  1.00  0.00     0.041 A 
BRANCH  16  22
ATOM     22  S   UNL A   1      33.164  17.887  24.333  1.00  0.00     0.177 S 
ATOM     23  C   UNL A   1      33.816  16.326  24.793  1.00  0.00     0.164 C 
ATOM     24  O   UNL A   1      32.963  17.849  22.895  1.00  0.00    -0.224 OA
ATOM     25  O   UNL A   1      32.032  18.118  25.218  1.00  0.00    -0.224 OA
ENDBRANCH  16  22
ENDBRANCH  10  15
ENDBRANCH   6   9
ENDBRANCH   4   5
ENDBRANCH   3   4
ENDBRANCH   2   3
ENDBRANCH   1   2
BRANCH   1  26
ATOM     26  C   UNL A   1      34.305  28.908  27.151  1.00  0.00     0.021 C 
BRANCH  26  27
ATOM     27  C   UNL A   1      35.405  29.826  27.670  1.00  0.00     0.116 C 
BRANCH  27  28
ATOM     28  N   UNL A   1      35.282  30.084  29.095  1.00  0.00    -0.352 N 
ATOM     29  C   UNL A   1      36.232  29.973  30.079  1.00  0.00     0.251 C 
ATOM     30  H   UNL A   1      34.392  30.381  29.396  1.00  0.00     0.163 HD
ATOM     31  O   UNL A   1      35.907  30.064  31.260  1.00  0.00    -0.269 OA
BRANCH  29  32
ATOM     32  C   UNL A   1      37.643  29.719  29.714  1.00  0.00     0.039 A 
ATOM     33  C   UNL A   1      38.530  29.289  30.705  1.00  0.00     0.014 A 
ATOM     34  C   UNL A   1      38.091  29.904  28.403  1.00  0.00     0.014 A 
ATOM     35  C   UNL A   1      39.852  28.988  30.366  1.00  0.00     0.010 A 
ATOM     36  C   UNL A   1      39.389  29.541  28.055  1.00  0.00     0.010 A 
ATOM     37  C   UNL A   1      40.283  29.081  29.033  1.00  0.00    -0.014 A 
BRANCH  37  38
ATOM     38  C   UNL A   1      41.665  28.698  28.643  1.00  0.00     0.031 A 
ATOM     39  C   UNL A   1      42.761  29.728  28.636  1.00  0.00     0.074 A 
ATOM     40  C   UNL A   1      41.921  27.437  28.246  1.00  0.00     0.049 A 
ATOM     41  N   UNL A   1      44.008  29.602  28.262  1.00  0.00    -0.248 NA
ATOM     42  C   UNL A   1      42.404  31.084  29.085  1.00  0.00     0.031 C 
ATOM     43  C   UNL A   1      40.934  26.357  28.176  1.00  0.00     0.029 A 
ATOM     44  N   UNL A   1      43.085  26.848  27.820  1.00  0.00    -0.354 N 
ATOM     45  C   UNL A   1      44.582  30.858  28.422  1.00  0.00     0.074 A 
ATOM     46  C   UNL A   1      43.533  31.745  28.876  1.00  0.00     0.031 C 
ATOM     47  C   UNL A   1      41.541  25.232  27.764  1.00  0.00     0.029 A 
ATOM     48  C   UNL A   1      42.949  25.518  27.502  1.00  0.00     0.049 A 
ATOM     49  H   UNL A   1      43.939  27.334  27.749  1.00  0.00     0.167 HD
ATOM     50  C   UNL A   1      45.870  31.230  28.233  1.00  0.00     0.037 A 
ATOM     51  C   UNL A   1      43.852  24.628  27.048  1.00  0.00     0.037 A 
ATOM     52  C   UNL A   1      46.914  30.336  27.806  1.00  0.00     0.049 A 
ATOM     53  C   UNL A   1      45.274  25.066  26.832  1.00  0.00     0.074 A 
ATOM     54  C   UNL A   1      48.259  30.611  27.629  1.00  0.00     0.029 A 
ATOM     55  N   UNL A   1      46.735  28.996  27.494  1.00  0.00    -0.354 N 
ATOM     56  N   UNL A   1      45.806  26.250  27.024  1.00  0.00    -0.248 NA
ATOM     57  C   UNL A   1      46.218  24.054  26.341  1.00  0.00     0.031 C 
ATOM     58  C   UNL A   1      48.886  29.447  27.171  1.00  0.00     0.029 A 
ATOM     59  C   UNL A   1      47.941  28.435  27.108  1.00  0.00     0.049 A 
ATOM     60  H   UNL A   1      45.877  28.516  27.540  1.00  0.00     0.167 HD
ATOM     61  C   UNL A   1      47.151  26.119  26.697  1.00  0.00     0.074 A 
ATOM     62  C   UNL A   1      47.353  24.740  26.304  1.00  0.00     0.031 C 
ATOM     63  C   UNL A   1      48.128  27.059  26.721  1.00  0.00     0.037 A 
BRANCH  50  64
ATOM     64  C   UNL A   1      46.228  32.667  28.500  1.00  0.00     0.058 A 
ATOM     65  C   UNL A   1      46.202  33.616  27.466  1.00  0.00     0.135 A 
ATOM     66  C   UNL A   1      46.645  33.095  29.771  1.00  0.00     0.135 A 
ATOM     67  F   UNL A   1      45.807  33.264  26.233  1.00  0.00    -0.206 F 
ATOM     68  C   UNL A   1      46.585  34.936  27.681  1.00  0.00     0.059 A 
ATOM     69  C   UNL A   1      47.007  34.415  30.015  1.00  0.00     0.059 A 
ATOM     70  F   UNL A   1      46.667  32.232  30.800  1.00  0.00    -0.206 F 
ATOM     71  C   UNL A   1      46.985  35.326  28.960  1.00  0.00     0.060 A 
BRANCH  71  72
ATOM     72  S   UNL A   1      47.435  37.054  29.234  1.00  0.00     0.124 S 
ATOM     73  O   UNL A   1      48.155  36.979  30.499  1.00  0.00    -0.237 OA
ATOM     74  O   UNL A   1      48.244  37.349  28.055  1.00  0.00    -0.237 OA
ATOM     75  O   UNL A   1      46.145  37.735  29.282  1.00  0.00    -0.744 OA
ENDBRANCH  71  72
ENDBRANCH  50  64
BRANCH  51  76
ATOM     76  C   UNL A   1      43.436  23.221  26.806  1.00  0.00     0.058 A 
ATOM     77  C   UNL A   1      43.163  22.346  27.869  1.00  0.00     0.135 A 
ATOM     78  C   UNL A   1      43.355  22.712  25.501  1.00  0.00     0.135 A 
ATOM     79  F   UNL A   1      43.236  22.782  29.136  1.00  0.00    -0.206 F 
ATOM     80  C   UNL A   1      42.857  21.007  27.648  1.00  0.00     0.059 A 
ATOM     81  C   UNL A   1      43.028  21.382  25.254  1.00  0.00     0.059 A 
ATOM     82  F   UNL A   1      43.595  23.515  24.454  1.00  0.00    -0.206 F 
ATOM     83  C   UNL A   1      42.799  20.533  26.337  1.00  0.00     0.060 A 
BRANCH  83  84
ATOM     84  S   UNL A   1      42.437  18.784  26.073  1.00  0.00     0.124 S 
ATOM     85  O   UNL A   1      41.023  18.832  25.714  1.00  0.00    -0.237 OA
ATOM     86  O   UNL A   1      43.355  18.442  24.993  1.00  0.00    -0.237 OA
ATOM     87  O   UNL A   1      42.737  18.177  27.366  1.00  0.00    -0.744 OA
ENDBRANCH  83  84
ENDBRANCH  51  76
BRANCH  63  88
ATOM     88  C   UNL A   1      49.516  26.634  26.328  1.00  0.00     0.058 A 
ATOM     89  C   UNL A   1      50.011  26.921  25.046  1.00  0.00     0.135 A 
ATOM     90  C   UNL A   1      50.319  25.869  27.186  1.00  0.00     0.135 A 
ATOM     91  F   UNL A   1      49.281  27.647  24.185  1.00  0.00    -0.206 F 
ATOM     92  C   UNL A   1      51.245  26.445  24.620  1.00  0.00     0.059 A 
ATOM     93  C   UNL A   1      51.569  25.402  26.790  1.00  0.00     0.059 A 
ATOM     94  F   UNL A   1      49.896  25.577  28.426  1.00  0.00    -0.206 F 
ATOM     95  C   UNL A   1      52.015  25.680  25.498  1.00  0.00     0.060 A 
BRANCH  95  96
ATOM     96  S   UNL A   1      53.616  25.068  24.929  1.00  0.00     0.124 S 
ATOM     97  O   UNL A   1      53.525  25.291  23.490  1.00  0.00    -0.237 OA
ATOM     98  O   UNL A   1      54.550  25.929  25.648  1.00  0.00    -0.237 OA
ATOM     99  O   UNL A   1      53.613  23.669  25.350  1.00  0.00    -0.744 OA
ENDBRANCH  95  96
ENDBRANCH  63  88
ENDBRANCH  37  38
ENDBRANCH  29  32
ENDBRANCH  27  28
ENDBRANCH  26  27
ENDBRANCH   1  26
TORSDOF 18
ENDMDL
MODEL 3
REMARK VINA RESULT:     -11.7      1.734      2.303
REMARK SMILES CS(=O)(=O)c1cc(F)ccc1N1CCC[C@@H](C(=O)NCCCCCCNC(=O)c2ccc(-c3c4nc(c(-c5c(F)cc(S(=O)(=O)[O-])cc5F)c5ccc([nH]5)c(-c5c(F)cc(S(=O)(=O)[O-])cc5F)c5nc(c(-c6c(F)cc(S(=O)(=O)[O-])cc6F)c6ccc3[nH]6)C=C5)C=C4)cc2)C1
REMARK SMILES IDX 23 1 22 2 21 3 20 4 19 5 17 6 18 7 16 9 12 10 13 11 95 12
REMARK SMILES IDX 14 13 15 14 11 15 5 16 6 17 7 18 10 19 8 20 9 21 2 22 1 23
REMARK SMILES IDX 3 24 4 25 24 26 25 27 26 28 27 29 28 31 29 32 30 33 94 34
REMARK SMILES IDX 31 35 93 36 32 37 33 38 34 39 87 40 35 41 92 42 86 43 88 44
REMARK SMILES IDX 36 45 91 46 85 47 84 48 37 50 71 51 50 52 70 53 51 54 54 55
REMARK SMILES IDX 69 56 89 57 52 58 53 59 68 61 90 62 55 63 38 64 39 65 48 66
REMARK SMILES IDX 40 67 41 68 47 69 49 70 42 71 43 72 44 73 45 74 46 75 72 76
REMARK SMILES IDX 73 77 82 78 74 79 75 80 81 81 83 82 76 83 77 84 78 85 79 86
REMARK SMILES IDX 80 87 56 88 57 89 66 90 58 91 59 92 65 93 67 94 60 95 61 96
REMARK SMILES IDX 62 97 63 98 64 99
REMARK H PARENT 19 8 26 30 88 49 54 60
REMARK Flexibility Score: inf
ROOT
ATOM      1  C   UNL A   1      32.420  29.273  25.167  1.00  0.00     0.002 C 
ENDROOT
BRANCH   1   2
ATOM      2  C   UNL A   1      31.432  28.961  24.037  1.00  0.00     0.002 C 
BRANCH   2   3
ATOM      3  C   UNL A   1      32.065  28.777  22.650  1.00  0.00     0.021 C 
BRANCH   3   4
ATOM      4  C   UNL A   1      33.078  27.634  22.567  1.00  0.00     0.116 C 
BRANCH   4   5
ATOM      5  N   UNL A   1      32.965  26.959  21.288  1.00  0.00    -0.356 N 
ATOM      6  C   UNL A   1      32.789  25.644  21.005  1.00  0.00     0.224 C 
ATOM      7  O   UNL A   1      32.980  25.274  19.844  1.00  0.00    -0.275 OA
ATOM      8  H   UNL A   1      33.025  27.548  20.502  1.00  0.00     0.163 HD
BRANCH   6   9
ATOM      9  C   UNL A   1      32.252  24.694  22.061  1.00  0.00     0.098 C 
ATOM     10  N   UNL A   1      33.136  23.557  24.107  1.00  0.00    -0.370 N 
ATOM     11  C   UNL A   1      32.072  24.114  24.951  1.00  0.00     0.116 C 
ATOM     12  C   UNL A   1      33.479  24.245  22.858  1.00  0.00     0.130 C 
ATOM     13  C   UNL A   1      30.850  24.512  24.127  1.00  0.00     0.022 C 
ATOM     14  C   UNL A   1      31.244  25.413  22.962  1.00  0.00     0.017 C 
BRANCH  10  15
ATOM     15  C   UNL A   1      33.544  22.249  24.300  1.00  0.00     0.056 A 
ATOM     16  C   UNL A   1      34.858  21.838  24.591  1.00  0.00     0.093 A 
ATOM     17  C   UNL A   1      35.160  20.469  24.765  1.00  0.00     0.061 A 
ATOM     18  C   UNL A   1      34.168  19.511  24.665  1.00  0.00     0.124 A 
ATOM     19  C   UNL A   1      32.565  21.232  24.199  1.00  0.00     0.030 A 
ATOM     20  F   UNL A   1      34.470  18.220  24.857  1.00  0.00    -0.207 F 
ATOM     21  C   UNL A   1      32.868  19.879  24.383  1.00  0.00     0.041 A 
BRANCH  16  22
ATOM     22  S   UNL A   1      36.267  22.878  24.886  1.00  0.00     0.177 S 
ATOM     23  C   UNL A   1      37.607  22.036  25.641  1.00  0.00     0.164 C 
ATOM     24  O   UNL A   1      35.825  23.892  25.830  1.00  0.00    -0.224 OA
ATOM     25  O   UNL A   1      36.741  23.272  23.568  1.00  0.00    -0.224 OA
ENDBRANCH  16  22
ENDBRANCH  10  15
ENDBRANCH   6   9
ENDBRANCH   4   5
ENDBRANCH   3   4
ENDBRANCH   2   3
ENDBRANCH   1   2
BRANCH   1  26
ATOM     26  C   UNL A   1      32.791  28.081  26.052  1.00  0.00     0.021 C 
BRANCH  26  27
ATOM     27  C   UNL A   1      33.612  28.433  27.287  1.00  0.00     0.116 C 
BRANCH  27  28
ATOM     28  N   UNL A   1      33.513  29.842  27.633  1.00  0.00    -0.352 N 
ATOM     29  C   UNL A   1      34.446  30.652  28.230  1.00  0.00     0.251 C 
ATOM     30  H   UNL A   1      32.658  30.274  27.407  1.00  0.00     0.163 HD
ATOM     31  O   UNL A   1      34.129  31.778  28.606  1.00  0.00    -0.269 OA
BRANCH  29  32
ATOM     32  C   UNL A   1      35.825  30.159  28.438  1.00  0.00     0.039 A 
ATOM     33  C   UNL A   1      36.728  30.208  27.374  1.00  0.00     0.014 A 
ATOM     34  C   UNL A   1      36.226  29.651  29.678  1.00  0.00     0.014 A 
ATOM     35  C   UNL A   1      38.051  29.802  27.569  1.00  0.00     0.010 A 
ATOM     36  C   UNL A   1      37.559  29.310  29.888  1.00  0.00     0.010 A 
ATOM     37  C   UNL A   1      38.484  29.380  28.837  1.00  0.00    -0.014 A 
BRANCH  37  38
ATOM     38  C   UNL A   1      39.903  29.011  29.080  1.00  0.00     0.031 A 
ATOM     39  C   UNL A   1      40.853  30.012  29.678  1.00  0.00     0.074 A 
ATOM     40  C   UNL A   1      40.348  27.793  28.714  1.00  0.00     0.049 A 
ATOM     41  N   UNL A   1      42.137  29.899  29.901  1.00  0.00    -0.248 NA
ATOM     42  C   UNL A   1      40.292  31.321  30.053  1.00  0.00     0.031 C 
ATOM     43  C   UNL A   1      39.532  26.748  28.093  1.00  0.00     0.029 A 
ATOM     44  N   UNL A   1      41.595  27.227  28.805  1.00  0.00    -0.354 N 
ATOM     45  C   UNL A   1      42.539  31.119  30.433  1.00  0.00     0.074 A 
ATOM     46  C   UNL A   1      41.373  31.976  30.450  1.00  0.00     0.031 C 
ATOM     47  C   UNL A   1      40.291  25.660  27.888  1.00  0.00     0.029 A 
ATOM     48  C   UNL A   1      41.656  25.942  28.325  1.00  0.00     0.049 A 
ATOM     49  H   UNL A   1      42.374  27.700  29.181  1.00  0.00     0.167 HD
ATOM     50  C   UNL A   1      43.761  31.481  30.890  1.00  0.00     0.037 A 
ATOM     51  C   UNL A   1      42.693  25.085  28.241  1.00  0.00     0.037 A 
ATOM     52  C   UNL A   1      44.910  30.615  30.894  1.00  0.00     0.049 A 
ATOM     53  C   UNL A   1      44.044  25.512  28.742  1.00  0.00     0.074 A 
ATOM     54  C   UNL A   1      46.181  30.877  31.377  1.00  0.00     0.029 A 
ATOM     55  N   UNL A   1      44.931  29.319  30.398  1.00  0.00    -0.354 N 
ATOM     56  N   UNL A   1      44.397  26.658  29.276  1.00  0.00    -0.248 NA
ATOM     57  C   UNL A   1      45.137  24.538  28.632  1.00  0.00     0.031 C 
ATOM     58  C   UNL A   1      46.980  29.755  31.136  1.00  0.00     0.029 A 
ATOM     59  C   UNL A   1      46.197  28.776  30.546  1.00  0.00     0.049 A 
ATOM     60  H   UNL A   1      44.160  28.856  29.999  1.00  0.00     0.167 HD
ATOM     61  C   UNL A   1      45.747  26.534  29.584  1.00  0.00     0.074 A 
ATOM     62  C   UNL A   1      46.145  25.199  29.186  1.00  0.00     0.031 C 
ATOM     63  C   UNL A   1      46.579  27.445  30.147  1.00  0.00     0.037 A 
BRANCH  50  64
ATOM     64  C   UNL A   1      43.918  32.874  31.437  1.00  0.00     0.058 A 
ATOM     65  C   UNL A   1      43.688  33.140  32.796  1.00  0.00     0.135 A 
ATOM     66  C   UNL A   1      44.250  33.955  30.605  1.00  0.00     0.135 A 
ATOM     67  F   UNL A   1      43.374  32.143  33.638  1.00  0.00    -0.206 F 
ATOM     68  C   UNL A   1      43.773  34.430  33.308  1.00  0.00     0.059 A 
ATOM     69  C   UNL A   1      44.367  35.249  31.101  1.00  0.00     0.059 A 
ATOM     70  F   UNL A   1      44.501  33.751  29.302  1.00  0.00    -0.206 F 
ATOM     71  C   UNL A   1      44.114  35.479  32.453  1.00  0.00     0.060 A 
BRANCH  71  72
ATOM     72  S   UNL A   1      44.266  37.142  33.142  1.00  0.00     0.124 S 
ATOM     73  O   UNL A   1      42.969  37.321  33.782  1.00  0.00    -0.237 OA
ATOM     74  O   UNL A   1      45.406  36.996  34.042  1.00  0.00    -0.237 OA
ATOM     75  O   UNL A   1      44.510  37.973  31.967  1.00  0.00    -0.744 OA
ENDBRANCH  71  72
ENDBRANCH  50  64
BRANCH  51  76
ATOM     76  C   UNL A   1      42.472  23.720  27.692  1.00  0.00     0.058 A 
ATOM     77  C   UNL A   1      42.332  22.607  28.535  1.00  0.00     0.135 A 
ATOM     78  C   UNL A   1      42.451  23.500  26.307  1.00  0.00     0.135 A 
ATOM     79  F   UNL A   1      42.356  22.764  29.867  1.00  0.00    -0.206 F 
ATOM     80  C   UNL A   1      42.212  21.319  28.024  1.00  0.00     0.059 A 
ATOM     81  C   UNL A   1      42.308  22.224  25.772  1.00  0.00     0.059 A 
ATOM     82  F   UNL A   1      42.568  24.537  25.463  1.00  0.00    -0.206 F 
ATOM     83  C   UNL A   1      42.209  21.137  26.640  1.00  0.00     0.060 A 
BRANCH  83  84
ATOM     84  S   UNL A   1      42.088  19.455  25.997  1.00  0.00     0.124 S 
ATOM     85  O   UNL A   1      40.654  19.337  25.759  1.00  0.00    -0.237 OA
ATOM     86  O   UNL A   1      42.927  19.523  24.805  1.00  0.00    -0.237 OA
ATOM     87  O   UNL A   1      42.614  18.637  27.086  1.00  0.00    -0.744 OA
ENDBRANCH  83  84
ENDBRANCH  51  76
BRANCH  63  88
ATOM     88  C   UNL A   1      48.005  27.034  30.386  1.00  0.00     0.058 A 
ATOM     89  C   UNL A   1      48.396  26.515  31.630  1.00  0.00     0.135 A 
ATOM     90  C   UNL A   1      48.999  27.237  29.417  1.00  0.00     0.135 A 
ATOM     91  F   UNL A   1      47.485  26.305  32.593  1.00  0.00    -0.206 F 
ATOM     92  C   UNL A   1      49.728  26.231  31.913  1.00  0.00     0.059 A 
ATOM     93  C   UNL A   1      50.334  26.938  29.669  1.00  0.00     0.059 A 
ATOM     94  F   UNL A   1      48.674  27.722  28.207  1.00  0.00    -0.206 F 
ATOM     95  C   UNL A   1      50.691  26.453  30.927  1.00  0.00     0.060 A 
BRANCH  95  96
ATOM     96  S   UNL A   1      52.416  26.080  31.312  1.00  0.00     0.124 S 
ATOM     97  O   UNL A   1      52.318  24.720  31.831  1.00  0.00    -0.237 OA
ATOM     98  O   UNL A   1      53.060  26.219  30.009  1.00  0.00    -0.237 OA
ATOM     99  O   UNL A   1      52.773  27.102  32.292  1.00  0.00    -0.744 OA
ENDBRANCH  95  96
ENDBRANCH  63  88
ENDBRANCH  37  38
ENDBRANCH  29  32
ENDBRANCH  27  28
ENDBRANCH  26  27
ENDBRANCH   1  26
TORSDOF 18
ENDMDL
