MODEL 1
REMARK VINA RESULT:     -11.9      0.000      0.000
REMARK SMILES O=C(NCCCCCCNC(=O)c1cccc(Br)c1O[C@@H]1CCOC2(CCC2)C1)c1ccc(-c2c3nc(c(-c4c(F)cc(S(=O)(=O)[O-])cc4F)c4ccc([nH]4)c(-c4c(F)cc(S(=O)(=O)[O-])cc4F)c4nc(c(-c5c(F)cc(S(=O)(=O)[O-])cc5F)c5ccc2[nH]5)C=C4)C=C3)cc1
REMARK SMILES IDX 6 1 5 2 4 3 3 4 1 5 2 6 30 8 31 9 95 10 32 11 94 12 33 13
REMARK SMILES IDX 34 14 35 15 88 16 36 17 93 18 87 19 89 20 37 21 92 22 86 23
REMARK SMILES IDX 85 24 38 26 72 27 51 28 71 29 52 30 55 31 70 32 90 33 53 34
REMARK SMILES IDX 54 35 69 37 91 38 56 39 39 40 40 41 49 42 41 43 42 44 48 45
REMARK SMILES IDX 50 46 43 47 44 48 45 49 46 50 47 51 73 52 74 53 83 54 75 55
REMARK SMILES IDX 76 56 82 57 84 58 77 59 78 60 79 61 80 62 81 63 57 64 58 65
REMARK SMILES IDX 67 66 59 67 60 68 66 69 68 70 61 71 62 72 63 73 64 74 65 75
REMARK SMILES IDX 7 76 8 77 9 78 10 79 11 80 12 82 13 83 14 84 19 85 15 86
REMARK SMILES IDX 17 87 16 88 18 89 20 90 21 91 22 92 29 93 23 94 25 95 24 96
REMARK SMILES IDX 26 97 28 98 27 99
REMARK H PARENT 3 7 89 25 55 36 10 81
REMARK Flexibility Score: inf
ROOT
ATOM      1  C   UNL A   1      41.093  21.743  26.431  1.00  0.00     0.002 C 
ENDROOT
BRANCH   1   2
ATOM      2  C   UNL A   1      41.603  22.428  27.699  1.00  0.00     0.021 C 
BRANCH   2   3
ATOM      3  C   UNL A   1      42.660  23.496  27.456  1.00  0.00     0.116 C 
BRANCH   3   4
ATOM      4  N   UNL A   1      42.410  24.253  26.240  1.00  0.00    -0.352 N 
ATOM      5  O   UNL A   1      41.524  25.919  25.001  1.00  0.00    -0.269 OA
ATOM      6  C   UNL A   1      41.838  25.495  26.108  1.00  0.00     0.251 C 
ATOM      7  H   UNL A   1      42.687  23.818  25.401  1.00  0.00     0.163 HD
BRANCH   6   8
ATOM      8  C   UNL A   1      41.593  26.306  27.320  1.00  0.00     0.039 A 
ATOM      9  C   UNL A   1      42.450  27.363  27.638  1.00  0.00     0.014 A 
ATOM     10  C   UNL A   1      40.502  26.010  28.140  1.00  0.00     0.014 A 
ATOM     11  C   UNL A   1      42.285  28.049  28.833  1.00  0.00     0.010 A 
ATOM     12  C   UNL A   1      40.282  26.765  29.296  1.00  0.00     0.010 A 
ATOM     13  C   UNL A   1      41.175  27.786  29.653  1.00  0.00    -0.014 A 
BRANCH  13  14
ATOM     14  C   UNL A   1      40.895  28.696  30.791  1.00  0.00     0.031 A 
ATOM     15  C   UNL A   1      39.786  29.705  30.741  1.00  0.00     0.074 A 
ATOM     16  C   UNL A   1      41.679  28.587  31.884  1.00  0.00     0.049 A 
ATOM     17  N   UNL A   1      39.435  30.578  31.651  1.00  0.00    -0.248 NA
ATOM     18  C   UNL A   1      38.965  29.751  29.521  1.00  0.00     0.031 C 
ATOM     19  C   UNL A   1      42.801  27.651  32.024  1.00  0.00     0.029 A 
ATOM     20  N   UNL A   1      41.661  29.256  33.079  1.00  0.00    -0.354 N 
ATOM     21  C   UNL A   1      38.373  31.292  31.111  1.00  0.00     0.074 A 
ATOM     22  C   UNL A   1      38.139  30.757  29.786  1.00  0.00     0.031 C 
ATOM     23  C   UNL A   1      43.342  27.786  33.242  1.00  0.00     0.029 A 
ATOM     24  C   UNL A   1      42.661  28.867  33.940  1.00  0.00     0.049 A 
ATOM     25  H   UNL A   1      40.997  29.948  33.301  1.00  0.00     0.167 HD
ATOM     26  C   UNL A   1      37.667  32.299  31.677  1.00  0.00     0.037 A 
ATOM     27  C   UNL A   1      43.022  29.354  35.141  1.00  0.00     0.037 A 
ATOM     28  C   UNL A   1      37.907  32.806  33.006  1.00  0.00     0.049 A 
ATOM     29  C   UNL A   1      42.237  30.494  35.722  1.00  0.00     0.074 A 
ATOM     30  C   UNL A   1      37.196  33.774  33.695  1.00  0.00     0.029 A 
ATOM     31  N   UNL A   1      38.939  32.402  33.841  1.00  0.00    -0.354 N 
ATOM     32  N   UNL A   1      41.185  31.103  35.228  1.00  0.00    -0.248 NA
ATOM     33  C   UNL A   1      42.688  31.021  37.015  1.00  0.00     0.031 C 
ATOM     34  C   UNL A   1      37.838  34.006  34.914  1.00  0.00     0.029 A 
ATOM     35  C   UNL A   1      38.912  33.135  35.015  1.00  0.00     0.049 A 
ATOM     36  H   UNL A   1      39.594  31.699  33.629  1.00  0.00     0.167 HD
ATOM     37  C   UNL A   1      40.842  32.078  36.157  1.00  0.00     0.074 A 
ATOM     38  C   UNL A   1      41.777  31.954  37.256  1.00  0.00     0.031 C 
ATOM     39  C   UNL A   1      39.851  33.000  36.101  1.00  0.00     0.037 A 
BRANCH  26  40
ATOM     40  C   UNL A   1      36.572  32.952  30.877  1.00  0.00     0.058 A 
ATOM     41  C   UNL A   1      35.216  32.781  31.197  1.00  0.00     0.135 A 
ATOM     42  C   UNL A   1      36.892  33.863  29.856  1.00  0.00     0.135 A 
ATOM     43  F   UNL A   1      34.851  31.914  32.154  1.00  0.00    -0.206 F 
ATOM     44  C   UNL A   1      34.219  33.496  30.538  1.00  0.00     0.059 A 
ATOM     45  C   UNL A   1      35.914  34.604  29.200  1.00  0.00     0.059 A 
ATOM     46  F   UNL A   1      38.174  34.062  29.507  1.00  0.00    -0.206 F 
ATOM     47  C   UNL A   1      34.579  34.414  29.549  1.00  0.00     0.060 A 
BRANCH  47  48
ATOM     48  S   UNL A   1      33.275  35.376  28.752  1.00  0.00     0.124 S 
ATOM     49  O   UNL A   1      32.586  34.349  27.978  1.00  0.00    -0.237 OA
ATOM     50  O   UNL A   1      32.540  35.907  29.895  1.00  0.00    -0.237 OA
ATOM     51  O   UNL A   1      34.010  36.364  27.968  1.00  0.00    -0.744 OA
ENDBRANCH  47  48
ENDBRANCH  26  40
BRANCH  27  52
ATOM     52  C   UNL A   1      44.213  28.806  35.843  1.00  0.00     0.058 A 
ATOM     53  C   UNL A   1      45.495  29.330  35.623  1.00  0.00     0.135 A 
ATOM     54  C   UNL A   1      44.093  27.728  36.737  1.00  0.00     0.135 A 
ATOM     55  F   UNL A   1      45.662  30.361  34.779  1.00  0.00    -0.206 F 
ATOM     56  C   UNL A   1      46.619  28.781  36.230  1.00  0.00     0.059 A 
ATOM     57  C   UNL A   1      45.196  27.187  37.384  1.00  0.00     0.059 A 
ATOM     58  F   UNL A   1      42.886  27.203  37.000  1.00  0.00    -0.206 F 
ATOM     59  C   UNL A   1      46.459  27.706  37.106  1.00  0.00     0.060 A 
BRANCH  59  60
ATOM     60  S   UNL A   1      47.924  26.996  37.886  1.00  0.00     0.124 S 
ATOM     61  O   UNL A   1      48.920  28.031  37.629  1.00  0.00    -0.237 OA
ATOM     62  O   UNL A   1      47.494  26.853  39.272  1.00  0.00    -0.237 OA
ATOM     63  O   UNL A   1      48.115  25.742  37.162  1.00  0.00    -0.744 OA
ENDBRANCH  59  60
ENDBRANCH  27  52
BRANCH  39  64
ATOM     64  C   UNL A   1      39.721  33.938  37.267  1.00  0.00     0.058 A 
ATOM     65  C   UNL A   1      40.366  35.184  37.283  1.00  0.00     0.135 A 
ATOM     66  C   UNL A   1      38.908  33.606  38.363  1.00  0.00     0.135 A 
ATOM     67  F   UNL A   1      41.165  35.544  36.266  1.00  0.00    -0.206 F 
ATOM     68  C   UNL A   1      40.229  36.059  38.355  1.00  0.00     0.059 A 
ATOM     69  C   UNL A   1      38.730  34.480  39.430  1.00  0.00     0.059 A 
ATOM     70  F   UNL A   1      38.263  32.429  38.396  1.00  0.00    -0.206 F 
ATOM     71  C   UNL A   1      39.403  35.701  39.422  1.00  0.00     0.060 A 
BRANCH  71  72
ATOM     72  S   UNL A   1      39.202  36.865  40.785  1.00  0.00     0.124 S 
ATOM     73  O   UNL A   1      38.598  36.019  41.809  1.00  0.00    -0.237 OA
ATOM     74  O   UNL A   1      40.576  37.287  41.039  1.00  0.00    -0.237 OA
ATOM     75  O   UNL A   1      38.329  37.894  40.227  1.00  0.00    -0.744 OA
ENDBRANCH  71  72
ENDBRANCH  39  64
ENDBRANCH  13  14
ENDBRANCH   6   8
ENDBRANCH   3   4
ENDBRANCH   2   3
ENDBRANCH   1   2
BRANCH   1  76
ATOM     76  C   UNL A   1      39.596  21.915  26.160  1.00  0.00     0.002 C 
BRANCH  76  77
ATOM     77  C   UNL A   1      39.010  23.270  26.561  1.00  0.00     0.021 C 
BRANCH  77  78
ATOM     78  C   UNL A   1      37.560  23.489  26.140  1.00  0.00     0.116 C 
BRANCH  78  79
ATOM     79  N   UNL A   1      37.396  23.495  24.690  1.00  0.00    -0.352 N 
ATOM     80  C   UNL A   1      36.457  22.862  23.907  1.00  0.00     0.255 C 
ATOM     81  H   UNL A   1      38.057  24.033  24.198  1.00  0.00     0.163 HD
ATOM     82  O   UNL A   1      36.503  22.952  22.687  1.00  0.00    -0.269 OA
BRANCH  80  83
ATOM     83  C   UNL A   1      35.364  22.130  24.578  1.00  0.00     0.083 A 
ATOM     84  C   UNL A   1      35.458  20.741  24.600  1.00  0.00     0.018 A 
ATOM     85  C   UNL A   1      34.254  22.803  25.138  1.00  0.00     0.146 A 
ATOM     86  C   UNL A   1      34.404  20.004  25.080  1.00  0.00     0.002 A 
ATOM     87  C   UNL A   1      33.035  22.130  25.608  1.00  0.00     0.060 A 
ATOM     88  C   UNL A   1      33.242  20.652  25.534  1.00  0.00     0.019 A 
ATOM     89  Br  UNL A   1      30.992  23.443  26.501  1.00  0.00    -0.047 Br
BRANCH  85  90
ATOM     90  O   UNL A   1      34.366  24.153  25.275  1.00  0.00    -0.488 OA
BRANCH  90  91
ATOM     91  C   UNL A   1      33.121  24.413  24.714  1.00  0.00     0.178 C 
ATOM     92  C   UNL A   1      33.457  24.520  22.800  1.00  0.00     0.074 C 
ATOM     93  C   UNL A   1      32.604  25.978  25.726  1.00  0.00     0.080 C 
ATOM     94  C   UNL A   1      33.278  26.242  21.956  1.00  0.00     0.165 C 
ATOM     95  C   UNL A   1      32.600  27.642  24.806  1.00  0.00     0.072 C 
ATOM     96  O   UNL A   1      32.782  27.677  22.998  1.00  0.00    -0.375 OA
ATOM     97  C   UNL A   1      31.404  28.593  25.227  1.00  0.00     0.036 C 
ATOM     98  C   UNL A   1      33.477  28.637  25.670  1.00  0.00     0.036 C 
ATOM     99  C   UNL A   1      32.442  29.719  25.377  1.00  0.00     0.006 C 
ENDBRANCH  90  91
ENDBRANCH  85  90
ENDBRANCH  80  83
ENDBRANCH  78  79
ENDBRANCH  77  78
ENDBRANCH  76  77
ENDBRANCH   1  76
TORSDOF 18
ENDMDL
MODEL 2
REMARK VINA RESULT:     -11.7      6.351     11.693
REMARK SMILES O=C(NCCCCCCNC(=O)c1cccc(Br)c1O[C@@H]1CCOC2(CCC2)C1)c1ccc(-c2c3nc(c(-c4c(F)cc(S(=O)(=O)[O-])cc4F)c4ccc([nH]4)c(-c4c(F)cc(S(=O)(=O)[O-])cc4F)c4nc(c(-c5c(F)cc(S(=O)(=O)[O-])cc5F)c5ccc2[nH]5)C=C4)C=C3)cc1
REMARK SMILES IDX 6 1 5 2 4 3 3 4 1 5 2 6 30 8 31 9 95 10 32 11 94 12 33 13
REMARK SMILES IDX 34 14 35 15 88 16 36 17 93 18 87 19 89 20 37 21 92 22 86 23
REMARK SMILES IDX 85 24 38 26 72 27 51 28 71 29 52 30 55 31 70 32 90 33 53 34
REMARK SMILES IDX 54 35 69 37 91 38 56 39 39 40 40 41 49 42 41 43 42 44 48 45
REMARK SMILES IDX 50 46 43 47 44 48 45 49 46 50 47 51 73 52 74 53 83 54 75 55
REMARK SMILES IDX 76 56 82 57 84 58 77 59 78 60 79 61 80 62 81 63 57 64 58 65
REMARK SMILES IDX 67 66 59 67 60 68 66 69 68 70 61 71 62 72 63 73 64 74 65 75
REMARK SMILES IDX 7 76 8 77 9 78 10 79 11 80 12 82 13 83 14 84 19 85 15 86
REMARK SMILES IDX 17 87 16 88 18 89 20 90 21 91 22 92 29 93 23 94 25 95 24 96
REMARK SMILES IDX 26 97 28 98 27 99
REMARK H PARENT 3 7 89 25 55 36 10 81
REMARK Flexibility Score: inf
ROOT
ATOM      1  C   UNL A   1      33.951  31.065  27.628  1.00  0.00     0.002 C 
ENDROOT
BRANCH   1   2
ATOM      2  C   UNL A   1      34.750  32.317  27.988  1.00  0.00     0.021 C 
BRANCH   2   3
ATOM      3  C   UNL A   1      36.013  32.048  28.794  1.00  0.00     0.116 C 
BRANCH   3   4
ATOM      4  N   UNL A   1      35.720  31.554  30.130  1.00  0.00    -0.352 N 
ATOM      5  O   UNL A   1      35.952  30.192  31.915  1.00  0.00    -0.269 OA
ATOM      6  C   UNL A   1      36.429  30.648  30.881  1.00  0.00     0.251 C 
ATOM      7  H   UNL A   1      34.908  31.918  30.552  1.00  0.00     0.163 HD
BRANCH   6   8
ATOM      8  C   UNL A   1      37.765  30.220  30.418  1.00  0.00     0.039 A 
ATOM      9  C   UNL A   1      38.069  30.230  29.053  1.00  0.00     0.014 A 
ATOM     10  C   UNL A   1      38.720  29.809  31.350  1.00  0.00     0.014 A 
ATOM     11  C   UNL A   1      39.283  29.721  28.612  1.00  0.00     0.010 A 
ATOM     12  C   UNL A   1      39.978  29.386  30.910  1.00  0.00     0.010 A 
ATOM     13  C   UNL A   1      40.266  29.335  29.538  1.00  0.00    -0.014 A 
BRANCH  13  14
ATOM     14  C   UNL A   1      41.631  29.028  29.045  1.00  0.00     0.031 A 
ATOM     15  C   UNL A   1      42.694  30.084  28.953  1.00  0.00     0.074 A 
ATOM     16  C   UNL A   1      41.889  27.756  28.674  1.00  0.00     0.049 A 
ATOM     17  N   UNL A   1      43.925  29.967  28.524  1.00  0.00    -0.248 NA
ATOM     18  C   UNL A   1      42.338  31.443  29.390  1.00  0.00     0.031 C 
ATOM     19  C   UNL A   1      40.917  26.658  28.704  1.00  0.00     0.029 A 
ATOM     20  N   UNL A   1      43.034  27.166  28.206  1.00  0.00    -0.354 N 
ATOM     21  C   UNL A   1      44.486  31.234  28.616  1.00  0.00     0.074 A 
ATOM     22  C   UNL A   1      43.457  32.112  29.135  1.00  0.00     0.031 C 
ATOM     23  C   UNL A   1      41.512  25.527  28.302  1.00  0.00     0.029 A 
ATOM     24  C   UNL A   1      42.881  25.832  27.911  1.00  0.00     0.049 A 
ATOM     25  H   UNL A   1      43.883  27.650  28.091  1.00  0.00     0.167 HD
ATOM     26  C   UNL A   1      45.744  31.619  28.295  1.00  0.00     0.037 A 
ATOM     27  C   UNL A   1      43.731  24.955  27.346  1.00  0.00     0.037 A 
ATOM     28  C   UNL A   1      46.759  30.723  27.796  1.00  0.00     0.049 A 
ATOM     29  C   UNL A   1      45.106  25.426  26.971  1.00  0.00     0.074 A 
ATOM     30  C   UNL A   1      48.084  31.005  27.510  1.00  0.00     0.029 A 
ATOM     31  N   UNL A   1      46.562  29.384  27.490  1.00  0.00    -0.354 N 
ATOM     32  N   UNL A   1      45.644  26.612  27.140  1.00  0.00    -0.248 NA
ATOM     33  C   UNL A   1      45.990  24.450  26.322  1.00  0.00     0.031 C 
ATOM     34  C   UNL A   1      48.670  29.857  26.969  1.00  0.00     0.029 A 
ATOM     35  C   UNL A   1      47.728  28.840  26.977  1.00  0.00     0.049 A 
ATOM     36  H   UNL A   1      45.720  28.894  27.620  1.00  0.00     0.167 HD
ATOM     37  C   UNL A   1      46.932  26.518  26.628  1.00  0.00     0.074 A 
ATOM     38  C   UNL A   1      47.104  25.153  26.176  1.00  0.00     0.031 C 
ATOM     39  C   UNL A   1      47.883  27.478  26.530  1.00  0.00     0.037 A 
BRANCH  26  40
ATOM     40  C   UNL A   1      46.118  33.069  28.446  1.00  0.00     0.058 A 
ATOM     41  C   UNL A   1      46.788  33.548  29.581  1.00  0.00     0.135 A 
ATOM     42  C   UNL A   1      45.913  33.964  27.382  1.00  0.00     0.135 A 
ATOM     43  F   UNL A   1      46.998  32.742  30.634  1.00  0.00    -0.206 F 
ATOM     44  C   UNL A   1      47.249  34.860  29.653  1.00  0.00     0.059 A 
ATOM     45  C   UNL A   1      46.386  35.272  27.422  1.00  0.00     0.059 A 
ATOM     46  F   UNL A   1      45.273  33.558  26.273  1.00  0.00    -0.206 F 
ATOM     47  C   UNL A   1      47.054  35.711  28.563  1.00  0.00     0.060 A 
BRANCH  47  48
ATOM     48  S   UNL A   1      47.716  37.389  28.651  1.00  0.00     0.124 S 
ATOM     49  O   UNL A   1      49.139  37.131  28.843  1.00  0.00    -0.237 OA
ATOM     50  O   UNL A   1      47.342  37.938  27.351  1.00  0.00    -0.237 OA
ATOM     51  O   UNL A   1      47.023  37.970  29.797  1.00  0.00    -0.744 OA
ENDBRANCH  47  48
ENDBRANCH  26  40
BRANCH  27  52
ATOM     52  C   UNL A   1      43.288  23.567  27.050  1.00  0.00     0.058 A 
ATOM     53  C   UNL A   1      43.181  22.604  28.064  1.00  0.00     0.135 A 
ATOM     54  C   UNL A   1      42.980  23.170  25.738  1.00  0.00     0.135 A 
ATOM     55  F   UNL A   1      43.463  22.934  29.334  1.00  0.00    -0.206 F 
ATOM     56  C   UNL A   1      42.826  21.290  27.783  1.00  0.00     0.059 A 
ATOM     57  C   UNL A   1      42.587  21.873  25.438  1.00  0.00     0.059 A 
ATOM     58  F   UNL A   1      43.044  24.058  24.733  1.00  0.00    -0.206 F 
ATOM     59  C   UNL A   1      42.535  20.933  26.465  1.00  0.00     0.060 A 
BRANCH  59  60
ATOM     60  S   UNL A   1      42.080  19.222  26.109  1.00  0.00     0.124 S 
ATOM     61  O   UNL A   1      40.654  19.353  25.831  1.00  0.00    -0.237 OA
ATOM     62  O   UNL A   1      42.929  18.912  24.964  1.00  0.00    -0.237 OA
ATOM     63  O   UNL A   1      42.422  18.521  27.343  1.00  0.00    -0.744 OA
ENDBRANCH  59  60
ENDBRANCH  27  52
BRANCH  39  64
ATOM     64  C   UNL A   1      49.198  27.081  25.922  1.00  0.00     0.058 A 
ATOM     65  C   UNL A   1      49.446  27.228  24.549  1.00  0.00     0.135 A 
ATOM     66  C   UNL A   1      50.237  26.586  26.727  1.00  0.00     0.135 A 
ATOM     67  F   UNL A   1      48.481  27.683  23.733  1.00  0.00    -0.206 F 
ATOM     68  C   UNL A   1      50.670  26.877  23.990  1.00  0.00     0.059 A 
ATOM     69  C   UNL A   1      51.480  26.262  26.195  1.00  0.00     0.059 A 
ATOM     70  F   UNL A   1      50.055  26.432  28.048  1.00  0.00    -0.206 F 
ATOM     71  C   UNL A   1      51.684  26.401  24.823  1.00  0.00     0.060 A 
BRANCH  71  72
ATOM     72  S   UNL A   1      53.280  25.991  24.089  1.00  0.00     0.124 S 
ATOM     73  O   UNL A   1      54.138  27.030  24.649  1.00  0.00    -0.237 OA
ATOM     74  O   UNL A   1      53.513  24.639  24.587  1.00  0.00    -0.237 OA
ATOM     75  O   UNL A   1      53.030  26.089  22.654  1.00  0.00    -0.744 OA
ENDBRANCH  71  72
ENDBRANCH  39  64
ENDBRANCH  13  14
ENDBRANCH   6   8
ENDBRANCH   3   4
ENDBRANCH   2   3
ENDBRANCH   1   2
BRANCH   1  76
ATOM     76  C   UNL A   1      34.791  29.809  27.382  1.00  0.00     0.002 C 
BRANCH  76  77
ATOM     77  C   UNL A   1      34.149  28.761  26.469  1.00  0.00     0.021 C 
BRANCH  77  78
ATOM     78  C   UNL A   1      33.333  29.335  25.314  1.00  0.00     0.116 C 
BRANCH  78  79
ATOM     79  N   UNL A   1      33.866  28.952  24.012  1.00  0.00    -0.352 N 
ATOM     80  C   UNL A   1      33.280  28.226  23.000  1.00  0.00     0.255 C 
ATOM     81  H   UNL A   1      34.783  29.259  23.829  1.00  0.00     0.163 HD
ATOM     82  O   UNL A   1      33.906  27.965  21.979  1.00  0.00    -0.269 OA
BRANCH  80  83
ATOM     83  C   UNL A   1      31.866  27.827  23.151  1.00  0.00     0.083 A 
ATOM     84  C   UNL A   1      30.938  28.486  22.349  1.00  0.00     0.018 A 
ATOM     85  C   UNL A   1      31.466  26.851  24.091  1.00  0.00     0.146 A 
ATOM     86  C   UNL A   1      29.598  28.261  22.547  1.00  0.00     0.002 A 
ATOM     87  C   UNL A   1      30.068  26.579  24.450  1.00  0.00     0.060 A 
ATOM     88  C   UNL A   1      29.177  27.380  23.559  1.00  0.00     0.019 A 
ATOM     89  Br  UNL A   1      29.422  24.865  26.278  1.00  0.00    -0.047 Br
BRANCH  85  90
ATOM     90  O   UNL A   1      32.457  26.105  24.653  1.00  0.00    -0.488 OA
BRANCH  90  91
ATOM     91  C   UNL A   1      32.597  25.276  23.546  1.00  0.00     0.178 C 
ATOM     92  C   UNL A   1      31.392  23.788  23.892  1.00  0.00     0.074 C 
ATOM     93  C   UNL A   1      34.515  25.028  23.537  1.00  0.00     0.080 C 
ATOM     94  C   UNL A   1      32.179  22.066  24.247  1.00  0.00     0.165 C 
ATOM     95  C   UNL A   1      35.168  23.315  24.041  1.00  0.00     0.072 C 
ATOM     96  O   UNL A   1      34.015  21.923  24.219  1.00  0.00    -0.375 OA
ATOM     97  C   UNL A   1      36.424  22.845  23.195  1.00  0.00     0.036 C 
ATOM     98  C   UNL A   1      36.237  23.557  25.183  1.00  0.00     0.036 C 
ATOM     99  C   UNL A   1      37.102  22.485  24.530  1.00  0.00     0.006 C 
ENDBRANCH  90  91
ENDBRANCH  85  90
ENDBRANCH  80  83
ENDBRANCH  78  79
ENDBRANCH  77  78
ENDBRANCH  76  77
ENDBRANCH   1  76
TORSDOF 18
ENDMDL
MODEL 3
REMARK VINA RESULT:     -11.5      6.235      8.667
REMARK SMILES O=C(NCCCCCCNC(=O)c1cccc(Br)c1O[C@@H]1CCOC2(CCC2)C1)c1ccc(-c2c3nc(c(-c4c(F)cc(S(=O)(=O)[O-])cc4F)c4ccc([nH]4)c(-c4c(F)cc(S(=O)(=O)[O-])cc4F)c4nc(c(-c5c(F)cc(S(=O)(=O)[O-])cc5F)c5ccc2[nH]5)C=C4)C=C3)cc1
REMARK SMILES IDX 6 1 5 2 4 3 3 4 1 5 2 6 30 8 31 9 95 10 32 11 94 12 33 13
REMARK SMILES IDX 34 14 35 15 88 16 36 17 93 18 87 19 89 20 37 21 92 22 86 23
REMARK SMILES IDX 85 24 38 26 72 27 51 28 71 29 52 30 55 31 70 32 90 33 53 34
REMARK SMILES IDX 54 35 69 37 91 38 56 39 39 40 40 41 49 42 41 43 42 44 48 45
REMARK SMILES IDX 50 46 43 47 44 48 45 49 46 50 47 51 73 52 74 53 83 54 75 55
REMARK SMILES IDX 76 56 82 57 84 58 77 59 78 60 79 61 80 62 81 63 57 64 58 65
REMARK SMILES IDX 67 66 59 67 60 68 66 69 68 70 61 71 62 72 63 73 64 74 65 75
REMARK SMILES IDX 7 76 8 77 9 78 10 79 11 80 12 82 13 83 14 84 19 85 15 86
REMARK SMILES IDX 17 87 16 88 18 89 20 90 21 91 22 92 29 93 23 94 25 95 24 96
REMARK SMILES IDX 26 97 28 98 27 99
REMARK H PARENT 3 7 89 25 55 36 10 81
REMARK Flexibility Score: inf
ROOT
ATOM      1  C   UNL A   1      37.108  20.355  25.115  1.00  0.00     0.002 C 
ENDROOT
BRANCH   1   2
ATOM      2  C   UNL A   1      38.349  19.471  24.997  1.00  0.00     0.021 C 
BRANCH   2   3
ATOM      3  C   UNL A   1      39.555  19.971  25.780  1.00  0.00     0.116 C 
BRANCH   3   4
ATOM      4  N   UNL A   1      40.582  18.951  25.922  1.00  0.00    -0.352 N 
ATOM      5  O   UNL A   1      42.693  18.160  26.023  1.00  0.00    -0.269 OA
ATOM      6  C   UNL A   1      41.933  19.118  26.110  1.00  0.00     0.251 C 
ATOM      7  H   UNL A   1      40.268  18.019  25.877  1.00  0.00     0.163 HD
BRANCH   6   8
ATOM      8  C   UNL A   1      42.456  20.468  26.405  1.00  0.00     0.039 A 
ATOM      9  C   UNL A   1      42.968  21.260  25.373  1.00  0.00     0.014 A 
ATOM     10  C   UNL A   1      42.432  20.947  27.716  1.00  0.00     0.014 A 
ATOM     11  C   UNL A   1      43.561  22.479  25.668  1.00  0.00     0.010 A 
ATOM     12  C   UNL A   1      42.944  22.218  27.997  1.00  0.00     0.010 A 
ATOM     13  C   UNL A   1      43.517  22.990  26.976  1.00  0.00    -0.014 A 
BRANCH  13  14
ATOM     14  C   UNL A   1      43.939  24.393  27.211  1.00  0.00     0.031 A 
ATOM     15  C   UNL A   1      42.971  25.442  27.675  1.00  0.00     0.074 A 
ATOM     16  C   UNL A   1      45.234  24.700  26.988  1.00  0.00     0.049 A 
ATOM     17  N   UNL A   1      43.192  26.711  27.905  1.00  0.00    -0.248 NA
ATOM     18  C   UNL A   1      41.580  25.024  27.909  1.00  0.00     0.031 C 
ATOM     19  C   UNL A   1      46.252  23.756  26.513  1.00  0.00     0.029 A 
ATOM     20  N   UNL A   1      45.921  25.877  27.131  1.00  0.00    -0.354 N 
ATOM     21  C   UNL A   1      41.971  27.251  28.287  1.00  0.00     0.074 A 
ATOM     22  C   UNL A   1      41.006  26.173  28.251  1.00  0.00     0.031 C 
ATOM     23  C   UNL A   1      47.434  24.382  26.431  1.00  0.00     0.029 A 
ATOM     24  C   UNL A   1      47.245  25.785  26.771  1.00  0.00     0.049 A 
ATOM     25  H   UNL A   1      45.507  26.708  27.458  1.00  0.00     0.167 HD
ATOM     26  C   UNL A   1      41.692  28.530  28.633  1.00  0.00     0.037 A 
ATOM     27  C   UNL A   1      48.196  26.733  26.678  1.00  0.00     0.037 A 
ATOM     28  C   UNL A   1      42.674  29.586  28.678  1.00  0.00     0.049 A 
ATOM     29  C   UNL A   1      47.841  28.146  27.037  1.00  0.00     0.074 A 
ATOM     30  C   UNL A   1      42.503  30.898  29.087  1.00  0.00     0.029 A 
ATOM     31  N   UNL A   1      44.000  29.462  28.288  1.00  0.00    -0.354 N 
ATOM     32  N   UNL A   1      46.699  28.621  27.474  1.00  0.00    -0.248 NA
ATOM     33  C   UNL A   1      48.897  29.155  26.886  1.00  0.00     0.031 C 
ATOM     34  C   UNL A   1      43.703  31.583  28.880  1.00  0.00     0.029 A 
ATOM     35  C   UNL A   1      44.643  30.683  28.402  1.00  0.00     0.049 A 
ATOM     36  H   UNL A   1      44.420  28.629  27.976  1.00  0.00     0.167 HD
ATOM     37  C   UNL A   1      46.903  29.983  27.659  1.00  0.00     0.074 A 
ATOM     38  C   UNL A   1      48.286  30.248  27.321  1.00  0.00     0.031 C 
ATOM     39  C   UNL A   1      46.022  30.931  28.061  1.00  0.00     0.037 A 
BRANCH  26  40
ATOM     40  C   UNL A   1      40.273  28.893  28.979  1.00  0.00     0.058 A 
ATOM     41  C   UNL A   1      39.820  28.934  30.306  1.00  0.00     0.135 A 
ATOM     42  C   UNL A   1      39.392  29.328  27.974  1.00  0.00     0.135 A 
ATOM     43  F   UNL A   1      40.613  28.517  31.305  1.00  0.00    -0.206 F 
ATOM     44  C   UNL A   1      38.548  29.401  30.625  1.00  0.00     0.059 A 
ATOM     45  C   UNL A   1      38.125  29.820  28.271  1.00  0.00     0.059 A 
ATOM     46  F   UNL A   1      39.774  29.306  26.686  1.00  0.00    -0.206 F 
ATOM     47  C   UNL A   1      37.712  29.853  29.601  1.00  0.00     0.060 A 
BRANCH  47  48
ATOM     48  S   UNL A   1      36.090  30.514  30.043  1.00  0.00     0.124 S 
ATOM     49  O   UNL A   1      35.247  29.943  28.997  1.00  0.00    -0.237 OA
ATOM     50  O   UNL A   1      35.889  29.972  31.383  1.00  0.00    -0.237 OA
ATOM     51  O   UNL A   1      36.280  31.959  29.975  1.00  0.00    -0.744 OA
ENDBRANCH  47  48
ENDBRANCH  26  40
BRANCH  27  52
ATOM     52  C   UNL A   1      49.552  26.385  26.173  1.00  0.00     0.058 A 
ATOM     53  C   UNL A   1      50.481  25.715  26.981  1.00  0.00     0.135 A 
ATOM     54  C   UNL A   1      49.951  26.737  24.873  1.00  0.00     0.135 A 
ATOM     55  F   UNL A   1      50.147  25.356  28.231  1.00  0.00    -0.206 F 
ATOM     56  C   UNL A   1      51.769  25.442  26.535  1.00  0.00     0.059 A 
ATOM     57  C   UNL A   1      51.220  26.443  24.392  1.00  0.00     0.059 A 
ATOM     58  F   UNL A   1      49.093  27.361  24.051  1.00  0.00    -0.206 F 
ATOM     59  C   UNL A   1      52.130  25.815  25.239  1.00  0.00     0.060 A 
BRANCH  59  60
ATOM     60  S   UNL A   1      53.807  25.462  24.670  1.00  0.00     0.124 S 
ATOM     61  O   UNL A   1      53.976  24.079  25.103  1.00  0.00    -0.237 OA
ATOM     62  O   UNL A   1      53.691  25.671  23.231  1.00  0.00    -0.237 OA
ATOM     63  O   UNL A   1      54.616  26.450  25.378  1.00  0.00    -0.744 OA
ENDBRANCH  59  60
ENDBRANCH  27  52
BRANCH  39  64
ATOM     64  C   UNL A   1      46.533  32.339  28.170  1.00  0.00     0.058 A 
ATOM     65  C   UNL A   1      47.201  32.791  29.319  1.00  0.00     0.135 A 
ATOM     66  C   UNL A   1      46.392  33.236  27.099  1.00  0.00     0.135 A 
ATOM     67  F   UNL A   1      47.351  31.978  30.377  1.00  0.00    -0.206 F 
ATOM     68  C   UNL A   1      47.691  34.089  29.412  1.00  0.00     0.059 A 
ATOM     69  C   UNL A   1      46.903  34.527  27.156  1.00  0.00     0.059 A 
ATOM     70  F   UNL A   1      45.767  32.853  25.973  1.00  0.00    -0.206 F 
ATOM     71  C   UNL A   1      47.543  34.949  28.321  1.00  0.00     0.060 A 
BRANCH  71  72
ATOM     72  S   UNL A   1      48.221  36.616  28.441  1.00  0.00     0.124 S 
ATOM     73  O   UNL A   1      47.215  37.286  29.259  1.00  0.00    -0.237 OA
ATOM     74  O   UNL A   1      49.510  36.382  29.084  1.00  0.00    -0.237 OA
ATOM     75  O   UNL A   1      48.291  37.055  27.050  1.00  0.00    -0.744 OA
ENDBRANCH  71  72
ENDBRANCH  39  64
ENDBRANCH  13  14
ENDBRANCH   6   8
ENDBRANCH   3   4
ENDBRANCH   2   3
ENDBRANCH   1   2
BRANCH   1  76
ATOM     76  C   UNL A   1      37.391  21.835  25.387  1.00  0.00     0.002 C 
BRANCH  76  77
ATOM     77  C   UNL A   1      36.957  22.798  24.279  1.00  0.00     0.021 C 
BRANCH  77  78
ATOM     78  C   UNL A   1      36.261  24.064  24.770  1.00  0.00     0.116 C 
BRANCH  78  79
ATOM     79  N   UNL A   1      35.409  23.817  25.928  1.00  0.00    -0.352 N 
ATOM     80  C   UNL A   1      34.103  23.384  25.984  1.00  0.00     0.255 C 
ATOM     81  H   UNL A   1      35.831  23.985  26.800  1.00  0.00     0.163 HD
ATOM     82  O   UNL A   1      33.532  23.272  27.062  1.00  0.00    -0.269 OA
BRANCH  80  83
ATOM     83  C   UNL A   1      33.437  23.000  24.723  1.00  0.00     0.083 A 
ATOM     84  C   UNL A   1      33.047  21.669  24.598  1.00  0.00     0.018 A 
ATOM     85  C   UNL A   1      33.238  23.928  23.676  1.00  0.00     0.146 A 
ATOM     86  C   UNL A   1      32.555  21.223  23.397  1.00  0.00     0.002 A 
ATOM     87  C   UNL A   1      32.797  23.560  22.324  1.00  0.00     0.060 A 
ATOM     88  C   UNL A   1      32.460  22.105  22.306  1.00  0.00     0.019 A 
ATOM     89  Br  UNL A   1      32.581  25.303  20.423  1.00  0.00    -0.047 Br
BRANCH  85  90
ATOM     90  O   UNL A   1      33.436  25.240  23.981  1.00  0.00    -0.488 OA
BRANCH  90  91
ATOM     91  C   UNL A   1      32.225  25.370  24.652  1.00  0.00     0.178 C 
ATOM     92  C   UNL A   1      30.954  25.892  23.275  1.00  0.00     0.074 C 
ATOM     93  C   UNL A   1      32.737  26.597  26.056  1.00  0.00     0.080 C 
ATOM     94  C   UNL A   1      30.240  27.679  23.349  1.00  0.00     0.165 C 
ATOM     95  C   UNL A   1      32.073  28.374  25.937  1.00  0.00     0.072 C 
ATOM     96  O   UNL A   1      30.784  28.780  24.722  1.00  0.00    -0.375 OA
ATOM     97  C   UNL A   1      31.678  28.996  27.341  1.00  0.00     0.036 C 
ATOM     98  C   UNL A   1      33.326  29.334  26.052  1.00  0.00     0.036 C 
ATOM     99  C   UNL A   1      32.483  30.245  26.938  1.00  0.00     0.006 C 
ENDBRANCH  90  91
ENDBRANCH  85  90
ENDBRANCH  80  83
ENDBRANCH  78  79
ENDBRANCH  77  78
ENDBRANCH  76  77
ENDBRANCH   1  76
TORSDOF 18
ENDMDL
