MODEL 1
REMARK VINA RESULT:     -12.6      0.000      0.000
REMARK SMILES O=C(NCCCCCCNC(=O)[C@H]1CC2(CCN(C(=O)C3CC3)CC2)CN1C(=O)CCn1cccn1)c1ccc(-c2c3nc(c(-c4c(F)cc(S(=O)(=O)[O-])cc4F)c4ccc([nH]4)c(-c4c(F)cc(S(=O)(=O)[O-])cc4F)c4nc(c(-c5c(F)cc(S(=O)(=O)[O-])cc5F)c5ccc2[nH]5)C=C4)C=C3)cc1
REMARK SMILES IDX 7 1 6 2 5 3 4 4 3 5 1 6 2 7 37 9 38 10 102 11 39 12 101 13
REMARK SMILES IDX 40 14 41 15 42 16 95 17 43 18 100 19 94 20 96 21 44 22 99 23
REMARK SMILES IDX 93 24 92 25 45 27 79 28 58 29 78 30 59 31 62 32 77 33 97 34
REMARK SMILES IDX 60 35 61 36 76 38 98 39 63 40 46 41 47 42 56 43 48 44 49 45
REMARK SMILES IDX 55 46 57 47 50 48 51 49 52 50 53 51 54 52 80 53 81 54 90 55
REMARK SMILES IDX 82 56 83 57 89 58 91 59 84 60 85 61 86 62 87 63 88 64 64 65
REMARK SMILES IDX 65 66 74 67 66 68 67 69 73 70 75 71 68 72 69 73 70 74 71 75
REMARK SMILES IDX 72 76 8 77 9 78 10 79 11 80 12 82 13 83 14 84 27 85 15 86
REMARK SMILES IDX 26 87 16 88 25 89 17 90 24 91 18 92 19 93 20 94 28 95 29 96
REMARK SMILES IDX 30 97 31 98 32 99 33 100 36 101 34 102 35 103 21 104 22 105
REMARK SMILES IDX 23 106
REMARK H PARENT 3 8 96 26 62 37 10 81
REMARK Flexibility Score: inf
ROOT
ATOM      1  C   UNL A   1      35.001  32.009  27.752  1.00  0.00     0.002 C 
ENDROOT
BRANCH   1   2
ATOM      2  C   UNL A   1      35.088  33.507  28.061  1.00  0.00     0.002 C 
BRANCH   2   3
ATOM      3  C   UNL A   1      33.756  34.173  28.423  1.00  0.00     0.021 C 
BRANCH   3   4
ATOM      4  C   UNL A   1      33.871  35.254  29.495  1.00  0.00     0.116 C 
BRANCH   4   5
ATOM      5  N   UNL A   1      33.491  34.813  30.816  1.00  0.00    -0.352 N 
ATOM      6  O   UNL A   1      33.545  33.949  32.853  1.00  0.00    -0.269 OA
ATOM      7  C   UNL A   1      34.127  34.074  31.773  1.00  0.00     0.251 C 
ATOM      8  H   UNL A   1      32.589  35.105  31.082  1.00  0.00     0.163 HD
BRANCH   7   9
ATOM      9  C   UNL A   1      35.418  33.370  31.557  1.00  0.00     0.039 A 
ATOM     10  C   UNL A   1      36.674  33.978  31.484  1.00  0.00     0.014 A 
ATOM     11  C   UNL A   1      35.335  31.974  31.432  1.00  0.00     0.014 A 
ATOM     12  C   UNL A   1      37.806  33.225  31.197  1.00  0.00     0.010 A 
ATOM     13  C   UNL A   1      36.468  31.211  31.182  1.00  0.00     0.010 A 
ATOM     14  C   UNL A   1      37.700  31.844  31.035  1.00  0.00    -0.014 A 
BRANCH  14  15
ATOM     15  C   UNL A   1      38.937  31.075  30.925  1.00  0.00     0.031 A 
ATOM     16  C   UNL A   1      39.665  30.903  32.221  1.00  0.00     0.074 A 
ATOM     17  C   UNL A   1      39.306  30.422  29.805  1.00  0.00     0.049 A 
ATOM     18  N   UNL A   1      40.874  31.250  32.524  1.00  0.00    -0.248 NA
ATOM     19  C   UNL A   1      38.894  30.381  33.365  1.00  0.00     0.031 C 
ATOM     20  C   UNL A   1      38.541  30.258  28.567  1.00  0.00     0.029 A 
ATOM     21  N   UNL A   1      40.413  29.661  29.579  1.00  0.00    -0.354 N 
ATOM     22  C   UNL A   1      41.085  30.804  33.829  1.00  0.00     0.074 A 
ATOM     23  C   UNL A   1      39.797  30.422  34.344  1.00  0.00     0.031 C 
ATOM     24  C   UNL A   1      39.093  29.269  27.829  1.00  0.00     0.029 A 
ATOM     25  C   UNL A   1      40.316  28.821  28.475  1.00  0.00     0.049 A 
ATOM     26  H   UNL A   1      41.214  29.702  30.149  1.00  0.00     0.167 HD
ATOM     27  C   UNL A   1      42.333  30.573  34.326  1.00  0.00     0.037 A 
ATOM     28  C   UNL A   1      41.140  27.786  28.162  1.00  0.00     0.037 A 
ATOM     29  C   UNL A   1      43.342  31.258  33.565  1.00  0.00     0.049 A 
ATOM     30  C   UNL A   1      42.410  27.993  28.907  1.00  0.00     0.074 A 
ATOM     31  C   UNL A   1      43.595  32.583  33.266  1.00  0.00     0.029 A 
ATOM     32  N   UNL A   1      44.085  30.529  32.669  1.00  0.00    -0.354 N 
ATOM     33  N   UNL A   1      43.239  28.975  28.681  1.00  0.00    -0.248 NA
ATOM     34  C   UNL A   1      42.534  27.360  30.211  1.00  0.00     0.031 C 
ATOM     35  C   UNL A   1      44.051  32.574  31.916  1.00  0.00     0.029 A 
ATOM     36  C   UNL A   1      44.110  31.244  31.497  1.00  0.00     0.049 A 
ATOM     37  H   UNL A   1      44.516  29.660  32.835  1.00  0.00     0.167 HD
ATOM     38  C   UNL A   1      43.683  29.361  29.936  1.00  0.00     0.074 A 
ATOM     39  C   UNL A   1      43.279  28.278  30.831  1.00  0.00     0.031 C 
ATOM     40  C   UNL A   1      44.092  30.641  30.184  1.00  0.00     0.037 A 
BRANCH  27  41
ATOM     41  C   UNL A   1      42.655  29.461  35.296  1.00  0.00     0.058 A 
ATOM     42  C   UNL A   1      43.356  29.744  36.487  1.00  0.00     0.135 A 
ATOM     43  C   UNL A   1      42.537  28.091  34.970  1.00  0.00     0.135 A 
ATOM     44  F   UNL A   1      43.552  31.012  36.880  1.00  0.00    -0.206 F 
ATOM     45  C   UNL A   1      43.937  28.740  37.267  1.00  0.00     0.059 A 
ATOM     46  C   UNL A   1      43.059  27.074  35.761  1.00  0.00     0.059 A 
ATOM     47  F   UNL A   1      41.992  27.679  33.819  1.00  0.00    -0.206 F 
ATOM     48  C   UNL A   1      43.791  27.409  36.889  1.00  0.00     0.060 A 
BRANCH  48  49
ATOM     49  S   UNL A   1      44.608  26.118  37.843  1.00  0.00     0.124 S 
ATOM     50  O   UNL A   1      44.685  26.735  39.161  1.00  0.00    -0.237 OA
ATOM     51  O   UNL A   1      43.672  25.007  37.711  1.00  0.00    -0.237 OA
ATOM     52  O   UNL A   1      45.881  25.942  37.150  1.00  0.00    -0.744 OA
ENDBRANCH  48  49
ENDBRANCH  27  41
BRANCH  28  53
ATOM     53  C   UNL A   1      40.774  26.469  27.570  1.00  0.00     0.058 A 
ATOM     54  C   UNL A   1      41.533  25.895  26.533  1.00  0.00     0.135 A 
ATOM     55  C   UNL A   1      39.848  25.614  28.202  1.00  0.00     0.135 A 
ATOM     56  F   UNL A   1      42.459  26.625  25.892  1.00  0.00    -0.206 F 
ATOM     57  C   UNL A   1      41.412  24.546  26.175  1.00  0.00     0.059 A 
ATOM     58  C   UNL A   1      39.702  24.272  27.856  1.00  0.00     0.059 A 
ATOM     59  F   UNL A   1      39.118  26.034  29.246  1.00  0.00    -0.206 F 
ATOM     60  C   UNL A   1      40.506  23.736  26.858  1.00  0.00     0.060 A 
BRANCH  60  61
ATOM     61  S   UNL A   1      40.468  21.958  26.525  1.00  0.00     0.124 S 
ATOM     62  O   UNL A   1      41.640  21.785  25.674  1.00  0.00    -0.237 OA
ATOM     63  O   UNL A   1      40.563  21.389  27.865  1.00  0.00    -0.237 OA
ATOM     64  O   UNL A   1      39.181  21.764  25.860  1.00  0.00    -0.744 OA
ENDBRANCH  60  61
ENDBRANCH  28  53
BRANCH  40  65
ATOM     65  C   UNL A   1      44.321  31.560  29.011  1.00  0.00     0.058 A 
ATOM     66  C   UNL A   1      45.408  31.465  28.122  1.00  0.00     0.135 A 
ATOM     67  C   UNL A   1      43.311  32.478  28.685  1.00  0.00     0.135 A 
ATOM     68  F   UNL A   1      46.365  30.543  28.296  1.00  0.00    -0.206 F 
ATOM     69  C   UNL A   1      45.504  32.273  26.986  1.00  0.00     0.059 A 
ATOM     70  C   UNL A   1      43.369  33.269  27.541  1.00  0.00     0.059 A 
ATOM     71  F   UNL A   1      42.216  32.575  29.458  1.00  0.00    -0.206 F 
ATOM     72  C   UNL A   1      44.476  33.171  26.702  1.00  0.00     0.060 A 
BRANCH  72  73
ATOM     73  S   UNL A   1      44.559  34.154  25.190  1.00  0.00     0.124 S 
ATOM     74  O   UNL A   1      44.546  33.127  24.154  1.00  0.00    -0.237 OA
ATOM     75  O   UNL A   1      43.357  34.979  25.280  1.00  0.00    -0.237 OA
ATOM     76  O   UNL A   1      45.816  34.886  25.327  1.00  0.00    -0.744 OA
ENDBRANCH  72  73
ENDBRANCH  40  65
ENDBRANCH  14  15
ENDBRANCH   7   9
ENDBRANCH   4   5
ENDBRANCH   3   4
ENDBRANCH   2   3
ENDBRANCH   1   2
BRANCH   1  77
ATOM     77  C   UNL A   1      33.602  31.493  27.394  1.00  0.00     0.021 C 
BRANCH  77  78
ATOM     78  C   UNL A   1      33.500  29.997  27.115  1.00  0.00     0.116 C 
BRANCH  78  79
ATOM     79  N   UNL A   1      32.241  29.414  27.512  1.00  0.00    -0.354 N 
ATOM     80  C   UNL A   1      31.726  28.207  27.151  1.00  0.00     0.242 C 
ATOM     81  H   UNL A   1      31.686  29.955  28.118  1.00  0.00     0.163 HD
ATOM     82  O   UNL A   1      31.009  27.628  27.972  1.00  0.00    -0.273 OA
BRANCH  80  83
ATOM     83  C   UNL A   1      32.221  27.492  25.884  1.00  0.00     0.175 C 
ATOM     84  C   UNL A   1      32.151  25.974  26.006  1.00  0.00     0.044 C 
ATOM     85  N   UNL A   1      31.870  27.663  24.465  1.00  0.00    -0.330 N 
ATOM     86  C   UNL A   1      32.839  25.478  24.710  1.00  0.00    -0.006 C 
ATOM     87  C   UNL A   1      32.709  26.694  23.743  1.00  0.00     0.127 C 
ATOM     88  C   UNL A   1      32.131  24.241  24.134  1.00  0.00     0.030 C 
ATOM     89  C   UNL A   1      34.308  25.104  24.996  1.00  0.00     0.030 C 
ATOM     90  C   UNL A   1      32.264  23.030  25.055  1.00  0.00     0.120 C 
ATOM     91  C   UNL A   1      34.423  23.860  25.891  1.00  0.00     0.120 C 
ATOM     92  N   UNL A   1      33.661  22.731  25.346  1.00  0.00    -0.342 N 
ATOM     93  C   UNL A   1      34.302  21.485  25.336  1.00  0.00     0.225 C 
ATOM     94  O   UNL A   1      35.406  21.346  25.839  1.00  0.00    -0.275 OA
BRANCH  85  95
ATOM     95  C   UNL A   1      30.594  27.884  23.951  1.00  0.00     0.225 C 
ATOM     96  O   UNL A   1      29.855  26.954  23.608  1.00  0.00    -0.275 OA
BRANCH  95  97
ATOM     97  C   UNL A   1      30.126  29.293  23.680  1.00  0.00     0.124 C 
BRANCH  97  98
ATOM     98  C   UNL A   1      28.765  29.349  23.009  1.00  0.00     0.154 C 
BRANCH  98  99
ATOM     99  N   UNL A   1      28.512  30.644  22.409  1.00  0.00    -0.272 N 
ATOM    100  C   UNL A   1      28.636  31.863  23.007  1.00  0.00     0.108 A 
ATOM    101  N   UNL A   1      28.179  30.717  21.109  1.00  0.00    -0.182 NA
ATOM    102  C   UNL A   1      28.447  32.792  22.010  1.00  0.00     0.042 A 
ATOM    103  C   UNL A   1      28.174  32.030  20.859  1.00  0.00     0.135 A 
ENDBRANCH  98  99
ENDBRANCH  97  98
ENDBRANCH  95  97
ENDBRANCH  85  95
BRANCH  93 104
ATOM    104  C   UNL A   1      33.760  20.265  24.659  1.00  0.00     0.079 C 
ATOM    105  C   UNL A   1      34.279  18.862  24.588  1.00  0.00     0.014 C 
ATOM    106  C   UNL A   1      33.075  19.172  25.440  1.00  0.00     0.014 C 
ENDBRANCH  93 104
ENDBRANCH  80  83
ENDBRANCH  78  79
ENDBRANCH  77  78
ENDBRANCH   1  77
TORSDOF 21
ENDMDL
MODEL 2
REMARK VINA RESULT:     -11.3      1.798      2.560
REMARK SMILES O=C(NCCCCCCNC(=O)[C@H]1CC2(CCN(C(=O)C3CC3)CC2)CN1C(=O)CCn1cccn1)c1ccc(-c2c3nc(c(-c4c(F)cc(S(=O)(=O)[O-])cc4F)c4ccc([nH]4)c(-c4c(F)cc(S(=O)(=O)[O-])cc4F)c4nc(c(-c5c(F)cc(S(=O)(=O)[O-])cc5F)c5ccc2[nH]5)C=C4)C=C3)cc1
REMARK SMILES IDX 7 1 6 2 5 3 4 4 3 5 1 6 2 7 37 9 38 10 102 11 39 12 101 13
REMARK SMILES IDX 40 14 41 15 42 16 95 17 43 18 100 19 94 20 96 21 44 22 99 23
REMARK SMILES IDX 93 24 92 25 45 27 79 28 58 29 78 30 59 31 62 32 77 33 97 34
REMARK SMILES IDX 60 35 61 36 76 38 98 39 63 40 46 41 47 42 56 43 48 44 49 45
REMARK SMILES IDX 55 46 57 47 50 48 51 49 52 50 53 51 54 52 80 53 81 54 90 55
REMARK SMILES IDX 82 56 83 57 89 58 91 59 84 60 85 61 86 62 87 63 88 64 64 65
REMARK SMILES IDX 65 66 74 67 66 68 67 69 73 70 75 71 68 72 69 73 70 74 71 75
REMARK SMILES IDX 72 76 8 77 9 78 10 79 11 80 12 82 13 83 14 84 27 85 15 86
REMARK SMILES IDX 26 87 16 88 25 89 17 90 24 91 18 92 19 93 20 94 28 95 29 96
REMARK SMILES IDX 30 97 31 98 32 99 33 100 36 101 34 102 35 103 21 104 22 105
REMARK SMILES IDX 23 106
REMARK H PARENT 3 8 96 26 62 37 10 81
REMARK Flexibility Score: inf
ROOT
ATOM      1  C   UNL A   1      34.380  29.509  27.382  1.00  0.00     0.002 C 
ENDROOT
BRANCH   1   2
ATOM      2  C   UNL A   1      33.409  30.456  26.669  1.00  0.00     0.002 C 
BRANCH   2   3
ATOM      3  C   UNL A   1      33.102  31.756  27.421  1.00  0.00     0.021 C 
BRANCH   3   4
ATOM      4  C   UNL A   1      34.287  32.319  28.203  1.00  0.00     0.116 C 
BRANCH   4   5
ATOM      5  N   UNL A   1      34.088  32.343  29.632  1.00  0.00    -0.352 N 
ATOM      6  O   UNL A   1      34.443  32.329  31.817  1.00  0.00    -0.269 OA
ATOM      7  C   UNL A   1      34.923  32.145  30.695  1.00  0.00     0.251 C 
ATOM      8  H   UNL A   1      33.160  32.542  29.895  1.00  0.00     0.163 HD
BRANCH   7   9
ATOM      9  C   UNL A   1      36.322  31.660  30.574  1.00  0.00     0.039 A 
ATOM     10  C   UNL A   1      37.461  32.466  30.525  1.00  0.00     0.014 A 
ATOM     11  C   UNL A   1      36.479  30.265  30.517  1.00  0.00     0.014 A 
ATOM     12  C   UNL A   1      38.716  31.904  30.328  1.00  0.00     0.010 A 
ATOM     13  C   UNL A   1      37.735  29.694  30.357  1.00  0.00     0.010 A 
ATOM     14  C   UNL A   1      38.850  30.518  30.233  1.00  0.00    -0.014 A 
BRANCH  14  15
ATOM     15  C   UNL A   1      40.202  29.965  30.217  1.00  0.00     0.031 A 
ATOM     16  C   UNL A   1      40.800  29.779  31.576  1.00  0.00     0.074 A 
ATOM     17  C   UNL A   1      40.796  29.492  29.104  1.00  0.00     0.049 A 
ATOM     18  N   UNL A   1      41.894  30.277  32.057  1.00  0.00    -0.248 NA
ATOM     19  C   UNL A   1      40.003  29.033  32.569  1.00  0.00     0.031 C 
ATOM     20  C   UNL A   1      40.210  29.336  27.770  1.00  0.00     0.029 A 
ATOM     21  N   UNL A   1      42.031  28.938  28.958  1.00  0.00    -0.354 N 
ATOM     22  C   UNL A   1      42.029  29.741  33.338  1.00  0.00     0.074 A 
ATOM     23  C   UNL A   1      40.773  29.116  33.654  1.00  0.00     0.031 C 
ATOM     24  C   UNL A   1      40.997  28.522  27.030  1.00  0.00     0.029 A 
ATOM     25  C   UNL A   1      42.198  28.207  27.787  1.00  0.00     0.049 A 
ATOM     26  H   UNL A   1      42.747  29.045  29.626  1.00  0.00     0.167 HD
ATOM     27  C   UNL A   1      43.235  29.658  33.967  1.00  0.00     0.037 A 
ATOM     28  C   UNL A   1      43.212  27.349  27.498  1.00  0.00     0.037 A 
ATOM     29  C   UNL A   1      44.195  30.563  33.397  1.00  0.00     0.049 A 
ATOM     30  C   UNL A   1      44.339  27.674  28.410  1.00  0.00     0.074 A 
ATOM     31  C   UNL A   1      44.257  31.934  33.240  1.00  0.00     0.029 A 
ATOM     32  N   UNL A   1      45.142  30.051  32.545  1.00  0.00    -0.354 N 
ATOM     33  N   UNL A   1      45.014  28.790  28.370  1.00  0.00    -0.248 NA
ATOM     34  C   UNL A   1      44.421  26.941  29.664  1.00  0.00     0.031 C 
ATOM     35  C   UNL A   1      44.854  32.130  31.961  1.00  0.00     0.029 A 
ATOM     36  C   UNL A   1      45.179  30.874  31.447  1.00  0.00     0.049 A 
ATOM     37  H   UNL A   1      45.690  29.246  32.693  1.00  0.00     0.167 HD
ATOM     38  C   UNL A   1      45.246  29.113  29.698  1.00  0.00     0.074 A 
ATOM     39  C   UNL A   1      44.929  27.897  30.445  1.00  0.00     0.031 C 
ATOM     40  C   UNL A   1      45.407  30.409  30.098  1.00  0.00     0.037 A 
BRANCH  27  41
ATOM     41  C   UNL A   1      43.626  28.518  34.877  1.00  0.00     0.058 A 
ATOM     42  C   UNL A   1      44.117  28.785  36.172  1.00  0.00     0.135 A 
ATOM     43  C   UNL A   1      43.792  27.189  34.426  1.00  0.00     0.135 A 
ATOM     44  F   UNL A   1      44.038  30.019  36.693  1.00  0.00    -0.206 F 
ATOM     45  C   UNL A   1      44.765  27.813  36.939  1.00  0.00     0.059 A 
ATOM     46  C   UNL A   1      44.384  26.194  35.194  1.00  0.00     0.059 A 
ATOM     47  F   UNL A   1      43.472  26.816  33.181  1.00  0.00    -0.206 F 
ATOM     48  C   UNL A   1      44.902  26.523  36.436  1.00  0.00     0.060 A 
BRANCH  48  49
ATOM     49  S   UNL A   1      45.811  25.290  37.384  1.00  0.00     0.124 S 
ATOM     50  O   UNL A   1      44.732  24.426  37.847  1.00  0.00    -0.237 OA
ATOM     51  O   UNL A   1      46.695  24.722  36.371  1.00  0.00    -0.237 OA
ATOM     52  O   UNL A   1      46.476  26.081  38.415  1.00  0.00    -0.744 OA
ENDBRANCH  48  49
ENDBRANCH  27  41
BRANCH  28  53
ATOM     53  C   UNL A   1      43.136  26.057  26.760  1.00  0.00     0.058 A 
ATOM     54  C   UNL A   1      43.823  25.864  25.547  1.00  0.00     0.135 A 
ATOM     55  C   UNL A   1      42.628  24.893  27.372  1.00  0.00     0.135 A 
ATOM     56  F   UNL A   1      44.366  26.911  24.906  1.00  0.00    -0.206 F 
ATOM     57  C   UNL A   1      44.031  24.592  24.998  1.00  0.00     0.059 A 
ATOM     58  C   UNL A   1      42.812  23.618  26.839  1.00  0.00     0.059 A 
ATOM     59  F   UNL A   1      42.013  24.948  28.563  1.00  0.00    -0.206 F 
ATOM     60  C   UNL A   1      43.538  23.471  25.664  1.00  0.00     0.060 A 
BRANCH  60  61
ATOM     61  S   UNL A   1      43.952  21.817  25.058  1.00  0.00     0.124 S 
ATOM     62  O   UNL A   1      44.082  22.044  23.624  1.00  0.00    -0.237 OA
ATOM     63  O   UNL A   1      45.189  21.525  25.773  1.00  0.00    -0.237 OA
ATOM     64  O   UNL A   1      42.800  21.011  25.459  1.00  0.00    -0.744 OA
ENDBRANCH  60  61
ENDBRANCH  28  53
BRANCH  40  65
ATOM     65  C   UNL A   1      45.610  31.466  29.041  1.00  0.00     0.058 A 
ATOM     66  C   UNL A   1      44.569  32.136  28.373  1.00  0.00     0.135 A 
ATOM     67  C   UNL A   1      46.915  31.927  28.811  1.00  0.00     0.135 A 
ATOM     68  F   UNL A   1      43.286  31.835  28.613  1.00  0.00    -0.206 F 
ATOM     69  C   UNL A   1      44.819  33.188  27.487  1.00  0.00     0.059 A 
ATOM     70  C   UNL A   1      47.185  32.994  27.959  1.00  0.00     0.059 A 
ATOM     71  F   UNL A   1      47.949  31.370  29.465  1.00  0.00    -0.206 F 
ATOM     72  C   UNL A   1      46.133  33.612  27.289  1.00  0.00     0.060 A 
BRANCH  72  73
ATOM     73  S   UNL A   1      46.448  35.025  26.210  1.00  0.00     0.124 S 
ATOM     74  O   UNL A   1      45.730  36.098  26.891  1.00  0.00    -0.237 OA
ATOM     75  O   UNL A   1      47.905  35.124  26.232  1.00  0.00    -0.237 OA
ATOM     76  O   UNL A   1      45.881  34.610  24.929  1.00  0.00    -0.744 OA
ENDBRANCH  72  73
ENDBRANCH  40  65
ENDBRANCH  14  15
ENDBRANCH   7   9
ENDBRANCH   4   5
ENDBRANCH   3   4
ENDBRANCH   2   3
ENDBRANCH   1   2
BRANCH   1  77
ATOM     77  C   UNL A   1      34.409  28.073  26.844  1.00  0.00     0.021 C 
BRANCH  77  78
ATOM     78  C   UNL A   1      33.298  27.711  25.864  1.00  0.00     0.116 C 
BRANCH  78  79
ATOM     79  N   UNL A   1      32.247  26.909  26.445  1.00  0.00    -0.354 N 
ATOM     80  C   UNL A   1      31.984  25.591  26.231  1.00  0.00     0.242 C 
ATOM     81  H   UNL A   1      31.645  27.372  27.071  1.00  0.00     0.163 HD
ATOM     82  O   UNL A   1      31.501  24.951  27.169  1.00  0.00    -0.273 OA
BRANCH  80  83
ATOM     83  C   UNL A   1      32.503  24.883  24.970  1.00  0.00     0.175 C 
ATOM     84  C   UNL A   1      32.354  23.368  25.048  1.00  0.00     0.044 C 
ATOM     85  N   UNL A   1      32.228  25.106  23.541  1.00  0.00    -0.330 N 
ATOM     86  C   UNL A   1      33.078  22.870  23.772  1.00  0.00    -0.006 C 
ATOM     87  C   UNL A   1      33.052  24.115  22.833  1.00  0.00     0.127 C 
ATOM     88  C   UNL A   1      32.338  21.684  23.131  1.00  0.00     0.030 C 
ATOM     89  C   UNL A   1      34.511  22.417  24.114  1.00  0.00     0.030 C 
ATOM     90  C   UNL A   1      32.369  20.447  24.024  1.00  0.00     0.120 C 
ATOM     91  C   UNL A   1      34.525  21.147  24.980  1.00  0.00     0.120 C 
ATOM     92  N   UNL A   1      33.735  20.072  24.370  1.00  0.00    -0.342 N 
ATOM     93  C   UNL A   1      34.314  18.796  24.356  1.00  0.00     0.225 C 
ATOM     94  O   UNL A   1      35.386  18.590  24.906  1.00  0.00    -0.275 OA
BRANCH  85  95
ATOM     95  C   UNL A   1      30.990  25.402  22.976  1.00  0.00     0.225 C 
ATOM     96  O   UNL A   1      30.046  24.605  23.008  1.00  0.00    -0.275 OA
BRANCH  95  97
ATOM     97  C   UNL A   1      30.809  26.677  22.186  1.00  0.00     0.124 C 
BRANCH  97  98
ATOM     98  C   UNL A   1      31.268  27.913  22.939  1.00  0.00     0.154 C 
BRANCH  98  99
ATOM     99  N   UNL A   1      30.334  29.011  22.793  1.00  0.00    -0.272 N 
ATOM    100  C   UNL A   1      29.911  29.863  23.770  1.00  0.00     0.108 A 
ATOM    101  N   UNL A   1      29.849  29.310  21.576  1.00  0.00    -0.182 NA
ATOM    102  C   UNL A   1      29.164  30.825  23.132  1.00  0.00     0.042 A 
ATOM    103  C   UNL A   1      29.163  30.438  21.779  1.00  0.00     0.135 A 
ENDBRANCH  98  99
ENDBRANCH  97  98
ENDBRANCH  95  97
ENDBRANCH  85  95
BRANCH  93 104
ATOM    104  C   UNL A   1      33.746  17.621  23.623  1.00  0.00     0.079 C 
ATOM    105  C   UNL A   1      34.295  16.248  23.382  1.00  0.00     0.014 C 
ATOM    106  C   UNL A   1      33.164  16.442  24.360  1.00  0.00     0.014 C 
ENDBRANCH  93 104
ENDBRANCH  80  83
ENDBRANCH  78  79
ENDBRANCH  77  78
ENDBRANCH   1  77
TORSDOF 21
ENDMDL
MODEL 3
REMARK VINA RESULT:     -10.6      1.891      5.079
REMARK SMILES O=C(NCCCCCCNC(=O)[C@H]1CC2(CCN(C(=O)C3CC3)CC2)CN1C(=O)CCn1cccn1)c1ccc(-c2c3nc(c(-c4c(F)cc(S(=O)(=O)[O-])cc4F)c4ccc([nH]4)c(-c4c(F)cc(S(=O)(=O)[O-])cc4F)c4nc(c(-c5c(F)cc(S(=O)(=O)[O-])cc5F)c5ccc2[nH]5)C=C4)C=C3)cc1
REMARK SMILES IDX 7 1 6 2 5 3 4 4 3 5 1 6 2 7 37 9 38 10 102 11 39 12 101 13
REMARK SMILES IDX 40 14 41 15 42 16 95 17 43 18 100 19 94 20 96 21 44 22 99 23
REMARK SMILES IDX 93 24 92 25 45 27 79 28 58 29 78 30 59 31 62 32 77 33 97 34
REMARK SMILES IDX 60 35 61 36 76 38 98 39 63 40 46 41 47 42 56 43 48 44 49 45
REMARK SMILES IDX 55 46 57 47 50 48 51 49 52 50 53 51 54 52 80 53 81 54 90 55
REMARK SMILES IDX 82 56 83 57 89 58 91 59 84 60 85 61 86 62 87 63 88 64 64 65
REMARK SMILES IDX 65 66 74 67 66 68 67 69 73 70 75 71 68 72 69 73 70 74 71 75
REMARK SMILES IDX 72 76 8 77 9 78 10 79 11 80 12 82 13 83 14 84 27 85 15 86
REMARK SMILES IDX 26 87 16 88 25 89 17 90 24 91 18 92 19 93 20 94 28 95 29 96
REMARK SMILES IDX 30 97 31 98 32 99 33 100 36 101 34 102 35 103 21 104 22 105
REMARK SMILES IDX 23 106
REMARK H PARENT 3 8 96 26 62 37 10 81
REMARK Flexibility Score: inf
ROOT
ATOM      1  C   UNL A   1      34.099  29.277  26.916  1.00  0.00     0.002 C 
ENDROOT
BRANCH   1   2
ATOM      2  C   UNL A   1      33.042  30.252  26.387  1.00  0.00     0.002 C 
BRANCH   2   3
ATOM      3  C   UNL A   1      32.911  31.557  27.179  1.00  0.00     0.021 C 
BRANCH   3   4
ATOM      4  C   UNL A   1      34.183  31.970  27.916  1.00  0.00     0.116 C 
BRANCH   4   5
ATOM      5  N   UNL A   1      34.002  32.167  29.335  1.00  0.00    -0.352 N 
ATOM      6  O   UNL A   1      34.385  32.431  31.498  1.00  0.00    -0.269 OA
ATOM      7  C   UNL A   1      34.854  32.119  30.401  1.00  0.00     0.251 C 
ATOM      8  H   UNL A   1      33.073  32.379  29.585  1.00  0.00     0.163 HD
BRANCH   7   9
ATOM      9  C   UNL A   1      36.262  31.651  30.319  1.00  0.00     0.039 A 
ATOM     10  C   UNL A   1      37.394  32.469  30.341  1.00  0.00     0.014 A 
ATOM     11  C   UNL A   1      36.435  30.260  30.223  1.00  0.00     0.014 A 
ATOM     12  C   UNL A   1      38.661  31.924  30.175  1.00  0.00     0.010 A 
ATOM     13  C   UNL A   1      37.702  29.706  30.094  1.00  0.00     0.010 A 
ATOM     14  C   UNL A   1      38.813  30.544  30.041  1.00  0.00    -0.014 A 
BRANCH  14  15
ATOM     15  C   UNL A   1      40.170  30.003  30.060  1.00  0.00     0.031 A 
ATOM     16  C   UNL A   1      40.718  29.781  31.435  1.00  0.00     0.074 A 
ATOM     17  C   UNL A   1      40.811  29.570  28.957  1.00  0.00     0.049 A 
ATOM     18  N   UNL A   1      41.787  30.274  31.972  1.00  0.00    -0.248 NA
ATOM     19  C   UNL A   1      39.892  28.998  32.373  1.00  0.00     0.031 C 
ATOM     20  C   UNL A   1      40.278  29.450  27.597  1.00  0.00     0.029 A 
ATOM     21  N   UNL A   1      42.057  29.032  28.842  1.00  0.00    -0.354 N 
ATOM     22  C   UNL A   1      41.879  29.700  33.240  1.00  0.00     0.074 A 
ATOM     23  C   UNL A   1      40.618  29.054  33.489  1.00  0.00     0.031 C 
ATOM     24  C   UNL A   1      41.101  28.666  26.864  1.00  0.00     0.029 A 
ATOM     25  C   UNL A   1      42.275  28.339  27.657  1.00  0.00     0.049 A 
ATOM     26  H   UNL A   1      42.745  29.125  29.540  1.00  0.00     0.167 HD
ATOM     27  C   UNL A   1      43.061  29.609  33.913  1.00  0.00     0.037 A 
ATOM     28  C   UNL A   1      43.308  27.499  27.381  1.00  0.00     0.037 A 
ATOM     29  C   UNL A   1      44.033  30.540  33.408  1.00  0.00     0.049 A 
ATOM     30  C   UNL A   1      44.396  27.806  28.345  1.00  0.00     0.074 A 
ATOM     31  C   UNL A   1      44.086  31.915  33.295  1.00  0.00     0.029 A 
ATOM     32  N   UNL A   1      45.017  30.062  32.578  1.00  0.00    -0.354 N 
ATOM     33  N   UNL A   1      45.061  28.929  28.364  1.00  0.00    -0.248 NA
ATOM     34  C   UNL A   1      44.438  27.036  29.579  1.00  0.00     0.031 C 
ATOM     35  C   UNL A   1      44.731  32.156  32.047  1.00  0.00     0.029 A 
ATOM     36  C   UNL A   1      45.087  30.919  31.508  1.00  0.00     0.049 A 
ATOM     37  H   UNL A   1      45.567  29.259  32.723  1.00  0.00     0.167 HD
ATOM     38  C   UNL A   1      45.239  29.213  29.710  1.00  0.00     0.074 A 
ATOM     39  C   UNL A   1      44.906  27.972  30.407  1.00  0.00     0.031 C 
ATOM     40  C   UNL A   1      45.372  30.498  30.154  1.00  0.00     0.037 A 
BRANCH  27  41
ATOM     41  C   UNL A   1      43.429  28.445  34.802  1.00  0.00     0.058 A 
ATOM     42  C   UNL A   1      43.840  28.675  36.132  1.00  0.00     0.135 A 
ATOM     43  C   UNL A   1      43.652  27.138  34.314  1.00  0.00     0.135 A 
ATOM     44  F   UNL A   1      43.702  29.887  36.690  1.00  0.00    -0.206 F 
ATOM     45  C   UNL A   1      44.468  27.690  36.899  1.00  0.00     0.059 A 
ATOM     46  C   UNL A   1      44.224  26.128  35.079  1.00  0.00     0.059 A 
ATOM     47  F   UNL A   1      43.411  26.804  33.040  1.00  0.00    -0.206 F 
ATOM     48  C   UNL A   1      44.665  26.423  36.359  1.00  0.00     0.060 A 
BRANCH  48  49
ATOM     49  S   UNL A   1      45.549  25.176  37.312  1.00  0.00     0.124 S 
ATOM     50  O   UNL A   1      46.872  25.226  36.699  1.00  0.00    -0.237 OA
ATOM     51  O   UNL A   1      45.452  25.706  38.667  1.00  0.00    -0.237 OA
ATOM     52  O   UNL A   1      44.783  23.958  37.065  1.00  0.00    -0.744 OA
ENDBRANCH  48  49
ENDBRANCH  27  41
BRANCH  28  53
ATOM     53  C   UNL A   1      43.274  26.230  26.602  1.00  0.00     0.058 A 
ATOM     54  C   UNL A   1      44.145  26.011  25.518  1.00  0.00     0.135 A 
ATOM     55  C   UNL A   1      42.591  25.094  27.082  1.00  0.00     0.135 A 
ATOM     56  F   UNL A   1      44.859  27.028  25.011  1.00  0.00    -0.206 F 
ATOM     57  C   UNL A   1      44.358  24.738  24.974  1.00  0.00     0.059 A 
ATOM     58  C   UNL A   1      42.778  23.819  26.550  1.00  0.00     0.059 A 
ATOM     59  F   UNL A   1      41.786  25.171  28.152  1.00  0.00    -0.206 F 
ATOM     60  C   UNL A   1      43.684  23.642  25.512  1.00  0.00     0.060 A 
BRANCH  60  61
ATOM     61  S   UNL A   1      44.083  21.974  24.935  1.00  0.00     0.124 S 
ATOM     62  O   UNL A   1      45.323  21.696  25.650  1.00  0.00    -0.237 OA
ATOM     63  O   UNL A   1      42.916  21.211  25.360  1.00  0.00    -0.237 OA
ATOM     64  O   UNL A   1      44.222  22.140  23.489  1.00  0.00    -0.744 OA
ENDBRANCH  60  61
ENDBRANCH  28  53
BRANCH  40  65
ATOM     65  C   UNL A   1      45.604  31.588  29.138  1.00  0.00     0.058 A 
ATOM     66  C   UNL A   1      46.869  31.981  28.664  1.00  0.00     0.135 A 
ATOM     67  C   UNL A   1      44.485  32.149  28.505  1.00  0.00     0.135 A 
ATOM     68  F   UNL A   1      47.990  31.418  29.137  1.00  0.00    -0.206 F 
ATOM     69  C   UNL A   1      47.013  32.917  27.637  1.00  0.00     0.059 A 
ATOM     70  C   UNL A   1      44.603  33.058  27.458  1.00  0.00     0.059 A 
ATOM     71  F   UNL A   1      43.247  31.770  28.868  1.00  0.00    -0.206 F 
ATOM     72  C   UNL A   1      45.871  33.448  27.037  1.00  0.00     0.060 A 
BRANCH  72  73
ATOM     73  S   UNL A   1      46.057  34.594  25.653  1.00  0.00     0.124 S 
ATOM     74  O   UNL A   1      45.097  34.067  24.688  1.00  0.00    -0.237 OA
ATOM     75  O   UNL A   1      45.711  35.878  26.255  1.00  0.00    -0.237 OA
ATOM     76  O   UNL A   1      47.462  34.451  25.278  1.00  0.00    -0.744 OA
ENDBRANCH  72  73
ENDBRANCH  40  65
ENDBRANCH  14  15
ENDBRANCH   7   9
ENDBRANCH   4   5
ENDBRANCH   3   4
ENDBRANCH   2   3
ENDBRANCH   1   2
BRANCH   1  77
ATOM     77  C   UNL A   1      33.705  27.795  26.869  1.00  0.00     0.021 C 
BRANCH  77  78
ATOM     78  C   UNL A   1      32.207  27.509  26.853  1.00  0.00     0.116 C 
BRANCH  78  79
ATOM     79  N   UNL A   1      31.850  26.231  27.423  1.00  0.00    -0.354 N 
ATOM     80  C   UNL A   1      31.523  25.084  26.768  1.00  0.00     0.242 C 
ATOM     81  H   UNL A   1      31.842  26.184  28.406  1.00  0.00     0.163 HD
ATOM     82  O   UNL A   1      31.822  24.017  27.311  1.00  0.00    -0.273 OA
BRANCH  80  83
ATOM     83  C   UNL A   1      31.036  25.126  25.311  1.00  0.00     0.175 C 
ATOM     84  C   UNL A   1      30.865  26.550  24.793  1.00  0.00     0.044 C 
ATOM     85  N   UNL A   1      31.528  24.456  24.097  1.00  0.00    -0.330 N 
ATOM     86  C   UNL A   1      30.223  26.349  23.398  1.00  0.00    -0.006 C 
ATOM     87  C   UNL A   1      30.618  24.886  23.025  1.00  0.00     0.127 C 
ATOM     88  C   UNL A   1      30.782  27.347  22.371  1.00  0.00     0.030 C 
ATOM     89  C   UNL A   1      28.696  26.546  23.481  1.00  0.00     0.030 C 
ATOM     90  C   UNL A   1      30.390  28.784  22.705  1.00  0.00     0.120 C 
ATOM     91  C   UNL A   1      28.317  28.006  23.776  1.00  0.00     0.120 C 
ATOM     92  N   UNL A   1      28.944  28.929  22.824  1.00  0.00    -0.342 N 
ATOM     93  C   UNL A   1      28.126  29.932  22.288  1.00  0.00     0.225 C 
ATOM     94  O   UNL A   1      26.974  30.071  22.671  1.00  0.00    -0.275 OA
BRANCH  85  95
ATOM     95  C   UNL A   1      32.862  24.270  23.740  1.00  0.00     0.225 C 
ATOM     96  O   UNL A   1      33.525  25.158  23.193  1.00  0.00    -0.275 OA
BRANCH  95  97
ATOM     97  C   UNL A   1      33.502  22.912  23.904  1.00  0.00     0.124 C 
BRANCH  97  98
ATOM     98  C   UNL A   1      32.736  22.004  24.849  1.00  0.00     0.154 C 
BRANCH  98  99
ATOM     99  N   UNL A   1      33.093  20.611  24.667  1.00  0.00    -0.272 N 
ATOM    100  C   UNL A   1      34.348  20.079  24.663  1.00  0.00     0.108 A 
ATOM    101  N   UNL A   1      32.122  19.690  24.548  1.00  0.00    -0.182 NA
ATOM    102  C   UNL A   1      34.179  18.716  24.617  1.00  0.00     0.042 A 
ATOM    103  C   UNL A   1      32.786  18.530  24.553  1.00  0.00     0.135 A 
ENDBRANCH  98  99
ENDBRANCH  97  98
ENDBRANCH  95  97
ENDBRANCH  85  95
BRANCH  93 104
ATOM    104  C   UNL A   1      28.533  30.845  21.174  1.00  0.00     0.079 C 
ATOM    105  C   UNL A   1      27.729  31.762  20.305  1.00  0.00     0.014 C 
ATOM    106  C   UNL A   1      28.623  32.337  21.374  1.00  0.00     0.014 C 
ENDBRANCH  93 104
ENDBRANCH  80  83
ENDBRANCH  78  79
ENDBRANCH  77  78
ENDBRANCH   1  77
TORSDOF 21
ENDMDL
