MODEL 1
REMARK VINA RESULT:     -11.5      0.000      0.000
REMARK SMILES C[C@H](Cc1cccs1)NC(=O)N[C@](C)(C(=O)NCCCCCCNC(=O)c1ccc(-c2c3nc(c(-c4c(F)cc(S(=O)(=O)[O-])cc4F)c4ccc([nH]4)c(-c4c(F)cc(S(=O)(=O)[O-])cc4F)c4nc(c(-c5c(F)cc(S(=O)(=O)[O-])cc5F)c5ccc2[nH]5)C=C4)C=C3)cc1)C(F)(F)F
REMARK SMILES IDX 20 1 19 2 18 3 17 4 15 5 16 6 13 8 14 9 12 10 9 11 10 12
REMARK SMILES IDX 11 14 2 16 1 17 3 18 4 19 5 20 8 21 6 22 7 23 93 24 94 25
REMARK SMILES IDX 95 26 96 27 21 28 22 29 23 30 24 31 25 32 26 34 27 35 28 36
REMARK SMILES IDX 92 37 29 38 91 39 30 40 31 41 32 42 85 43 33 44 90 45 84 46
REMARK SMILES IDX 86 47 34 48 89 49 83 50 82 51 35 53 69 54 48 55 68 56 49 57
REMARK SMILES IDX 52 58 67 59 87 60 50 61 51 62 66 64 88 65 53 66 36 67 37 68
REMARK SMILES IDX 46 69 38 70 39 71 45 72 47 73 40 74 41 75 42 76 43 77 44 78
REMARK SMILES IDX 70 79 71 80 80 81 72 82 73 83 79 84 81 85 74 86 75 87 76 88
REMARK SMILES IDX 77 89 78 90 54 91 55 92 64 93 56 94 57 95 63 96 65 97 58 98
REMARK SMILES IDX 59 99 60 100 61 101 62 102
REMARK H PARENT 17 7 9 13 12 15 24 33 86 52 52 63
REMARK Flexibility Score: inf
ROOT
ATOM      1  C   UNL A   1      36.370  21.353  25.272  1.00  0.00     0.002 C 
ENDROOT
BRANCH   1   2
ATOM      2  C   UNL A   1      35.319  21.769  26.311  1.00  0.00     0.021 C 
BRANCH   2   3
ATOM      3  C   UNL A   1      33.931  21.173  26.044  1.00  0.00     0.116 C 
BRANCH   3   4
ATOM      4  N   UNL A   1      33.669  21.175  24.615  1.00  0.00    -0.354 N 
ATOM      5  C   UNL A   1      32.835  21.944  23.849  1.00  0.00     0.255 C 
ATOM      6  O   UNL A   1      32.517  21.452  22.763  1.00  0.00    -0.272 OA
ATOM      7  H   UNL A   1      34.181  20.504  24.108  1.00  0.00     0.163 HD
BRANCH   5   8
ATOM      8  C   UNL A   1      32.307  23.316  24.319  1.00  0.00     0.213 C 
ATOM      9  C   UNL A   1      31.363  23.946  23.260  1.00  0.00     0.056 C 
BRANCH   8  10
ATOM     10  N   UNL A   1      31.448  23.099  25.542  1.00  0.00    -0.316 N 
ATOM     11  N   UNL A   1      30.585  25.103  26.481  1.00  0.00    -0.335 N 
ATOM     12  C   UNL A   1      30.765  23.788  26.451  1.00  0.00     0.316 C 
ATOM     13  H   UNL A   1      30.237  25.417  27.346  1.00  0.00     0.165 HD
ATOM     14  O   UNL A   1      30.279  23.135  27.378  1.00  0.00    -0.249 OA
ATOM     15  H   UNL A   1      31.367  22.135  25.726  1.00  0.00     0.166 HD
BRANCH  11  16
ATOM     16  C   UNL A   1      30.784  26.186  25.529  1.00  0.00     0.086 C 
ATOM     17  C   UNL A   1      31.258  27.450  26.241  1.00  0.00     0.031 C 
BRANCH  16  18
ATOM     18  C   UNL A   1      29.565  26.280  24.572  1.00  0.00     0.071 C 
BRANCH  18  19
ATOM     19  C   UNL A   1      29.525  27.451  23.633  1.00  0.00     0.007 A 
ATOM     20  C   UNL A   1      28.503  28.352  23.405  1.00  0.00     0.015 A 
ATOM     21  S   UNL A   1      30.876  27.774  22.623  1.00  0.00    -0.149 S 
ATOM     22  C   UNL A   1      28.867  29.356  22.461  1.00  0.00     0.012 A 
ATOM     23  C   UNL A   1      30.128  29.152  21.949  1.00  0.00     0.065 A 
ENDBRANCH  18  19
ENDBRANCH  16  18
ENDBRANCH  11  16
ENDBRANCH   8  10
BRANCH   8  24
ATOM     24  C   UNL A   1      33.469  24.354  24.424  1.00  0.00     0.420 C 
ATOM     25  F   UNL A   1      33.834  24.566  25.717  1.00  0.00    -0.168 F 
ATOM     26  F   UNL A   1      34.579  23.871  23.802  1.00  0.00    -0.168 F 
ATOM     27  F   UNL A   1      33.252  25.579  23.915  1.00  0.00    -0.168 F 
ENDBRANCH   8  24
ENDBRANCH   5   8
ENDBRANCH   3   4
ENDBRANCH   2   3
ENDBRANCH   1   2
BRANCH   1  28
ATOM     28  C   UNL A   1      37.513  22.356  25.081  1.00  0.00     0.002 C 
BRANCH  28  29
ATOM     29  C   UNL A   1      37.316  23.700  25.786  1.00  0.00     0.021 C 
BRANCH  29  30
ATOM     30  C   UNL A   1      38.465  24.107  26.705  1.00  0.00     0.116 C 
BRANCH  30  31
ATOM     31  N   UNL A   1      39.679  24.395  25.959  1.00  0.00    -0.352 N 
ATOM     32  C   UNL A   1      40.595  25.397  26.142  1.00  0.00     0.251 C 
ATOM     33  H   UNL A   1      39.871  23.781  25.214  1.00  0.00     0.163 HD
ATOM     34  O   UNL A   1      41.443  25.614  25.272  1.00  0.00    -0.269 OA
BRANCH  32  35
ATOM     35  C   UNL A   1      40.560  26.227  27.364  1.00  0.00     0.039 A 
ATOM     36  C   UNL A   1      41.430  27.314  27.467  1.00  0.00     0.014 A 
ATOM     37  C   UNL A   1      39.684  25.929  28.413  1.00  0.00     0.014 A 
ATOM     38  C   UNL A   1      41.380  28.136  28.594  1.00  0.00     0.010 A 
ATOM     39  C   UNL A   1      39.584  26.792  29.503  1.00  0.00     0.010 A 
ATOM     40  C   UNL A   1      40.431  27.905  29.606  1.00  0.00    -0.014 A 
BRANCH  40  41
ATOM     41  C   UNL A   1      40.304  28.840  30.753  1.00  0.00     0.031 A 
ATOM     42  C   UNL A   1      41.165  28.680  31.977  1.00  0.00     0.074 A 
ATOM     43  C   UNL A   1      39.376  29.816  30.704  1.00  0.00     0.049 A 
ATOM     44  N   UNL A   1      41.188  29.402  33.068  1.00  0.00    -0.248 NA
ATOM     45  C   UNL A   1      42.105  27.549  31.988  1.00  0.00     0.031 C 
ATOM     46  C   UNL A   1      38.439  30.035  29.598  1.00  0.00     0.029 A 
ATOM     47  N   UNL A   1      39.063  30.805  31.601  1.00  0.00    -0.354 N 
ATOM     48  C   UNL A   1      42.139  28.815  33.895  1.00  0.00     0.074 A 
ATOM     49  C   UNL A   1      42.629  27.643  33.203  1.00  0.00     0.031 C 
ATOM     50  C   UNL A   1      37.684  31.111  29.866  1.00  0.00     0.029 A 
ATOM     51  C   UNL A   1      38.052  31.635  31.178  1.00  0.00     0.049 A 
ATOM     52  H   UNL A   1      39.520  30.912  32.467  1.00  0.00     0.167 HD
ATOM     53  C   UNL A   1      42.581  29.229  35.108  1.00  0.00     0.037 A 
ATOM     54  C   UNL A   1      37.480  32.699  31.777  1.00  0.00     0.037 A 
ATOM     55  C   UNL A   1      42.095  30.405  35.784  1.00  0.00     0.049 A 
ATOM     56  C   UNL A   1      37.989  33.137  33.123  1.00  0.00     0.074 A 
ATOM     57  C   UNL A   1      42.519  30.942  36.988  1.00  0.00     0.029 A 
ATOM     58  N   UNL A   1      41.073  31.224  35.323  1.00  0.00    -0.354 N 
ATOM     59  N   UNL A   1      38.943  32.614  33.856  1.00  0.00    -0.248 NA
ATOM     60  C   UNL A   1      37.348  34.317  33.720  1.00  0.00     0.031 C 
ATOM     61  C   UNL A   1      41.719  32.052  37.279  1.00  0.00     0.029 A 
ATOM     62  C   UNL A   1      40.834  32.243  36.231  1.00  0.00     0.049 A 
ATOM     63  H   UNL A   1      40.590  31.098  34.474  1.00  0.00     0.167 HD
ATOM     64  C   UNL A   1      39.030  33.411  34.992  1.00  0.00     0.074 A 
ATOM     65  C   UNL A   1      38.050  34.467  34.835  1.00  0.00     0.031 C 
ATOM     66  C   UNL A   1      39.846  33.282  36.068  1.00  0.00     0.037 A 
BRANCH  53  67
ATOM     67  C   UNL A   1      43.645  28.405  35.783  1.00  0.00     0.058 A 
ATOM     68  C   UNL A   1      45.013  28.650  35.573  1.00  0.00     0.135 A 
ATOM     69  C   UNL A   1      43.297  27.386  36.684  1.00  0.00     0.135 A 
ATOM     70  F   UNL A   1      45.405  29.603  34.713  1.00  0.00    -0.206 F 
ATOM     71  C   UNL A   1      45.994  27.896  36.209  1.00  0.00     0.059 A 
ATOM     72  C   UNL A   1      44.263  26.638  37.354  1.00  0.00     0.059 A 
ATOM     73  F   UNL A   1      42.006  27.107  36.923  1.00  0.00    -0.206 F 
ATOM     74  C   UNL A   1      45.609  26.892  37.098  1.00  0.00     0.060 A 
BRANCH  74  75
ATOM     75  S   UNL A   1      46.897  25.928  37.919  1.00  0.00     0.124 S 
ATOM     76  O   UNL A   1      48.049  26.815  37.792  1.00  0.00    -0.237 OA
ATOM     77  O   UNL A   1      46.360  25.776  39.267  1.00  0.00    -0.237 OA
ATOM     78  O   UNL A   1      46.959  24.702  37.130  1.00  0.00    -0.744 OA
ENDBRANCH  74  75
ENDBRANCH  53  67
BRANCH  54  79
ATOM     79  C   UNL A   1      36.380  33.433  31.097  1.00  0.00     0.058 A 
ATOM     80  C   UNL A   1      35.061  33.363  31.570  1.00  0.00     0.135 A 
ATOM     81  C   UNL A   1      36.627  34.231  29.968  1.00  0.00     0.135 A 
ATOM     82  F   UNL A   1      34.773  32.609  32.642  1.00  0.00    -0.206 F 
ATOM     83  C   UNL A   1      34.023  34.040  30.939  1.00  0.00     0.059 A 
ATOM     84  C   UNL A   1      35.611  34.941  29.338  1.00  0.00     0.059 A 
ATOM     85  F   UNL A   1      37.874  34.347  29.487  1.00  0.00    -0.206 F 
ATOM     86  C   UNL A   1      34.310  34.830  29.825  1.00  0.00     0.060 A 
BRANCH  86  87
ATOM     87  S   UNL A   1      32.963  35.745  29.042  1.00  0.00     0.124 S 
ATOM     88  O   UNL A   1      32.364  34.720  28.196  1.00  0.00    -0.237 OA
ATOM     89  O   UNL A   1      32.171  36.167  30.193  1.00  0.00    -0.237 OA
ATOM     90  O   UNL A   1      33.654  36.821  28.338  1.00  0.00    -0.744 OA
ENDBRANCH  86  87
ENDBRANCH  54  79
BRANCH  66  91
ATOM     91  C   UNL A   1      39.721  34.319  37.152  1.00  0.00     0.058 A 
ATOM     92  C   UNL A   1      40.356  35.568  37.055  1.00  0.00     0.135 A 
ATOM     93  C   UNL A   1      38.947  34.067  38.296  1.00  0.00     0.135 A 
ATOM     94  F   UNL A   1      41.112  35.861  35.984  1.00  0.00    -0.206 F 
ATOM     95  C   UNL A   1      40.264  36.512  38.073  1.00  0.00     0.059 A 
ATOM     96  C   UNL A   1      38.814  35.009  39.312  1.00  0.00     0.059 A 
ATOM     97  F   UNL A   1      38.306  32.895  38.436  1.00  0.00    -0.206 F 
ATOM     98  C   UNL A   1      39.494  36.221  39.199  1.00  0.00     0.060 A 
BRANCH  98  99
ATOM     99  S   UNL A   1      39.385  37.453  40.515  1.00  0.00     0.124 S 
ATOM    100  O   UNL A   1      38.952  36.638  41.645  1.00  0.00    -0.237 OA
ATOM    101  O   UNL A   1      40.753  37.958  40.584  1.00  0.00    -0.237 OA
ATOM    102  O   UNL A   1      38.397  38.403  40.009  1.00  0.00    -0.744 OA
ENDBRANCH  98  99
ENDBRANCH  66  91
ENDBRANCH  40  41
ENDBRANCH  32  35
ENDBRANCH  30  31
ENDBRANCH  29  30
ENDBRANCH  28  29
ENDBRANCH   1  28
TORSDOF 21
ENDMDL
MODEL 2
REMARK VINA RESULT:     -11.1      1.593      3.005
REMARK SMILES C[C@H](Cc1cccs1)NC(=O)N[C@](C)(C(=O)NCCCCCCNC(=O)c1ccc(-c2c3nc(c(-c4c(F)cc(S(=O)(=O)[O-])cc4F)c4ccc([nH]4)c(-c4c(F)cc(S(=O)(=O)[O-])cc4F)c4nc(c(-c5c(F)cc(S(=O)(=O)[O-])cc5F)c5ccc2[nH]5)C=C4)C=C3)cc1)C(F)(F)F
REMARK SMILES IDX 20 1 19 2 18 3 17 4 15 5 16 6 13 8 14 9 12 10 9 11 10 12
REMARK SMILES IDX 11 14 2 16 1 17 3 18 4 19 5 20 8 21 6 22 7 23 93 24 94 25
REMARK SMILES IDX 95 26 96 27 21 28 22 29 23 30 24 31 25 32 26 34 27 35 28 36
REMARK SMILES IDX 92 37 29 38 91 39 30 40 31 41 32 42 85 43 33 44 90 45 84 46
REMARK SMILES IDX 86 47 34 48 89 49 83 50 82 51 35 53 69 54 48 55 68 56 49 57
REMARK SMILES IDX 52 58 67 59 87 60 50 61 51 62 66 64 88 65 53 66 36 67 37 68
REMARK SMILES IDX 46 69 38 70 39 71 45 72 47 73 40 74 41 75 42 76 43 77 44 78
REMARK SMILES IDX 70 79 71 80 80 81 72 82 73 83 79 84 81 85 74 86 75 87 76 88
REMARK SMILES IDX 77 89 78 90 54 91 55 92 64 93 56 94 57 95 63 96 65 97 58 98
REMARK SMILES IDX 59 99 60 100 61 101 62 102
REMARK H PARENT 17 7 9 13 12 15 24 33 86 52 52 63
REMARK Flexibility Score: inf
ROOT
ATOM      1  C   UNL A   1      36.203  23.569  24.238  1.00  0.00     0.002 C 
ENDROOT
BRANCH   1   2
ATOM      2  C   UNL A   1      34.935  23.712  25.093  1.00  0.00     0.021 C 
BRANCH   2   3
ATOM      3  C   UNL A   1      34.550  25.171  25.372  1.00  0.00     0.116 C 
BRANCH   3   4
ATOM      4  N   UNL A   1      33.180  25.227  25.851  1.00  0.00    -0.354 N 
ATOM      5  C   UNL A   1      32.347  26.288  26.084  1.00  0.00     0.255 C 
ATOM      6  O   UNL A   1      31.417  26.064  26.864  1.00  0.00    -0.272 OA
ATOM      7  H   UNL A   1      32.781  24.348  26.042  1.00  0.00     0.163 HD
BRANCH   5   8
ATOM      8  C   UNL A   1      32.567  27.673  25.440  1.00  0.00     0.213 C 
ATOM      9  C   UNL A   1      33.652  27.610  24.332  1.00  0.00     0.056 C 
BRANCH   8  10
ATOM     10  N   UNL A   1      31.295  28.073  24.731  1.00  0.00    -0.316 N 
ATOM     11  N   UNL A   1      30.712  26.648  22.923  1.00  0.00    -0.335 N 
ATOM     12  C   UNL A   1      30.536  27.707  23.703  1.00  0.00     0.316 C 
ATOM     13  H   UNL A   1      30.168  26.687  22.103  1.00  0.00     0.165 HD
ATOM     14  O   UNL A   1      29.590  28.451  23.433  1.00  0.00    -0.249 OA
ATOM     15  H   UNL A   1      30.900  28.860  25.172  1.00  0.00     0.166 HD
BRANCH  11  16
ATOM     16  C   UNL A   1      31.525  25.443  23.000  1.00  0.00     0.086 C 
ATOM     17  C   UNL A   1      32.485  25.362  21.815  1.00  0.00     0.031 C 
BRANCH  16  18
ATOM     18  C   UNL A   1      30.627  24.217  23.318  1.00  0.00     0.071 C 
BRANCH  18  19
ATOM     19  C   UNL A   1      31.317  22.971  23.793  1.00  0.00     0.007 A 
ATOM     20  C   UNL A   1      32.081  22.070  23.077  1.00  0.00     0.015 A 
ATOM     21  S   UNL A   1      31.157  22.487  25.432  1.00  0.00    -0.149 S 
ATOM     22  C   UNL A   1      32.603  21.030  23.899  1.00  0.00     0.012 A 
ATOM     23  C   UNL A   1      32.167  21.131  25.200  1.00  0.00     0.065 A 
ENDBRANCH  18  19
ENDBRANCH  16  18
ENDBRANCH  11  16
ENDBRANCH   8  10
BRANCH   8  24
ATOM     24  C   UNL A   1      33.169  28.678  26.473  1.00  0.00     0.420 C 
ATOM     25  F   UNL A   1      33.587  29.823  25.869  1.00  0.00    -0.168 F 
ATOM     26  F   UNL A   1      32.211  29.058  27.362  1.00  0.00    -0.168 F 
ATOM     27  F   UNL A   1      34.219  28.262  27.201  1.00  0.00    -0.168 F 
ENDBRANCH   8  24
ENDBRANCH   5   8
ENDBRANCH   3   4
ENDBRANCH   2   3
ENDBRANCH   1   2
BRANCH   1  28
ATOM     28  C   UNL A   1      37.454  23.143  25.014  1.00  0.00     0.002 C 
BRANCH  28  29
ATOM     29  C   UNL A   1      37.663  23.866  26.347  1.00  0.00     0.021 C 
BRANCH  29  30
ATOM     30  C   UNL A   1      39.059  23.704  26.943  1.00  0.00     0.116 C 
BRANCH  30  31
ATOM     31  N   UNL A   1      40.091  24.197  26.044  1.00  0.00    -0.352 N 
ATOM     32  C   UNL A   1      40.815  25.358  26.106  1.00  0.00     0.251 C 
ATOM     33  H   UNL A   1      40.300  23.611  25.281  1.00  0.00     0.163 HD
ATOM     34  O   UNL A   1      41.488  25.708  25.132  1.00  0.00    -0.269 OA
BRANCH  32  35
ATOM     35  C   UNL A   1      40.778  26.198  27.321  1.00  0.00     0.039 A 
ATOM     36  C   UNL A   1      41.565  27.350  27.368  1.00  0.00     0.014 A 
ATOM     37  C   UNL A   1      39.983  25.847  28.416  1.00  0.00     0.014 A 
ATOM     38  C   UNL A   1      41.510  28.180  28.490  1.00  0.00     0.010 A 
ATOM     39  C   UNL A   1      39.872  26.713  29.503  1.00  0.00     0.010 A 
ATOM     40  C   UNL A   1      40.635  27.889  29.551  1.00  0.00    -0.014 A 
BRANCH  40  41
ATOM     41  C   UNL A   1      40.494  28.826  30.696  1.00  0.00     0.031 A 
ATOM     42  C   UNL A   1      41.358  28.682  31.920  1.00  0.00     0.074 A 
ATOM     43  C   UNL A   1      39.552  29.788  30.644  1.00  0.00     0.049 A 
ATOM     44  N   UNL A   1      41.371  29.408  33.009  1.00  0.00    -0.248 NA
ATOM     45  C   UNL A   1      42.314  27.565  31.934  1.00  0.00     0.031 C 
ATOM     46  C   UNL A   1      38.612  29.990  29.538  1.00  0.00     0.029 A 
ATOM     47  N   UNL A   1      39.225  30.776  31.538  1.00  0.00    -0.354 N 
ATOM     48  C   UNL A   1      42.330  28.838  33.837  1.00  0.00     0.074 A 
ATOM     49  C   UNL A   1      42.837  27.670  33.149  1.00  0.00     0.031 C 
ATOM     50  C   UNL A   1      37.841  31.056  29.803  1.00  0.00     0.029 A 
ATOM     51  C   UNL A   1      38.202  31.590  31.113  1.00  0.00     0.049 A 
ATOM     52  H   UNL A   1      39.681  30.891  32.403  1.00  0.00     0.167 HD
ATOM     53  C   UNL A   1      42.767  29.261  35.049  1.00  0.00     0.037 A 
ATOM     54  C   UNL A   1      37.615  32.646  31.709  1.00  0.00     0.037 A 
ATOM     55  C   UNL A   1      42.264  30.433  35.722  1.00  0.00     0.049 A 
ATOM     56  C   UNL A   1      38.118  33.096  33.053  1.00  0.00     0.074 A 
ATOM     57  C   UNL A   1      42.680  30.979  36.923  1.00  0.00     0.029 A 
ATOM     58  N   UNL A   1      41.231  31.235  35.258  1.00  0.00    -0.354 N 
ATOM     59  N   UNL A   1      39.079  32.589  33.787  1.00  0.00    -0.248 NA
ATOM     60  C   UNL A   1      37.460  34.268  33.647  1.00  0.00     0.031 C 
ATOM     61  C   UNL A   1      41.865  32.079  37.212  1.00  0.00     0.029 A 
ATOM     62  C   UNL A   1      40.977  32.254  36.163  1.00  0.00     0.049 A 
ATOM     63  H   UNL A   1      40.749  31.100  34.410  1.00  0.00     0.167 HD
ATOM     64  C   UNL A   1      39.156  33.392  34.921  1.00  0.00     0.074 A 
ATOM     65  C   UNL A   1      38.160  34.432  34.761  1.00  0.00     0.031 C 
ATOM     66  C   UNL A   1      39.973  33.277  35.997  1.00  0.00     0.037 A 
BRANCH  53  67
ATOM     67  C   UNL A   1      43.843  28.455  35.726  1.00  0.00     0.058 A 
ATOM     68  C   UNL A   1      43.537  27.427  36.633  1.00  0.00     0.135 A 
ATOM     69  C   UNL A   1      45.198  28.682  35.432  1.00  0.00     0.135 A 
ATOM     70  F   UNL A   1      42.260  27.174  36.962  1.00  0.00    -0.206 F 
ATOM     71  C   UNL A   1      44.533  26.675  37.246  1.00  0.00     0.059 A 
ATOM     72  C   UNL A   1      46.210  27.921  36.012  1.00  0.00     0.059 A 
ATOM     73  F   UNL A   1      45.550  29.650  34.573  1.00  0.00    -0.206 F 
ATOM     74  C   UNL A   1      45.868  26.929  36.929  1.00  0.00     0.060 A 
BRANCH  74  75
ATOM     75  S   UNL A   1      47.148  25.938  37.730  1.00  0.00     0.124 S 
ATOM     76  O   UNL A   1      46.594  25.778  39.071  1.00  0.00    -0.237 OA
ATOM     77  O   UNL A   1      47.169  24.734  36.906  1.00  0.00    -0.237 OA
ATOM     78  O   UNL A   1      48.336  26.779  37.638  1.00  0.00    -0.744 OA
ENDBRANCH  74  75
ENDBRANCH  53  67
BRANCH  54  79
ATOM     79  C   UNL A   1      36.504  33.363  31.027  1.00  0.00     0.058 A 
ATOM     80  C   UNL A   1      35.177  33.223  31.461  1.00  0.00     0.135 A 
ATOM     81  C   UNL A   1      36.748  34.211  29.935  1.00  0.00     0.135 A 
ATOM     82  F   UNL A   1      34.892  32.418  32.496  1.00  0.00    -0.206 F 
ATOM     83  C   UNL A   1      34.129  33.882  30.828  1.00  0.00     0.059 A 
ATOM     84  C   UNL A   1      35.721  34.904  29.304  1.00  0.00     0.059 A 
ATOM     85  F   UNL A   1      38.001  34.394  29.493  1.00  0.00    -0.206 F 
ATOM     86  C   UNL A   1      34.413  34.724  29.751  1.00  0.00     0.060 A 
BRANCH  86  87
ATOM     87  S   UNL A   1      33.051  35.616  28.967  1.00  0.00     0.124 S 
ATOM     88  O   UNL A   1      33.766  36.627  28.198  1.00  0.00    -0.237 OA
ATOM     89  O   UNL A   1      32.402  34.563  28.193  1.00  0.00    -0.237 OA
ATOM     90  O   UNL A   1      32.279  36.114  30.103  1.00  0.00    -0.744 OA
ENDBRANCH  86  87
ENDBRANCH  54  79
BRANCH  66  91
ATOM     91  C   UNL A   1      39.833  34.316  37.078  1.00  0.00     0.058 A 
ATOM     92  C   UNL A   1      39.059  34.086  38.227  1.00  0.00     0.135 A 
ATOM     93  C   UNL A   1      40.490  35.552  36.969  1.00  0.00     0.135 A 
ATOM     94  F   UNL A   1      38.406  32.923  38.381  1.00  0.00    -0.206 F 
ATOM     95  C   UNL A   1      38.907  35.061  39.208  1.00  0.00     0.059 A 
ATOM     96  C   UNL A   1      40.379  36.529  37.954  1.00  0.00     0.059 A 
ATOM     97  F   UNL A   1      41.254  35.821  35.898  1.00  0.00    -0.206 F 
ATOM     98  C   UNL A   1      39.567  36.281  39.060  1.00  0.00     0.060 A 
BRANCH  98  99
ATOM     99  S   UNL A   1      39.359  37.538  40.339  1.00  0.00     0.124 S 
ATOM    100  O   UNL A   1      38.589  36.810  41.343  1.00  0.00    -0.237 OA
ATOM    101  O   UNL A   1      40.740  37.847  40.701  1.00  0.00    -0.237 OA
ATOM    102  O   UNL A   1      38.643  38.608  39.651  1.00  0.00    -0.744 OA
ENDBRANCH  98  99
ENDBRANCH  66  91
ENDBRANCH  40  41
ENDBRANCH  32  35
ENDBRANCH  30  31
ENDBRANCH  29  30
ENDBRANCH  28  29
ENDBRANCH   1  28
TORSDOF 21
ENDMDL
MODEL 3
REMARK VINA RESULT:     -11.1      0.531      8.108
REMARK SMILES C[C@H](Cc1cccs1)NC(=O)N[C@](C)(C(=O)NCCCCCCNC(=O)c1ccc(-c2c3nc(c(-c4c(F)cc(S(=O)(=O)[O-])cc4F)c4ccc([nH]4)c(-c4c(F)cc(S(=O)(=O)[O-])cc4F)c4nc(c(-c5c(F)cc(S(=O)(=O)[O-])cc5F)c5ccc2[nH]5)C=C4)C=C3)cc1)C(F)(F)F
REMARK SMILES IDX 20 1 19 2 18 3 17 4 15 5 16 6 13 8 14 9 12 10 9 11 10 12
REMARK SMILES IDX 11 14 2 16 1 17 3 18 4 19 5 20 8 21 6 22 7 23 93 24 94 25
REMARK SMILES IDX 95 26 96 27 21 28 22 29 23 30 24 31 25 32 26 34 27 35 28 36
REMARK SMILES IDX 92 37 29 38 91 39 30 40 31 41 32 42 85 43 33 44 90 45 84 46
REMARK SMILES IDX 86 47 34 48 89 49 83 50 82 51 35 53 69 54 48 55 68 56 49 57
REMARK SMILES IDX 52 58 67 59 87 60 50 61 51 62 66 64 88 65 53 66 36 67 37 68
REMARK SMILES IDX 46 69 38 70 39 71 45 72 47 73 40 74 41 75 42 76 43 77 44 78
REMARK SMILES IDX 70 79 71 80 80 81 72 82 73 83 79 84 81 85 74 86 75 87 76 88
REMARK SMILES IDX 77 89 78 90 54 91 55 92 64 93 56 94 57 95 63 96 65 97 58 98
REMARK SMILES IDX 59 99 60 100 61 101 62 102
REMARK H PARENT 17 7 9 13 12 15 24 33 86 52 52 63
REMARK Flexibility Score: inf
ROOT
ATOM      1  C   UNL A   1      36.251  21.389  25.526  1.00  0.00     0.002 C 
ENDROOT
BRANCH   1   2
ATOM      2  C   UNL A   1      35.204  21.964  26.491  1.00  0.00     0.021 C 
BRANCH   2   3
ATOM      3  C   UNL A   1      33.779  21.473  26.206  1.00  0.00     0.116 C 
BRANCH   3   4
ATOM      4  N   UNL A   1      33.581  21.367  24.771  1.00  0.00    -0.354 N 
ATOM      5  C   UNL A   1      32.809  22.097  23.908  1.00  0.00     0.255 C 
ATOM      6  O   UNL A   1      32.522  21.529  22.850  1.00  0.00    -0.272 OA
ATOM      7  H   UNL A   1      34.091  20.641  24.344  1.00  0.00     0.163 HD
BRANCH   5   8
ATOM      8  C   UNL A   1      32.309  23.519  24.242  1.00  0.00     0.213 C 
ATOM      9  C   UNL A   1      31.412  24.079  23.106  1.00  0.00     0.056 C 
BRANCH   8  10
ATOM     10  N   UNL A   1      31.412  23.432  25.454  1.00  0.00    -0.316 N 
ATOM     11  N   UNL A   1      30.567  25.530  26.179  1.00  0.00    -0.335 N 
ATOM     12  C   UNL A   1      30.720  24.215  26.276  1.00  0.00     0.316 C 
ATOM     13  H   UNL A   1      30.202  25.930  27.001  1.00  0.00     0.165 HD
ATOM     14  O   UNL A   1      30.194  23.660  27.244  1.00  0.00    -0.249 OA
ATOM     15  H   UNL A   1      31.305  22.491  25.724  1.00  0.00     0.166 HD
BRANCH  11  16
ATOM     16  C   UNL A   1      30.816  26.516  25.137  1.00  0.00     0.086 C 
ATOM     17  C   UNL A   1      31.406  27.793  25.732  1.00  0.00     0.031 C 
BRANCH  16  18
ATOM     18  C   UNL A   1      29.577  26.629  24.208  1.00  0.00     0.071 C 
BRANCH  18  19
ATOM     19  C   UNL A   1      29.464  27.870  23.370  1.00  0.00     0.007 A 
ATOM     20  C   UNL A   1      28.365  28.676  23.148  1.00  0.00     0.015 A 
ATOM     21  S   UNL A   1      30.830  28.423  22.488  1.00  0.00    -0.149 S 
ATOM     22  C   UNL A   1      28.671  29.794  22.319  1.00  0.00     0.012 A 
ATOM     23  C   UNL A   1      29.976  29.770  21.881  1.00  0.00     0.065 A 
ENDBRANCH  18  19
ENDBRANCH  16  18
ENDBRANCH  11  16
ENDBRANCH   8  10
BRANCH   8  24
ATOM     24  C   UNL A   1      33.497  24.530  24.290  1.00  0.00     0.420 C 
ATOM     25  F   UNL A   1      33.820  24.861  25.570  1.00  0.00    -0.168 F 
ATOM     26  F   UNL A   1      34.614  23.958  23.764  1.00  0.00    -0.168 F 
ATOM     27  F   UNL A   1      33.337  25.703  23.655  1.00  0.00    -0.168 F 
ENDBRANCH   8  24
ENDBRANCH   5   8
ENDBRANCH   3   4
ENDBRANCH   2   3
ENDBRANCH   1   2
BRANCH   1  28
ATOM     28  C   UNL A   1      37.407  22.340  25.194  1.00  0.00     0.002 C 
BRANCH  28  29
ATOM     29  C   UNL A   1      37.312  23.721  25.846  1.00  0.00     0.021 C 
BRANCH  29  30
ATOM     30  C   UNL A   1      38.494  24.080  26.744  1.00  0.00     0.116 C 
BRANCH  30  31
ATOM     31  N   UNL A   1      39.687  24.388  25.970  1.00  0.00    -0.352 N 
ATOM     32  C   UNL A   1      40.596  25.398  26.140  1.00  0.00     0.251 C 
ATOM     33  H   UNL A   1      39.867  23.782  25.215  1.00  0.00     0.163 HD
ATOM     34  O   UNL A   1      41.419  25.631  25.251  1.00  0.00    -0.269 OA
BRANCH  32  35
ATOM     35  C   UNL A   1      40.582  26.217  27.370  1.00  0.00     0.039 A 
ATOM     36  C   UNL A   1      41.463  27.295  27.472  1.00  0.00     0.014 A 
ATOM     37  C   UNL A   1      39.714  25.918  28.425  1.00  0.00     0.014 A 
ATOM     38  C   UNL A   1      41.433  28.107  28.608  1.00  0.00     0.010 A 
ATOM     39  C   UNL A   1      39.634  26.772  29.524  1.00  0.00     0.010 A 
ATOM     40  C   UNL A   1      40.493  27.875  29.627  1.00  0.00    -0.014 A 
BRANCH  40  41
ATOM     41  C   UNL A   1      40.387  28.802  30.784  1.00  0.00     0.031 A 
ATOM     42  C   UNL A   1      39.370  29.911  30.793  1.00  0.00     0.074 A 
ATOM     43  C   UNL A   1      41.243  28.663  31.816  1.00  0.00     0.049 A 
ATOM     44  N   UNL A   1      39.139  30.809  31.716  1.00  0.00    -0.248 NA
ATOM     45  C   UNL A   1      38.519  30.045  29.601  1.00  0.00     0.031 C 
ATOM     46  C   UNL A   1      42.313  27.665  31.897  1.00  0.00     0.029 A 
ATOM     47  N   UNL A   1      41.353  29.359  32.993  1.00  0.00    -0.354 N 
ATOM     48  C   UNL A   1      38.121  31.614  31.219  1.00  0.00     0.074 A 
ATOM     49  C   UNL A   1      37.818  31.134  29.888  1.00  0.00     0.031 C 
ATOM     50  C   UNL A   1      42.946  27.790  33.074  1.00  0.00     0.029 A 
ATOM     51  C   UNL A   1      42.355  28.900  33.815  1.00  0.00     0.049 A 
ATOM     52  H   UNL A   1      40.768  30.116  33.228  1.00  0.00     0.167 HD
ATOM     53  C   UNL A   1      37.479  32.643  31.825  1.00  0.00     0.037 A 
ATOM     54  C   UNL A   1      42.758  29.325  35.029  1.00  0.00     0.037 A 
ATOM     55  C   UNL A   1      37.778  33.107  33.156  1.00  0.00     0.049 A 
ATOM     56  C   UNL A   1      42.030  30.468  35.680  1.00  0.00     0.074 A 
ATOM     57  C   UNL A   1      37.148  34.103  33.882  1.00  0.00     0.029 A 
ATOM     58  N   UNL A   1      38.797  32.615  33.960  1.00  0.00    -0.354 N 
ATOM     59  N   UNL A   1      41.018  31.169  35.225  1.00  0.00    -0.248 NA
ATOM     60  C   UNL A   1      42.494  30.874  37.013  1.00  0.00     0.031 C 
ATOM     61  C   UNL A   1      37.818  34.249  35.102  1.00  0.00     0.029 A 
ATOM     62  C   UNL A   1      38.831  33.306  35.161  1.00  0.00     0.049 A 
ATOM     63  H   UNL A   1      39.407  31.883  33.713  1.00  0.00     0.167 HD
ATOM     64  C   UNL A   1      40.711  32.086  36.225  1.00  0.00     0.074 A 
ATOM     65  C   UNL A   1      41.628  31.832  37.317  1.00  0.00     0.031 C 
ATOM     66  C   UNL A   1      39.759  33.051  36.237  1.00  0.00     0.037 A 
BRANCH  53  67
ATOM     67  C   UNL A   1      36.387  33.338  31.055  1.00  0.00     0.058 A 
ATOM     68  C   UNL A   1      35.033  33.189  31.397  1.00  0.00     0.135 A 
ATOM     69  C   UNL A   1      36.699  34.197  29.989  1.00  0.00     0.135 A 
ATOM     70  F   UNL A   1      34.674  32.370  32.399  1.00  0.00    -0.206 F 
ATOM     71  C   UNL A   1      34.027  33.843  30.693  1.00  0.00     0.059 A 
ATOM     72  C   UNL A   1      35.710  34.884  29.289  1.00  0.00     0.059 A 
ATOM     73  F   UNL A   1      37.976  34.377  29.617  1.00  0.00    -0.206 F 
ATOM     74  C   UNL A   1      34.376  34.689  29.639  1.00  0.00     0.060 A 
BRANCH  74  75
ATOM     75  S   UNL A   1      33.057  35.535  28.741  1.00  0.00     0.124 S 
ATOM     76  O   UNL A   1      32.250  36.062  29.836  1.00  0.00    -0.237 OA
ATOM     77  O   UNL A   1      33.796  36.525  27.965  1.00  0.00    -0.237 OA
ATOM     78  O   UNL A   1      32.437  34.468  27.962  1.00  0.00    -0.744 OA
ENDBRANCH  74  75
ENDBRANCH  53  67
BRANCH  54  79
ATOM     79  C   UNL A   1      43.893  28.649  35.714  1.00  0.00     0.058 A 
ATOM     80  C   UNL A   1      45.212  29.092  35.539  1.00  0.00     0.135 A 
ATOM     81  C   UNL A   1      43.679  27.555  36.568  1.00  0.00     0.135 A 
ATOM     82  F   UNL A   1      45.469  30.129  34.728  1.00  0.00    -0.206 F 
ATOM     83  C   UNL A   1      46.282  28.464  36.169  1.00  0.00     0.059 A 
ATOM     84  C   UNL A   1      44.728  26.930  37.232  1.00  0.00     0.059 A 
ATOM     85  F   UNL A   1      42.433  27.104  36.784  1.00  0.00    -0.206 F 
ATOM     86  C   UNL A   1      46.028  27.385  37.017  1.00  0.00     0.060 A 
BRANCH  86  87
ATOM     87  S   UNL A   1      47.418  26.609  37.870  1.00  0.00     0.124 S 
ATOM     88  O   UNL A   1      48.142  26.002  36.759  1.00  0.00    -0.237 OA
ATOM     89  O   UNL A   1      48.064  27.752  38.505  1.00  0.00    -0.237 OA
ATOM     90  O   UNL A   1      46.770  25.676  38.787  1.00  0.00    -0.744 OA
ENDBRANCH  86  87
ENDBRANCH  54  79
BRANCH  66  91
ATOM     91  C   UNL A   1      39.652  33.893  37.480  1.00  0.00     0.058 A 
ATOM     92  C   UNL A   1      40.343  35.110  37.609  1.00  0.00     0.135 A 
ATOM     93  C   UNL A   1      38.842  33.486  38.552  1.00  0.00     0.135 A 
ATOM     94  F   UNL A   1      41.137  35.545  36.617  1.00  0.00    -0.206 F 
ATOM     95  C   UNL A   1      40.268  35.869  38.772  1.00  0.00     0.059 A 
ATOM     96  C   UNL A   1      38.725  34.246  39.711  1.00  0.00     0.059 A 
ATOM     97  F   UNL A   1      38.148  32.338  38.478  1.00  0.00    -0.206 F 
ATOM     98  C   UNL A   1      39.459  35.427  39.820  1.00  0.00     0.060 A 
BRANCH  98  99
ATOM     99  S   UNL A   1      39.371  36.421  41.324  1.00  0.00     0.124 S 
ATOM    100  O   UNL A   1      38.898  37.699  40.804  1.00  0.00    -0.237 OA
ATOM    101  O   UNL A   1      38.416  35.674  42.137  1.00  0.00    -0.237 OA
ATOM    102  O   UNL A   1      40.746  36.413  41.818  1.00  0.00    -0.744 OA
ENDBRANCH  98  99
ENDBRANCH  66  91
ENDBRANCH  40  41
ENDBRANCH  32  35
ENDBRANCH  30  31
ENDBRANCH  29  30
ENDBRANCH  28  29
ENDBRANCH   1  28
TORSDOF 21
ENDMDL
