MODEL 1
REMARK VINA RESULT:     -11.8      0.000      0.000
REMARK SMILES COc1cccc(C(=O)N2[C@@H](C(=O)NCCCCCCNC(=O)c3ccc(-c4c5nc(c(-c6c(F)cc(S(=O)(=O)[O-])cc6F)c6ccc([nH]6)c(-c6c(F)cc(S(=O)(=O)[O-])cc6F)c6nc(c(-c7c(F)cc(S(=O)(=O)[O-])cc7F)c7ccc4[nH]7)C=C6)C=C5)cc3)CS[C@@H]2c2ccccc2Cl)c1
REMARK SMILES IDX 17 1 16 2 15 3 14 4 12 5 13 6 11 8 10 9 92 10 90 11 91 12
REMARK SMILES IDX 8 13 9 14 7 15 3 16 4 17 100 18 5 19 6 20 2 21 1 22 93 23
REMARK SMILES IDX 94 24 98 25 95 26 97 27 99 28 96 29 18 30 19 31 20 32 21 33
REMARK SMILES IDX 22 34 23 36 24 37 25 38 89 39 26 40 88 41 27 42 28 43 29 44
REMARK SMILES IDX 82 45 30 46 87 47 81 48 83 49 31 50 86 51 80 52 79 53 32 55
REMARK SMILES IDX 66 56 45 57 65 58 46 59 49 60 64 61 84 62 47 63 48 64 63 66
REMARK SMILES IDX 85 67 50 68 33 69 34 70 43 71 35 72 36 73 42 74 44 75 37 76
REMARK SMILES IDX 38 77 39 78 40 79 41 80 67 81 68 82 77 83 69 84 70 85 76 86
REMARK SMILES IDX 78 87 71 88 72 89 73 90 74 91 75 92 51 93 52 94 61 95 53 96
REMARK SMILES IDX 54 97 60 98 62 99 55 100 56 101 57 102 58 103 59 104
REMARK H PARENT 14 7 21 35 83 54 49 65
REMARK Flexibility Score: inf
ROOT
ATOM      1  C   UNL A   1      39.059  21.925  26.000  1.00  0.00     0.002 C 
ENDROOT
BRANCH   1   2
ATOM      2  C   UNL A   1      38.576  23.273  26.529  1.00  0.00     0.021 C 
BRANCH   2   3
ATOM      3  C   UNL A   1      37.232  23.709  25.946  1.00  0.00     0.116 C 
BRANCH   3   4
ATOM      4  N   UNL A   1      37.303  23.601  24.506  1.00  0.00    -0.354 N 
ATOM      5  C   UNL A   1      36.276  23.388  23.630  1.00  0.00     0.243 C 
ATOM      6  O   UNL A   1      36.574  22.903  22.536  1.00  0.00    -0.273 OA
ATOM      7  H   UNL A   1      38.200  23.690  24.108  1.00  0.00     0.163 HD
BRANCH   5   8
ATOM      8  C   UNL A   1      34.829  23.824  24.000  1.00  0.00     0.186 C 
ATOM      9  N   UNL A   1      33.827  22.790  24.404  1.00  0.00    -0.310 N 
ATOM     10  C   UNL A   1      32.516  22.966  23.806  1.00  0.00     0.176 C 
ATOM     11  C   UNL A   1      34.265  24.559  22.756  1.00  0.00     0.107 C 
ATOM     12  S   UNL A   1      32.975  23.471  22.107  1.00  0.00    -0.129 SA
BRANCH   9  13
ATOM     13  C   UNL A   1      33.907  22.005  25.541  1.00  0.00     0.255 C 
ATOM     14  O   UNL A   1      34.001  22.461  26.674  1.00  0.00    -0.269 OA
BRANCH  13  15
ATOM     15  C   UNL A   1      34.018  20.517  25.365  1.00  0.00     0.043 A 
ATOM     16  C   UNL A   1      33.035  18.319  25.044  1.00  0.00     0.119 A 
ATOM     17  C   UNL A   1      34.281  17.825  24.648  1.00  0.00     0.046 A 
ATOM     18  C   UNL A   1      32.900  19.669  25.390  1.00  0.00     0.060 A 
ATOM     19  C   UNL A   1      35.396  18.657  24.615  1.00  0.00     0.005 A 
ATOM     20  C   UNL A   1      35.269  19.994  24.987  1.00  0.00     0.014 A 
BRANCH  16  21
ATOM     21  O   UNL A   1      32.036  17.385  25.048  1.00  0.00    -0.497 OA
ATOM     22  C   UNL A   1      32.373  16.073  25.478  1.00  0.00     0.278 C 
ENDBRANCH  16  21
ENDBRANCH  13  15
ENDBRANCH   9  13
BRANCH  10  23
ATOM     23  C   UNL A   1      31.512  23.990  24.373  1.00  0.00     0.003 A 
ATOM     24  C   UNL A   1      31.249  25.088  23.505  1.00  0.00     0.008 A 
ATOM     25  C   UNL A   1      30.875  24.044  25.629  1.00  0.00     0.047 A 
ATOM     26  C   UNL A   1      30.467  26.184  23.879  1.00  0.00     0.001 A 
ATOM     27  C   UNL A   1      30.074  25.145  25.992  1.00  0.00     0.021 A 
ATOM     28  Cl  UNL A   1      30.977  22.875  26.886  1.00  0.00    -0.084 Cl
ATOM     29  C   UNL A   1      29.881  26.217  25.131  1.00  0.00     0.002 A 
ENDBRANCH  10  23
ENDBRANCH   5   8
ENDBRANCH   3   4
ENDBRANCH   2   3
ENDBRANCH   1   2
BRANCH   1  30
ATOM     30  C   UNL A   1      40.265  21.370  26.762  1.00  0.00     0.002 C 
BRANCH  30  31
ATOM     31  C   UNL A   1      40.774  22.268  27.895  1.00  0.00     0.021 C 
BRANCH  31  32
ATOM     32  C   UNL A   1      42.157  22.862  27.646  1.00  0.00     0.116 C 
BRANCH  32  33
ATOM     33  N   UNL A   1      42.199  23.575  26.377  1.00  0.00    -0.352 N 
ATOM     34  C   UNL A   1      41.884  24.887  26.117  1.00  0.00     0.251 C 
ATOM     35  H   UNL A   1      42.494  23.046  25.601  1.00  0.00     0.163 HD
ATOM     36  O   UNL A   1      41.683  25.261  24.970  1.00  0.00    -0.269 OA
BRANCH  34  37
ATOM     37  C   UNL A   1      41.791  25.835  27.245  1.00  0.00     0.039 A 
ATOM     38  C   UNL A   1      42.811  26.766  27.452  1.00  0.00     0.014 A 
ATOM     39  C   UNL A   1      40.683  25.797  28.096  1.00  0.00     0.014 A 
ATOM     40  C   UNL A   1      42.690  27.701  28.484  1.00  0.00     0.010 A 
ATOM     41  C   UNL A   1      40.530  26.773  29.072  1.00  0.00     0.010 A 
ATOM     42  C   UNL A   1      41.535  27.730  29.282  1.00  0.00    -0.014 A 
BRANCH  42  43
ATOM     43  C   UNL A   1      41.354  28.721  30.373  1.00  0.00     0.031 A 
ATOM     44  C   UNL A   1      42.228  28.634  31.595  1.00  0.00     0.074 A 
ATOM     45  C   UNL A   1      40.360  29.630  30.307  1.00  0.00     0.049 A 
ATOM     46  N   UNL A   1      42.124  29.268  32.734  1.00  0.00    -0.248 NA
ATOM     47  C   UNL A   1      43.353  27.684  31.539  1.00  0.00     0.031 C 
ATOM     48  C   UNL A   1      39.437  29.801  29.182  1.00  0.00     0.029 A 
ATOM     49  N   UNL A   1      39.945  30.568  31.219  1.00  0.00    -0.354 N 
ATOM     50  C   UNL A   1      43.157  28.788  33.529  1.00  0.00     0.074 A 
ATOM     51  C   UNL A   1      43.842  27.768  32.768  1.00  0.00     0.031 C 
ATOM     52  C   UNL A   1      38.569  30.784  29.470  1.00  0.00     0.029 A 
ATOM     53  C   UNL A   1      38.838  31.280  30.816  1.00  0.00     0.049 A 
ATOM     54  H   UNL A   1      40.396  30.718  32.082  1.00  0.00     0.167 HD
ATOM     55  C   UNL A   1      43.518  29.181  34.773  1.00  0.00     0.037 A 
ATOM     56  C   UNL A   1      38.109  32.207  31.470  1.00  0.00     0.037 A 
ATOM     57  C   UNL A   1      42.846  30.215  35.515  1.00  0.00     0.049 A 
ATOM     58  C   UNL A   1      38.508  32.594  32.872  1.00  0.00     0.074 A 
ATOM     59  C   UNL A   1      43.143  30.699  36.777  1.00  0.00     0.029 A 
ATOM     60  N   UNL A   1      41.751  30.933  35.057  1.00  0.00    -0.354 N 
ATOM     61  N   UNL A   1      39.502  32.146  33.601  1.00  0.00    -0.248 NA
ATOM     62  C   UNL A   1      37.690  33.617  33.541  1.00  0.00     0.031 C 
ATOM     63  C   UNL A   1      42.204  31.683  37.098  1.00  0.00     0.029 A 
ATOM     64  C   UNL A   1      41.359  31.853  36.013  1.00  0.00     0.049 A 
ATOM     65  H   UNL A   1      41.318  30.807  34.182  1.00  0.00     0.167 HD
ATOM     66  C   UNL A   1      39.459  32.871  34.788  1.00  0.00     0.074 A 
ATOM     67  C   UNL A   1      38.341  33.783  34.684  1.00  0.00     0.031 C 
ATOM     68  C   UNL A   1      40.276  32.791  35.868  1.00  0.00     0.037 A 
BRANCH  55  69
ATOM     69  C   UNL A   1      44.707  28.513  35.407  1.00  0.00     0.058 A 
ATOM     70  C   UNL A   1      44.564  27.355  36.188  1.00  0.00     0.135 A 
ATOM     71  C   UNL A   1      46.008  28.987  35.171  1.00  0.00     0.135 A 
ATOM     72  F   UNL A   1      43.342  26.871  36.461  1.00  0.00    -0.206 F 
ATOM     73  C   UNL A   1      45.665  26.696  36.720  1.00  0.00     0.059 A 
ATOM     74  C   UNL A   1      47.127  28.327  35.670  1.00  0.00     0.059 A 
ATOM     75  F   UNL A   1      46.202  30.093  34.436  1.00  0.00    -0.206 F 
ATOM     76  C   UNL A   1      46.944  27.185  36.448  1.00  0.00     0.060 A 
BRANCH  76  77
ATOM     77  S   UNL A   1      48.363  26.287  37.111  1.00  0.00     0.124 S 
ATOM     78  O   UNL A   1      48.403  25.118  36.237  1.00  0.00    -0.237 OA
ATOM     79  O   UNL A   1      49.447  27.248  36.936  1.00  0.00    -0.237 OA
ATOM     80  O   UNL A   1      47.981  26.022  38.495  1.00  0.00    -0.744 OA
ENDBRANCH  76  77
ENDBRANCH  55  69
BRANCH  56  81
ATOM     81  C   UNL A   1      36.923  32.837  30.824  1.00  0.00     0.058 A 
ATOM     82  C   UNL A   1      37.076  33.877  29.892  1.00  0.00     0.135 A 
ATOM     83  C   UNL A   1      35.616  32.452  31.157  1.00  0.00     0.135 A 
ATOM     84  F   UNL A   1      38.305  34.284  29.539  1.00  0.00    -0.206 F 
ATOM     85  C   UNL A   1      35.981  34.545  29.355  1.00  0.00     0.059 A 
ATOM     86  C   UNL A   1      34.503  33.082  30.608  1.00  0.00     0.059 A 
ATOM     87  F   UNL A   1      35.410  31.450  32.027  1.00  0.00    -0.206 F 
ATOM     88  C   UNL A   1      34.697  34.145  29.728  1.00  0.00     0.060 A 
BRANCH  88  89
ATOM     89  S   UNL A   1      33.281  35.031  29.041  1.00  0.00     0.124 S 
ATOM     90  O   UNL A   1      33.932  36.162  28.390  1.00  0.00    -0.237 OA
ATOM     91  O   UNL A   1      32.695  34.033  28.152  1.00  0.00    -0.237 OA
ATOM     92  O   UNL A   1      32.483  35.355  30.220  1.00  0.00    -0.744 OA
ENDBRANCH  88  89
ENDBRANCH  56  81
BRANCH  68  93
ATOM     93  C   UNL A   1      40.064  33.772  36.988  1.00  0.00     0.058 A 
ATOM     94  C   UNL A   1      40.647  35.047  36.983  1.00  0.00     0.135 A 
ATOM     95  C   UNL A   1      39.180  33.456  38.034  1.00  0.00     0.135 A 
ATOM     96  F   UNL A   1      41.503  35.397  36.010  1.00  0.00    -0.206 F 
ATOM     97  C   UNL A   1      40.367  35.975  37.982  1.00  0.00     0.059 A 
ATOM     98  C   UNL A   1      38.863  34.378  39.026  1.00  0.00     0.059 A 
ATOM     99  F   UNL A   1      38.589  32.251  38.079  1.00  0.00    -0.206 F 
ATOM    100  C   UNL A   1      39.464  35.633  38.993  1.00  0.00     0.060 A 
BRANCH 100 101
ATOM    101  S   UNL A   1      39.055  36.873  40.240  1.00  0.00     0.124 S 
ATOM    102  O   UNL A   1      40.317  36.994  40.962  1.00  0.00    -0.237 OA
ATOM    103  O   UNL A   1      38.678  38.023  39.423  1.00  0.00    -0.237 OA
ATOM    104  O   UNL A   1      37.961  36.258  40.986  1.00  0.00    -0.744 OA
ENDBRANCH 100 101
ENDBRANCH  68  93
ENDBRANCH  42  43
ENDBRANCH  34  37
ENDBRANCH  32  33
ENDBRANCH  31  32
ENDBRANCH  30  31
ENDBRANCH   1  30
TORSDOF 20
ENDMDL
MODEL 2
REMARK VINA RESULT:     -11.8      3.323      5.559
REMARK SMILES COc1cccc(C(=O)N2[C@@H](C(=O)NCCCCCCNC(=O)c3ccc(-c4c5nc(c(-c6c(F)cc(S(=O)(=O)[O-])cc6F)c6ccc([nH]6)c(-c6c(F)cc(S(=O)(=O)[O-])cc6F)c6nc(c(-c7c(F)cc(S(=O)(=O)[O-])cc7F)c7ccc4[nH]7)C=C6)C=C5)cc3)CS[C@@H]2c2ccccc2Cl)c1
REMARK SMILES IDX 17 1 16 2 15 3 14 4 12 5 13 6 11 8 10 9 92 10 90 11 91 12
REMARK SMILES IDX 8 13 9 14 7 15 3 16 4 17 100 18 5 19 6 20 2 21 1 22 93 23
REMARK SMILES IDX 94 24 98 25 95 26 97 27 99 28 96 29 18 30 19 31 20 32 21 33
REMARK SMILES IDX 22 34 23 36 24 37 25 38 89 39 26 40 88 41 27 42 28 43 29 44
REMARK SMILES IDX 82 45 30 46 87 47 81 48 83 49 31 50 86 51 80 52 79 53 32 55
REMARK SMILES IDX 66 56 45 57 65 58 46 59 49 60 64 61 84 62 47 63 48 64 63 66
REMARK SMILES IDX 85 67 50 68 33 69 34 70 43 71 35 72 36 73 42 74 44 75 37 76
REMARK SMILES IDX 38 77 39 78 40 79 41 80 67 81 68 82 77 83 69 84 70 85 76 86
REMARK SMILES IDX 78 87 71 88 72 89 73 90 74 91 75 92 51 93 52 94 61 95 53 96
REMARK SMILES IDX 54 97 60 98 62 99 55 100 56 101 57 102 58 103 59 104
REMARK H PARENT 14 7 21 35 83 54 49 65
REMARK Flexibility Score: inf
ROOT
ATOM      1  C   UNL A   1      33.170  22.131  25.186  1.00  0.00     0.002 C 
ENDROOT
BRANCH   1   2
ATOM      2  C   UNL A   1      32.887  21.914  23.701  1.00  0.00     0.021 C 
BRANCH   2   3
ATOM      3  C   UNL A   1      31.949  22.961  23.101  1.00  0.00     0.116 C 
BRANCH   3   4
ATOM      4  N   UNL A   1      32.650  23.643  22.036  1.00  0.00    -0.354 N 
ATOM      5  C   UNL A   1      32.805  24.990  21.864  1.00  0.00     0.243 C 
ATOM      6  O   UNL A   1      33.037  25.378  20.716  1.00  0.00    -0.273 OA
ATOM      7  H   UNL A   1      33.064  23.069  21.351  1.00  0.00     0.163 HD
BRANCH   5   8
ATOM      8  C   UNL A   1      32.763  25.946  23.091  1.00  0.00     0.186 C 
ATOM      9  N   UNL A   1      31.714  27.009  23.164  1.00  0.00    -0.310 N 
ATOM     10  C   UNL A   1      32.207  28.302  23.602  1.00  0.00     0.176 C 
ATOM     11  C   UNL A   1      34.145  26.650  23.140  1.00  0.00     0.107 C 
ATOM     12  S   UNL A   1      33.811  28.377  22.724  1.00  0.00    -0.129 SA
BRANCH   9  13
ATOM     13  C   UNL A   1      30.353  26.778  23.267  1.00  0.00     0.255 C 
ATOM     14  O   UNL A   1      29.864  25.664  23.408  1.00  0.00    -0.269 OA
BRANCH  13  15
ATOM     15  C   UNL A   1      29.423  27.941  23.063  1.00  0.00     0.043 A 
ATOM     16  C   UNL A   1      28.823  30.043  22.005  1.00  0.00     0.119 A 
ATOM     17  C   UNL A   1      27.500  29.870  22.422  1.00  0.00     0.046 A 
ATOM     18  C   UNL A   1      29.783  29.072  22.315  1.00  0.00     0.060 A 
ATOM     19  C   UNL A   1      27.131  28.750  23.162  1.00  0.00     0.005 A 
ATOM     20  C   UNL A   1      28.092  27.797  23.494  1.00  0.00     0.014 A 
BRANCH  16  21
ATOM     21  O   UNL A   1      29.044  31.198  21.306  1.00  0.00    -0.497 OA
ATOM     22  C   UNL A   1      27.909  31.859  20.763  1.00  0.00     0.278 C 
ENDBRANCH  16  21
ENDBRANCH  13  15
ENDBRANCH   9  13
BRANCH  10  23
ATOM     23  C   UNL A   1      32.445  28.601  25.096  1.00  0.00     0.003 A 
ATOM     24  C   UNL A   1      32.995  29.891  25.349  1.00  0.00     0.008 A 
ATOM     25  C   UNL A   1      32.273  27.782  26.229  1.00  0.00     0.047 A 
ATOM     26  C   UNL A   1      33.400  30.310  26.619  1.00  0.00     0.001 A 
ATOM     27  C   UNL A   1      32.668  28.219  27.510  1.00  0.00     0.021 A 
ATOM     28  Cl  UNL A   1      31.625  26.189  26.260  1.00  0.00    -0.084 Cl
ATOM     29  C   UNL A   1      33.242  29.468  27.705  1.00  0.00     0.002 A 
ENDBRANCH  10  23
ENDBRANCH   5   8
ENDBRANCH   3   4
ENDBRANCH   2   3
ENDBRANCH   1   2
BRANCH   1  30
ATOM     30  C   UNL A   1      33.881  23.455  25.481  1.00  0.00     0.002 C 
BRANCH  30  31
ATOM     31  C   UNL A   1      35.254  23.606  24.818  1.00  0.00     0.021 C 
BRANCH  31  32
ATOM     32  C   UNL A   1      36.384  23.929  25.791  1.00  0.00     0.116 C 
BRANCH  32  33
ATOM     33  N   UNL A   1      37.343  22.836  25.860  1.00  0.00    -0.352 N 
ATOM     34  C   UNL A   1      38.677  22.884  26.187  1.00  0.00     0.251 C 
ATOM     35  H   UNL A   1      36.989  21.944  25.646  1.00  0.00     0.163 HD
ATOM     36  O   UNL A   1      39.416  21.947  25.917  1.00  0.00    -0.269 OA
BRANCH  34  37
ATOM     37  C   UNL A   1      39.203  24.085  26.867  1.00  0.00     0.039 A 
ATOM     38  C   UNL A   1      39.969  25.007  26.150  1.00  0.00     0.014 A 
ATOM     39  C   UNL A   1      38.929  24.293  28.221  1.00  0.00     0.014 A 
ATOM     40  C   UNL A   1      40.413  26.171  26.781  1.00  0.00     0.010 A 
ATOM     41  C   UNL A   1      39.307  25.484  28.826  1.00  0.00     0.010 A 
ATOM     42  C   UNL A   1      40.060  26.432  28.115  1.00  0.00    -0.014 A 
BRANCH  42  43
ATOM     43  C   UNL A   1      40.490  27.668  28.818  1.00  0.00     0.031 A 
ATOM     44  C   UNL A   1      41.828  27.693  29.507  1.00  0.00     0.074 A 
ATOM     45  C   UNL A   1      39.654  28.722  28.912  1.00  0.00     0.049 A 
ATOM     46  N   UNL A   1      42.320  28.584  30.326  1.00  0.00    -0.248 NA
ATOM     47  C   UNL A   1      42.719  26.544  29.266  1.00  0.00     0.031 C 
ATOM     48  C   UNL A   1      38.325  28.810  28.301  1.00  0.00     0.029 A 
ATOM     49  N   UNL A   1      39.790  29.914  29.580  1.00  0.00    -0.354 N 
ATOM     50  C   UNL A   1      43.568  28.101  30.704  1.00  0.00     0.074 A 
ATOM     51  C   UNL A   1      43.733  26.811  30.074  1.00  0.00     0.031 C 
ATOM     52  C   UNL A   1      37.772  29.992  28.619  1.00  0.00     0.029 A 
ATOM     53  C   UNL A   1      38.680  30.724  29.496  1.00  0.00     0.049 A 
ATOM     54  H   UNL A   1      40.604  30.166  30.073  1.00  0.00     0.167 HD
ATOM     55  C   UNL A   1      44.500  28.693  31.486  1.00  0.00     0.037 A 
ATOM     56  C   UNL A   1      38.418  31.910  30.082  1.00  0.00     0.037 A 
ATOM     57  C   UNL A   1      44.337  29.988  32.090  1.00  0.00     0.049 A 
ATOM     58  C   UNL A   1      39.458  32.526  30.984  1.00  0.00     0.074 A 
ATOM     59  C   UNL A   1      45.230  30.684  32.887  1.00  0.00     0.029 A 
ATOM     60  N   UNL A   1      43.213  30.790  31.953  1.00  0.00    -0.354 N 
ATOM     61  N   UNL A   1      40.642  32.065  31.313  1.00  0.00    -0.248 NA
ATOM     62  C   UNL A   1      39.132  33.824  31.593  1.00  0.00     0.031 C 
ATOM     63  C   UNL A   1      44.630  31.888  33.264  1.00  0.00     0.029 A 
ATOM     64  C   UNL A   1      43.389  31.970  32.653  1.00  0.00     0.049 A 
ATOM     65  H   UNL A   1      42.410  30.554  31.434  1.00  0.00     0.167 HD
ATOM     66  C   UNL A   1      41.218  33.042  32.119  1.00  0.00     0.074 A 
ATOM     67  C   UNL A   1      40.255  34.115  32.233  1.00  0.00     0.031 C 
ATOM     68  C   UNL A   1      42.439  33.051  32.710  1.00  0.00     0.037 A 
BRANCH  55  69
ATOM     69  C   UNL A   1      45.794  27.961  31.718  1.00  0.00     0.058 A 
ATOM     70  C   UNL A   1      46.909  28.170  30.891  1.00  0.00     0.135 A 
ATOM     71  C   UNL A   1      45.947  27.105  32.820  1.00  0.00     0.135 A 
ATOM     72  F   UNL A   1      46.813  28.963  29.813  1.00  0.00    -0.206 F 
ATOM     73  C   UNL A   1      48.126  27.548  31.141  1.00  0.00     0.059 A 
ATOM     74  C   UNL A   1      47.164  26.494  33.107  1.00  0.00     0.059 A 
ATOM     75  F   UNL A   1      44.911  26.866  33.640  1.00  0.00    -0.206 F 
ATOM     76  C   UNL A   1      48.246  26.718  32.258  1.00  0.00     0.060 A 
BRANCH  76  77
ATOM     77  S   UNL A   1      49.849  25.957  32.591  1.00  0.00     0.124 S 
ATOM     78  O   UNL A   1      50.705  27.130  32.738  1.00  0.00    -0.237 OA
ATOM     79  O   UNL A   1      49.587  25.205  33.813  1.00  0.00    -0.237 OA
ATOM     80  O   UNL A   1      50.095  25.148  31.400  1.00  0.00    -0.744 OA
ENDBRANCH  76  77
ENDBRANCH  55  69
BRANCH  56  81
ATOM     81  C   UNL A   1      37.118  32.602  29.850  1.00  0.00     0.058 A 
ATOM     82  C   UNL A   1      37.003  33.617  28.887  1.00  0.00     0.135 A 
ATOM     83  C   UNL A   1      35.981  32.302  30.617  1.00  0.00     0.135 A 
ATOM     84  F   UNL A   1      38.060  33.944  28.128  1.00  0.00    -0.206 F 
ATOM     85  C   UNL A   1      35.827  34.343  28.727  1.00  0.00     0.059 A 
ATOM     86  C   UNL A   1      34.784  32.991  30.452  1.00  0.00     0.059 A 
ATOM     87  F   UNL A   1      36.028  31.327  31.538  1.00  0.00    -0.206 F 
ATOM     88  C   UNL A   1      34.725  34.027  29.522  1.00  0.00     0.060 A 
BRANCH  88  89
ATOM     89  S   UNL A   1      33.209  34.988  29.321  1.00  0.00     0.124 S 
ATOM     90  O   UNL A   1      33.733  36.265  28.851  1.00  0.00    -0.237 OA
ATOM     91  O   UNL A   1      32.472  34.200  28.339  1.00  0.00    -0.237 OA
ATOM     92  O   UNL A   1      32.636  34.997  30.664  1.00  0.00    -0.744 OA
ENDBRANCH  88  89
ENDBRANCH  56  81
BRANCH  68  93
ATOM     93  C   UNL A   1      42.854  34.290  33.454  1.00  0.00     0.058 A 
ATOM     94  C   UNL A   1      42.514  34.503  34.798  1.00  0.00     0.135 A 
ATOM     95  C   UNL A   1      43.690  35.232  32.830  1.00  0.00     0.135 A 
ATOM     96  F   UNL A   1      41.713  33.637  35.439  1.00  0.00    -0.206 F 
ATOM     97  C   UNL A   1      42.983  35.610  35.497  1.00  0.00     0.059 A 
ATOM     98  C   UNL A   1      44.195  36.330  33.518  1.00  0.00     0.059 A 
ATOM     99  F   UNL A   1      44.052  35.069  31.547  1.00  0.00    -0.206 F 
ATOM    100  C   UNL A   1      43.833  36.513  34.850  1.00  0.00     0.060 A 
BRANCH 100 101
ATOM    101  S   UNL A   1      44.492  37.904  35.792  1.00  0.00     0.124 S 
ATOM    102  O   UNL A   1      45.923  37.787  35.529  1.00  0.00    -0.237 OA
ATOM    103  O   UNL A   1      43.825  39.045  35.172  1.00  0.00    -0.237 OA
ATOM    104  O   UNL A   1      44.080  37.614  37.162  1.00  0.00    -0.744 OA
ENDBRANCH 100 101
ENDBRANCH  68  93
ENDBRANCH  42  43
ENDBRANCH  34  37
ENDBRANCH  32  33
ENDBRANCH  31  32
ENDBRANCH  30  31
ENDBRANCH   1  30
TORSDOF 20
ENDMDL
MODEL 3
REMARK VINA RESULT:     -11.6      6.259     11.788
REMARK SMILES COc1cccc(C(=O)N2[C@@H](C(=O)NCCCCCCNC(=O)c3ccc(-c4c5nc(c(-c6c(F)cc(S(=O)(=O)[O-])cc6F)c6ccc([nH]6)c(-c6c(F)cc(S(=O)(=O)[O-])cc6F)c6nc(c(-c7c(F)cc(S(=O)(=O)[O-])cc7F)c7ccc4[nH]7)C=C6)C=C5)cc3)CS[C@@H]2c2ccccc2Cl)c1
REMARK SMILES IDX 17 1 16 2 15 3 14 4 12 5 13 6 11 8 10 9 92 10 90 11 91 12
REMARK SMILES IDX 8 13 9 14 7 15 3 16 4 17 100 18 5 19 6 20 2 21 1 22 93 23
REMARK SMILES IDX 94 24 98 25 95 26 97 27 99 28 96 29 18 30 19 31 20 32 21 33
REMARK SMILES IDX 22 34 23 36 24 37 25 38 89 39 26 40 88 41 27 42 28 43 29 44
REMARK SMILES IDX 82 45 30 46 87 47 81 48 83 49 31 50 86 51 80 52 79 53 32 55
REMARK SMILES IDX 66 56 45 57 65 58 46 59 49 60 64 61 84 62 47 63 48 64 63 66
REMARK SMILES IDX 85 67 50 68 33 69 34 70 43 71 35 72 36 73 42 74 44 75 37 76
REMARK SMILES IDX 38 77 39 78 40 79 41 80 67 81 68 82 77 83 69 84 70 85 76 86
REMARK SMILES IDX 78 87 71 88 72 89 73 90 74 91 75 92 51 93 52 94 61 95 53 96
REMARK SMILES IDX 54 97 60 98 62 99 55 100 56 101 57 102 58 103 59 104
REMARK H PARENT 14 7 21 35 83 54 49 65
REMARK Flexibility Score: inf
ROOT
ATOM      1  C   UNL A   1      31.876  29.448  26.530  1.00  0.00     0.002 C 
ENDROOT
BRANCH   1   2
ATOM      2  C   UNL A   1      31.586  28.360  27.561  1.00  0.00     0.021 C 
BRANCH   2   3
ATOM      3  C   UNL A   1      31.911  26.951  27.065  1.00  0.00     0.116 C 
BRANCH   3   4
ATOM      4  N   UNL A   1      30.673  26.306  26.683  1.00  0.00    -0.354 N 
ATOM      5  C   UNL A   1      30.502  25.286  25.790  1.00  0.00     0.243 C 
ATOM      6  O   UNL A   1      29.381  25.176  25.286  1.00  0.00    -0.273 OA
ATOM      7  H   UNL A   1      29.856  26.645  27.117  1.00  0.00     0.163 HD
BRANCH   5   8
ATOM      8  C   UNL A   1      31.661  24.287  25.511  1.00  0.00     0.186 C 
ATOM      9  N   UNL A   1      32.617  24.559  24.394  1.00  0.00    -0.310 N 
ATOM     10  C   UNL A   1      32.932  23.396  23.584  1.00  0.00     0.176 C 
ATOM     11  C   UNL A   1      30.993  22.914  25.230  1.00  0.00     0.107 C 
ATOM     12  S   UNL A   1      31.290  22.595  23.475  1.00  0.00    -0.129 SA
BRANCH   9  13
ATOM     13  C   UNL A   1      33.494  25.628  24.340  1.00  0.00     0.255 C 
ATOM     14  O   UNL A   1      34.566  25.657  24.933  1.00  0.00    -0.269 OA
BRANCH  13  15
ATOM     15  C   UNL A   1      33.048  26.871  23.623  1.00  0.00     0.043 A 
ATOM     16  C   UNL A   1      31.320  28.302  22.691  1.00  0.00     0.119 A 
ATOM     17  C   UNL A   1      32.230  29.362  22.646  1.00  0.00     0.046 A 
ATOM     18  C   UNL A   1      31.725  27.059  23.192  1.00  0.00     0.060 A 
ATOM     19  C   UNL A   1      33.543  29.189  23.074  1.00  0.00     0.005 A 
ATOM     20  C   UNL A   1      33.954  27.944  23.546  1.00  0.00     0.014 A 
BRANCH  16  21
ATOM     21  O   UNL A   1      30.074  28.611  22.219  1.00  0.00    -0.497 OA
ATOM     22  C   UNL A   1      29.876  29.924  21.713  1.00  0.00     0.278 C 
ENDBRANCH  16  21
ENDBRANCH  13  15
ENDBRANCH   9  13
BRANCH  10  23
ATOM     23  C   UNL A   1      33.963  22.351  24.054  1.00  0.00     0.003 A 
ATOM     24  C   UNL A   1      33.395  21.250  24.758  1.00  0.00     0.008 A 
ATOM     25  C   UNL A   1      35.369  22.350  23.960  1.00  0.00     0.047 A 
ATOM     26  C   UNL A   1      34.166  20.260  25.374  1.00  0.00     0.001 A 
ATOM     27  C   UNL A   1      36.138  21.338  24.569  1.00  0.00     0.021 A 
ATOM     28  Cl  UNL A   1      36.349  23.521  23.169  1.00  0.00    -0.084 Cl
ATOM     29  C   UNL A   1      35.545  20.307  25.284  1.00  0.00     0.002 A 
ENDBRANCH  10  23
ENDBRANCH   5   8
ENDBRANCH   3   4
ENDBRANCH   2   3
ENDBRANCH   1   2
BRANCH   1  30
ATOM     30  C   UNL A   1      33.021  30.380  26.937  1.00  0.00     0.002 C 
BRANCH  30  31
ATOM     31  C   UNL A   1      34.424  29.820  26.679  1.00  0.00     0.021 C 
BRANCH  31  32
ATOM     32  C   UNL A   1      35.103  29.245  27.919  1.00  0.00     0.116 C 
BRANCH  32  33
ATOM     33  N   UNL A   1      35.172  30.235  28.984  1.00  0.00    -0.352 N 
ATOM     34  C   UNL A   1      36.211  30.501  29.844  1.00  0.00     0.251 C 
ATOM     35  H   UNL A   1      34.367  30.788  29.105  1.00  0.00     0.163 HD
ATOM     36  O   UNL A   1      36.021  31.145  30.866  1.00  0.00    -0.269 OA
BRANCH  34  37
ATOM     37  C   UNL A   1      37.559  29.995  29.513  1.00  0.00     0.039 A 
ATOM     38  C   UNL A   1      37.996  30.010  28.187  1.00  0.00     0.014 A 
ATOM     39  C   UNL A   1      38.387  29.508  30.527  1.00  0.00     0.014 A 
ATOM     40  C   UNL A   1      39.294  29.588  27.886  1.00  0.00     0.010 A 
ATOM     41  C   UNL A   1      39.699  29.159  30.237  1.00  0.00     0.010 A 
ATOM     42  C   UNL A   1      40.164  29.187  28.912  1.00  0.00    -0.014 A 
BRANCH  42  43
ATOM     43  C   UNL A   1      41.558  28.753  28.641  1.00  0.00     0.031 A 
ATOM     44  C   UNL A   1      42.657  29.782  28.625  1.00  0.00     0.074 A 
ATOM     45  C   UNL A   1      41.821  27.468  28.327  1.00  0.00     0.049 A 
ATOM     46  N   UNL A   1      43.898  29.660  28.233  1.00  0.00    -0.248 NA
ATOM     47  C   UNL A   1      42.302  31.137  29.081  1.00  0.00     0.031 C 
ATOM     48  C   UNL A   1      40.837  26.383  28.294  1.00  0.00     0.029 A 
ATOM     49  N   UNL A   1      42.994  26.861  27.952  1.00  0.00    -0.354 N 
ATOM     50  C   UNL A   1      44.466  30.919  28.386  1.00  0.00     0.074 A 
ATOM     51  C   UNL A   1      43.422  31.805  28.848  1.00  0.00     0.031 C 
ATOM     52  C   UNL A   1      41.448  25.246  27.923  1.00  0.00     0.029 A 
ATOM     53  C   UNL A   1      42.852  25.527  27.643  1.00  0.00     0.049 A 
ATOM     54  H   UNL A   1      43.855  27.336  27.907  1.00  0.00     0.167 HD
ATOM     55  C   UNL A   1      45.750  31.296  28.183  1.00  0.00     0.037 A 
ATOM     56  C   UNL A   1      43.749  24.642  27.163  1.00  0.00     0.037 A 
ATOM     57  C   UNL A   1      46.790  30.402  27.745  1.00  0.00     0.049 A 
ATOM     58  C   UNL A   1      45.162  25.100  26.904  1.00  0.00     0.074 A 
ATOM     59  C   UNL A   1      48.127  30.682  27.524  1.00  0.00     0.029 A 
ATOM     60  N   UNL A   1      46.612  29.053  27.476  1.00  0.00    -0.354 N 
ATOM     61  N   UNL A   1      45.688  26.290  27.074  1.00  0.00    -0.248 NA
ATOM     62  C   UNL A   1      46.107  24.097  26.390  1.00  0.00     0.031 C 
ATOM     63  C   UNL A   1      48.749  29.511  27.084  1.00  0.00     0.029 A 
ATOM     64  C   UNL A   1      47.814  28.489  27.087  1.00  0.00     0.049 A 
ATOM     65  H   UNL A   1      45.758  28.569  27.550  1.00  0.00     0.167 HD
ATOM     66  C   UNL A   1      47.034  26.161  26.743  1.00  0.00     0.074 A 
ATOM     67  C   UNL A   1      47.241  24.782  26.358  1.00  0.00     0.031 C 
ATOM     68  C   UNL A   1      48.012  27.100  26.760  1.00  0.00     0.037 A 
BRANCH  55  69
ATOM     69  C   UNL A   1      46.117  32.729  28.452  1.00  0.00     0.058 A 
ATOM     70  C   UNL A   1      46.596  33.137  29.707  1.00  0.00     0.135 A 
ATOM     71  C   UNL A   1      46.063  33.689  27.428  1.00  0.00     0.135 A 
ATOM     72  F   UNL A   1      46.649  32.265  30.727  1.00  0.00    -0.206 F 
ATOM     73  C   UNL A   1      46.999  34.446  29.941  1.00  0.00     0.059 A 
ATOM     74  C   UNL A   1      46.489  34.998  27.632  1.00  0.00     0.059 A 
ATOM     75  F   UNL A   1      45.608  33.354  26.210  1.00  0.00    -0.206 F 
ATOM     76  C   UNL A   1      46.950  35.368  28.894  1.00  0.00     0.060 A 
BRANCH  76  77
ATOM     77  S   UNL A   1      47.522  37.051  29.207  1.00  0.00     0.124 S 
ATOM     78  O   UNL A   1      48.957  36.845  29.382  1.00  0.00    -0.237 OA
ATOM     79  O   UNL A   1      47.125  37.746  27.988  1.00  0.00    -0.237 OA
ATOM     80  O   UNL A   1      46.794  37.439  30.412  1.00  0.00    -0.744 OA
ENDBRANCH  76  77
ENDBRANCH  55  69
BRANCH  56  81
ATOM     81  C   UNL A   1      43.352  23.233  26.885  1.00  0.00     0.058 A 
ATOM     82  C   UNL A   1      43.127  22.326  27.934  1.00  0.00     0.135 A 
ATOM     83  C   UNL A   1      43.238  22.748  25.573  1.00  0.00     0.135 A 
ATOM     84  F   UNL A   1      43.224  22.737  29.207  1.00  0.00    -0.206 F 
ATOM     85  C   UNL A   1      42.856  20.983  27.694  1.00  0.00     0.059 A 
ATOM     86  C   UNL A   1      42.935  21.416  25.307  1.00  0.00     0.059 A 
ATOM     87  F   UNL A   1      43.422  23.575  24.532  1.00  0.00    -0.206 F 
ATOM     88  C   UNL A   1      42.771  20.536  26.374  1.00  0.00     0.060 A 
BRANCH  88  89
ATOM     89  S   UNL A   1      42.438  18.787  26.072  1.00  0.00     0.124 S 
ATOM     90  O   UNL A   1      43.392  18.488  25.011  1.00  0.00    -0.237 OA
ATOM     91  O   UNL A   1      42.722  18.190  27.373  1.00  0.00    -0.237 OA
ATOM     92  O   UNL A   1      41.032  18.776  25.679  1.00  0.00    -0.744 OA
ENDBRANCH  88  89
ENDBRANCH  56  81
BRANCH  68  93
ATOM     93  C   UNL A   1      49.416  26.663  26.447  1.00  0.00     0.058 A 
ATOM     94  C   UNL A   1      50.213  25.986  27.381  1.00  0.00     0.135 A 
ATOM     95  C   UNL A   1      49.932  26.844  25.152  1.00  0.00     0.135 A 
ATOM     96  F   UNL A   1      49.771  25.792  28.634  1.00  0.00    -0.206 F 
ATOM     97  C   UNL A   1      51.476  25.509  27.045  1.00  0.00     0.059 A 
ATOM     98  C   UNL A   1      51.178  26.349  24.785  1.00  0.00     0.059 A 
ATOM     99  F   UNL A   1      49.204  27.479  24.218  1.00  0.00    -0.206 F 
ATOM    100  C   UNL A   1      51.944  25.686  25.740  1.00  0.00     0.060 A 
BRANCH 100 101
ATOM    101  S   UNL A   1      53.554  24.996  25.300  1.00  0.00     0.124 S 
ATOM    102  O   UNL A   1      53.793  25.612  23.999  1.00  0.00    -0.237 OA
ATOM    103  O   UNL A   1      54.403  25.465  26.390  1.00  0.00    -0.237 OA
ATOM    104  O   UNL A   1      53.312  23.556  25.277  1.00  0.00    -0.744 OA
ENDBRANCH 100 101
ENDBRANCH  68  93
ENDBRANCH  42  43
ENDBRANCH  34  37
ENDBRANCH  32  33
ENDBRANCH  31  32
ENDBRANCH  30  31
ENDBRANCH   1  30
TORSDOF 20
ENDMDL
