MODEL 1
REMARK VINA RESULT:     -10.3      0.000      0.000
REMARK SMILES CC(C)(Cn1ccc(=O)nc1SCC(=O)NCCCCCCNC(=O)c1ccc(-c2c3nc(c(-c4c(F)cc(S(=O)(=O)[O-])cc4F)c4ccc([nH]4)c(-c4c(F)cc(S(=O)(=O)[O-])cc4F)c4nc(c(-c5c(F)cc(S(=O)(=O)[O-])cc5F)c5ccc2[nH]5)C=C4)C=C3)cc1)S(C)(=O)=O
REMARK SMILES IDX 18 1 17 2 16 3 14 4 15 5 13 7 12 8 11 9 5 10 6 11 7 12 10 13
REMARK SMILES IDX 8 14 9 15 4 16 2 17 1 18 3 19 92 20 93 21 94 22 95 23 19 24
REMARK SMILES IDX 20 25 21 26 22 27 23 28 24 29 25 31 26 32 27 33 91 34 28 35
REMARK SMILES IDX 90 36 29 37 30 38 31 39 84 40 32 41 89 42 83 43 85 44 33 45
REMARK SMILES IDX 88 46 82 47 81 48 34 50 68 51 47 52 67 53 48 54 51 55 66 56
REMARK SMILES IDX 86 57 49 58 50 59 65 61 87 62 52 63 35 64 36 65 45 66 37 67
REMARK SMILES IDX 38 68 44 69 46 70 39 71 40 72 41 73 42 74 43 75 69 76 70 77
REMARK SMILES IDX 79 78 71 79 72 80 78 81 80 82 73 83 74 84 75 85 76 86 77 87
REMARK SMILES IDX 53 88 54 89 63 90 55 91 56 92 62 93 64 94 57 95 58 96 59 97
REMARK SMILES IDX 60 98 61 99
REMARK H PARENT 16 6 23 30 85 49 51 60
REMARK Flexibility Score: inf
ROOT
ATOM      1  C   UNL A   1      34.303  32.267  27.796  1.00  0.00     0.021 C 
ENDROOT
BRANCH   1   2
ATOM      2  C   UNL A   1      33.964  30.789  27.622  1.00  0.00     0.116 C 
BRANCH   2   3
ATOM      3  N   UNL A   1      32.915  30.623  26.640  1.00  0.00    -0.355 N 
ATOM      4  C   UNL A   1      32.267  29.503  26.251  1.00  0.00     0.230 C 
ATOM      5  O   UNL A   1      31.418  29.618  25.360  1.00  0.00    -0.274 OA
ATOM      6  H   UNL A   1      32.630  31.450  26.189  1.00  0.00     0.163 HD
BRANCH   4   7
ATOM      7  C   UNL A   1      32.486  28.183  26.940  1.00  0.00     0.178 C 
BRANCH   7   8
ATOM      8  S   UNL A   1      33.147  26.797  26.028  1.00  0.00    -0.078 SA
BRANCH   8   9
ATOM      9  C   UNL A   1      31.886  25.832  25.274  1.00  0.00     0.172 A 
ATOM     10  N   UNL A   1      32.148  24.570  24.704  1.00  0.00    -0.326 N 
ATOM     11  C   UNL A   1      31.386  24.280  23.589  1.00  0.00     0.094 A 
ATOM     12  C   UNL A   1      30.299  24.975  23.252  1.00  0.00     0.091 A 
ATOM     13  N   UNL A   1      30.818  26.533  25.040  1.00  0.00    -0.185 NA
ATOM     14  C   UNL A   1      29.867  26.033  24.190  1.00  0.00     0.273 A 
ATOM     15  O   UNL A   1      28.720  26.461  24.103  1.00  0.00    -0.267 OA
BRANCH  10  16
ATOM     16  C   UNL A   1      32.795  23.520  25.532  1.00  0.00     0.146 C 
BRANCH  16  17
ATOM     17  C   UNL A   1      33.689  22.416  24.936  1.00  0.00     0.084 C 
ATOM     18  C   UNL A   1      34.645  22.885  23.837  1.00  0.00     0.030 C 
ATOM     19  C   UNL A   1      34.583  21.904  26.113  1.00  0.00     0.030 C 
BRANCH  17  20
ATOM     20  S   UNL A   1      32.728  20.934  24.434  1.00  0.00     0.154 S 
ATOM     21  C   UNL A   1      33.707  19.479  24.687  1.00  0.00     0.158 C 
ATOM     22  O   UNL A   1      31.604  20.813  25.347  1.00  0.00    -0.229 OA
ATOM     23  O   UNL A   1      32.485  21.008  23.006  1.00  0.00    -0.229 OA
ENDBRANCH  17  20
ENDBRANCH  16  17
ENDBRANCH  10  16
ENDBRANCH   8   9
ENDBRANCH   7   8
ENDBRANCH   4   7
ENDBRANCH   2   3
ENDBRANCH   1   2
BRANCH   1  24
ATOM     24  C   UNL A   1      35.780  32.561  28.096  1.00  0.00     0.002 C 
BRANCH  24  25
ATOM     25  C   UNL A   1      36.068  33.898  28.788  1.00  0.00     0.002 C 
BRANCH  25  26
ATOM     26  C   UNL A   1      35.880  33.903  30.303  1.00  0.00     0.021 C 
BRANCH  26  27
ATOM     27  C   UNL A   1      36.810  32.969  31.065  1.00  0.00     0.116 C 
BRANCH  27  28
ATOM     28  N   UNL A   1      36.211  31.670  31.332  1.00  0.00    -0.352 N 
ATOM     29  C   UNL A   1      36.713  30.420  31.053  1.00  0.00     0.251 C 
ATOM     30  H   UNL A   1      35.330  31.689  31.772  1.00  0.00     0.163 HD
ATOM     31  O   UNL A   1      36.020  29.422  31.217  1.00  0.00    -0.269 OA
BRANCH  29  32
ATOM     32  C   UNL A   1      38.085  30.299  30.511  1.00  0.00     0.039 A 
ATOM     33  C   UNL A   1      38.302  30.289  29.131  1.00  0.00     0.014 A 
ATOM     34  C   UNL A   1      39.156  30.134  31.392  1.00  0.00     0.014 A 
ATOM     35  C   UNL A   1      39.554  29.944  28.634  1.00  0.00     0.010 A 
ATOM     36  C   UNL A   1      40.433  29.873  30.887  1.00  0.00     0.010 A 
ATOM     37  C   UNL A   1      40.634  29.726  29.506  1.00  0.00    -0.014 A 
BRANCH  37  38
ATOM     38  C   UNL A   1      41.957  29.334  28.951  1.00  0.00     0.031 A 
ATOM     39  C   UNL A   1      43.101  30.314  28.922  1.00  0.00     0.074 A 
ATOM     40  C   UNL A   1      42.142  28.068  28.525  1.00  0.00     0.049 A 
ATOM     41  N   UNL A   1      44.316  30.148  28.462  1.00  0.00    -0.248 NA
ATOM     42  C   UNL A   1      42.853  31.654  29.479  1.00  0.00     0.031 C 
ATOM     43  C   UNL A   1      41.118  27.020  28.527  1.00  0.00     0.029 A 
ATOM     44  N   UNL A   1      43.258  27.439  28.034  1.00  0.00    -0.354 N 
ATOM     45  C   UNL A   1      44.971  31.359  28.662  1.00  0.00     0.074 A 
ATOM     46  C   UNL A   1      44.011  32.263  29.257  1.00  0.00     0.031 C 
ATOM     47  C   UNL A   1      41.665  25.869  28.110  1.00  0.00     0.029 A 
ATOM     48  C   UNL A   1      43.057  26.109  27.746  1.00  0.00     0.049 A 
ATOM     49  H   UNL A   1      44.118  27.896  27.900  1.00  0.00     0.167 HD
ATOM     50  C   UNL A   1      46.258  31.682  28.389  1.00  0.00     0.037 A 
ATOM     51  C   UNL A   1      43.894  25.188  27.233  1.00  0.00     0.037 A 
ATOM     52  C   UNL A   1      47.216  30.771  27.817  1.00  0.00     0.049 A 
ATOM     53  C   UNL A   1      45.299  25.589  26.886  1.00  0.00     0.074 A 
ATOM     54  C   UNL A   1      48.544  31.006  27.500  1.00  0.00     0.029 A 
ATOM     55  N   UNL A   1      46.957  29.449  27.485  1.00  0.00    -0.354 N 
ATOM     56  N   UNL A   1      45.891  26.748  27.058  1.00  0.00    -0.248 NA
ATOM     57  C   UNL A   1      46.148  24.565  26.262  1.00  0.00     0.031 C 
ATOM     58  C   UNL A   1      49.077  29.839  26.945  1.00  0.00     0.029 A 
ATOM     59  C   UNL A   1      48.095  28.862  26.956  1.00  0.00     0.049 A 
ATOM     60  H   UNL A   1      46.092  28.995  27.607  1.00  0.00     0.167 HD
ATOM     61  C   UNL A   1      47.186  26.586  26.577  1.00  0.00     0.074 A 
ATOM     62  C   UNL A   1      47.296  25.215  26.125  1.00  0.00     0.031 C 
ATOM     63  C   UNL A   1      48.190  27.493  26.512  1.00  0.00     0.037 A 
BRANCH  50  64
ATOM     64  C   UNL A   1      46.720  33.079  28.704  1.00  0.00     0.058 A 
ATOM     65  C   UNL A   1      46.591  34.122  27.773  1.00  0.00     0.135 A 
ATOM     66  C   UNL A   1      47.222  33.396  29.976  1.00  0.00     0.135 A 
ATOM     67  F   UNL A   1      46.133  33.871  26.536  1.00  0.00    -0.206 F 
ATOM     68  C   UNL A   1      46.949  35.428  28.091  1.00  0.00     0.059 A 
ATOM     69  C   UNL A   1      47.565  34.700  30.324  1.00  0.00     0.059 A 
ATOM     70  F   UNL A   1      47.368  32.436  30.903  1.00  0.00    -0.206 F 
ATOM     71  C   UNL A   1      47.430  35.709  29.371  1.00  0.00     0.060 A 
BRANCH  71  72
ATOM     72  S   UNL A   1      47.858  37.417  29.773  1.00  0.00     0.124 S 
ATOM     73  O   UNL A   1      49.060  37.612  28.969  1.00  0.00    -0.237 OA
ATOM     74  O   UNL A   1      46.674  38.145  29.330  1.00  0.00    -0.237 OA
ATOM     75  O   UNL A   1      48.069  37.385  31.217  1.00  0.00    -0.744 OA
ENDBRANCH  71  72
ENDBRANCH  50  64
BRANCH  51  76
ATOM     76  C   UNL A   1      43.419  23.798  27.007  1.00  0.00     0.058 A 
ATOM     77  C   UNL A   1      43.263  22.907  28.078  1.00  0.00     0.135 A 
ATOM     78  C   UNL A   1      43.097  23.338  25.721  1.00  0.00     0.135 A 
ATOM     79  F   UNL A   1      43.565  23.298  29.325  1.00  0.00    -0.206 F 
ATOM     80  C   UNL A   1      42.816  21.605  27.882  1.00  0.00     0.059 A 
ATOM     81  C   UNL A   1      42.622  22.049  25.502  1.00  0.00     0.059 A 
ATOM     82  F   UNL A   1      43.215  24.157  24.664  1.00  0.00    -0.206 F 
ATOM     83  C   UNL A   1      42.495  21.187  26.589  1.00  0.00     0.060 A 
BRANCH  83  84
ATOM     84  S   UNL A   1      41.876  19.507  26.351  1.00  0.00     0.124 S 
ATOM     85  O   UNL A   1      42.526  19.129  25.101  1.00  0.00    -0.237 OA
ATOM     86  O   UNL A   1      42.357  18.830  27.551  1.00  0.00    -0.237 OA
ATOM     87  O   UNL A   1      40.429  19.690  26.281  1.00  0.00    -0.744 OA
ENDBRANCH  83  84
ENDBRANCH  51  76
BRANCH  63  88
ATOM     88  C   UNL A   1      49.504  27.030  25.950  1.00  0.00     0.058 A 
ATOM     89  C   UNL A   1      49.798  27.149  24.584  1.00  0.00     0.135 A 
ATOM     90  C   UNL A   1      50.497  26.512  26.796  1.00  0.00     0.135 A 
ATOM     91  F   UNL A   1      48.879  27.631  23.733  1.00  0.00    -0.206 F 
ATOM     92  C   UNL A   1      51.028  26.752  24.070  1.00  0.00     0.059 A 
ATOM     93  C   UNL A   1      51.743  26.131  26.308  1.00  0.00     0.059 A 
ATOM     94  F   UNL A   1      50.267  26.387  28.113  1.00  0.00    -0.206 F 
ATOM     95  C   UNL A   1      51.996  26.247  24.941  1.00  0.00     0.060 A 
BRANCH  95  96
ATOM     96  S   UNL A   1      53.601  25.769  24.266  1.00  0.00     0.124 S 
ATOM     97  O   UNL A   1      53.701  24.380  24.699  1.00  0.00    -0.237 OA
ATOM     98  O   UNL A   1      53.408  25.975  22.833  1.00  0.00    -0.237 OA
ATOM     99  O   UNL A   1      54.529  26.696  24.906  1.00  0.00    -0.744 OA
ENDBRANCH  95  96
ENDBRANCH  63  88
ENDBRANCH  37  38
ENDBRANCH  29  32
ENDBRANCH  27  28
ENDBRANCH  26  27
ENDBRANCH  25  26
ENDBRANCH  24  25
ENDBRANCH   1  24
TORSDOF 21
ENDMDL
MODEL 2
REMARK VINA RESULT:     -10.3      5.951     10.834
REMARK SMILES CC(C)(Cn1ccc(=O)nc1SCC(=O)NCCCCCCNC(=O)c1ccc(-c2c3nc(c(-c4c(F)cc(S(=O)(=O)[O-])cc4F)c4ccc([nH]4)c(-c4c(F)cc(S(=O)(=O)[O-])cc4F)c4nc(c(-c5c(F)cc(S(=O)(=O)[O-])cc5F)c5ccc2[nH]5)C=C4)C=C3)cc1)S(C)(=O)=O
REMARK SMILES IDX 18 1 17 2 16 3 14 4 15 5 13 7 12 8 11 9 5 10 6 11 7 12 10 13
REMARK SMILES IDX 8 14 9 15 4 16 2 17 1 18 3 19 92 20 93 21 94 22 95 23 19 24
REMARK SMILES IDX 20 25 21 26 22 27 23 28 24 29 25 31 26 32 27 33 91 34 28 35
REMARK SMILES IDX 90 36 29 37 30 38 31 39 84 40 32 41 89 42 83 43 85 44 33 45
REMARK SMILES IDX 88 46 82 47 81 48 34 50 68 51 47 52 67 53 48 54 51 55 66 56
REMARK SMILES IDX 86 57 49 58 50 59 65 61 87 62 52 63 35 64 36 65 45 66 37 67
REMARK SMILES IDX 38 68 44 69 46 70 39 71 40 72 41 73 42 74 43 75 69 76 70 77
REMARK SMILES IDX 79 78 71 79 72 80 78 81 80 82 73 83 74 84 75 85 76 86 77 87
REMARK SMILES IDX 53 88 54 89 63 90 55 91 56 92 62 93 64 94 57 95 58 96 59 97
REMARK SMILES IDX 60 98 61 99
REMARK H PARENT 16 6 23 30 85 49 51 60
REMARK Flexibility Score: inf
ROOT
ATOM      1  C   UNL A   1      33.716  28.732  27.166  1.00  0.00     0.021 C 
ENDROOT
BRANCH   1   2
ATOM      2  C   UNL A   1      32.770  29.229  26.075  1.00  0.00     0.116 C 
BRANCH   2   3
ATOM      3  N   UNL A   1      33.419  29.182  24.783  1.00  0.00    -0.355 N 
ATOM      4  C   UNL A   1      32.890  28.967  23.559  1.00  0.00     0.230 C 
ATOM      5  O   UNL A   1      33.668  28.945  22.600  1.00  0.00    -0.274 OA
ATOM      6  H   UNL A   1      34.392  29.330  24.799  1.00  0.00     0.163 HD
BRANCH   4   7
ATOM      7  C   UNL A   1      31.403  28.864  23.349  1.00  0.00     0.178 C 
BRANCH   7   8
ATOM      8  S   UNL A   1      30.579  27.292  23.550  1.00  0.00    -0.078 SA
BRANCH   8   9
ATOM      9  C   UNL A   1      31.486  25.966  22.836  1.00  0.00     0.172 A 
ATOM     10  N   UNL A   1      32.074  24.953  23.619  1.00  0.00    -0.326 N 
ATOM     11  C   UNL A   1      33.267  24.468  23.118  1.00  0.00     0.094 A 
ATOM     12  C   UNL A   1      33.680  24.701  21.871  1.00  0.00     0.091 A 
ATOM     13  N   UNL A   1      31.793  26.205  21.597  1.00  0.00    -0.185 NA
ATOM     14  C   UNL A   1      32.748  25.434  20.987  1.00  0.00     0.273 A 
ATOM     15  O   UNL A   1      32.927  25.381  19.775  1.00  0.00    -0.267 OA
BRANCH  10  16
ATOM     16  C   UNL A   1      31.229  24.186  24.569  1.00  0.00     0.146 C 
BRANCH  16  17
ATOM     17  C   UNL A   1      31.428  24.235  26.096  1.00  0.00     0.084 C 
ATOM     18  C   UNL A   1      31.606  25.639  26.677  1.00  0.00     0.030 C 
ATOM     19  C   UNL A   1      30.114  23.660  26.720  1.00  0.00     0.030 C 
BRANCH  17  20
ATOM     20  S   UNL A   1      32.732  23.075  26.668  1.00  0.00     0.154 S 
ATOM     21  C   UNL A   1      32.743  21.638  25.632  1.00  0.00     0.158 C 
ATOM     22  O   UNL A   1      34.016  23.723  26.453  1.00  0.00    -0.229 OA
ATOM     23  O   UNL A   1      32.379  22.609  27.995  1.00  0.00    -0.229 OA
ENDBRANCH  17  20
ENDBRANCH  16  17
ENDBRANCH  10  16
ENDBRANCH   8   9
ENDBRANCH   7   8
ENDBRANCH   4   7
ENDBRANCH   2   3
ENDBRANCH   1   2
BRANCH   1  24
ATOM     24  C   UNL A   1      35.027  29.523  27.294  1.00  0.00     0.002 C 
BRANCH  24  25
ATOM     25  C   UNL A   1      34.987  30.736  28.230  1.00  0.00     0.002 C 
BRANCH  25  26
ATOM     26  C   UNL A   1      34.561  32.049  27.579  1.00  0.00     0.021 C 
BRANCH  26  27
ATOM     27  C   UNL A   1      33.116  32.452  27.837  1.00  0.00     0.116 C 
BRANCH  27  28
ATOM     28  N   UNL A   1      32.924  33.894  27.845  1.00  0.00    -0.352 N 
ATOM     29  C   UNL A   1      33.555  34.839  28.621  1.00  0.00     0.251 C 
ATOM     30  H   UNL A   1      32.255  34.238  27.211  1.00  0.00     0.163 HD
ATOM     31  O   UNL A   1      33.180  36.007  28.605  1.00  0.00    -0.269 OA
BRANCH  29  32
ATOM     32  C   UNL A   1      34.664  34.420  29.508  1.00  0.00     0.039 A 
ATOM     33  C   UNL A   1      35.991  34.599  29.111  1.00  0.00     0.014 A 
ATOM     34  C   UNL A   1      34.369  33.790  30.719  1.00  0.00     0.014 A 
ATOM     35  C   UNL A   1      37.012  33.998  29.839  1.00  0.00     0.010 A 
ATOM     36  C   UNL A   1      35.406  33.261  31.493  1.00  0.00     0.010 A 
ATOM     37  C   UNL A   1      36.732  33.316  31.035  1.00  0.00    -0.014 A 
BRANCH  37  38
ATOM     38  C   UNL A   1      37.839  32.660  31.782  1.00  0.00     0.031 A 
ATOM     39  C   UNL A   1      38.577  31.486  31.191  1.00  0.00     0.074 A 
ATOM     40  C   UNL A   1      38.216  33.163  32.975  1.00  0.00     0.049 A 
ATOM     41  N   UNL A   1      39.555  30.784  31.707  1.00  0.00    -0.248 NA
ATOM     42  C   UNL A   1      38.167  31.041  29.849  1.00  0.00     0.031 C 
ATOM     43  C   UNL A   1      37.595  34.312  33.639  1.00  0.00     0.029 A 
ATOM     44  N   UNL A   1      39.225  32.793  33.828  1.00  0.00    -0.354 N 
ATOM     45  C   UNL A   1      39.868  29.811  30.763  1.00  0.00     0.074 A 
ATOM     46  C   UNL A   1      38.956  29.992  29.655  1.00  0.00     0.031 C 
ATOM     47  C   UNL A   1      38.267  34.584  34.767  1.00  0.00     0.029 A 
ATOM     48  C   UNL A   1      39.322  33.593  34.943  1.00  0.00     0.049 A 
ATOM     49  H   UNL A   1      39.821  32.030  33.658  1.00  0.00     0.167 HD
ATOM     50  C   UNL A   1      40.836  28.865  30.811  1.00  0.00     0.037 A 
ATOM     51  C   UNL A   1      40.156  33.527  35.998  1.00  0.00     0.037 A 
ATOM     52  C   UNL A   1      41.756  28.704  31.908  1.00  0.00     0.049 A 
ATOM     53  C   UNL A   1      41.183  32.432  36.051  1.00  0.00     0.074 A 
ATOM     54  C   UNL A   1      42.771  27.772  32.050  1.00  0.00     0.029 A 
ATOM     55  N   UNL A   1      41.783  29.497  33.046  1.00  0.00    -0.354 N 
ATOM     56  N   UNL A   1      41.445  31.505  35.160  1.00  0.00    -0.248 NA
ATOM     57  C   UNL A   1      42.019  32.364  37.257  1.00  0.00     0.031 C 
ATOM     58  C   UNL A   1      43.388  27.979  33.288  1.00  0.00     0.029 A 
ATOM     59  C   UNL A   1      42.788  29.067  33.899  1.00  0.00     0.049 A 
ATOM     60  H   UNL A   1      41.179  30.253  33.222  1.00  0.00     0.167 HD
ATOM     61  C   UNL A   1      42.486  30.752  35.693  1.00  0.00     0.074 A 
ATOM     62  C   UNL A   1      42.817  31.343  36.973  1.00  0.00     0.031 C 
ATOM     63  C   UNL A   1      43.107  29.668  35.170  1.00  0.00     0.037 A 
BRANCH  50  64
ATOM     64  C   UNL A   1      40.964  27.923  29.645  1.00  0.00     0.058 A 
ATOM     65  C   UNL A   1      42.040  28.007  28.748  1.00  0.00     0.135 A 
ATOM     66  C   UNL A   1      40.047  26.874  29.470  1.00  0.00     0.135 A 
ATOM     67  F   UNL A   1      42.936  29.001  28.859  1.00  0.00    -0.206 F 
ATOM     68  C   UNL A   1      42.198  27.090  27.714  1.00  0.00     0.059 A 
ATOM     69  C   UNL A   1      40.199  25.931  28.456  1.00  0.00     0.059 A 
ATOM     70  F   UNL A   1      38.998  26.748  30.299  1.00  0.00    -0.206 F 
ATOM     71  C   UNL A   1      41.275  26.051  27.580  1.00  0.00     0.060 A 
BRANCH  71  72
ATOM     72  S   UNL A   1      41.518  24.852  26.251  1.00  0.00     0.124 S 
ATOM     73  O   UNL A   1      42.923  24.497  26.433  1.00  0.00    -0.237 OA
ATOM     74  O   UNL A   1      40.553  23.813  26.591  1.00  0.00    -0.237 OA
ATOM     75  O   UNL A   1      41.217  25.615  25.043  1.00  0.00    -0.744 OA
ENDBRANCH  71  72
ENDBRANCH  50  64
BRANCH  51  76
ATOM     76  C   UNL A   1      40.046  34.525  37.094  1.00  0.00     0.058 A 
ATOM     77  C   UNL A   1      39.161  34.327  38.163  1.00  0.00     0.135 A 
ATOM     78  C   UNL A   1      40.834  35.687  37.103  1.00  0.00     0.135 A 
ATOM     79  F   UNL A   1      38.382  33.235  38.194  1.00  0.00    -0.206 F 
ATOM     80  C   UNL A   1      39.050  35.250  39.197  1.00  0.00     0.059 A 
ATOM     81  C   UNL A   1      40.761  36.611  38.139  1.00  0.00     0.059 A 
ATOM     82  F   UNL A   1      41.707  35.915  36.110  1.00  0.00    -0.206 F 
ATOM     83  C   UNL A   1      39.858  36.389  39.176  1.00  0.00     0.060 A 
BRANCH  83  84
ATOM     84  S   UNL A   1      39.737  37.561  40.545  1.00  0.00     0.124 S 
ATOM     85  O   UNL A   1      40.739  38.552  40.173  1.00  0.00    -0.237 OA
ATOM     86  O   UNL A   1      38.346  37.994  40.455  1.00  0.00    -0.237 OA
ATOM     87  O   UNL A   1      40.056  36.746  41.714  1.00  0.00    -0.744 OA
ENDBRANCH  83  84
ENDBRANCH  51  76
BRANCH  63  88
ATOM     88  C   UNL A   1      44.222  29.058  35.971  1.00  0.00     0.058 A 
ATOM     89  C   UNL A   1      45.531  29.558  35.901  1.00  0.00     0.135 A 
ATOM     90  C   UNL A   1      43.967  27.998  36.855  1.00  0.00     0.135 A 
ATOM     91  F   UNL A   1      45.828  30.565  35.065  1.00  0.00    -0.206 F 
ATOM     92  C   UNL A   1      46.556  29.015  36.670  1.00  0.00     0.059 A 
ATOM     93  C   UNL A   1      44.971  27.456  37.651  1.00  0.00     0.059 A 
ATOM     94  F   UNL A   1      42.729  27.491  36.964  1.00  0.00    -0.206 F 
ATOM     95  C   UNL A   1      46.265  27.965  37.544  1.00  0.00     0.060 A 
BRANCH  95  96
ATOM     96  S   UNL A   1      47.598  27.294  38.561  1.00  0.00     0.124 S 
ATOM     97  O   UNL A   1      46.963  26.114  39.137  1.00  0.00    -0.237 OA
ATOM     98  O   UNL A   1      48.641  27.035  37.573  1.00  0.00    -0.237 OA
ATOM     99  O   UNL A   1      47.886  28.374  39.499  1.00  0.00    -0.744 OA
ENDBRANCH  95  96
ENDBRANCH  63  88
ENDBRANCH  37  38
ENDBRANCH  29  32
ENDBRANCH  27  28
ENDBRANCH  26  27
ENDBRANCH  25  26
ENDBRANCH  24  25
ENDBRANCH   1  24
TORSDOF 21
ENDMDL
MODEL 3
REMARK VINA RESULT:     -10.3      1.257      2.031
REMARK SMILES CC(C)(Cn1ccc(=O)nc1SCC(=O)NCCCCCCNC(=O)c1ccc(-c2c3nc(c(-c4c(F)cc(S(=O)(=O)[O-])cc4F)c4ccc([nH]4)c(-c4c(F)cc(S(=O)(=O)[O-])cc4F)c4nc(c(-c5c(F)cc(S(=O)(=O)[O-])cc5F)c5ccc2[nH]5)C=C4)C=C3)cc1)S(C)(=O)=O
REMARK SMILES IDX 18 1 17 2 16 3 14 4 15 5 13 7 12 8 11 9 5 10 6 11 7 12 10 13
REMARK SMILES IDX 8 14 9 15 4 16 2 17 1 18 3 19 92 20 93 21 94 22 95 23 19 24
REMARK SMILES IDX 20 25 21 26 22 27 23 28 24 29 25 31 26 32 27 33 91 34 28 35
REMARK SMILES IDX 90 36 29 37 30 38 31 39 84 40 32 41 89 42 83 43 85 44 33 45
REMARK SMILES IDX 88 46 82 47 81 48 34 50 68 51 47 52 67 53 48 54 51 55 66 56
REMARK SMILES IDX 86 57 49 58 50 59 65 61 87 62 52 63 35 64 36 65 45 66 37 67
REMARK SMILES IDX 38 68 44 69 46 70 39 71 40 72 41 73 42 74 43 75 69 76 70 77
REMARK SMILES IDX 79 78 71 79 72 80 78 81 80 82 73 83 74 84 75 85 76 86 77 87
REMARK SMILES IDX 53 88 54 89 63 90 55 91 56 92 62 93 64 94 57 95 58 96 59 97
REMARK SMILES IDX 60 98 61 99
REMARK H PARENT 16 6 23 30 85 49 51 60
REMARK Flexibility Score: inf
ROOT
ATOM      1  C   UNL A   1      34.704  33.770  28.224  1.00  0.00     0.021 C 
ENDROOT
BRANCH   1   2
ATOM      2  C   UNL A   1      33.781  32.571  28.019  1.00  0.00     0.116 C 
BRANCH   2   3
ATOM      3  N   UNL A   1      34.552  31.351  27.920  1.00  0.00    -0.355 N 
ATOM      4  C   UNL A   1      34.270  30.202  27.268  1.00  0.00     0.230 C 
ATOM      5  O   UNL A   1      35.087  29.280  27.361  1.00  0.00    -0.274 OA
ATOM      6  H   UNL A   1      35.412  31.360  28.399  1.00  0.00     0.163 HD
BRANCH   4   7
ATOM      7  C   UNL A   1      33.064  30.076  26.376  1.00  0.00     0.178 C 
BRANCH   7   8
ATOM      8  S   UNL A   1      32.909  28.679  25.275  1.00  0.00    -0.078 SA
BRANCH   8   9
ATOM      9  C   UNL A   1      31.289  28.528  24.610  1.00  0.00     0.172 A 
ATOM     10  N   UNL A   1      30.783  27.300  24.138  1.00  0.00    -0.326 N 
ATOM     11  C   UNL A   1      29.931  27.415  23.057  1.00  0.00     0.094 A 
ATOM     12  C   UNL A   1      29.390  28.573  22.677  1.00  0.00     0.091 A 
ATOM     13  N   UNL A   1      30.772  29.687  24.334  1.00  0.00    -0.185 NA
ATOM     14  C   UNL A   1      29.660  29.747  23.535  1.00  0.00     0.273 A 
ATOM     15  O   UNL A   1      28.935  30.730  23.427  1.00  0.00    -0.267 OA
BRANCH  10  16
ATOM     16  C   UNL A   1      30.788  26.119  25.038  1.00  0.00     0.146 C 
BRANCH  16  17
ATOM     17  C   UNL A   1      31.384  24.758  24.631  1.00  0.00     0.084 C 
ATOM     18  C   UNL A   1      30.663  24.057  23.478  1.00  0.00     0.030 C 
ATOM     19  C   UNL A   1      32.836  25.056  24.131  1.00  0.00     0.030 C 
BRANCH  17  20
ATOM     20  S   UNL A   1      31.633  23.647  26.072  1.00  0.00     0.154 S 
ATOM     21  C   UNL A   1      33.364  23.521  26.431  1.00  0.00     0.158 C 
ATOM     22  O   UNL A   1      31.039  24.294  27.230  1.00  0.00    -0.229 OA
ATOM     23  O   UNL A   1      31.204  22.312  25.700  1.00  0.00    -0.229 OA
ENDBRANCH  17  20
ENDBRANCH  16  17
ENDBRANCH  10  16
ENDBRANCH   8   9
ENDBRANCH   7   8
ENDBRANCH   4   7
ENDBRANCH   2   3
ENDBRANCH   1   2
BRANCH   1  24
ATOM     24  C   UNL A   1      34.413  34.601  29.483  1.00  0.00     0.002 C 
BRANCH  24  25
ATOM     25  C   UNL A   1      35.230  34.238  30.727  1.00  0.00     0.002 C 
BRANCH  25  26
ATOM     26  C   UNL A   1      36.744  34.206  30.527  1.00  0.00     0.021 C 
BRANCH  26  27
ATOM     27  C   UNL A   1      37.371  32.822  30.615  1.00  0.00     0.116 C 
BRANCH  27  28
ATOM     28  N   UNL A   1      36.410  31.787  30.965  1.00  0.00    -0.352 N 
ATOM     29  C   UNL A   1      36.494  30.431  30.754  1.00  0.00     0.251 C 
ATOM     30  H   UNL A   1      35.591  32.101  31.414  1.00  0.00     0.163 HD
ATOM     31  O   UNL A   1      35.533  29.705  30.985  1.00  0.00    -0.269 OA
BRANCH  29  32
ATOM     32  C   UNL A   1      37.745  29.863  30.202  1.00  0.00     0.039 A 
ATOM     33  C   UNL A   1      38.700  29.299  31.052  1.00  0.00     0.014 A 
ATOM     34  C   UNL A   1      37.989  29.952  28.830  1.00  0.00     0.014 A 
ATOM     35  C   UNL A   1      39.960  28.983  30.556  1.00  0.00     0.010 A 
ATOM     36  C   UNL A   1      39.228  29.553  28.321  1.00  0.00     0.010 A 
ATOM     37  C   UNL A   1      40.242  29.112  29.186  1.00  0.00    -0.014 A 
BRANCH  37  38
ATOM     38  C   UNL A   1      41.605  28.792  28.684  1.00  0.00     0.031 A 
ATOM     39  C   UNL A   1      42.688  29.840  28.675  1.00  0.00     0.074 A 
ATOM     40  C   UNL A   1      41.882  27.533  28.289  1.00  0.00     0.049 A 
ATOM     41  N   UNL A   1      43.926  29.741  28.260  1.00  0.00    -0.248 NA
ATOM     42  C   UNL A   1      42.340  31.172  29.197  1.00  0.00     0.031 C 
ATOM     43  C   UNL A   1      40.924  26.424  28.276  1.00  0.00     0.029 A 
ATOM     44  N   UNL A   1      43.050  26.965  27.848  1.00  0.00    -0.354 N 
ATOM     45  C   UNL A   1      44.499  30.993  28.458  1.00  0.00     0.074 A 
ATOM     46  C   UNL A   1      43.465  31.847  29.003  1.00  0.00     0.031 C 
ATOM     47  C   UNL A   1      41.554  25.302  27.901  1.00  0.00     0.029 A 
ATOM     48  C   UNL A   1      42.941  25.621  27.580  1.00  0.00     0.049 A 
ATOM     49  H   UNL A   1      43.886  27.472  27.735  1.00  0.00     0.167 HD
ATOM     50  C   UNL A   1      45.773  31.390  28.222  1.00  0.00     0.037 A 
ATOM     51  C   UNL A   1      43.850  24.744  27.113  1.00  0.00     0.037 A 
ATOM     52  C   UNL A   1      46.804  30.529  27.701  1.00  0.00     0.049 A 
ATOM     53  C   UNL A   1      45.239  25.225  26.806  1.00  0.00     0.074 A 
ATOM     54  C   UNL A   1      48.126  30.840  27.425  1.00  0.00     0.029 A 
ATOM     55  N   UNL A   1      46.637  29.189  27.386  1.00  0.00    -0.354 N 
ATOM     56  N   UNL A   1      45.753  26.420  26.976  1.00  0.00    -0.248 NA
ATOM     57  C   UNL A   1      46.170  24.243  26.232  1.00  0.00     0.031 C 
ATOM     58  C   UNL A   1      48.748  29.698  26.911  1.00  0.00     0.029 A 
ATOM     59  C   UNL A   1      47.827  28.663  26.908  1.00  0.00     0.049 A 
ATOM     60  H   UNL A   1      45.798  28.685  27.488  1.00  0.00     0.167 HD
ATOM     61  C   UNL A   1      47.071  26.330  26.543  1.00  0.00     0.074 A 
ATOM     62  C   UNL A   1      47.280  24.960  26.121  1.00  0.00     0.031 C 
ATOM     63  C   UNL A   1      48.020  27.295  26.494  1.00  0.00     0.037 A 
BRANCH  50  64
ATOM     64  C   UNL A   1      46.138  32.817  28.526  1.00  0.00     0.058 A 
ATOM     65  C   UNL A   1      46.676  33.189  29.767  1.00  0.00     0.135 A 
ATOM     66  C   UNL A   1      46.026  33.809  27.538  1.00  0.00     0.135 A 
ATOM     67  F   UNL A   1      46.789  32.285  30.753  1.00  0.00    -0.206 F 
ATOM     68  C   UNL A   1      47.083  34.495  30.022  1.00  0.00     0.059 A 
ATOM     69  C   UNL A   1      46.448  35.118  27.763  1.00  0.00     0.059 A 
ATOM     70  F   UNL A   1      45.515  33.508  26.333  1.00  0.00    -0.206 F 
ATOM     71  C   UNL A   1      46.971  35.451  29.011  1.00  0.00     0.060 A 
BRANCH  71  72
ATOM     72  S   UNL A   1      47.536  37.132  29.352  1.00  0.00     0.124 S 
ATOM     73  O   UNL A   1      48.742  37.205  28.532  1.00  0.00    -0.237 OA
ATOM     74  O   UNL A   1      46.409  37.937  28.895  1.00  0.00    -0.237 OA
ATOM     75  O   UNL A   1      47.760  37.132  30.795  1.00  0.00    -0.744 OA
ENDBRANCH  71  72
ENDBRANCH  50  64
BRANCH  51  76
ATOM     76  C   UNL A   1      43.468  23.323  26.899  1.00  0.00     0.058 A 
ATOM     77  C   UNL A   1      43.394  22.427  27.973  1.00  0.00     0.135 A 
ATOM     78  C   UNL A   1      43.155  22.839  25.619  1.00  0.00     0.135 A 
ATOM     79  F   UNL A   1      43.692  22.841  29.214  1.00  0.00    -0.206 F 
ATOM     80  C   UNL A   1      43.035  21.096  27.788  1.00  0.00     0.059 A 
ATOM     81  C   UNL A   1      42.766  21.520  25.412  1.00  0.00     0.059 A 
ATOM     82  F   UNL A   1      43.196  23.661  24.559  1.00  0.00    -0.206 F 
ATOM     83  C   UNL A   1      42.720  20.653  26.502  1.00  0.00     0.060 A 
BRANCH  83  84
ATOM     84  S   UNL A   1      42.214  18.934  26.278  1.00  0.00     0.124 S 
ATOM     85  O   UNL A   1      42.303  18.422  27.640  1.00  0.00    -0.237 OA
ATOM     86  O   UNL A   1      40.866  19.079  25.737  1.00  0.00    -0.237 OA
ATOM     87  O   UNL A   1      43.204  18.413  25.340  1.00  0.00    -0.744 OA
ENDBRANCH  83  84
ENDBRANCH  51  76
BRANCH  63  88
ATOM     88  C   UNL A   1      49.378  26.904  25.986  1.00  0.00     0.058 A 
ATOM     89  C   UNL A   1      49.717  27.029  24.630  1.00  0.00     0.135 A 
ATOM     90  C   UNL A   1      50.368  26.450  26.874  1.00  0.00     0.135 A 
ATOM     91  F   UNL A   1      48.804  27.451  23.741  1.00  0.00    -0.206 F 
ATOM     92  C   UNL A   1      50.986  26.699  24.167  1.00  0.00     0.059 A 
ATOM     93  C   UNL A   1      51.650  26.138  26.436  1.00  0.00     0.059 A 
ATOM     94  F   UNL A   1      50.096  26.323  28.182  1.00  0.00    -0.206 F 
ATOM     95  C   UNL A   1      51.948  26.258  25.079  1.00  0.00     0.060 A 
BRANCH  95  96
ATOM     96  S   UNL A   1      53.602  25.867  24.468  1.00  0.00     0.124 S 
ATOM     97  O   UNL A   1      53.523  24.420  24.310  1.00  0.00    -0.237 OA
ATOM     98  O   UNL A   1      53.665  26.638  23.230  1.00  0.00    -0.237 OA
ATOM     99  O   UNL A   1      54.479  26.336  25.537  1.00  0.00    -0.744 OA
ENDBRANCH  95  96
ENDBRANCH  63  88
ENDBRANCH  37  38
ENDBRANCH  29  32
ENDBRANCH  27  28
ENDBRANCH  26  27
ENDBRANCH  25  26
ENDBRANCH  24  25
ENDBRANCH   1  24
TORSDOF 21
ENDMDL
