MODEL 1
REMARK VINA RESULT:     -11.7      0.000      0.000
REMARK SMILES O=C(/C=C/c1cc(C(=O)Nc2ccc(F)cc2Cl)cs1)NCCCCCCNC(=O)c1ccc(-c2c3nc(c(-c4c(F)cc(S(=O)(=O)[O-])cc4F)c4ccc([nH]4)c(-c4c(F)cc(S(=O)(=O)[O-])cc4F)c4nc(c(-c5c(F)cc(S(=O)(=O)[O-])cc5F)c5ccc2[nH]5)C=C4)C=C3)cc1
REMARK SMILES IDX 24 1 23 2 22 3 21 4 1 5 2 6 3 8 4 9 5 10 6 11 20 12 7 13
REMARK SMILES IDX 19 14 8 15 9 16 10 17 11 19 12 20 17 21 13 22 16 23 18 24
REMARK SMILES IDX 14 25 15 26 25 27 26 28 27 29 28 30 29 31 30 33 31 34 32 35
REMARK SMILES IDX 96 36 33 37 95 38 34 39 35 40 36 41 89 42 37 43 94 44 88 45
REMARK SMILES IDX 90 46 38 47 93 48 87 49 86 50 39 52 73 53 52 54 72 55 53 56
REMARK SMILES IDX 56 57 71 58 91 59 54 60 55 61 70 63 92 64 57 65 40 66 41 67
REMARK SMILES IDX 50 68 42 69 43 70 49 71 51 72 44 73 45 74 46 75 47 76 48 77
REMARK SMILES IDX 74 78 75 79 84 80 76 81 77 82 83 83 85 84 78 85 79 86 80 87
REMARK SMILES IDX 81 88 82 89 58 90 59 91 68 92 60 93 61 94 67 95 69 96 62 97
REMARK SMILES IDX 63 98 64 99 65 100 66 101
REMARK H PARENT 21 7 10 18 28 32 90 51 56 62
REMARK Flexibility Score: inf
ROOT
ATOM      1  C   UNL A   1      31.715  30.813  26.938  1.00  0.00     0.002 C 
ENDROOT
BRANCH   1   2
ATOM      2  C   UNL A   1      31.042  31.973  26.193  1.00  0.00     0.021 C 
BRANCH   2   3
ATOM      3  C   UNL A   1      30.279  31.560  24.935  1.00  0.00     0.116 C 
BRANCH   3   4
ATOM      4  N   UNL A   1      30.793  30.320  24.387  1.00  0.00    -0.353 N 
ATOM      5  O   UNL A   1      29.227  30.105  22.712  1.00  0.00    -0.270 OA
ATOM      6  C   UNL A   1      30.187  29.678  23.342  1.00  0.00     0.244 C 
ATOM      7  H   UNL A   1      31.606  29.928  24.780  1.00  0.00     0.163 HD
BRANCH   6   8
ATOM      8  C   UNL A   1      30.839  28.421  22.916  1.00  0.00     0.072 C 
ATOM      9  C   UNL A   1      32.060  28.036  23.325  1.00  0.00     0.024 C 
BRANCH   9  10
ATOM     10  C   UNL A   1      32.659  26.837  22.836  1.00  0.00     0.028 A 
ATOM     11  C   UNL A   1      33.699  26.082  23.352  1.00  0.00     0.033 A 
ATOM     12  S   UNL A   1      32.078  26.097  21.395  1.00  0.00    -0.144 S 
ATOM     13  C   UNL A   1      33.792  24.761  22.789  1.00  0.00     0.051 A 
ATOM     14  C   UNL A   1      33.046  24.707  21.626  1.00  0.00     0.079 A 
BRANCH  13  15
ATOM     15  C   UNL A   1      34.595  23.636  23.275  1.00  0.00     0.256 C 
ATOM     16  O   UNL A   1      35.610  23.270  22.676  1.00  0.00    -0.269 OA
ATOM     17  N   UNL A   1      34.266  23.019  24.464  1.00  0.00    -0.321 N 
ATOM     18  H   UNL A   1      34.993  22.489  24.864  1.00  0.00     0.170 HD
BRANCH  17  19
ATOM     19  C   UNL A   1      33.061  23.019  25.203  1.00  0.00     0.060 A 
ATOM     20  C   UNL A   1      32.862  23.872  26.299  1.00  0.00     0.031 A 
ATOM     21  C   UNL A   1      32.038  22.124  24.844  1.00  0.00     0.067 A 
ATOM     22  C   UNL A   1      31.722  23.740  27.094  1.00  0.00     0.041 A 
ATOM     23  C   UNL A   1      30.904  21.986  25.643  1.00  0.00     0.062 A 
ATOM     24  Cl  UNL A   1      32.195  21.097  23.462  1.00  0.00    -0.082 Cl
ATOM     25  C   UNL A   1      30.768  22.783  26.773  1.00  0.00     0.124 A 
ATOM     26  F   UNL A   1      29.700  22.628  27.564  1.00  0.00    -0.207 F 
ENDBRANCH  17  19
ENDBRANCH  13  15
ENDBRANCH   9  10
ENDBRANCH   6   8
ENDBRANCH   3   4
ENDBRANCH   2   3
ENDBRANCH   1   2
BRANCH   1  27
ATOM     27  C   UNL A   1      33.229  30.943  27.132  1.00  0.00     0.002 C 
BRANCH  27  28
ATOM     28  C   UNL A   1      34.042  29.688  26.808  1.00  0.00     0.021 C 
BRANCH  28  29
ATOM     29  C   UNL A   1      35.125  29.333  27.825  1.00  0.00     0.116 C 
BRANCH  29  30
ATOM     30  N   UNL A   1      35.246  30.326  28.882  1.00  0.00    -0.352 N 
ATOM     31  C   UNL A   1      36.331  30.642  29.663  1.00  0.00     0.251 C 
ATOM     32  H   UNL A   1      34.432  30.849  29.063  1.00  0.00     0.163 HD
ATOM     33  O   UNL A   1      36.199  31.407  30.615  1.00  0.00    -0.269 OA
BRANCH  31  34
ATOM     34  C   UNL A   1      37.651  30.038  29.376  1.00  0.00     0.039 A 
ATOM     35  C   UNL A   1      38.065  29.918  28.047  1.00  0.00     0.014 A 
ATOM     36  C   UNL A   1      38.482  29.599  30.411  1.00  0.00     0.014 A 
ATOM     37  C   UNL A   1      39.343  29.432  27.759  1.00  0.00     0.010 A 
ATOM     38  C   UNL A   1      39.778  29.176  30.127  1.00  0.00     0.010 A 
ATOM     39  C   UNL A   1      40.227  29.097  28.799  1.00  0.00    -0.014 A 
BRANCH  39  40
ATOM     40  C   UNL A   1      41.632  28.701  28.522  1.00  0.00     0.031 A 
ATOM     41  C   UNL A   1      42.721  29.736  28.483  1.00  0.00     0.074 A 
ATOM     42  C   UNL A   1      41.911  27.418  28.219  1.00  0.00     0.049 A 
ATOM     43  N   UNL A   1      43.983  29.595  28.167  1.00  0.00    -0.248 NA
ATOM     44  C   UNL A   1      42.335  31.116  28.816  1.00  0.00     0.031 C 
ATOM     45  C   UNL A   1      40.930  26.330  28.167  1.00  0.00     0.029 A 
ATOM     46  N   UNL A   1      43.093  26.814  27.874  1.00  0.00    -0.354 N 
ATOM     47  C   UNL A   1      44.540  30.866  28.251  1.00  0.00     0.074 A 
ATOM     48  C   UNL A   1      43.466  31.772  28.599  1.00  0.00     0.031 C 
ATOM     49  C   UNL A   1      41.552  25.194  27.814  1.00  0.00     0.029 A 
ATOM     50  C   UNL A   1      42.966  25.477  27.581  1.00  0.00     0.049 A 
ATOM     51  H   UNL A   1      43.953  27.293  27.840  1.00  0.00     0.167 HD
ATOM     52  C   UNL A   1      45.830  31.239  28.073  1.00  0.00     0.037 A 
ATOM     53  C   UNL A   1      43.876  24.581  27.153  1.00  0.00     0.037 A 
ATOM     54  C   UNL A   1      46.897  30.330  27.739  1.00  0.00     0.049 A 
ATOM     55  C   UNL A   1      45.302  25.014  26.962  1.00  0.00     0.074 A 
ATOM     56  C   UNL A   1      48.246  30.601  27.599  1.00  0.00     0.029 A 
ATOM     57  N   UNL A   1      46.733  28.976  27.482  1.00  0.00    -0.354 N 
ATOM     58  N   UNL A   1      45.827  26.207  27.119  1.00  0.00    -0.248 NA
ATOM     59  C   UNL A   1      46.263  23.983  26.546  1.00  0.00     0.031 C 
ATOM     60  C   UNL A   1      48.893  29.419  27.218  1.00  0.00     0.029 A 
ATOM     61  C   UNL A   1      47.953  28.402  27.162  1.00  0.00     0.049 A 
ATOM     62  H   UNL A   1      45.876  28.494  27.521  1.00  0.00     0.167 HD
ATOM     63  C   UNL A   1      47.181  26.067  26.833  1.00  0.00     0.074 A 
ATOM     64  C   UNL A   1      47.397  24.672  26.510  1.00  0.00     0.031 C 
ATOM     65  C   UNL A   1      48.155  27.011  26.837  1.00  0.00     0.037 A 
BRANCH  52  66
ATOM     66  C   UNL A   1      46.154  32.700  28.236  1.00  0.00     0.058 A 
ATOM     67  C   UNL A   1      46.544  33.232  29.475  1.00  0.00     0.135 A 
ATOM     68  C   UNL A   1      46.084  33.576  27.141  1.00  0.00     0.135 A 
ATOM     69  F   UNL A   1      46.617  32.442  30.558  1.00  0.00    -0.206 F 
ATOM     70  C   UNL A   1      46.808  34.589  29.634  1.00  0.00     0.059 A 
ATOM     71  C   UNL A   1      46.372  34.932  27.271  1.00  0.00     0.059 A 
ATOM     72  F   UNL A   1      45.722  33.120  25.932  1.00  0.00    -0.206 F 
ATOM     73  C   UNL A   1      46.711  35.432  28.527  1.00  0.00     0.060 A 
BRANCH  73  74
ATOM     74  S   UNL A   1      47.031  37.194  28.754  1.00  0.00     0.124 S 
ATOM     75  O   UNL A   1      46.401  37.437  30.049  1.00  0.00    -0.237 OA
ATOM     76  O   UNL A   1      48.489  37.254  28.738  1.00  0.00    -0.237 OA
ATOM     77  O   UNL A   1      46.368  37.810  27.609  1.00  0.00    -0.744 OA
ENDBRANCH  73  74
ENDBRANCH  52  66
BRANCH  53  78
ATOM     78  C   UNL A   1      43.455  23.181  26.883  1.00  0.00     0.058 A 
ATOM     79  C   UNL A   1      43.387  22.686  25.574  1.00  0.00     0.135 A 
ATOM     80  C   UNL A   1      43.160  22.298  27.935  1.00  0.00     0.135 A 
ATOM     81  F   UNL A   1      43.653  23.493  24.537  1.00  0.00    -0.206 F 
ATOM     82  C   UNL A   1      43.038  21.364  25.312  1.00  0.00     0.059 A 
ATOM     83  C   UNL A   1      42.831  20.967  27.700  1.00  0.00     0.059 A 
ATOM     84  F   UNL A   1      43.228  22.720  29.206  1.00  0.00    -0.206 F 
ATOM     85  C   UNL A   1      42.769  20.510  26.384  1.00  0.00     0.060 A 
BRANCH  85  86
ATOM     86  S   UNL A   1      42.397  18.776  26.039  1.00  0.00     0.124 S 
ATOM     87  O   UNL A   1      43.328  18.487  24.955  1.00  0.00    -0.237 OA
ATOM     88  O   UNL A   1      42.689  18.139  27.320  1.00  0.00    -0.237 OA
ATOM     89  O   UNL A   1      40.985  18.804  25.671  1.00  0.00    -0.744 OA
ENDBRANCH  85  86
ENDBRANCH  53  78
BRANCH  65  90
ATOM     90  C   UNL A   1      49.549  26.568  26.493  1.00  0.00     0.058 A 
ATOM     91  C   UNL A   1      50.376  25.941  27.438  1.00  0.00     0.135 A 
ATOM     92  C   UNL A   1      50.042  26.718  25.187  1.00  0.00     0.135 A 
ATOM     93  F   UNL A   1      49.955  25.783  28.703  1.00  0.00    -0.206 F 
ATOM     94  C   UNL A   1      51.650  25.492  27.105  1.00  0.00     0.059 A 
ATOM     95  C   UNL A   1      51.303  26.253  24.824  1.00  0.00     0.059 A 
ATOM     96  F   UNL A   1      49.289  27.303  24.243  1.00  0.00    -0.206 F 
ATOM     97  C   UNL A   1      52.103  25.650  25.794  1.00  0.00     0.060 A 
BRANCH  97  98
ATOM     98  S   UNL A   1      53.740  25.021  25.363  1.00  0.00     0.124 S 
ATOM     99  O   UNL A   1      53.497  23.584  25.303  1.00  0.00    -0.237 OA
ATOM    100  O   UNL A   1      54.000  25.674  24.085  1.00  0.00    -0.237 OA
ATOM    101  O   UNL A   1      54.578  25.471  26.471  1.00  0.00    -0.744 OA
ENDBRANCH  97  98
ENDBRANCH  65  90
ENDBRANCH  39  40
ENDBRANCH  31  34
ENDBRANCH  29  30
ENDBRANCH  28  29
ENDBRANCH  27  28
ENDBRANCH   1  27
TORSDOF 19
ENDMDL
MODEL 2
REMARK VINA RESULT:     -11.6      6.468     12.149
REMARK SMILES O=C(/C=C/c1cc(C(=O)Nc2ccc(F)cc2Cl)cs1)NCCCCCCNC(=O)c1ccc(-c2c3nc(c(-c4c(F)cc(S(=O)(=O)[O-])cc4F)c4ccc([nH]4)c(-c4c(F)cc(S(=O)(=O)[O-])cc4F)c4nc(c(-c5c(F)cc(S(=O)(=O)[O-])cc5F)c5ccc2[nH]5)C=C4)C=C3)cc1
REMARK SMILES IDX 24 1 23 2 22 3 21 4 1 5 2 6 3 8 4 9 5 10 6 11 20 12 7 13
REMARK SMILES IDX 19 14 8 15 9 16 10 17 11 19 12 20 17 21 13 22 16 23 18 24
REMARK SMILES IDX 14 25 15 26 25 27 26 28 27 29 28 30 29 31 30 33 31 34 32 35
REMARK SMILES IDX 96 36 33 37 95 38 34 39 35 40 36 41 89 42 37 43 94 44 88 45
REMARK SMILES IDX 90 46 38 47 93 48 87 49 86 50 39 52 73 53 52 54 72 55 53 56
REMARK SMILES IDX 56 57 71 58 91 59 54 60 55 61 70 63 92 64 57 65 40 66 41 67
REMARK SMILES IDX 50 68 42 69 43 70 49 71 51 72 44 73 45 74 46 75 47 76 48 77
REMARK SMILES IDX 74 78 75 79 84 80 76 81 77 82 83 83 85 84 78 85 79 86 80 87
REMARK SMILES IDX 81 88 82 89 58 90 59 91 68 92 60 93 61 94 67 95 69 96 62 97
REMARK SMILES IDX 63 98 64 99 65 100 66 101
REMARK H PARENT 21 7 10 18 28 32 90 51 56 62
REMARK Flexibility Score: inf
ROOT
ATOM      1  C   UNL A   1      41.678  22.316  27.780  1.00  0.00     0.002 C 
ENDROOT
BRANCH   1   2
ATOM      2  C   UNL A   1      40.851  22.433  26.492  1.00  0.00     0.021 C 
BRANCH   2   3
ATOM      3  C   UNL A   1      39.668  21.468  26.411  1.00  0.00     0.116 C 
BRANCH   3   4
ATOM      4  N   UNL A   1      38.523  22.087  25.772  1.00  0.00    -0.353 N 
ATOM      5  O   UNL A   1      38.572  24.042  26.990  1.00  0.00    -0.270 OA
ATOM      6  C   UNL A   1      38.050  23.312  26.156  1.00  0.00     0.244 C 
ATOM      7  H   UNL A   1      38.072  21.610  25.039  1.00  0.00     0.163 HD
BRANCH   6   8
ATOM      8  C   UNL A   1      36.869  23.790  25.404  1.00  0.00     0.072 C 
ATOM      9  C   UNL A   1      35.857  22.995  25.017  1.00  0.00     0.024 C 
BRANCH   9  10
ATOM     10  C   UNL A   1      34.769  23.505  24.247  1.00  0.00     0.028 A 
ATOM     11  C   UNL A   1      34.480  24.801  23.857  1.00  0.00     0.033 A 
ATOM     12  S   UNL A   1      33.566  22.441  23.629  1.00  0.00    -0.144 S 
ATOM     13  C   UNL A   1      33.507  24.885  22.799  1.00  0.00     0.051 A 
ATOM     14  C   UNL A   1      32.847  23.676  22.689  1.00  0.00     0.079 A 
BRANCH  13  15
ATOM     15  C   UNL A   1      33.166  26.058  21.990  1.00  0.00     0.256 C 
ATOM     16  O   UNL A   1      33.382  26.081  20.775  1.00  0.00    -0.269 OA
ATOM     17  N   UNL A   1      32.520  27.130  22.569  1.00  0.00    -0.321 N 
ATOM     18  H   UNL A   1      32.072  27.731  21.932  1.00  0.00     0.170 HD
BRANCH  17  19
ATOM     19  C   UNL A   1      32.394  27.509  23.926  1.00  0.00     0.060 A 
ATOM     20  C   UNL A   1      33.365  28.287  24.573  1.00  0.00     0.031 A 
ATOM     21  C   UNL A   1      31.273  27.076  24.655  1.00  0.00     0.067 A 
ATOM     22  C   UNL A   1      33.280  28.515  25.948  1.00  0.00     0.041 A 
ATOM     23  C   UNL A   1      31.193  27.296  26.029  1.00  0.00     0.062 A 
ATOM     24  Cl  UNL A   1      30.008  26.173  23.896  1.00  0.00    -0.082 Cl
ATOM     25  C   UNL A   1      32.209  27.997  26.665  1.00  0.00     0.124 A 
ATOM     26  F   UNL A   1      32.157  28.178  27.991  1.00  0.00    -0.207 F 
ENDBRANCH  17  19
ENDBRANCH  13  15
ENDBRANCH   9  10
ENDBRANCH   6   8
ENDBRANCH   3   4
ENDBRANCH   2   3
ENDBRANCH   1   2
BRANCH   1  27
ATOM     27  C   UNL A   1      43.195  22.225  27.584  1.00  0.00     0.002 C 
BRANCH  27  28
ATOM     28  C   UNL A   1      44.019  23.261  28.350  1.00  0.00     0.021 C 
BRANCH  28  29
ATOM     29  C   UNL A   1      44.618  24.377  27.497  1.00  0.00     0.116 C 
BRANCH  29  30
ATOM     30  N   UNL A   1      43.870  24.605  26.269  1.00  0.00    -0.352 N 
ATOM     31  C   UNL A   1      42.815  25.453  26.034  1.00  0.00     0.251 C 
ATOM     32  H   UNL A   1      44.163  24.074  25.494  1.00  0.00     0.163 HD
ATOM     33  O   UNL A   1      42.209  25.396  24.968  1.00  0.00    -0.269 OA
BRANCH  31  34
ATOM     34  C   UNL A   1      42.392  26.415  27.076  1.00  0.00     0.039 A 
ATOM     35  C   UNL A   1      41.468  26.002  28.041  1.00  0.00     0.014 A 
ATOM     36  C   UNL A   1      42.908  27.713  27.110  1.00  0.00     0.014 A 
ATOM     37  C   UNL A   1      41.124  26.866  29.084  1.00  0.00     0.010 A 
ATOM     38  C   UNL A   1      42.613  28.549  28.184  1.00  0.00     0.010 A 
ATOM     39  C   UNL A   1      41.725  28.131  29.189  1.00  0.00    -0.014 A 
BRANCH  39  40
ATOM     40  C   UNL A   1      41.472  29.014  30.357  1.00  0.00     0.031 A 
ATOM     41  C   UNL A   1      42.284  28.867  31.613  1.00  0.00     0.074 A 
ATOM     42  C   UNL A   1      40.450  29.890  30.314  1.00  0.00     0.049 A 
ATOM     43  N   UNL A   1      42.147  29.480  32.760  1.00  0.00    -0.248 NA
ATOM     44  C   UNL A   1      43.376  27.882  31.584  1.00  0.00     0.031 C 
ATOM     45  C   UNL A   1      39.553  30.087  29.172  1.00  0.00     0.029 A 
ATOM     46  N   UNL A   1      39.976  30.763  31.261  1.00  0.00    -0.354 N 
ATOM     47  C   UNL A   1      43.124  28.948  33.594  1.00  0.00     0.074 A 
ATOM     48  C   UNL A   1      43.814  27.928  32.834  1.00  0.00     0.031 C 
ATOM     49  C   UNL A   1      38.641  31.021  29.485  1.00  0.00     0.029 A 
ATOM     50  C   UNL A   1      38.864  31.465  30.858  1.00  0.00     0.049 A 
ATOM     51  H   UNL A   1      40.393  30.877  32.146  1.00  0.00     0.167 HD
ATOM     52  C   UNL A   1      43.430  29.292  34.869  1.00  0.00     0.037 A 
ATOM     53  C   UNL A   1      38.098  32.351  31.522  1.00  0.00     0.037 A 
ATOM     54  C   UNL A   1      42.748  30.317  35.616  1.00  0.00     0.049 A 
ATOM     55  C   UNL A   1      38.454  32.721  32.935  1.00  0.00     0.074 A 
ATOM     56  C   UNL A   1      43.024  30.782  36.890  1.00  0.00     0.029 A 
ATOM     57  N   UNL A   1      41.647  31.030  35.161  1.00  0.00    -0.354 N 
ATOM     58  N   UNL A   1      39.429  32.262  33.683  1.00  0.00    -0.248 NA
ATOM     59  C   UNL A   1      37.615  33.733  33.592  1.00  0.00     0.031 C 
ATOM     60  C   UNL A   1      42.065  31.747  37.221  1.00  0.00     0.029 A 
ATOM     61  C   UNL A   1      41.217  31.914  36.138  1.00  0.00     0.049 A 
ATOM     62  H   UNL A   1      41.231  30.922  34.275  1.00  0.00     0.167 HD
ATOM     63  C   UNL A   1      39.329  32.938  34.894  1.00  0.00     0.074 A 
ATOM     64  C   UNL A   1      38.209  33.848  34.773  1.00  0.00     0.031 C 
ATOM     65  C   UNL A   1      40.096  32.813  36.006  1.00  0.00     0.037 A 
BRANCH  52  66
ATOM     66  C   UNL A   1      44.556  28.546  35.533  1.00  0.00     0.058 A 
ATOM     67  C   UNL A   1      45.889  28.971  35.416  1.00  0.00     0.135 A 
ATOM     68  C   UNL A   1      44.300  27.399  36.302  1.00  0.00     0.135 A 
ATOM     69  F   UNL A   1      46.192  30.054  34.684  1.00  0.00    -0.206 F 
ATOM     70  C   UNL A   1      46.933  28.260  36.000  1.00  0.00     0.059 A 
ATOM     71  C   UNL A   1      45.326  26.689  36.919  1.00  0.00     0.059 A 
ATOM     72  F   UNL A   1      43.043  26.952  36.452  1.00  0.00    -0.206 F 
ATOM     73  C   UNL A   1      46.642  27.116  36.743  1.00  0.00     0.060 A 
BRANCH  73  74
ATOM     74  S   UNL A   1      48.009  26.189  37.473  1.00  0.00     0.124 S 
ATOM     75  O   UNL A   1      48.098  25.047  36.568  1.00  0.00    -0.237 OA
ATOM     76  O   UNL A   1      49.110  27.144  37.398  1.00  0.00    -0.237 OA
ATOM     77  O   UNL A   1      47.534  25.888  38.819  1.00  0.00    -0.744 OA
ENDBRANCH  73  74
ENDBRANCH  52  66
BRANCH  53  78
ATOM     78  C   UNL A   1      36.918  32.952  30.844  1.00  0.00     0.058 A 
ATOM     79  C   UNL A   1      35.620  32.500  31.117  1.00  0.00     0.135 A 
ATOM     80  C   UNL A   1      37.066  34.022  29.947  1.00  0.00     0.135 A 
ATOM     81  F   UNL A   1      35.430  31.476  31.962  1.00  0.00    -0.206 F 
ATOM     82  C   UNL A   1      34.506  33.084  30.523  1.00  0.00     0.059 A 
ATOM     83  C   UNL A   1      35.966  34.638  29.358  1.00  0.00     0.059 A 
ATOM     84  F   UNL A   1      38.287  34.501  29.667  1.00  0.00    -0.206 F 
ATOM     85  C   UNL A   1      34.689  34.159  29.649  1.00  0.00     0.060 A 
BRANCH  85  86
ATOM     86  S   UNL A   1      33.233  34.964  28.947  1.00  0.00     0.124 S 
ATOM     87  O   UNL A   1      32.733  33.931  28.047  1.00  0.00    -0.237 OA
ATOM     88  O   UNL A   1      32.424  35.225  30.133  1.00  0.00    -0.237 OA
ATOM     89  O   UNL A   1      33.786  36.151  28.302  1.00  0.00    -0.744 OA
ENDBRANCH  85  86
ENDBRANCH  53  78
BRANCH  65  90
ATOM     90  C   UNL A   1      39.760  33.689  37.180  1.00  0.00     0.058 A 
ATOM     91  C   UNL A   1      38.851  33.280  38.167  1.00  0.00     0.135 A 
ATOM     92  C   UNL A   1      40.400  34.928  37.349  1.00  0.00     0.135 A 
ATOM     93  F   UNL A   1      38.207  32.109  38.047  1.00  0.00    -0.206 F 
ATOM     94  C   UNL A   1      38.575  34.075  39.275  1.00  0.00     0.059 A 
ATOM     95  C   UNL A   1      40.159  35.728  38.462  1.00  0.00     0.059 A 
ATOM     96  F   UNL A   1      41.284  35.363  36.438  1.00  0.00    -0.206 F 
ATOM     97  C   UNL A   1      39.237  35.296  39.416  1.00  0.00     0.060 A 
BRANCH  97  98
ATOM     98  S   UNL A   1      38.905  36.297  40.881  1.00  0.00     0.124 S 
ATOM     99  O   UNL A   1      40.200  36.279  41.551  1.00  0.00    -0.237 OA
ATOM    100  O   UNL A   1      38.508  37.577  40.304  1.00  0.00    -0.237 OA
ATOM    101  O   UNL A   1      37.838  35.565  41.557  1.00  0.00    -0.744 OA
ENDBRANCH  97  98
ENDBRANCH  65  90
ENDBRANCH  39  40
ENDBRANCH  31  34
ENDBRANCH  29  30
ENDBRANCH  28  29
ENDBRANCH  27  28
ENDBRANCH   1  27
TORSDOF 19
ENDMDL
MODEL 3
REMARK VINA RESULT:     -11.5      6.571     12.278
REMARK SMILES O=C(/C=C/c1cc(C(=O)Nc2ccc(F)cc2Cl)cs1)NCCCCCCNC(=O)c1ccc(-c2c3nc(c(-c4c(F)cc(S(=O)(=O)[O-])cc4F)c4ccc([nH]4)c(-c4c(F)cc(S(=O)(=O)[O-])cc4F)c4nc(c(-c5c(F)cc(S(=O)(=O)[O-])cc5F)c5ccc2[nH]5)C=C4)C=C3)cc1
REMARK SMILES IDX 24 1 23 2 22 3 21 4 1 5 2 6 3 8 4 9 5 10 6 11 20 12 7 13
REMARK SMILES IDX 19 14 8 15 9 16 10 17 11 19 12 20 17 21 13 22 16 23 18 24
REMARK SMILES IDX 14 25 15 26 25 27 26 28 27 29 28 30 29 31 30 33 31 34 32 35
REMARK SMILES IDX 96 36 33 37 95 38 34 39 35 40 36 41 89 42 37 43 94 44 88 45
REMARK SMILES IDX 90 46 38 47 93 48 87 49 86 50 39 52 73 53 52 54 72 55 53 56
REMARK SMILES IDX 56 57 71 58 91 59 54 60 55 61 70 63 92 64 57 65 40 66 41 67
REMARK SMILES IDX 50 68 42 69 43 70 49 71 51 72 44 73 45 74 46 75 47 76 48 77
REMARK SMILES IDX 74 78 75 79 84 80 76 81 77 82 83 83 85 84 78 85 79 86 80 87
REMARK SMILES IDX 81 88 82 89 58 90 59 91 68 92 60 93 61 94 67 95 69 96 62 97
REMARK SMILES IDX 63 98 64 99 65 100 66 101
REMARK H PARENT 21 7 10 18 28 32 90 51 56 62
REMARK Flexibility Score: inf
ROOT
ATOM      1  C   UNL A   1      41.192  21.922  27.920  1.00  0.00     0.002 C 
ENDROOT
BRANCH   1   2
ATOM      2  C   UNL A   1      40.050  22.686  27.237  1.00  0.00     0.021 C 
BRANCH   2   3
ATOM      3  C   UNL A   1      39.335  21.903  26.136  1.00  0.00     0.116 C 
BRANCH   3   4
ATOM      4  N   UNL A   1      37.912  22.180  26.128  1.00  0.00    -0.353 N 
ATOM      5  O   UNL A   1      37.367  20.693  24.455  1.00  0.00    -0.270 OA
ATOM      6  C   UNL A   1      37.057  21.574  25.249  1.00  0.00     0.244 C 
ATOM      7  H   UNL A   1      37.549  22.824  26.777  1.00  0.00     0.163 HD
BRANCH   6   8
ATOM      8  C   UNL A   1      35.640  21.979  25.373  1.00  0.00     0.072 C 
ATOM      9  C   UNL A   1      34.647  21.463  24.630  1.00  0.00     0.024 C 
BRANCH   9  10
ATOM     10  C   UNL A   1      33.306  21.933  24.759  1.00  0.00     0.028 A 
ATOM     11  C   UNL A   1      32.563  22.220  25.892  1.00  0.00     0.033 A 
ATOM     12  S   UNL A   1      32.357  22.254  23.359  1.00  0.00    -0.144 S 
ATOM     13  C   UNL A   1      31.386  23.004  25.630  1.00  0.00     0.051 A 
ATOM     14  C   UNL A   1      31.104  22.969  24.277  1.00  0.00     0.079 A 
BRANCH  13  15
ATOM     15  C   UNL A   1      30.531  23.686  26.606  1.00  0.00     0.256 C 
ATOM     16  O   UNL A   1      30.047  23.079  27.566  1.00  0.00    -0.269 OA
ATOM     17  N   UNL A   1      30.320  25.045  26.506  1.00  0.00    -0.321 N 
ATOM     18  H   UNL A   1      29.994  25.471  27.331  1.00  0.00     0.170 HD
BRANCH  17  19
ATOM     19  C   UNL A   1      30.495  25.929  25.416  1.00  0.00     0.060 A 
ATOM     20  C   UNL A   1      29.424  26.323  24.601  1.00  0.00     0.031 A 
ATOM     21  C   UNL A   1      31.783  26.410  25.126  1.00  0.00     0.067 A 
ATOM     22  C   UNL A   1      29.658  27.075  23.448  1.00  0.00     0.041 A 
ATOM     23  C   UNL A   1      32.018  27.154  23.970  1.00  0.00     0.062 A 
ATOM     24  Cl  UNL A   1      33.131  26.017  26.134  1.00  0.00    -0.082 Cl
ATOM     25  C   UNL A   1      30.954  27.461  23.132  1.00  0.00     0.124 A 
ATOM     26  F   UNL A   1      31.181  28.141  22.001  1.00  0.00    -0.207 F 
ENDBRANCH  17  19
ENDBRANCH  13  15
ENDBRANCH   9  10
ENDBRANCH   6   8
ENDBRANCH   3   4
ENDBRANCH   2   3
ENDBRANCH   1   2
BRANCH   1  27
ATOM     27  C   UNL A   1      42.570  22.072  27.265  1.00  0.00     0.002 C 
BRANCH  27  28
ATOM     28  C   UNL A   1      43.588  22.893  28.060  1.00  0.00     0.021 C 
BRANCH  28  29
ATOM     29  C   UNL A   1      43.939  24.252  27.459  1.00  0.00     0.116 C 
BRANCH  29  30
ATOM     30  N   UNL A   1      43.179  24.543  26.252  1.00  0.00    -0.352 N 
ATOM     31  C   UNL A   1      42.172  25.457  26.053  1.00  0.00     0.251 C 
ATOM     32  H   UNL A   1      43.421  24.007  25.463  1.00  0.00     0.163 HD
ATOM     33  O   UNL A   1      41.540  25.452  25.001  1.00  0.00    -0.269 OA
BRANCH  31  34
ATOM     34  C   UNL A   1      41.832  26.427  27.118  1.00  0.00     0.039 A 
ATOM     35  C   UNL A   1      40.888  26.067  28.083  1.00  0.00     0.014 A 
ATOM     36  C   UNL A   1      42.446  27.682  27.172  1.00  0.00     0.014 A 
ATOM     37  C   UNL A   1      40.619  26.933  29.147  1.00  0.00     0.010 A 
ATOM     38  C   UNL A   1      42.224  28.516  28.265  1.00  0.00     0.010 A 
ATOM     39  C   UNL A   1      41.316  28.147  29.270  1.00  0.00    -0.014 A 
BRANCH  39  40
ATOM     40  C   UNL A   1      41.140  29.023  30.457  1.00  0.00     0.031 A 
ATOM     41  C   UNL A   1      41.976  28.813  31.689  1.00  0.00     0.074 A 
ATOM     42  C   UNL A   1      40.165  29.952  30.455  1.00  0.00     0.049 A 
ATOM     43  N   UNL A   1      41.901  29.414  32.848  1.00  0.00    -0.248 NA
ATOM     44  C   UNL A   1      43.013  27.772  31.615  1.00  0.00     0.031 C 
ATOM     45  C   UNL A   1      39.250  30.214  29.340  1.00  0.00     0.029 A 
ATOM     46  N   UNL A   1      39.763  30.834  31.427  1.00  0.00    -0.354 N 
ATOM     47  C   UNL A   1      42.870  28.818  33.647  1.00  0.00     0.074 A 
ATOM     48  C   UNL A   1      43.485  27.776  32.854  1.00  0.00     0.031 C 
ATOM     49  C   UNL A   1      38.397  31.189  29.692  1.00  0.00     0.029 A 
ATOM     50  C   UNL A   1      38.680  31.599  31.065  1.00  0.00     0.049 A 
ATOM     51  H   UNL A   1      40.208  30.911  32.301  1.00  0.00     0.167 HD
ATOM     52  C   UNL A   1      43.228  29.125  34.918  1.00  0.00     0.037 A 
ATOM     53  C   UNL A   1      37.979  32.514  31.762  1.00  0.00     0.037 A 
ATOM     54  C   UNL A   1      42.620  30.172  35.698  1.00  0.00     0.049 A 
ATOM     55  C   UNL A   1      38.391  32.841  33.169  1.00  0.00     0.074 A 
ATOM     56  C   UNL A   1      42.953  30.602  36.971  1.00  0.00     0.029 A 
ATOM     57  N   UNL A   1      41.547  30.949  35.284  1.00  0.00    -0.354 N 
ATOM     58  N   UNL A   1      39.360  32.320  33.885  1.00  0.00    -0.248 NA
ATOM     59  C   UNL A   1      37.624  33.885  33.864  1.00  0.00     0.031 C 
ATOM     60  C   UNL A   1      42.056  31.610  37.342  1.00  0.00     0.029 A 
ATOM     61  C   UNL A   1      41.190  31.839  36.285  1.00  0.00     0.049 A 
ATOM     62  H   UNL A   1      41.103  30.878  34.408  1.00  0.00     0.167 HD
ATOM     63  C   UNL A   1      39.327  32.980  35.108  1.00  0.00     0.074 A 
ATOM     64  C   UNL A   1      38.254  33.950  35.030  1.00  0.00     0.031 C 
ATOM     65  C   UNL A   1      40.115  32.797  36.196  1.00  0.00     0.037 A 
BRANCH  52  66
ATOM     66  C   UNL A   1      44.329  28.310  35.541  1.00  0.00     0.058 A 
ATOM     67  C   UNL A   1      45.675  28.698  35.444  1.00  0.00     0.135 A 
ATOM     68  C   UNL A   1      44.037  27.134  36.250  1.00  0.00     0.135 A 
ATOM     69  F   UNL A   1      46.012  29.807  34.768  1.00  0.00    -0.206 F 
ATOM     70  C   UNL A   1      46.696  27.925  35.988  1.00  0.00     0.059 A 
ATOM     71  C   UNL A   1      45.040  26.361  36.828  1.00  0.00     0.059 A 
ATOM     72  F   UNL A   1      42.767  26.720  36.379  1.00  0.00    -0.206 F 
ATOM     73  C   UNL A   1      46.369  26.754  36.672  1.00  0.00     0.060 A 
BRANCH  73  74
ATOM     74  S   UNL A   1      47.706  25.748  37.349  1.00  0.00     0.124 S 
ATOM     75  O   UNL A   1      48.826  26.682  37.293  1.00  0.00    -0.237 OA
ATOM     76  O   UNL A   1      47.213  25.430  38.686  1.00  0.00    -0.237 OA
ATOM     77  O   UNL A   1      47.783  24.620  36.427  1.00  0.00    -0.744 OA
ENDBRANCH  73  74
ENDBRANCH  52  66
BRANCH  53  78
ATOM     78  C   UNL A   1      36.816  33.186  31.124  1.00  0.00     0.058 A 
ATOM     79  C   UNL A   1      36.998  34.154  30.127  1.00  0.00     0.135 A 
ATOM     80  C   UNL A   1      35.500  32.838  31.468  1.00  0.00     0.135 A 
ATOM     81  F   UNL A   1      38.237  34.525  29.771  1.00  0.00    -0.206 F 
ATOM     82  C   UNL A   1      35.917  34.757  29.492  1.00  0.00     0.059 A 
ATOM     83  C   UNL A   1      34.403  33.409  30.831  1.00  0.00     0.059 A 
ATOM     84  F   UNL A   1      35.274  31.904  32.404  1.00  0.00    -0.206 F 
ATOM     85  C   UNL A   1      34.622  34.372  29.847  1.00  0.00     0.060 A 
BRANCH  85  86
ATOM     86  S   UNL A   1      33.227  35.101  28.960  1.00  0.00     0.124 S 
ATOM     87  O   UNL A   1      32.894  34.040  28.016  1.00  0.00    -0.237 OA
ATOM     88  O   UNL A   1      32.264  35.327  30.033  1.00  0.00    -0.237 OA
ATOM     89  O   UNL A   1      33.798  36.311  28.376  1.00  0.00    -0.744 OA
ENDBRANCH  85  86
ENDBRANCH  53  78
BRANCH  65  90
ATOM     90  C   UNL A   1      39.857  33.671  37.391  1.00  0.00     0.058 A 
ATOM     91  C   UNL A   1      40.563  34.867  37.595  1.00  0.00     0.135 A 
ATOM     92  C   UNL A   1      38.850  33.338  38.312  1.00  0.00     0.135 A 
ATOM     93  F   UNL A   1      41.541  35.225  36.749  1.00  0.00    -0.206 F 
ATOM     94  C   UNL A   1      40.291  35.696  38.679  1.00  0.00     0.059 A 
ATOM     95  C   UNL A   1      38.543  34.165  39.389  1.00  0.00     0.059 A 
ATOM     96  F   UNL A   1      38.140  32.210  38.160  1.00  0.00    -0.206 F 
ATOM     97  C   UNL A   1      39.276  35.338  39.569  1.00  0.00     0.060 A 
BRANCH  97  98
ATOM     98  S   UNL A   1      38.902  36.445  40.945  1.00  0.00     0.124 S 
ATOM     99  O   UNL A   1      38.383  37.616  40.248  1.00  0.00    -0.237 OA
ATOM    100  O   UNL A   1      37.926  35.677  41.709  1.00  0.00    -0.237 OA
ATOM    101  O   UNL A   1      40.197  36.625  41.597  1.00  0.00    -0.744 OA
ENDBRANCH  97  98
ENDBRANCH  65  90
ENDBRANCH  39  40
ENDBRANCH  31  34
ENDBRANCH  29  30
ENDBRANCH  28  29
ENDBRANCH  27  28
ENDBRANCH   1  27
TORSDOF 19
ENDMDL
