MODEL 1
REMARK VINA RESULT:     -13.6      0.000      0.000
REMARK SMILES Cc1cc(C(=O)NCCCCCCNC(=O)c2ccc(-c3c4nc(c(-c5c(F)cc(S(=O)(=O)[O-])cc5F)c5ccc([nH]5)c(-c5c(F)cc(S(=O)(=O)[O-])cc5F)c5nc(c(-c6c(F)cc(S(=O)(=O)[O-])cc6F)c6ccc3[nH]6)C=C5)C=C4)cc2)ccc1NS(=O)(=O)c1c(F)cccc1F
REMARK SMILES IDX 10 1 9 2 8 3 7 4 5 5 6 6 4 8 1 9 2 10 3 11 85 12 84 13 83 14
REMARK SMILES IDX 86 15 87 17 88 18 89 19 90 20 91 21 96 22 92 23 93 24 95 25
REMARK SMILES IDX 97 26 94 27 11 28 12 29 13 30 14 31 15 32 16 34 17 35 18 36
REMARK SMILES IDX 82 37 19 38 81 39 20 40 21 41 22 42 75 43 23 44 80 45 74 46
REMARK SMILES IDX 76 47 24 48 79 49 73 50 72 51 25 53 59 54 38 55 58 56 39 57
REMARK SMILES IDX 42 58 57 59 77 60 40 61 41 62 56 64 78 65 43 66 26 67 27 68
REMARK SMILES IDX 36 69 28 70 29 71 35 72 37 73 30 74 31 75 32 76 33 77 34 78
REMARK SMILES IDX 60 79 61 80 70 81 62 82 63 83 69 84 71 85 64 86 65 87 66 88
REMARK SMILES IDX 67 89 68 90 44 91 45 92 54 93 46 94 47 95 53 96 55 97 48 98
REMARK SMILES IDX 49 99 50 100 51 101 52 102
REMARK H PARENT 7 7 86 16 14 33 76 52 42 63
REMARK Flexibility Score: inf
ROOT
ATOM      1  C   UNL A   1      35.231  22.684  24.985  1.00  0.00     0.002 C 
ENDROOT
BRANCH   1   2
ATOM      2  C   UNL A   1      35.319  21.374  25.777  1.00  0.00     0.021 C 
BRANCH   2   3
ATOM      3  C   UNL A   1      35.361  20.068  24.981  1.00  0.00     0.116 C 
BRANCH   3   4
ATOM      4  N   UNL A   1      34.254  19.163  25.238  1.00  0.00    -0.352 N 
ATOM      5  C   UNL A   1      32.907  19.289  24.970  1.00  0.00     0.251 C 
ATOM      6  O   UNL A   1      32.143  18.379  25.286  1.00  0.00    -0.269 OA
ATOM      7  H   UNL A   1      34.507  18.319  25.679  1.00  0.00     0.163 HD
BRANCH   5   8
ATOM      8  C   UNL A   1      32.336  20.530  24.379  1.00  0.00     0.040 A 
ATOM      9  C   UNL A   1      30.666  23.653  25.748  1.00  0.00     0.046 C 
ATOM     10  C   UNL A   1      31.378  22.738  24.789  1.00  0.00    -0.026 A 
ATOM     11  C   UNL A   1      31.764  21.466  25.249  1.00  0.00     0.019 A 
ATOM     12  C   UNL A   1      31.655  23.085  23.456  1.00  0.00     0.052 A 
ATOM     13  C   UNL A   1      31.971  22.070  22.550  1.00  0.00     0.028 A 
ATOM     14  C   UNL A   1      32.317  20.794  23.012  1.00  0.00     0.016 A 
BRANCH  12  15
ATOM     15  N   UNL A   1      31.717  24.475  23.131  1.00  0.00    -0.279 N 
ATOM     16  H   UNL A   1      30.928  25.016  23.362  1.00  0.00     0.180 HD
BRANCH  15  17
ATOM     17  S   UNL A   1      32.988  25.283  22.400  1.00  0.00     0.267 S 
ATOM     18  O   UNL A   1      34.117  24.374  22.443  1.00  0.00    -0.201 OA
ATOM     19  O   UNL A   1      32.462  25.767  21.141  1.00  0.00    -0.201 OA
BRANCH  17  20
ATOM     20  C   UNL A   1      33.400  26.694  23.353  1.00  0.00     0.158 A 
ATOM     21  C   UNL A   1      33.346  26.575  24.738  1.00  0.00     0.146 A 
ATOM     22  C   UNL A   1      33.653  27.937  22.791  1.00  0.00     0.146 A 
ATOM     23  F   UNL A   1      33.186  25.382  25.325  1.00  0.00    -0.205 F 
ATOM     24  C   UNL A   1      33.462  27.697  25.556  1.00  0.00     0.041 A 
ATOM     25  C   UNL A   1      33.740  29.073  23.600  1.00  0.00     0.041 A 
ATOM     26  F   UNL A   1      33.789  28.096  21.469  1.00  0.00    -0.205 F 
ATOM     27  C   UNL A   1      33.629  28.956  24.986  1.00  0.00     0.006 A 
ENDBRANCH  17  20
ENDBRANCH  15  17
ENDBRANCH  12  15
ENDBRANCH   5   8
ENDBRANCH   3   4
ENDBRANCH   2   3
ENDBRANCH   1   2
BRANCH   1  28
ATOM     28  C   UNL A   1      35.929  23.922  25.567  1.00  0.00     0.002 C 
BRANCH  28  29
ATOM     29  C   UNL A   1      37.187  23.683  26.403  1.00  0.00     0.021 C 
BRANCH  29  30
ATOM     30  C   UNL A   1      38.479  23.597  25.596  1.00  0.00     0.116 C 
BRANCH  30  31
ATOM     31  N   UNL A   1      39.622  23.169  26.388  1.00  0.00    -0.352 N 
ATOM     32  C   UNL A   1      40.538  23.977  27.040  1.00  0.00     0.251 C 
ATOM     33  H   UNL A   1      39.759  22.197  26.469  1.00  0.00     0.163 HD
ATOM     34  O   UNL A   1      41.635  23.583  27.396  1.00  0.00    -0.269 OA
BRANCH  32  35
ATOM     35  C   UNL A   1      40.061  25.321  27.422  1.00  0.00     0.039 A 
ATOM     36  C   UNL A   1      40.511  26.400  26.653  1.00  0.00     0.014 A 
ATOM     37  C   UNL A   1      39.431  25.521  28.646  1.00  0.00     0.014 A 
ATOM     38  C   UNL A   1      40.475  27.684  27.188  1.00  0.00     0.010 A 
ATOM     39  C   UNL A   1      39.466  26.784  29.206  1.00  0.00     0.010 A 
ATOM     40  C   UNL A   1      40.028  27.858  28.497  1.00  0.00    -0.014 A 
BRANCH  40  41
ATOM     41  C   UNL A   1      40.169  29.107  29.243  1.00  0.00     0.031 A 
ATOM     42  C   UNL A   1      39.108  30.139  29.181  1.00  0.00     0.074 A 
ATOM     43  C   UNL A   1      41.223  29.278  30.071  1.00  0.00     0.049 A 
ATOM     44  N   UNL A   1      39.238  31.355  29.594  1.00  0.00    -0.248 NA
ATOM     45  C   UNL A   1      37.796  29.870  28.601  1.00  0.00     0.031 C 
ATOM     46  C   UNL A   1      41.366  30.274  31.128  1.00  0.00     0.029 A 
ATOM     47  N   UNL A   1      42.494  28.707  29.959  1.00  0.00    -0.354 N 
ATOM     48  C   UNL A   1      38.002  31.958  29.552  1.00  0.00     0.074 A 
ATOM     49  C   UNL A   1      37.139  30.993  28.908  1.00  0.00     0.031 C 
ATOM     50  C   UNL A   1      42.669  30.446  31.390  1.00  0.00     0.029 A 
ATOM     51  C   UNL A   1      43.414  29.680  30.406  1.00  0.00     0.049 A 
ATOM     52  H   UNL A   1      42.707  27.803  29.633  1.00  0.00     0.167 HD
ATOM     53  C   UNL A   1      37.820  33.170  30.150  1.00  0.00     0.037 A 
ATOM     54  C   UNL A   1      44.338  30.202  29.545  1.00  0.00     0.037 A 
ATOM     55  C   UNL A   1      39.080  33.726  30.636  1.00  0.00     0.049 A 
ATOM     56  C   UNL A   1      44.176  31.684  29.264  1.00  0.00     0.074 A 
ATOM     57  C   UNL A   1      39.733  33.727  31.858  1.00  0.00     0.029 A 
ATOM     58  N   UNL A   1      40.006  34.160  29.707  1.00  0.00    -0.354 N 
ATOM     59  N   UNL A   1      43.230  32.433  29.761  1.00  0.00    -0.248 NA
ATOM     60  C   UNL A   1      45.034  32.422  28.334  1.00  0.00     0.031 C 
ATOM     61  C   UNL A   1      41.089  34.103  31.635  1.00  0.00     0.029 A 
ATOM     62  C   UNL A   1      41.250  34.338  30.282  1.00  0.00     0.049 A 
ATOM     63  H   UNL A   1      39.806  34.322  28.757  1.00  0.00     0.167 HD
ATOM     64  C   UNL A   1      43.295  33.678  29.196  1.00  0.00     0.074 A 
ATOM     65  C   UNL A   1      44.457  33.635  28.329  1.00  0.00     0.031 C 
ATOM     66  C   UNL A   1      42.377  34.656  29.426  1.00  0.00     0.037 A 
BRANCH  53  67
ATOM     67  C   UNL A   1      36.462  33.748  30.478  1.00  0.00     0.058 A 
ATOM     68  C   UNL A   1      35.579  34.132  29.445  1.00  0.00     0.135 A 
ATOM     69  C   UNL A   1      35.995  34.005  31.781  1.00  0.00     0.135 A 
ATOM     70  F   UNL A   1      35.852  33.875  28.159  1.00  0.00    -0.206 F 
ATOM     71  C   UNL A   1      34.386  34.817  29.683  1.00  0.00     0.059 A 
ATOM     72  C   UNL A   1      34.838  34.746  32.044  1.00  0.00     0.059 A 
ATOM     73  F   UNL A   1      36.627  33.509  32.855  1.00  0.00    -0.206 F 
ATOM     74  C   UNL A   1      34.043  35.158  30.984  1.00  0.00     0.060 A 
BRANCH  74  75
ATOM     75  S   UNL A   1      32.566  36.153  31.260  1.00  0.00     0.124 S 
ATOM     76  O   UNL A   1      32.070  36.354  29.902  1.00  0.00    -0.237 OA
ATOM     77  O   UNL A   1      31.764  35.278  32.106  1.00  0.00    -0.237 OA
ATOM     78  O   UNL A   1      33.083  37.355  31.911  1.00  0.00    -0.744 OA
ENDBRANCH  74  75
ENDBRANCH  53  67
BRANCH  54  79
ATOM     79  C   UNL A   1      44.855  29.188  28.584  1.00  0.00     0.058 A 
ATOM     80  C   UNL A   1      44.309  29.184  27.284  1.00  0.00     0.135 A 
ATOM     81  C   UNL A   1      46.099  28.573  28.768  1.00  0.00     0.135 A 
ATOM     82  F   UNL A   1      43.109  29.745  27.058  1.00  0.00    -0.206 F 
ATOM     83  C   UNL A   1      45.043  28.754  26.185  1.00  0.00     0.059 A 
ATOM     84  C   UNL A   1      46.846  28.117  27.679  1.00  0.00     0.059 A 
ATOM     85  F   UNL A   1      46.665  28.539  29.983  1.00  0.00    -0.206 F 
ATOM     86  C   UNL A   1      46.339  28.287  26.390  1.00  0.00     0.060 A 
BRANCH  86  87
ATOM     87  S   UNL A   1      47.398  28.076  24.940  1.00  0.00     0.124 S 
ATOM     88  O   UNL A   1      47.251  26.653  24.660  1.00  0.00    -0.237 OA
ATOM     89  O   UNL A   1      46.769  28.977  23.974  1.00  0.00    -0.237 OA
ATOM     90  O   UNL A   1      48.710  28.494  25.421  1.00  0.00    -0.744 OA
ENDBRANCH  86  87
ENDBRANCH  54  79
BRANCH  66  91
ATOM     91  C   UNL A   1      42.502  36.017  28.827  1.00  0.00     0.058 A 
ATOM     92  C   UNL A   1      42.056  36.281  27.523  1.00  0.00     0.135 A 
ATOM     93  C   UNL A   1      43.178  37.055  29.495  1.00  0.00     0.135 A 
ATOM     94  F   UNL A   1      41.422  35.332  26.816  1.00  0.00    -0.206 F 
ATOM     95  C   UNL A   1      42.258  37.517  26.914  1.00  0.00     0.059 A 
ATOM     96  C   UNL A   1      43.421  38.286  28.895  1.00  0.00     0.059 A 
ATOM     97  F   UNL A   1      43.605  36.896  30.759  1.00  0.00    -0.206 F 
ATOM     98  C   UNL A   1      42.943  38.513  27.608  1.00  0.00     0.060 A 
BRANCH  98  99
ATOM     99  S   UNL A   1      43.243  40.105  26.814  1.00  0.00     0.124 S 
ATOM    100  O   UNL A   1      44.366  39.820  25.927  1.00  0.00    -0.237 OA
ATOM    101  O   UNL A   1      41.963  40.343  26.153  1.00  0.00    -0.237 OA
ATOM    102  O   UNL A   1      43.548  40.985  27.937  1.00  0.00    -0.744 OA
ENDBRANCH  98  99
ENDBRANCH  66  91
ENDBRANCH  40  41
ENDBRANCH  32  35
ENDBRANCH  30  31
ENDBRANCH  29  30
ENDBRANCH  28  29
ENDBRANCH   1  28
TORSDOF 19
ENDMDL
MODEL 2
REMARK VINA RESULT:     -13.5      1.384      2.064
REMARK SMILES Cc1cc(C(=O)NCCCCCCNC(=O)c2ccc(-c3c4nc(c(-c5c(F)cc(S(=O)(=O)[O-])cc5F)c5ccc([nH]5)c(-c5c(F)cc(S(=O)(=O)[O-])cc5F)c5nc(c(-c6c(F)cc(S(=O)(=O)[O-])cc6F)c6ccc3[nH]6)C=C5)C=C4)cc2)ccc1NS(=O)(=O)c1c(F)cccc1F
REMARK SMILES IDX 10 1 9 2 8 3 7 4 5 5 6 6 4 8 1 9 2 10 3 11 85 12 84 13 83 14
REMARK SMILES IDX 86 15 87 17 88 18 89 19 90 20 91 21 96 22 92 23 93 24 95 25
REMARK SMILES IDX 97 26 94 27 11 28 12 29 13 30 14 31 15 32 16 34 17 35 18 36
REMARK SMILES IDX 82 37 19 38 81 39 20 40 21 41 22 42 75 43 23 44 80 45 74 46
REMARK SMILES IDX 76 47 24 48 79 49 73 50 72 51 25 53 59 54 38 55 58 56 39 57
REMARK SMILES IDX 42 58 57 59 77 60 40 61 41 62 56 64 78 65 43 66 26 67 27 68
REMARK SMILES IDX 36 69 28 70 29 71 35 72 37 73 30 74 31 75 32 76 33 77 34 78
REMARK SMILES IDX 60 79 61 80 70 81 62 82 63 83 69 84 71 85 64 86 65 87 66 88
REMARK SMILES IDX 67 89 68 90 44 91 45 92 54 93 46 94 47 95 53 96 55 97 48 98
REMARK SMILES IDX 49 99 50 100 51 101 52 102
REMARK H PARENT 7 7 86 16 14 33 76 52 42 63
REMARK Flexibility Score: inf
ROOT
ATOM      1  C   UNL A   1      34.961  21.495  25.604  1.00  0.00     0.002 C 
ENDROOT
BRANCH   1   2
ATOM      2  C   UNL A   1      33.937  20.569  24.938  1.00  0.00     0.021 C 
BRANCH   2   3
ATOM      3  C   UNL A   1      32.455  20.911  25.110  1.00  0.00     0.116 C 
BRANCH   3   4
ATOM      4  N   UNL A   1      32.160  21.783  26.233  1.00  0.00    -0.352 N 
ATOM      5  C   UNL A   1      31.724  23.091  26.268  1.00  0.00     0.251 C 
ATOM      6  O   UNL A   1      31.540  23.636  27.355  1.00  0.00    -0.269 OA
ATOM      7  H   UNL A   1      32.294  21.373  27.119  1.00  0.00     0.163 HD
BRANCH   5   8
ATOM      8  C   UNL A   1      31.543  23.892  25.026  1.00  0.00     0.040 A 
ATOM      9  C   UNL A   1      29.143  26.605  23.889  1.00  0.00     0.046 C 
ATOM     10  C   UNL A   1      30.365  25.728  23.930  1.00  0.00    -0.026 A 
ATOM     11  C   UNL A   1      30.484  24.807  24.986  1.00  0.00     0.019 A 
ATOM     12  C   UNL A   1      31.376  25.770  22.956  1.00  0.00     0.052 A 
ATOM     13  C   UNL A   1      32.263  24.695  22.861  1.00  0.00     0.028 A 
ATOM     14  C   UNL A   1      32.350  23.759  23.899  1.00  0.00     0.016 A 
BRANCH  12  15
ATOM     15  N   UNL A   1      31.515  26.972  22.195  1.00  0.00    -0.279 N 
ATOM     16  H   UNL A   1      31.143  26.960  21.284  1.00  0.00     0.180 HD
BRANCH  15  17
ATOM     17  S   UNL A   1      32.242  28.397  22.687  1.00  0.00     0.267 S 
ATOM     18  O   UNL A   1      33.553  28.411  22.069  1.00  0.00    -0.201 OA
ATOM     19  O   UNL A   1      31.272  29.437  22.412  1.00  0.00    -0.201 OA
BRANCH  17  20
ATOM     20  C   UNL A   1      32.467  28.362  24.424  1.00  0.00     0.158 A 
ATOM     21  C   UNL A   1      31.655  29.185  25.196  1.00  0.00     0.146 A 
ATOM     22  C   UNL A   1      33.487  27.651  25.038  1.00  0.00     0.146 A 
ATOM     23  F   UNL A   1      30.608  29.826  24.660  1.00  0.00    -0.205 F 
ATOM     24  C   UNL A   1      31.906  29.364  26.555  1.00  0.00     0.041 A 
ATOM     25  C   UNL A   1      33.767  27.845  26.393  1.00  0.00     0.041 A 
ATOM     26  F   UNL A   1      34.252  26.788  24.358  1.00  0.00    -0.205 F 
ATOM     27  C   UNL A   1      32.984  28.716  27.152  1.00  0.00     0.006 A 
ENDBRANCH  17  20
ENDBRANCH  15  17
ENDBRANCH  12  15
ENDBRANCH   5   8
ENDBRANCH   3   4
ENDBRANCH   2   3
ENDBRANCH   1   2
BRANCH   1  28
ATOM     28  C   UNL A   1      35.889  22.311  24.694  1.00  0.00     0.002 C 
BRANCH  28  29
ATOM     29  C   UNL A   1      37.393  22.192  24.947  1.00  0.00     0.021 C 
BRANCH  29  30
ATOM     30  C   UNL A   1      37.975  23.281  25.841  1.00  0.00     0.116 C 
BRANCH  30  31
ATOM     31  N   UNL A   1      39.272  22.931  26.400  1.00  0.00    -0.352 N 
ATOM     32  C   UNL A   1      40.269  23.800  26.811  1.00  0.00     0.251 C 
ATOM     33  H   UNL A   1      39.463  21.969  26.495  1.00  0.00     0.163 HD
ATOM     34  O   UNL A   1      41.431  23.460  26.951  1.00  0.00    -0.269 OA
BRANCH  32  35
ATOM     35  C   UNL A   1      39.826  25.147  27.220  1.00  0.00     0.039 A 
ATOM     36  C   UNL A   1      40.313  26.232  26.481  1.00  0.00     0.014 A 
ATOM     37  C   UNL A   1      39.190  25.336  28.443  1.00  0.00     0.014 A 
ATOM     38  C   UNL A   1      40.308  27.503  27.047  1.00  0.00     0.010 A 
ATOM     39  C   UNL A   1      39.255  26.584  29.034  1.00  0.00     0.010 A 
ATOM     40  C   UNL A   1      39.852  27.659  28.356  1.00  0.00    -0.014 A 
BRANCH  40  41
ATOM     41  C   UNL A   1      40.021  28.885  29.133  1.00  0.00     0.031 A 
ATOM     42  C   UNL A   1      38.989  29.946  29.088  1.00  0.00     0.074 A 
ATOM     43  C   UNL A   1      41.073  29.007  29.972  1.00  0.00     0.049 A 
ATOM     44  N   UNL A   1      39.149  31.148  29.530  1.00  0.00    -0.248 NA
ATOM     45  C   UNL A   1      37.675  29.727  28.491  1.00  0.00     0.031 C 
ATOM     46  C   UNL A   1      41.233  29.974  31.055  1.00  0.00     0.029 A 
ATOM     47  N   UNL A   1      42.329  28.405  29.857  1.00  0.00    -0.354 N 
ATOM     48  C   UNL A   1      37.930  31.785  29.494  1.00  0.00     0.074 A 
ATOM     49  C   UNL A   1      37.046  30.860  28.820  1.00  0.00     0.031 C 
ATOM     50  C   UNL A   1      42.539  30.104  31.331  1.00  0.00     0.029 A 
ATOM     51  C   UNL A   1      43.271  29.341  30.334  1.00  0.00     0.049 A 
ATOM     52  H   UNL A   1      42.519  27.503  29.511  1.00  0.00     0.167 HD
ATOM     53  C   UNL A   1      37.775  32.988  30.120  1.00  0.00     0.037 A 
ATOM     54  C   UNL A   1      44.216  29.859  29.494  1.00  0.00     0.037 A 
ATOM     55  C   UNL A   1      39.045  33.497  30.629  1.00  0.00     0.049 A 
ATOM     56  C   UNL A   1      44.096  31.350  29.247  1.00  0.00     0.074 A 
ATOM     57  C   UNL A   1      39.688  33.451  31.855  1.00  0.00     0.029 A 
ATOM     58  N   UNL A   1      39.991  33.928  29.717  1.00  0.00    -0.354 N 
ATOM     59  N   UNL A   1      43.166  32.113  29.755  1.00  0.00    -0.248 NA
ATOM     60  C   UNL A   1      44.981  32.087  28.342  1.00  0.00     0.031 C 
ATOM     61  C   UNL A   1      41.055  33.796  31.651  1.00  0.00     0.029 A 
ATOM     62  C   UNL A   1      41.235  34.058  30.306  1.00  0.00     0.049 A 
ATOM     63  H   UNL A   1      39.803  34.118  28.770  1.00  0.00     0.167 HD
ATOM     64  C   UNL A   1      43.270  33.369  29.220  1.00  0.00     0.074 A 
ATOM     65  C   UNL A   1      44.437  33.315  28.362  1.00  0.00     0.031 C 
ATOM     66  C   UNL A   1      42.376  34.366  29.467  1.00  0.00     0.037 A 
BRANCH  53  67
ATOM     67  C   UNL A   1      36.431  33.594  30.450  1.00  0.00     0.058 A 
ATOM     68  C   UNL A   1      35.585  34.064  29.423  1.00  0.00     0.135 A 
ATOM     69  C   UNL A   1      35.943  33.796  31.756  1.00  0.00     0.135 A 
ATOM     70  F   UNL A   1      35.878  33.869  28.130  1.00  0.00    -0.206 F 
ATOM     71  C   UNL A   1      34.411  34.777  29.673  1.00  0.00     0.059 A 
ATOM     72  C   UNL A   1      34.807  34.561  32.035  1.00  0.00     0.059 A 
ATOM     73  F   UNL A   1      36.533  33.220  32.813  1.00  0.00    -0.206 F 
ATOM     74  C   UNL A   1      34.050  35.059  30.983  1.00  0.00     0.060 A 
BRANCH  74  75
ATOM     75  S   UNL A   1      32.602  36.089  31.284  1.00  0.00     0.124 S 
ATOM     76  O   UNL A   1      33.195  37.303  31.836  1.00  0.00    -0.237 OA
ATOM     77  O   UNL A   1      32.034  36.211  29.947  1.00  0.00    -0.237 OA
ATOM     78  O   UNL A   1      31.816  35.301  32.231  1.00  0.00    -0.744 OA
ENDBRANCH  74  75
ENDBRANCH  53  67
BRANCH  54  79
ATOM     79  C   UNL A   1      44.713  28.854  28.513  1.00  0.00     0.058 A 
ATOM     80  C   UNL A   1      44.129  28.852  27.229  1.00  0.00     0.135 A 
ATOM     81  C   UNL A   1      45.967  28.249  28.656  1.00  0.00     0.135 A 
ATOM     82  F   UNL A   1      42.918  29.403  27.042  1.00  0.00    -0.206 F 
ATOM     83  C   UNL A   1      44.834  28.434  26.107  1.00  0.00     0.059 A 
ATOM     84  C   UNL A   1      46.686  27.806  27.544  1.00  0.00     0.059 A 
ATOM     85  F   UNL A   1      46.569  28.214  29.854  1.00  0.00    -0.206 F 
ATOM     86  C   UNL A   1      46.140  27.978  26.271  1.00  0.00     0.060 A 
BRANCH  86  87
ATOM     87  S   UNL A   1      47.158  27.784  24.789  1.00  0.00     0.124 S 
ATOM     88  O   UNL A   1      48.506  27.791  25.343  1.00  0.00    -0.237 OA
ATOM     89  O   UNL A   1      46.696  26.495  24.273  1.00  0.00    -0.237 OA
ATOM     90  O   UNL A   1      46.798  28.944  23.983  1.00  0.00    -0.744 OA
ENDBRANCH  86  87
ENDBRANCH  54  79
BRANCH  66  91
ATOM     91  C   UNL A   1      42.543  35.737  28.902  1.00  0.00     0.058 A 
ATOM     92  C   UNL A   1      43.371  36.683  29.524  1.00  0.00     0.135 A 
ATOM     93  C   UNL A   1      41.786  36.175  27.799  1.00  0.00     0.135 A 
ATOM     94  F   UNL A   1      44.107  36.344  30.595  1.00  0.00    -0.206 F 
ATOM     95  C   UNL A   1      43.458  37.996  29.068  1.00  0.00     0.059 A 
ATOM     96  C   UNL A   1      41.830  37.489  27.347  1.00  0.00     0.059 A 
ATOM     97  F   UNL A   1      40.995  35.323  27.126  1.00  0.00    -0.206 F 
ATOM     98  C   UNL A   1      42.681  38.391  27.980  1.00  0.00     0.060 A 
BRANCH  98  99
ATOM     99  S   UNL A   1      42.757  40.099  27.405  1.00  0.00     0.124 S 
ATOM    100  O   UNL A   1      43.188  40.824  28.597  1.00  0.00    -0.237 OA
ATOM    101  O   UNL A   1      43.746  40.000  26.336  1.00  0.00    -0.237 OA
ATOM    102  O   UNL A   1      41.389  40.368  26.978  1.00  0.00    -0.744 OA
ENDBRANCH  98  99
ENDBRANCH  66  91
ENDBRANCH  40  41
ENDBRANCH  32  35
ENDBRANCH  30  31
ENDBRANCH  29  30
ENDBRANCH  28  29
ENDBRANCH   1  28
TORSDOF 19
ENDMDL
MODEL 3
REMARK VINA RESULT:     -13.5      1.842      2.858
REMARK SMILES Cc1cc(C(=O)NCCCCCCNC(=O)c2ccc(-c3c4nc(c(-c5c(F)cc(S(=O)(=O)[O-])cc5F)c5ccc([nH]5)c(-c5c(F)cc(S(=O)(=O)[O-])cc5F)c5nc(c(-c6c(F)cc(S(=O)(=O)[O-])cc6F)c6ccc3[nH]6)C=C5)C=C4)cc2)ccc1NS(=O)(=O)c1c(F)cccc1F
REMARK SMILES IDX 10 1 9 2 8 3 7 4 5 5 6 6 4 8 1 9 2 10 3 11 85 12 84 13 83 14
REMARK SMILES IDX 86 15 87 17 88 18 89 19 90 20 91 21 96 22 92 23 93 24 95 25
REMARK SMILES IDX 97 26 94 27 11 28 12 29 13 30 14 31 15 32 16 34 17 35 18 36
REMARK SMILES IDX 82 37 19 38 81 39 20 40 21 41 22 42 75 43 23 44 80 45 74 46
REMARK SMILES IDX 76 47 24 48 79 49 73 50 72 51 25 53 59 54 38 55 58 56 39 57
REMARK SMILES IDX 42 58 57 59 77 60 40 61 41 62 56 64 78 65 43 66 26 67 27 68
REMARK SMILES IDX 36 69 28 70 29 71 35 72 37 73 30 74 31 75 32 76 33 77 34 78
REMARK SMILES IDX 60 79 61 80 70 81 62 82 63 83 69 84 71 85 64 86 65 87 66 88
REMARK SMILES IDX 67 89 68 90 44 91 45 92 54 93 46 94 47 95 53 96 55 97 48 98
REMARK SMILES IDX 49 99 50 100 51 101 52 102
REMARK H PARENT 7 7 86 16 14 33 76 52 42 63
REMARK Flexibility Score: inf
ROOT
ATOM      1  C   UNL A   1      35.000  21.412  24.660  1.00  0.00     0.002 C 
ENDROOT
BRANCH   1   2
ATOM      2  C   UNL A   1      33.596  21.445  25.275  1.00  0.00     0.021 C 
BRANCH   2   3
ATOM      3  C   UNL A   1      32.541  22.314  24.587  1.00  0.00     0.116 C 
BRANCH   3   4
ATOM      4  N   UNL A   1      32.813  22.607  23.190  1.00  0.00    -0.352 N 
ATOM      5  C   UNL A   1      33.366  23.721  22.595  1.00  0.00     0.251 C 
ATOM      6  O   UNL A   1      33.499  23.747  21.372  1.00  0.00    -0.269 OA
ATOM      7  H   UNL A   1      32.560  21.891  22.563  1.00  0.00     0.163 HD
BRANCH   5   8
ATOM      8  C   UNL A   1      33.736  24.930  23.381  1.00  0.00     0.040 A 
ATOM      9  C   UNL A   1      33.683  28.675  22.758  1.00  0.00     0.046 C 
ATOM     10  C   UNL A   1      33.738  27.369  23.502  1.00  0.00    -0.026 A 
ATOM     11  C   UNL A   1      33.591  26.180  22.766  1.00  0.00     0.019 A 
ATOM     12  C   UNL A   1      33.950  27.281  24.888  1.00  0.00     0.052 A 
ATOM     13  C   UNL A   1      34.353  26.057  25.430  1.00  0.00     0.028 A 
ATOM     14  C   UNL A   1      34.241  24.882  24.677  1.00  0.00     0.016 A 
BRANCH  12  15
ATOM     15  N   UNL A   1      33.620  28.420  25.684  1.00  0.00    -0.279 N 
ATOM     16  H   UNL A   1      34.376  28.941  26.039  1.00  0.00     0.180 HD
BRANCH  15  17
ATOM     17  S   UNL A   1      32.087  28.966  26.077  1.00  0.00     0.267 S 
ATOM     18  O   UNL A   1      31.906  28.669  27.485  1.00  0.00    -0.201 OA
ATOM     19  O   UNL A   1      32.025  30.326  25.584  1.00  0.00    -0.201 OA
BRANCH  17  20
ATOM     20  C   UNL A   1      30.898  28.045  25.178  1.00  0.00     0.158 A 
ATOM     21  C   UNL A   1      30.701  26.718  25.542  1.00  0.00     0.146 A 
ATOM     22  C   UNL A   1      30.246  28.543  24.060  1.00  0.00     0.146 A 
ATOM     23  F   UNL A   1      31.244  26.217  26.659  1.00  0.00    -0.205 F 
ATOM     24  C   UNL A   1      29.927  25.868  24.754  1.00  0.00     0.041 A 
ATOM     25  C   UNL A   1      29.492  27.694  23.245  1.00  0.00     0.041 A 
ATOM     26  F   UNL A   1      30.340  29.831  23.706  1.00  0.00    -0.205 F 
ATOM     27  C   UNL A   1      29.344  26.349  23.584  1.00  0.00     0.006 A 
ENDBRANCH  17  20
ENDBRANCH  15  17
ENDBRANCH  12  15
ENDBRANCH   5   8
ENDBRANCH   3   4
ENDBRANCH   2   3
ENDBRANCH   1   2
BRANCH   1  28
ATOM     28  C   UNL A   1      36.192  21.721  25.576  1.00  0.00     0.002 C 
BRANCH  28  29
ATOM     29  C   UNL A   1      37.298  22.609  25.003  1.00  0.00     0.021 C 
BRANCH  29  30
ATOM     30  C   UNL A   1      37.875  23.621  25.988  1.00  0.00     0.116 C 
BRANCH  30  31
ATOM     31  N   UNL A   1      39.199  23.259  26.471  1.00  0.00    -0.352 N 
ATOM     32  C   UNL A   1      40.236  24.118  26.791  1.00  0.00     0.251 C 
ATOM     33  H   UNL A   1      39.377  22.297  26.582  1.00  0.00     0.163 HD
ATOM     34  O   UNL A   1      41.398  23.757  26.865  1.00  0.00    -0.269 OA
BRANCH  32  35
ATOM     35  C   UNL A   1      39.848  25.485  27.189  1.00  0.00     0.039 A 
ATOM     36  C   UNL A   1      40.405  26.545  26.463  1.00  0.00     0.014 A 
ATOM     37  C   UNL A   1      39.189  25.705  28.395  1.00  0.00     0.014 A 
ATOM     38  C   UNL A   1      40.445  27.816  27.028  1.00  0.00     0.010 A 
ATOM     39  C   UNL A   1      39.297  26.950  28.987  1.00  0.00     0.010 A 
ATOM     40  C   UNL A   1      39.963  27.994  28.325  1.00  0.00    -0.014 A 
BRANCH  40  41
ATOM     41  C   UNL A   1      40.169  29.212  29.106  1.00  0.00     0.031 A 
ATOM     42  C   UNL A   1      39.101  30.235  29.191  1.00  0.00     0.074 A 
ATOM     43  C   UNL A   1      41.298  29.358  29.834  1.00  0.00     0.049 A 
ATOM     44  N   UNL A   1      39.264  31.434  29.640  1.00  0.00    -0.248 NA
ATOM     45  C   UNL A   1      37.741  29.978  28.729  1.00  0.00     0.031 C 
ATOM     46  C   UNL A   1      41.537  30.311  30.914  1.00  0.00     0.029 A 
ATOM     47  N   UNL A   1      42.555  28.805  29.576  1.00  0.00    -0.354 N 
ATOM     48  C   UNL A   1      38.027  32.026  29.744  1.00  0.00     0.074 A 
ATOM     49  C   UNL A   1      37.110  31.081  29.146  1.00  0.00     0.031 C 
ATOM     50  C   UNL A   1      42.859  30.484  31.055  1.00  0.00     0.029 A 
ATOM     51  C   UNL A   1      43.509  29.767  29.972  1.00  0.00     0.049 A 
ATOM     52  H   UNL A   1      42.740  27.917  29.192  1.00  0.00     0.167 HD
ATOM     53  C   UNL A   1      37.896  33.211  30.408  1.00  0.00     0.037 A 
ATOM     54  C   UNL A   1      44.342  30.334  29.049  1.00  0.00     0.037 A 
ATOM     55  C   UNL A   1      39.194  33.758  30.793  1.00  0.00     0.049 A 
ATOM     56  C   UNL A   1      44.145  31.824  28.849  1.00  0.00     0.074 A 
ATOM     57  C   UNL A   1      39.963  33.714  31.944  1.00  0.00     0.029 A 
ATOM     58  N   UNL A   1      40.024  34.239  29.797  1.00  0.00    -0.354 N 
ATOM     59  N   UNL A   1      43.247  32.542  29.466  1.00  0.00    -0.248 NA
ATOM     60  C   UNL A   1      44.904  32.609  27.872  1.00  0.00     0.031 C 
ATOM     61  C   UNL A   1      41.289  34.113  31.607  1.00  0.00     0.029 A 
ATOM     62  C   UNL A   1      41.317  34.405  30.257  1.00  0.00     0.049 A 
ATOM     63  H   UNL A   1      39.732  34.439  28.879  1.00  0.00     0.167 HD
ATOM     64  C   UNL A   1      43.250  33.811  28.951  1.00  0.00     0.074 A 
ATOM     65  C   UNL A   1      44.322  33.816  27.974  1.00  0.00     0.031 C 
ATOM     66  C   UNL A   1      42.353  34.769  29.310  1.00  0.00     0.037 A 
BRANCH  53  67
ATOM     67  C   UNL A   1      36.574  33.761  30.889  1.00  0.00     0.058 A 
ATOM     68  C   UNL A   1      35.581  34.151  29.965  1.00  0.00     0.135 A 
ATOM     69  C   UNL A   1      36.245  33.986  32.240  1.00  0.00     0.135 A 
ATOM     70  F   UNL A   1      35.719  33.924  28.651  1.00  0.00    -0.206 F 
ATOM     71  C   UNL A   1      34.411  34.814  30.342  1.00  0.00     0.059 A 
ATOM     72  C   UNL A   1      35.112  34.703  32.640  1.00  0.00     0.059 A 
ATOM     73  F   UNL A   1      36.993  33.479  33.230  1.00  0.00    -0.206 F 
ATOM     74  C   UNL A   1      34.204  35.124  31.678  1.00  0.00     0.060 A 
BRANCH  74  75
ATOM     75  S   UNL A   1      32.751  36.091  32.131  1.00  0.00     0.124 S 
ATOM     76  O   UNL A   1      31.775  35.052  32.446  1.00  0.00    -0.237 OA
ATOM     77  O   UNL A   1      33.243  36.865  33.264  1.00  0.00    -0.237 OA
ATOM     78  O   UNL A   1      32.465  36.859  30.921  1.00  0.00    -0.744 OA
ENDBRANCH  74  75
ENDBRANCH  53  67
BRANCH  54  79
ATOM     79  C   UNL A   1      44.768  29.366  28.001  1.00  0.00     0.058 A 
ATOM     80  C   UNL A   1      45.754  28.420  28.348  1.00  0.00     0.135 A 
ATOM     81  C   UNL A   1      43.959  29.083  26.893  1.00  0.00     0.135 A 
ATOM     82  F   UNL A   1      46.568  28.652  29.392  1.00  0.00    -0.206 F 
ATOM     83  C   UNL A   1      45.814  27.171  27.741  1.00  0.00     0.059 A 
ATOM     84  C   UNL A   1      44.016  27.842  26.257  1.00  0.00     0.059 A 
ATOM     85  F   UNL A   1      43.009  29.949  26.509  1.00  0.00    -0.206 F 
ATOM     86  C   UNL A   1      44.892  26.870  26.742  1.00  0.00     0.060 A 
BRANCH  86  87
ATOM     87  S   UNL A   1      44.746  25.144  26.222  1.00  0.00     0.124 S 
ATOM     88  O   UNL A   1      44.436  24.473  27.478  1.00  0.00    -0.237 OA
ATOM     89  O   UNL A   1      43.650  25.212  25.256  1.00  0.00    -0.237 OA
ATOM     90  O   UNL A   1      46.059  24.855  25.657  1.00  0.00    -0.744 OA
ENDBRANCH  86  87
ENDBRANCH  54  79
BRANCH  66  91
ATOM     91  C   UNL A   1      42.411  36.156  28.760  1.00  0.00     0.058 A 
ATOM     92  C   UNL A   1      41.936  36.447  27.472  1.00  0.00     0.135 A 
ATOM     93  C   UNL A   1      43.054  37.196  29.456  1.00  0.00     0.135 A 
ATOM     94  F   UNL A   1      41.332  35.498  26.739  1.00  0.00    -0.206 F 
ATOM     95  C   UNL A   1      42.076  37.713  26.907  1.00  0.00     0.059 A 
ATOM     96  C   UNL A   1      43.235  38.458  28.899  1.00  0.00     0.059 A 
ATOM     97  F   UNL A   1      43.506  37.010  30.707  1.00  0.00    -0.206 F 
ATOM     98  C   UNL A   1      42.730  38.711  27.628  1.00  0.00     0.060 A 
BRANCH  98  99
ATOM     99  S   UNL A   1      42.950  40.342  26.889  1.00  0.00     0.124 S 
ATOM    100  O   UNL A   1      41.592  40.707  26.497  1.00  0.00    -0.237 OA
ATOM    101  O   UNL A   1      43.506  41.094  28.009  1.00  0.00    -0.237 OA
ATOM    102  O   UNL A   1      43.865  40.085  25.783  1.00  0.00    -0.744 OA
ENDBRANCH  98  99
ENDBRANCH  66  91
ENDBRANCH  40  41
ENDBRANCH  32  35
ENDBRANCH  30  31
ENDBRANCH  29  30
ENDBRANCH  28  29
ENDBRANCH   1  28
TORSDOF 19
ENDMDL
