MODEL 1
REMARK VINA RESULT:     -11.5      0.000      0.000
REMARK SMILES COc1ccc(-n2c(SCC(=O)NCCCCCCNC(=O)c3ccc(-c4c5nc(c(-c6c(F)cc(S(=O)(=O)[O-])cc6F)c6ccc([nH]6)c(-c6c(F)cc(S(=O)(=O)[O-])cc6F)c6nc(c(-c7c(F)cc(S(=O)(=O)[O-])cc7F)c7ccc4[nH]7)C=C6)C=C5)cc3)nc3sc4c(c3c2=O)CC[N@H+](C)C4)cc1
REMARK SMILES IDX 16 1 15 2 14 3 13 4 11 5 12 6 10 8 9 9 8 10 7 11 95 12 89 13
REMARK SMILES IDX 94 14 96 15 90 16 93 17 91 18 92 19 97 20 101 21 98 22 99 23
REMARK SMILES IDX 100 24 6 26 3 27 4 28 103 29 5 30 102 31 2 32 1 33 17 34
REMARK SMILES IDX 18 35 19 36 20 37 21 38 22 40 23 41 24 42 88 43 25 44 87 45
REMARK SMILES IDX 26 46 27 47 28 48 81 49 29 50 86 51 80 52 82 53 30 54 85 55
REMARK SMILES IDX 79 56 78 57 31 59 65 60 44 61 64 62 45 63 48 64 63 65 83 66
REMARK SMILES IDX 46 67 47 68 62 70 84 71 49 72 32 73 33 74 42 75 34 76 35 77
REMARK SMILES IDX 41 78 43 79 36 80 37 81 38 82 39 83 40 84 66 85 67 86 76 87
REMARK SMILES IDX 68 88 69 89 75 90 77 91 70 92 71 93 72 94 73 95 74 96 50 97
REMARK SMILES IDX 51 98 60 99 52 100 53 101 59 102 61 103 54 104 55 105 56 106
REMARK SMILES IDX 57 107 58 108
REMARK H PARENT 13 7 99 25 20 39 82 58 48 69
REMARK Flexibility Score: inf
ROOT
ATOM      1  C   UNL A   1      43.865  27.055  37.988  1.00  0.00     0.002 C 
ENDROOT
BRANCH   1   2
ATOM      2  C   UNL A   1      45.024  26.054  37.863  1.00  0.00     0.021 C 
BRANCH   2   3
ATOM      3  C   UNL A   1      45.067  24.950  38.919  1.00  0.00     0.116 C 
BRANCH   3   4
ATOM      4  N   UNL A   1      46.419  24.541  39.234  1.00  0.00    -0.355 N 
ATOM      5  C   UNL A   1      46.984  23.312  39.288  1.00  0.00     0.230 C 
ATOM      6  O   UNL A   1      48.213  23.295  39.140  1.00  0.00    -0.274 OA
ATOM      7  H   UNL A   1      47.032  25.282  39.444  1.00  0.00     0.163 HD
BRANCH   5   8
ATOM      8  C   UNL A   1      46.215  22.008  39.378  1.00  0.00     0.178 C 
BRANCH   8   9
ATOM      9  S   UNL A   1      46.275  20.846  38.036  1.00  0.00    -0.077 SA
BRANCH   9  10
ATOM     10  C   UNL A   1      47.859  20.372  37.454  1.00  0.00     0.177 A 
ATOM     11  N   UNL A   1      48.889  19.785  38.205  1.00  0.00    -0.255 N 
ATOM     12  C   UNL A   1      50.157  19.537  37.643  1.00  0.00     0.267 A 
ATOM     13  N   UNL A   1      48.013  20.758  36.218  1.00  0.00    -0.212 NA
ATOM     14  C   UNL A   1      50.313  19.989  36.281  1.00  0.00     0.081 A 
ATOM     15  O   UNL A   1      51.094  18.998  38.235  1.00  0.00    -0.268 OA
ATOM     16  C   UNL A   1      49.237  20.586  35.676  1.00  0.00     0.132 A 
ATOM     17  C   UNL A   1      51.454  19.927  35.426  1.00  0.00    -0.008 A 
ATOM     18  S   UNL A   1      49.631  21.180  34.122  1.00  0.00    -0.114 S 
ATOM     19  C   UNL A   1      51.234  20.620  34.251  1.00  0.00     0.065 A 
ATOM     20  C   UNL A   1      52.783  19.297  35.710  1.00  0.00     0.099 C 
ATOM     21  C   UNL A   1      52.269  20.843  33.182  1.00  0.00     0.310 C 
ATOM     22  C   UNL A   1      53.681  19.311  34.449  1.00  0.00     0.267 C 
ATOM     23  N   UNL A   1      53.647  20.570  33.671  1.00  0.00    -0.333 N 
ATOM     24  C   UNL A   1      54.175  21.696  34.443  1.00  0.00     0.333 C 
ATOM     25  H   UNL A   1      54.256  20.458  32.860  1.00  0.00     0.348 HD
BRANCH  11  26
ATOM     26  C   UNL A   1      48.758  19.359  39.541  1.00  0.00     0.052 A 
ATOM     27  C   UNL A   1      48.577  18.406  42.160  1.00  0.00     0.119 A 
ATOM     28  C   UNL A   1      49.326  19.551  41.881  1.00  0.00     0.048 A 
ATOM     29  C   UNL A   1      48.015  17.683  41.109  1.00  0.00     0.048 A 
ATOM     30  C   UNL A   1      49.421  20.031  40.572  1.00  0.00     0.030 A 
ATOM     31  C   UNL A   1      48.119  18.149  39.799  1.00  0.00     0.030 A 
BRANCH  27  32
ATOM     32  O   UNL A   1      48.466  18.074  43.483  1.00  0.00    -0.497 OA
ATOM     33  C   UNL A   1      49.104  18.977  44.384  1.00  0.00     0.278 C 
ENDBRANCH  27  32
ENDBRANCH  11  26
ENDBRANCH   9  10
ENDBRANCH   8   9
ENDBRANCH   5   8
ENDBRANCH   3   4
ENDBRANCH   2   3
ENDBRANCH   1   2
BRANCH   1  34
ATOM     34  C   UNL A   1      42.807  27.019  36.879  1.00  0.00     0.002 C 
BRANCH  34  35
ATOM     35  C   UNL A   1      41.597  26.098  37.119  1.00  0.00     0.021 C 
BRANCH  35  36
ATOM     36  C   UNL A   1      41.462  24.897  36.163  1.00  0.00     0.116 C 
BRANCH  36  37
ATOM     37  N   UNL A   1      42.641  24.052  36.244  1.00  0.00    -0.352 N 
ATOM     38  C   UNL A   1      43.602  23.727  35.322  1.00  0.00     0.251 C 
ATOM     39  H   UNL A   1      42.774  23.634  37.125  1.00  0.00     0.163 HD
ATOM     40  O   UNL A   1      44.230  22.684  35.513  1.00  0.00    -0.269 OA
BRANCH  38  41
ATOM     41  C   UNL A   1      43.949  24.566  34.145  1.00  0.00     0.039 A 
ATOM     42  C   UNL A   1      44.072  23.918  32.903  1.00  0.00     0.014 A 
ATOM     43  C   UNL A   1      44.336  25.903  34.245  1.00  0.00     0.014 A 
ATOM     44  C   UNL A   1      44.551  24.596  31.775  1.00  0.00     0.010 A 
ATOM     45  C   UNL A   1      44.822  26.580  33.111  1.00  0.00     0.010 A 
ATOM     46  C   UNL A   1      44.922  25.941  31.860  1.00  0.00    -0.014 A 
BRANCH  46  47
ATOM     47  C   UNL A   1      45.207  26.680  30.597  1.00  0.00     0.031 A 
ATOM     48  C   UNL A   1      45.178  25.821  29.374  1.00  0.00     0.074 A 
ATOM     49  C   UNL A   1      45.056  28.016  30.425  1.00  0.00     0.049 A 
ATOM     50  N   UNL A   1      44.062  25.494  28.791  1.00  0.00    -0.248 NA
ATOM     51  C   UNL A   1      46.330  25.049  28.910  1.00  0.00     0.031 C 
ATOM     52  C   UNL A   1      44.045  28.816  31.124  1.00  0.00     0.029 A 
ATOM     53  N   UNL A   1      45.554  28.878  29.462  1.00  0.00    -0.354 N 
ATOM     54  C   UNL A   1      44.330  24.448  27.930  1.00  0.00     0.074 A 
ATOM     55  C   UNL A   1      45.757  24.216  28.025  1.00  0.00     0.031 C 
ATOM     56  C   UNL A   1      43.875  29.979  30.460  1.00  0.00     0.029 A 
ATOM     57  C   UNL A   1      44.862  30.091  29.380  1.00  0.00     0.049 A 
ATOM     58  H   UNL A   1      46.325  28.657  28.890  1.00  0.00     0.167 HD
ATOM     59  C   UNL A   1      43.355  23.832  27.210  1.00  0.00     0.037 A 
ATOM     60  C   UNL A   1      44.636  30.798  28.232  1.00  0.00     0.037 A 
ATOM     61  C   UNL A   1      42.032  24.361  27.394  1.00  0.00     0.049 A 
ATOM     62  C   UNL A   1      43.726  29.861  27.484  1.00  0.00     0.074 A 
ATOM     63  C   UNL A   1      40.908  24.064  28.134  1.00  0.00     0.029 A 
ATOM     64  N   UNL A   1      41.703  25.515  26.723  1.00  0.00    -0.354 N 
ATOM     65  N   UNL A   1      42.451  29.692  27.704  1.00  0.00    -0.248 NA
ATOM     66  C   UNL A   1      44.355  28.809  26.684  1.00  0.00     0.031 C 
ATOM     67  C   UNL A   1      40.180  25.295  28.230  1.00  0.00     0.029 A 
ATOM     68  C   UNL A   1      40.930  26.268  27.572  1.00  0.00     0.049 A 
ATOM     69  H   UNL A   1      41.972  25.757  25.808  1.00  0.00     0.167 HD
ATOM     70  C   UNL A   1      42.175  28.386  27.301  1.00  0.00     0.074 A 
ATOM     71  C   UNL A   1      43.385  27.907  26.663  1.00  0.00     0.031 C 
ATOM     72  C   UNL A   1      41.049  27.706  27.668  1.00  0.00     0.037 A 
BRANCH  59  73
ATOM     73  C   UNL A   1      43.571  22.801  26.175  1.00  0.00     0.058 A 
ATOM     74  C   UNL A   1      43.165  21.489  26.472  1.00  0.00     0.135 A 
ATOM     75  C   UNL A   1      44.364  23.006  25.040  1.00  0.00     0.135 A 
ATOM     76  F   UNL A   1      42.401  21.254  27.554  1.00  0.00    -0.206 F 
ATOM     77  C   UNL A   1      43.582  20.407  25.715  1.00  0.00     0.059 A 
ATOM     78  C   UNL A   1      44.788  21.932  24.255  1.00  0.00     0.059 A 
ATOM     79  F   UNL A   1      44.781  24.241  24.719  1.00  0.00    -0.206 F 
ATOM     80  C   UNL A   1      44.415  20.636  24.621  1.00  0.00     0.060 A 
BRANCH  80  81
ATOM     81  S   UNL A   1      45.036  19.197  23.721  1.00  0.00     0.124 S 
ATOM     82  O   UNL A   1      46.480  19.376  23.830  1.00  0.00    -0.237 OA
ATOM     83  O   UNL A   1      44.472  18.094  24.494  1.00  0.00    -0.237 OA
ATOM     84  O   UNL A   1      44.481  19.368  22.383  1.00  0.00    -0.744 OA
ENDBRANCH  80  81
ENDBRANCH  59  73
BRANCH  60  85
ATOM     85  C   UNL A   1      45.801  31.479  27.572  1.00  0.00     0.058 A 
ATOM     86  C   UNL A   1      45.620  32.769  27.037  1.00  0.00     0.135 A 
ATOM     87  C   UNL A   1      47.086  30.928  27.409  1.00  0.00     0.135 A 
ATOM     88  F   UNL A   1      44.395  33.320  26.997  1.00  0.00    -0.206 F 
ATOM     89  C   UNL A   1      46.678  33.530  26.540  1.00  0.00     0.059 A 
ATOM     90  C   UNL A   1      48.170  31.678  26.947  1.00  0.00     0.059 A 
ATOM     91  F   UNL A   1      47.335  29.646  27.713  1.00  0.00    -0.206 F 
ATOM     92  C   UNL A   1      47.962  32.994  26.552  1.00  0.00     0.060 A 
BRANCH  92  93
ATOM     93  S   UNL A   1      49.351  34.070  26.140  1.00  0.00     0.124 S 
ATOM     94  O   UNL A   1      48.711  35.098  25.329  1.00  0.00    -0.237 OA
ATOM     95  O   UNL A   1      49.804  34.493  27.462  1.00  0.00    -0.237 OA
ATOM     96  O   UNL A   1      50.267  33.183  25.428  1.00  0.00    -0.744 OA
ENDBRANCH  92  93
ENDBRANCH  60  85
BRANCH  72  97
ATOM     97  C   UNL A   1      40.037  28.505  28.430  1.00  0.00     0.058 A 
ATOM     98  C   UNL A   1      39.106  29.307  27.754  1.00  0.00     0.135 A 
ATOM     99  C   UNL A   1      39.971  28.473  29.834  1.00  0.00     0.135 A 
ATOM    100  F   UNL A   1      39.112  29.372  26.412  1.00  0.00    -0.206 F 
ATOM    101  C   UNL A   1      38.136  30.034  28.440  1.00  0.00     0.059 A 
ATOM    102  C   UNL A   1      38.990  29.169  30.538  1.00  0.00     0.059 A 
ATOM    103  F   UNL A   1      40.848  27.747  30.546  1.00  0.00    -0.206 F 
ATOM    104  C   UNL A   1      38.077  29.948  29.831  1.00  0.00     0.060 A 
BRANCH 104 105
ATOM    105  S   UNL A   1      36.748  30.812  30.697  1.00  0.00     0.124 S 
ATOM    106  O   UNL A   1      36.261  29.786  31.613  1.00  0.00    -0.237 OA
ATOM    107  O   UNL A   1      37.455  31.930  31.316  1.00  0.00    -0.237 OA
ATOM    108  O   UNL A   1      35.827  31.184  29.626  1.00  0.00    -0.744 OA
ENDBRANCH 104 105
ENDBRANCH  72  97
ENDBRANCH  46  47
ENDBRANCH  38  41
ENDBRANCH  36  37
ENDBRANCH  35  36
ENDBRANCH  34  35
ENDBRANCH   1  34
TORSDOF 20
ENDMDL
MODEL 2
REMARK VINA RESULT:     -11.0      5.811     14.762
REMARK SMILES COc1ccc(-n2c(SCC(=O)NCCCCCCNC(=O)c3ccc(-c4c5nc(c(-c6c(F)cc(S(=O)(=O)[O-])cc6F)c6ccc([nH]6)c(-c6c(F)cc(S(=O)(=O)[O-])cc6F)c6nc(c(-c7c(F)cc(S(=O)(=O)[O-])cc7F)c7ccc4[nH]7)C=C6)C=C5)cc3)nc3sc4c(c3c2=O)CC[N@H+](C)C4)cc1
REMARK SMILES IDX 16 1 15 2 14 3 13 4 11 5 12 6 10 8 9 9 8 10 7 11 95 12 89 13
REMARK SMILES IDX 94 14 96 15 90 16 93 17 91 18 92 19 97 20 101 21 98 22 99 23
REMARK SMILES IDX 100 24 6 26 3 27 4 28 103 29 5 30 102 31 2 32 1 33 17 34
REMARK SMILES IDX 18 35 19 36 20 37 21 38 22 40 23 41 24 42 88 43 25 44 87 45
REMARK SMILES IDX 26 46 27 47 28 48 81 49 29 50 86 51 80 52 82 53 30 54 85 55
REMARK SMILES IDX 79 56 78 57 31 59 65 60 44 61 64 62 45 63 48 64 63 65 83 66
REMARK SMILES IDX 46 67 47 68 62 70 84 71 49 72 32 73 33 74 42 75 34 76 35 77
REMARK SMILES IDX 41 78 43 79 36 80 37 81 38 82 39 83 40 84 66 85 67 86 76 87
REMARK SMILES IDX 68 88 69 89 75 90 77 91 70 92 71 93 72 94 73 95 74 96 50 97
REMARK SMILES IDX 51 98 60 99 52 100 53 101 59 102 61 103 54 104 55 105 56 106
REMARK SMILES IDX 57 107 58 108
REMARK H PARENT 13 7 99 25 20 39 82 58 48 69
REMARK Flexibility Score: inf
ROOT
ATOM      1  C   UNL A   1      39.378  19.279  25.706  1.00  0.00     0.002 C 
ENDROOT
BRANCH   1   2
ATOM      2  C   UNL A   1      38.091  19.695  24.976  1.00  0.00     0.021 C 
BRANCH   2   3
ATOM      3  C   UNL A   1      37.605  21.119  25.246  1.00  0.00     0.116 C 
BRANCH   3   4
ATOM      4  N   UNL A   1      36.896  21.682  24.116  1.00  0.00    -0.355 N 
ATOM      5  C   UNL A   1      36.431  22.934  23.896  1.00  0.00     0.230 C 
ATOM      6  O   UNL A   1      36.279  23.232  22.704  1.00  0.00    -0.274 OA
ATOM      7  H   UNL A   1      36.724  21.047  23.384  1.00  0.00     0.163 HD
BRANCH   5   8
ATOM      8  C   UNL A   1      36.228  23.985  24.971  1.00  0.00     0.178 C 
BRANCH   8   9
ATOM      9  S   UNL A   1      34.783  23.933  26.003  1.00  0.00    -0.077 SA
BRANCH   9  10
ATOM     10  C   UNL A   1      33.344  24.737  25.409  1.00  0.00     0.177 A 
ATOM     11  N   UNL A   1      32.336  24.173  24.610  1.00  0.00    -0.255 N 
ATOM     12  C   UNL A   1      31.271  24.953  24.115  1.00  0.00     0.267 A 
ATOM     13  N   UNL A   1      33.383  26.004  25.712  1.00  0.00    -0.212 NA
ATOM     14  C   UNL A   1      31.345  26.356  24.445  1.00  0.00     0.081 A 
ATOM     15  O   UNL A   1      30.340  24.516  23.435  1.00  0.00    -0.268 OA
ATOM     16  C   UNL A   1      32.407  26.783  25.199  1.00  0.00     0.132 A 
ATOM     17  C   UNL A   1      30.466  27.422  24.089  1.00  0.00    -0.008 A 
ATOM     18  S   UNL A   1      32.414  28.482  25.383  1.00  0.00    -0.114 S 
ATOM     19  C   UNL A   1      30.986  28.644  24.470  1.00  0.00     0.065 A 
ATOM     20  C   UNL A   1      29.177  27.338  23.329  1.00  0.00     0.099 C 
ATOM     21  C   UNL A   1      30.364  29.977  24.151  1.00  0.00     0.310 C 
ATOM     22  C   UNL A   1      28.459  28.708  23.307  1.00  0.00     0.267 C 
ATOM     23  N   UNL A   1      29.342  29.874  23.073  1.00  0.00    -0.333 N 
ATOM     24  C   UNL A   1      29.962  29.824  21.749  1.00  0.00     0.333 C 
ATOM     25  H   UNL A   1      28.768  30.716  23.099  1.00  0.00     0.348 HD
BRANCH  11  26
ATOM     26  C   UNL A   1      32.263  22.811  24.263  1.00  0.00     0.052 A 
ATOM     27  C   UNL A   1      32.251  20.113  23.541  1.00  0.00     0.119 A 
ATOM     28  C   UNL A   1      32.138  20.480  24.884  1.00  0.00     0.048 A 
ATOM     29  C   UNL A   1      32.480  21.096  22.580  1.00  0.00     0.048 A 
ATOM     30  C   UNL A   1      32.145  21.828  25.251  1.00  0.00     0.030 A 
ATOM     31  C   UNL A   1      32.503  22.442  22.941  1.00  0.00     0.030 A 
BRANCH  27  32
ATOM     32  O   UNL A   1      32.135  18.775  23.278  1.00  0.00    -0.497 OA
ATOM     33  C   UNL A   1      32.779  17.919  24.219  1.00  0.00     0.278 C 
ENDBRANCH  27  32
ENDBRANCH  11  26
ENDBRANCH   9  10
ENDBRANCH   8   9
ENDBRANCH   5   8
ENDBRANCH   3   4
ENDBRANCH   2   3
ENDBRANCH   1   2
BRANCH   1  34
ATOM     34  C   UNL A   1      40.241  20.410  26.274  1.00  0.00     0.002 C 
BRANCH  34  35
ATOM     35  C   UNL A   1      41.761  20.168  26.291  1.00  0.00     0.021 C 
BRANCH  35  36
ATOM     36  C   UNL A   1      42.643  21.413  26.504  1.00  0.00     0.116 C 
BRANCH  36  37
ATOM     37  N   UNL A   1      43.482  21.642  25.341  1.00  0.00    -0.352 N 
ATOM     38  C   UNL A   1      43.833  22.786  24.673  1.00  0.00     0.251 C 
ATOM     39  H   UNL A   1      43.871  20.821  24.960  1.00  0.00     0.163 HD
ATOM     40  O   UNL A   1      44.193  22.662  23.501  1.00  0.00    -0.269 OA
BRANCH  38  41
ATOM     41  C   UNL A   1      43.840  24.142  25.284  1.00  0.00     0.039 A 
ATOM     42  C   UNL A   1      44.825  24.410  26.251  1.00  0.00     0.014 A 
ATOM     43  C   UNL A   1      42.822  25.076  25.086  1.00  0.00     0.014 A 
ATOM     44  C   UNL A   1      44.810  25.598  26.992  1.00  0.00     0.010 A 
ATOM     45  C   UNL A   1      42.807  26.266  25.837  1.00  0.00     0.010 A 
ATOM     46  C   UNL A   1      43.806  26.550  26.787  1.00  0.00    -0.014 A 
BRANCH  46  47
ATOM     47  C   UNL A   1      43.955  27.888  27.427  1.00  0.00     0.031 A 
ATOM     48  C   UNL A   1      43.785  27.869  28.913  1.00  0.00     0.074 A 
ATOM     49  C   UNL A   1      44.615  28.941  26.888  1.00  0.00     0.049 A 
ATOM     50  N   UNL A   1      44.749  27.514  29.710  1.00  0.00    -0.248 NA
ATOM     51  C   UNL A   1      42.482  27.956  29.571  1.00  0.00     0.031 C 
ATOM     52  C   UNL A   1      45.775  28.803  26.000  1.00  0.00     0.029 A 
ATOM     53  N   UNL A   1      44.582  30.293  27.185  1.00  0.00    -0.354 N 
ATOM     54  C   UNL A   1      44.197  27.272  30.953  1.00  0.00     0.074 A 
ATOM     55  C   UNL A   1      42.787  27.577  30.823  1.00  0.00     0.031 C 
ATOM     56  C   UNL A   1      46.439  29.979  25.967  1.00  0.00     0.029 A 
ATOM     57  C   UNL A   1      45.685  31.003  26.699  1.00  0.00     0.049 A 
ATOM     58  H   UNL A   1      43.849  30.715  27.690  1.00  0.00     0.167 HD
ATOM     59  C   UNL A   1      44.937  26.821  32.000  1.00  0.00     0.037 A 
ATOM     60  C   UNL A   1      46.280  32.065  27.321  1.00  0.00     0.037 A 
ATOM     61  C   UNL A   1      46.335  26.634  31.726  1.00  0.00     0.049 A 
ATOM     62  C   UNL A   1      46.842  31.408  28.552  1.00  0.00     0.074 A 
ATOM     63  C   UNL A   1      47.181  25.597  31.395  1.00  0.00     0.029 A 
ATOM     64  N   UNL A   1      47.143  27.746  31.723  1.00  0.00    -0.354 N 
ATOM     65  N   UNL A   1      47.928  30.689  28.610  1.00  0.00    -0.248 NA
ATOM     66  C   UNL A   1      45.950  31.266  29.704  1.00  0.00     0.031 C 
ATOM     67  C   UNL A   1      48.305  26.213  30.753  1.00  0.00     0.029 A 
ATOM     68  C   UNL A   1      48.050  27.582  30.705  1.00  0.00     0.049 A 
ATOM     69  H   UNL A   1      47.083  28.515  32.334  1.00  0.00     0.167 HD
ATOM     70  C   UNL A   1      47.732  29.803  29.669  1.00  0.00     0.074 A 
ATOM     71  C   UNL A   1      46.504  30.227  30.313  1.00  0.00     0.031 C 
ATOM     72  C   UNL A   1      48.473  28.672  29.853  1.00  0.00     0.037 A 
BRANCH  59  73
ATOM     73  C   UNL A   1      44.458  26.663  33.388  1.00  0.00     0.058 A 
ATOM     74  C   UNL A   1      43.897  25.426  33.743  1.00  0.00     0.135 A 
ATOM     75  C   UNL A   1      44.309  27.735  34.275  1.00  0.00     0.135 A 
ATOM     76  F   UNL A   1      44.021  24.373  32.917  1.00  0.00    -0.206 F 
ATOM     77  C   UNL A   1      43.156  25.266  34.904  1.00  0.00     0.059 A 
ATOM     78  C   UNL A   1      43.576  27.596  35.455  1.00  0.00     0.059 A 
ATOM     79  F   UNL A   1      44.823  28.939  33.976  1.00  0.00    -0.206 F 
ATOM     80  C   UNL A   1      42.980  26.365  35.742  1.00  0.00     0.060 A 
BRANCH  80  81
ATOM     81  S   UNL A   1      41.915  26.158  37.187  1.00  0.00     0.124 S 
ATOM     82  O   UNL A   1      41.406  24.805  36.992  1.00  0.00    -0.237 OA
ATOM     83  O   UNL A   1      42.862  26.329  38.285  1.00  0.00    -0.237 OA
ATOM     84  O   UNL A   1      40.932  27.226  37.040  1.00  0.00    -0.744 OA
ENDBRANCH  80  81
ENDBRANCH  59  73
BRANCH  60  85
ATOM     85  C   UNL A   1      45.533  33.368  27.378  1.00  0.00     0.058 A 
ATOM     86  C   UNL A   1      44.466  33.580  26.484  1.00  0.00     0.135 A 
ATOM     87  C   UNL A   1      45.820  34.438  28.247  1.00  0.00     0.135 A 
ATOM     88  F   UNL A   1      44.213  32.690  25.509  1.00  0.00    -0.206 F 
ATOM     89  C   UNL A   1      43.630  34.693  26.565  1.00  0.00     0.059 A 
ATOM     90  C   UNL A   1      44.980  35.547  28.372  1.00  0.00     0.059 A 
ATOM     91  F   UNL A   1      46.916  34.431  29.018  1.00  0.00    -0.206 F 
ATOM     92  C   UNL A   1      43.863  35.644  27.552  1.00  0.00     0.060 A 
BRANCH  92  93
ATOM     93  S   UNL A   1      42.636  36.945  27.805  1.00  0.00     0.124 S 
ATOM     94  O   UNL A   1      43.302  37.810  28.771  1.00  0.00    -0.237 OA
ATOM     95  O   UNL A   1      42.494  37.487  26.456  1.00  0.00    -0.237 OA
ATOM     96  O   UNL A   1      41.471  36.219  28.305  1.00  0.00    -0.744 OA
ENDBRANCH  92  93
ENDBRANCH  60  85
BRANCH  72  97
ATOM     97  C   UNL A   1      49.626  28.501  28.913  1.00  0.00     0.058 A 
ATOM     98  C   UNL A   1      49.467  27.806  27.706  1.00  0.00     0.135 A 
ATOM     99  C   UNL A   1      50.896  29.036  29.194  1.00  0.00     0.135 A 
ATOM    100  F   UNL A   1      48.275  27.281  27.377  1.00  0.00    -0.206 F 
ATOM    101  C   UNL A   1      50.517  27.662  26.803  1.00  0.00     0.059 A 
ATOM    102  C   UNL A   1      51.952  28.928  28.292  1.00  0.00     0.059 A 
ATOM    103  F   UNL A   1      51.127  29.689  30.344  1.00  0.00    -0.206 F 
ATOM    104  C   UNL A   1      51.753  28.238  27.098  1.00  0.00     0.060 A 
BRANCH 104 105
ATOM    105  S   UNL A   1      53.073  28.133  25.870  1.00  0.00     0.124 S 
ATOM    106  O   UNL A   1      54.091  27.364  26.579  1.00  0.00    -0.237 OA
ATOM    107  O   UNL A   1      52.415  27.443  24.764  1.00  0.00    -0.237 OA
ATOM    108  O   UNL A   1      53.412  29.530  25.610  1.00  0.00    -0.744 OA
ENDBRANCH 104 105
ENDBRANCH  72  97
ENDBRANCH  46  47
ENDBRANCH  38  41
ENDBRANCH  36  37
ENDBRANCH  35  36
ENDBRANCH  34  35
ENDBRANCH   1  34
TORSDOF 20
ENDMDL
MODEL 3
REMARK VINA RESULT:     -11.0      3.203      5.733
REMARK SMILES COc1ccc(-n2c(SCC(=O)NCCCCCCNC(=O)c3ccc(-c4c5nc(c(-c6c(F)cc(S(=O)(=O)[O-])cc6F)c6ccc([nH]6)c(-c6c(F)cc(S(=O)(=O)[O-])cc6F)c6nc(c(-c7c(F)cc(S(=O)(=O)[O-])cc7F)c7ccc4[nH]7)C=C6)C=C5)cc3)nc3sc4c(c3c2=O)CC[N@H+](C)C4)cc1
REMARK SMILES IDX 16 1 15 2 14 3 13 4 11 5 12 6 10 8 9 9 8 10 7 11 95 12 89 13
REMARK SMILES IDX 94 14 96 15 90 16 93 17 91 18 92 19 97 20 101 21 98 22 99 23
REMARK SMILES IDX 100 24 6 26 3 27 4 28 103 29 5 30 102 31 2 32 1 33 17 34
REMARK SMILES IDX 18 35 19 36 20 37 21 38 22 40 23 41 24 42 88 43 25 44 87 45
REMARK SMILES IDX 26 46 27 47 28 48 81 49 29 50 86 51 80 52 82 53 30 54 85 55
REMARK SMILES IDX 79 56 78 57 31 59 65 60 44 61 64 62 45 63 48 64 63 65 83 66
REMARK SMILES IDX 46 67 47 68 62 70 84 71 49 72 32 73 33 74 42 75 34 76 35 77
REMARK SMILES IDX 41 78 43 79 36 80 37 81 38 82 39 83 40 84 66 85 67 86 76 87
REMARK SMILES IDX 68 88 69 89 75 90 77 91 70 92 71 93 72 94 73 95 74 96 50 97
REMARK SMILES IDX 51 98 60 99 52 100 53 101 59 102 61 103 54 104 55 105 56 106
REMARK SMILES IDX 57 107 58 108
REMARK H PARENT 13 7 99 25 20 39 82 58 48 69
REMARK Flexibility Score: inf
ROOT
ATOM      1  C   UNL A   1      46.925  26.719  35.573  1.00  0.00     0.002 C 
ENDROOT
BRANCH   1   2
ATOM      2  C   UNL A   1      47.729  27.952  35.133  1.00  0.00     0.021 C 
BRANCH   2   3
ATOM      3  C   UNL A   1      46.931  29.246  34.975  1.00  0.00     0.116 C 
BRANCH   3   4
ATOM      4  N   UNL A   1      46.825  29.662  33.593  1.00  0.00    -0.355 N 
ATOM      5  C   UNL A   1      47.779  29.875  32.656  1.00  0.00     0.230 C 
ATOM      6  O   UNL A   1      47.390  29.783  31.484  1.00  0.00    -0.274 OA
ATOM      7  H   UNL A   1      45.904  29.815  33.281  1.00  0.00     0.163 HD
BRANCH   5   8
ATOM      8  C   UNL A   1      49.253  30.075  32.950  1.00  0.00     0.178 C 
BRANCH   8   9
ATOM      9  S   UNL A   1      50.432  28.836  32.468  1.00  0.00    -0.077 SA
BRANCH   9  10
ATOM     10  C   UNL A   1      50.233  28.111  30.885  1.00  0.00     0.177 A 
ATOM     11  N   UNL A   1      50.012  26.753  30.605  1.00  0.00    -0.255 N 
ATOM     12  C   UNL A   1      49.964  26.277  29.279  1.00  0.00     0.267 A 
ATOM     13  N   UNL A   1      50.443  29.003  29.957  1.00  0.00    -0.212 NA
ATOM     14  C   UNL A   1      50.219  27.276  28.268  1.00  0.00     0.081 A 
ATOM     15  O   UNL A   1      49.745  25.106  28.962  1.00  0.00    -0.268 OA
ATOM     16  C   UNL A   1      50.462  28.560  28.682  1.00  0.00     0.132 A 
ATOM     17  C   UNL A   1      50.276  27.141  26.849  1.00  0.00    -0.008 A 
ATOM     18  S   UNL A   1      50.875  29.581  27.375  1.00  0.00    -0.114 S 
ATOM     19  C   UNL A   1      50.710  28.310  26.255  1.00  0.00     0.065 A 
ATOM     20  C   UNL A   1      50.007  25.916  26.029  1.00  0.00     0.099 C 
ATOM     21  C   UNL A   1      50.983  28.473  24.784  1.00  0.00     0.310 C 
ATOM     22  C   UNL A   1      50.020  26.249  24.519  1.00  0.00     0.267 C 
ATOM     23  N   UNL A   1      51.102  27.163  24.088  1.00  0.00    -0.333 N 
ATOM     24  C   UNL A   1      52.423  26.567  24.287  1.00  0.00     0.333 C 
ATOM     25  H   UNL A   1      50.999  27.325  23.086  1.00  0.00     0.348 HD
BRANCH  11  26
ATOM     26  C   UNL A   1      49.784  25.765  31.580  1.00  0.00     0.052 A 
ATOM     27  C   UNL A   1      49.413  23.873  33.601  1.00  0.00     0.119 A 
ATOM     28  C   UNL A   1      48.368  24.727  33.240  1.00  0.00     0.048 A 
ATOM     29  C   UNL A   1      50.670  24.047  33.024  1.00  0.00     0.048 A 
ATOM     30  C   UNL A   1      48.549  25.676  32.230  1.00  0.00     0.030 A 
ATOM     31  C   UNL A   1      50.860  25.002  32.027  1.00  0.00     0.030 A 
BRANCH  27  32
ATOM     32  O   UNL A   1      49.106  22.915  34.529  1.00  0.00    -0.497 OA
ATOM     33  C   UNL A   1      49.721  21.647  34.310  1.00  0.00     0.278 C 
ENDBRANCH  27  32
ENDBRANCH  11  26
ENDBRANCH   9  10
ENDBRANCH   8   9
ENDBRANCH   5   8
ENDBRANCH   3   4
ENDBRANCH   2   3
ENDBRANCH   1   2
BRANCH   1  34
ATOM     34  C   UNL A   1      46.032  26.888  36.807  1.00  0.00     0.002 C 
BRANCH  34  35
ATOM     35  C   UNL A   1      45.924  25.672  37.745  1.00  0.00     0.021 C 
BRANCH  35  36
ATOM     36  C   UNL A   1      45.891  24.292  37.062  1.00  0.00     0.116 C 
BRANCH  36  37
ATOM     37  N   UNL A   1      44.519  23.900  36.782  1.00  0.00    -0.352 N 
ATOM     38  C   UNL A   1      43.628  24.302  35.822  1.00  0.00     0.251 C 
ATOM     39  H   UNL A   1      44.164  23.220  37.399  1.00  0.00     0.163 HD
ATOM     40  O   UNL A   1      42.431  24.137  36.066  1.00  0.00    -0.269 OA
BRANCH  38  41
ATOM     41  C   UNL A   1      44.017  24.881  34.510  1.00  0.00     0.039 A 
ATOM     42  C   UNL A   1      43.534  26.165  34.201  1.00  0.00     0.014 A 
ATOM     43  C   UNL A   1      44.667  24.151  33.513  1.00  0.00     0.014 A 
ATOM     44  C   UNL A   1      43.715  26.722  32.929  1.00  0.00     0.010 A 
ATOM     45  C   UNL A   1      44.843  24.712  32.235  1.00  0.00     0.010 A 
ATOM     46  C   UNL A   1      44.383  26.008  31.929  1.00  0.00    -0.014 A 
BRANCH  46  47
ATOM     47  C   UNL A   1      44.752  26.720  30.673  1.00  0.00     0.031 A 
ATOM     48  C   UNL A   1      44.779  25.839  29.465  1.00  0.00     0.074 A 
ATOM     49  C   UNL A   1      44.632  28.055  30.470  1.00  0.00     0.049 A 
ATOM     50  N   UNL A   1      43.695  25.519  28.824  1.00  0.00    -0.248 NA
ATOM     51  C   UNL A   1      45.944  25.042  29.082  1.00  0.00     0.031 C 
ATOM     52  C   UNL A   1      43.595  28.882  31.096  1.00  0.00     0.029 A 
ATOM     53  N   UNL A   1      45.199  28.891  29.523  1.00  0.00    -0.354 N 
ATOM     54  C   UNL A   1      43.995  24.454  27.997  1.00  0.00     0.074 A 
ATOM     55  C   UNL A   1      45.410  24.203  28.179  1.00  0.00     0.031 C 
ATOM     56  C   UNL A   1      43.483  30.036  30.403  1.00  0.00     0.029 A 
ATOM     57  C   UNL A   1      44.533  30.113  29.381  1.00  0.00     0.049 A 
ATOM     58  H   UNL A   1      45.998  28.649  29.000  1.00  0.00     0.167 HD
ATOM     59  C   UNL A   1      43.053  23.840  27.233  1.00  0.00     0.037 A 
ATOM     60  C   UNL A   1      44.384  30.803  28.210  1.00  0.00     0.037 A 
ATOM     61  C   UNL A   1      41.731  24.392  27.331  1.00  0.00     0.049 A 
ATOM     62  C   UNL A   1      43.504  29.867  27.427  1.00  0.00     0.074 A 
ATOM     63  C   UNL A   1      40.561  24.125  28.009  1.00  0.00     0.029 A 
ATOM     64  N   UNL A   1      41.459  25.538  26.623  1.00  0.00    -0.354 N 
ATOM     65  N   UNL A   1      42.216  29.721  27.575  1.00  0.00    -0.248 NA
ATOM     66  C   UNL A   1      44.162  28.792  26.681  1.00  0.00     0.031 C 
ATOM     67  C   UNL A   1      39.848  25.368  28.042  1.00  0.00     0.029 A 
ATOM     68  C   UNL A   1      40.651  26.318  27.412  1.00  0.00     0.049 A 
ATOM     69  H   UNL A   1      41.784  25.760  25.721  1.00  0.00     0.167 HD
ATOM     70  C   UNL A   1      41.942  28.412  27.179  1.00  0.00     0.074 A 
ATOM     71  C   UNL A   1      43.180  27.903  26.619  1.00  0.00     0.031 C 
ATOM     72  C   UNL A   1      40.787  27.756  27.491  1.00  0.00     0.037 A 
BRANCH  59  73
ATOM     73  C   UNL A   1      43.312  22.787  26.229  1.00  0.00     0.058 A 
ATOM     74  C   UNL A   1      42.977  21.468  26.574  1.00  0.00     0.135 A 
ATOM     75  C   UNL A   1      44.082  22.995  25.080  1.00  0.00     0.135 A 
ATOM     76  F   UNL A   1      42.238  21.229  27.671  1.00  0.00    -0.206 F 
ATOM     77  C   UNL A   1      43.442  20.383  25.847  1.00  0.00     0.059 A 
ATOM     78  C   UNL A   1      44.553  21.919  24.325  1.00  0.00     0.059 A 
ATOM     79  F   UNL A   1      44.431  24.239  24.713  1.00  0.00    -0.206 F 
ATOM     80  C   UNL A   1      44.252  20.618  24.737  1.00  0.00     0.060 A 
BRANCH  80  81
ATOM     81  S   UNL A   1      44.937  19.185  23.878  1.00  0.00     0.124 S 
ATOM     82  O   UNL A   1      46.372  19.409  24.019  1.00  0.00    -0.237 OA
ATOM     83  O   UNL A   1      44.387  18.078  24.654  1.00  0.00    -0.237 OA
ATOM     84  O   UNL A   1      44.412  19.317  22.523  1.00  0.00    -0.744 OA
ENDBRANCH  80  81
ENDBRANCH  59  73
BRANCH  60  85
ATOM     85  C   UNL A   1      45.596  31.454  27.607  1.00  0.00     0.058 A 
ATOM     86  C   UNL A   1      45.452  32.706  26.977  1.00  0.00     0.135 A 
ATOM     87  C   UNL A   1      46.894  30.910  27.588  1.00  0.00     0.135 A 
ATOM     88  F   UNL A   1      44.231  33.237  26.799  1.00  0.00    -0.206 F 
ATOM     89  C   UNL A   1      46.544  33.446  26.522  1.00  0.00     0.059 A 
ATOM     90  C   UNL A   1      48.008  31.642  27.171  1.00  0.00     0.059 A 
ATOM     91  F   UNL A   1      47.125  29.654  27.994  1.00  0.00    -0.206 F 
ATOM     92  C   UNL A   1      47.825  32.928  26.677  1.00  0.00     0.060 A 
BRANCH  92  93
ATOM     93  S   UNL A   1      49.237  33.993  26.313  1.00  0.00     0.124 S 
ATOM     94  O   UNL A   1      49.622  34.453  27.642  1.00  0.00    -0.237 OA
ATOM     95  O   UNL A   1      50.157  33.059  25.671  1.00  0.00    -0.237 OA
ATOM     96  O   UNL A   1      48.674  35.011  25.431  1.00  0.00    -0.744 OA
ENDBRANCH  92  93
ENDBRANCH  60  85
BRANCH  72  97
ATOM     97  C   UNL A   1      39.745  28.583  28.179  1.00  0.00     0.058 A 
ATOM     98  C   UNL A   1      38.895  29.419  27.440  1.00  0.00     0.135 A 
ATOM     99  C   UNL A   1      39.571  28.546  29.574  1.00  0.00     0.135 A 
ATOM    100  F   UNL A   1      39.007  29.490  26.104  1.00  0.00    -0.206 F 
ATOM    101  C   UNL A   1      37.900  30.173  28.056  1.00  0.00     0.059 A 
ATOM    102  C   UNL A   1      38.562  29.269  30.206  1.00  0.00     0.059 A 
ATOM    103  F   UNL A   1      40.367  27.788  30.345  1.00  0.00    -0.206 F 
ATOM    104  C   UNL A   1      37.731  30.082  29.438  1.00  0.00     0.060 A 
BRANCH 104 105
ATOM    105  S   UNL A   1      36.368  30.984  30.206  1.00  0.00     0.124 S 
ATOM    106  O   UNL A   1      36.001  30.104  31.310  1.00  0.00    -0.237 OA
ATOM    107  O   UNL A   1      37.002  32.244  30.584  1.00  0.00    -0.237 OA
ATOM    108  O   UNL A   1      35.380  31.090  29.134  1.00  0.00    -0.744 OA
ENDBRANCH 104 105
ENDBRANCH  72  97
ENDBRANCH  46  47
ENDBRANCH  38  41
ENDBRANCH  36  37
ENDBRANCH  35  36
ENDBRANCH  34  35
ENDBRANCH   1  34
TORSDOF 20
ENDMDL
