MODEL 1
REMARK VINA RESULT:     -12.4      0.000      0.000
REMARK SMILES O=C(NCCCCCCNC(=O)c1ccc(-c2c3nc(c(-c4c(F)cc(S(=O)(=O)[O-])cc4F)c4ccc([nH]4)c(-c4c(F)cc(S(=O)(=O)[O-])cc4F)c4nc(c(-c5c(F)cc(S(=O)(=O)[O-])cc5F)c5ccc2[nH]5)C=C4)C=C3)cc1)C1=NN(c2ccc(S(=O)(=O)[O-])cc2)C(=O)/C1=C\Nc1ccccc1
REMARK SMILES IDX 7 1 6 2 5 3 4 4 3 5 1 6 2 7 79 9 80 10 94 11 81 12 92 13
REMARK SMILES IDX 95 14 93 15 82 16 83 17 91 18 84 19 90 20 85 21 86 22 87 23
REMARK SMILES IDX 88 24 89 25 96 26 97 28 98 29 102 30 99 31 101 32 100 33
REMARK SMILES IDX 8 34 9 35 10 36 11 37 12 39 13 40 14 41 78 42 15 43 77 44
REMARK SMILES IDX 16 45 17 46 18 47 71 48 19 49 76 50 70 51 72 52 20 53 75 54
REMARK SMILES IDX 69 55 68 56 21 58 55 59 34 60 54 61 35 62 38 63 53 64 73 65
REMARK SMILES IDX 36 66 37 67 52 69 74 70 39 71 22 72 23 73 32 74 24 75 25 76
REMARK SMILES IDX 31 77 33 78 26 79 27 80 28 81 29 82 30 83 56 84 57 85 66 86
REMARK SMILES IDX 58 87 59 88 65 89 67 90 60 91 61 92 62 93 63 94 64 95 40 96
REMARK SMILES IDX 41 97 50 98 42 99 43 100 49 101 51 102 44 103 45 104 46 105
REMARK SMILES IDX 47 106 48 107
REMARK H PARENT 3 8 96 27 10 38 72 57 38 68
REMARK Flexibility Score: inf
ROOT
ATOM      1  C   UNL A   1      38.878  22.472  26.158  1.00  0.00     0.002 C 
ENDROOT
BRANCH   1   2
ATOM      2  C   UNL A   1      37.929  21.543  25.395  1.00  0.00     0.002 C 
BRANCH   2   3
ATOM      3  C   UNL A   1      36.434  21.713  25.688  1.00  0.00     0.021 C 
BRANCH   3   4
ATOM      4  C   UNL A   1      36.004  23.099  26.159  1.00  0.00     0.116 C 
BRANCH   4   5
ATOM      5  N   UNL A   1      35.083  23.047  27.279  1.00  0.00    -0.351 N 
ATOM      6  O   UNL A   1      33.052  23.011  28.286  1.00  0.00    -0.267 OA
ATOM      7  C   UNL A   1      33.716  23.161  27.269  1.00  0.00     0.272 C 
ATOM      8  H   UNL A   1      35.493  22.912  28.164  1.00  0.00     0.163 HD
BRANCH   7   9
ATOM      9  C   UNL A   1      33.003  23.431  25.981  1.00  0.00     0.163 C 
ATOM     10  N   UNL A   1      32.709  24.632  25.550  1.00  0.00    -0.158 NA
ATOM     11  C   UNL A   1      32.507  22.375  25.097  1.00  0.00     0.091 C 
ATOM     12  N   UNL A   1      31.956  24.432  24.387  1.00  0.00    -0.196 N 
ATOM     13  C   UNL A   1      31.840  23.091  23.997  1.00  0.00     0.282 C 
ATOM     14  C   UNL A   1      32.584  21.049  25.229  1.00  0.00     0.099 C 
ATOM     15  O   UNL A   1      31.314  22.571  23.028  1.00  0.00    -0.267 OA
BRANCH  12  16
ATOM     16  C   UNL A   1      31.214  25.519  23.871  1.00  0.00     0.069 A 
ATOM     17  C   UNL A   1      31.692  26.266  22.785  1.00  0.00     0.030 A 
ATOM     18  C   UNL A   1      30.027  25.930  24.500  1.00  0.00     0.030 A 
ATOM     19  C   UNL A   1      31.003  27.400  22.339  1.00  0.00     0.021 A 
ATOM     20  C   UNL A   1      29.354  27.082  24.086  1.00  0.00     0.021 A 
ATOM     21  C   UNL A   1      29.844  27.808  23.004  1.00  0.00     0.054 A 
BRANCH  21  22
ATOM     22  S   UNL A   1      29.048  29.308  22.508  1.00  0.00     0.124 S 
ATOM     23  O   UNL A   1      29.710  29.800  21.321  1.00  0.00    -0.237 OA
ATOM     24  O   UNL A   1      27.619  29.090  22.545  1.00  0.00    -0.237 OA
ATOM     25  O   UNL A   1      29.357  30.375  23.681  1.00  0.00    -0.744 OA
ENDBRANCH  21  22
ENDBRANCH  12  16
BRANCH  14  26
ATOM     26  N   UNL A   1      32.208  20.105  24.309  1.00  0.00    -0.361 N 
ATOM     27  H   UNL A   1      31.337  20.244  23.873  1.00  0.00     0.166 HD
BRANCH  26  28
ATOM     28  C   UNL A   1      32.923  18.966  23.921  1.00  0.00     0.038 A 
ATOM     29  C   UNL A   1      34.061  18.593  24.647  1.00  0.00     0.026 A 
ATOM     30  C   UNL A   1      32.504  18.148  22.865  1.00  0.00     0.026 A 
ATOM     31  C   UNL A   1      34.775  17.440  24.312  1.00  0.00     0.002 A 
ATOM     32  C   UNL A   1      33.232  17.009  22.512  1.00  0.00     0.002 A 
ATOM     33  C   UNL A   1      34.366  16.654  23.238  1.00  0.00     0.000 A 
ENDBRANCH  26  28
ENDBRANCH  14  26
ENDBRANCH   7   9
ENDBRANCH   4   5
ENDBRANCH   3   4
ENDBRANCH   2   3
ENDBRANCH   1   2
BRANCH   1  34
ATOM     34  C   UNL A   1      40.110  21.809  26.781  1.00  0.00     0.021 C 
BRANCH  34  35
ATOM     35  C   UNL A   1      41.211  22.759  27.246  1.00  0.00     0.116 C 
BRANCH  35  36
ATOM     36  N   UNL A   1      41.929  23.379  26.145  1.00  0.00    -0.352 N 
ATOM     37  C   UNL A   1      42.261  24.700  25.955  1.00  0.00     0.251 C 
ATOM     38  H   UNL A   1      42.221  22.765  25.434  1.00  0.00     0.163 HD
ATOM     39  O   UNL A   1      42.765  25.052  24.892  1.00  0.00    -0.269 OA
BRANCH  37  40
ATOM     40  C   UNL A   1      41.983  25.701  27.010  1.00  0.00     0.039 A 
ATOM     41  C   UNL A   1      40.892  25.496  27.859  1.00  0.00     0.014 A 
ATOM     42  C   UNL A   1      42.781  26.839  27.163  1.00  0.00     0.014 A 
ATOM     43  C   UNL A   1      40.640  26.394  28.901  1.00  0.00     0.010 A 
ATOM     44  C   UNL A   1      42.567  27.700  28.239  1.00  0.00     0.010 A 
ATOM     45  C   UNL A   1      41.497  27.485  29.121  1.00  0.00    -0.014 A 
BRANCH  45  46
ATOM     46  C   UNL A   1      41.294  28.403  30.273  1.00  0.00     0.031 A 
ATOM     47  C   UNL A   1      42.128  28.258  31.517  1.00  0.00     0.074 A 
ATOM     48  C   UNL A   1      40.313  29.327  30.224  1.00  0.00     0.049 A 
ATOM     49  N   UNL A   1      42.040  28.905  32.651  1.00  0.00    -0.248 NA
ATOM     50  C   UNL A   1      43.185  27.234  31.490  1.00  0.00     0.031 C 
ATOM     51  C   UNL A   1      39.403  29.536  29.095  1.00  0.00     0.029 A 
ATOM     52  N   UNL A   1      39.906  30.252  31.153  1.00  0.00    -0.354 N 
ATOM     53  C   UNL A   1      43.019  28.363  33.475  1.00  0.00     0.074 A 
ATOM     54  C   UNL A   1      43.657  27.301  32.727  1.00  0.00     0.031 C 
ATOM     55  C   UNL A   1      38.551  30.531  29.395  1.00  0.00     0.029 A 
ATOM     56  C   UNL A   1      38.830  31.008  30.745  1.00  0.00     0.049 A 
ATOM     57  H   UNL A   1      40.342  30.365  32.028  1.00  0.00     0.167 HD
ATOM     58  C   UNL A   1      43.373  28.733  34.729  1.00  0.00     0.037 A 
ATOM     59  C   UNL A   1      38.139  31.968  31.391  1.00  0.00     0.037 A 
ATOM     60  C   UNL A   1      42.751  29.804  35.463  1.00  0.00     0.049 A 
ATOM     61  C   UNL A   1      38.555  32.368  32.780  1.00  0.00     0.074 A 
ATOM     62  C   UNL A   1      43.062  30.277  36.727  1.00  0.00     0.029 A 
ATOM     63  N   UNL A   1      41.691  30.572  35.000  1.00  0.00    -0.354 N 
ATOM     64  N   UNL A   1      39.515  31.875  33.525  1.00  0.00    -0.248 NA
ATOM     65  C   UNL A   1      37.801  33.458  33.413  1.00  0.00     0.031 C 
ATOM     66  C   UNL A   1      42.173  31.311  37.039  1.00  0.00     0.029 A 
ATOM     67  C   UNL A   1      41.332  31.509  35.955  1.00  0.00     0.049 A 
ATOM     68  H   UNL A   1      41.259  30.466  34.123  1.00  0.00     0.167 HD
ATOM     69  C   UNL A   1      39.495  32.609  34.705  1.00  0.00     0.074 A 
ATOM     70  C   UNL A   1      38.436  33.589  34.570  1.00  0.00     0.031 C 
ATOM     71  C   UNL A   1      40.281  32.483  35.803  1.00  0.00     0.037 A 
BRANCH  58  72
ATOM     72  C   UNL A   1      44.497  27.978  35.384  1.00  0.00     0.058 A 
ATOM     73  C   UNL A   1      44.250  26.854  36.189  1.00  0.00     0.135 A 
ATOM     74  C   UNL A   1      45.833  28.358  35.182  1.00  0.00     0.135 A 
ATOM     75  F   UNL A   1      42.991  26.455  36.427  1.00  0.00    -0.206 F 
ATOM     76  C   UNL A   1      45.287  26.153  36.796  1.00  0.00     0.059 A 
ATOM     77  C   UNL A   1      46.887  27.656  35.758  1.00  0.00     0.059 A 
ATOM     78  F   UNL A   1      46.125  29.425  34.421  1.00  0.00    -0.206 F 
ATOM     79  C   UNL A   1      46.603  26.564  36.577  1.00  0.00     0.060 A 
BRANCH  79  80
ATOM     80  S   UNL A   1      47.937  25.643  37.374  1.00  0.00     0.124 S 
ATOM     81  O   UNL A   1      48.382  24.780  36.285  1.00  0.00    -0.237 OA
ATOM     82  O   UNL A   1      48.862  26.703  37.760  1.00  0.00    -0.237 OA
ATOM     83  O   UNL A   1      47.267  24.965  38.479  1.00  0.00    -0.744 OA
ENDBRANCH  79  80
ENDBRANCH  58  72
BRANCH  59  84
ATOM     84  C   UNL A   1      36.987  32.626  30.721  1.00  0.00     0.058 A 
ATOM     85  C   UNL A   1      37.180  33.690  29.828  1.00  0.00     0.135 A 
ATOM     86  C   UNL A   1      35.671  32.195  30.951  1.00  0.00     0.135 A 
ATOM     87  F   UNL A   1      38.418  34.142  29.582  1.00  0.00    -0.206 F 
ATOM     88  C   UNL A   1      36.108  34.316  29.197  1.00  0.00     0.059 A 
ATOM     89  C   UNL A   1      34.586  32.789  30.314  1.00  0.00     0.059 A 
ATOM     90  F   UNL A   1      35.435  31.168  31.783  1.00  0.00    -0.206 F 
ATOM     91  C   UNL A   1      34.814  33.855  29.447  1.00  0.00     0.060 A 
BRANCH  91  92
ATOM     92  S   UNL A   1      33.433  34.637  28.584  1.00  0.00     0.124 S 
ATOM     93  O   UNL A   1      32.534  34.947  29.690  1.00  0.00    -0.237 OA
ATOM     94  O   UNL A   1      34.076  35.778  27.942  1.00  0.00    -0.237 OA
ATOM     95  O   UNL A   1      32.976  33.592  27.672  1.00  0.00    -0.744 OA
ENDBRANCH  91  92
ENDBRANCH  59  84
BRANCH  71  96
ATOM     96  C   UNL A   1      40.049  33.445  36.934  1.00  0.00     0.058 A 
ATOM     97  C   UNL A   1      39.124  33.174  37.953  1.00  0.00     0.135 A 
ATOM     98  C   UNL A   1      40.798  34.629  37.025  1.00  0.00     0.135 A 
ATOM     99  F   UNL A   1      38.378  32.058  37.909  1.00  0.00    -0.206 F 
ATOM    100  C   UNL A   1      38.934  34.053  39.015  1.00  0.00     0.059 A 
ATOM    101  C   UNL A   1      40.643  35.512  38.089  1.00  0.00     0.059 A 
ATOM    102  F   UNL A   1      41.703  34.932  36.080  1.00  0.00    -0.206 F 
ATOM    103  C   UNL A   1      39.699  35.220  39.074  1.00  0.00     0.060 A 
BRANCH 103 104
ATOM    104  S   UNL A   1      39.470  36.337  40.473  1.00  0.00     0.124 S 
ATOM    105  O   UNL A   1      38.525  35.588  41.295  1.00  0.00    -0.237 OA
ATOM    106  O   UNL A   1      40.823  36.452  41.010  1.00  0.00    -0.237 OA
ATOM    107  O   UNL A   1      38.942  37.550  39.856  1.00  0.00    -0.744 OA
ENDBRANCH 103 104
ENDBRANCH  71  96
ENDBRANCH  45  46
ENDBRANCH  37  40
ENDBRANCH  35  36
ENDBRANCH  34  35
ENDBRANCH   1  34
TORSDOF 20
ENDMDL
MODEL 2
REMARK VINA RESULT:     -12.4      0.781      7.875
REMARK SMILES O=C(NCCCCCCNC(=O)c1ccc(-c2c3nc(c(-c4c(F)cc(S(=O)(=O)[O-])cc4F)c4ccc([nH]4)c(-c4c(F)cc(S(=O)(=O)[O-])cc4F)c4nc(c(-c5c(F)cc(S(=O)(=O)[O-])cc5F)c5ccc2[nH]5)C=C4)C=C3)cc1)C1=NN(c2ccc(S(=O)(=O)[O-])cc2)C(=O)/C1=C\Nc1ccccc1
REMARK SMILES IDX 7 1 6 2 5 3 4 4 3 5 1 6 2 7 79 9 80 10 94 11 81 12 92 13
REMARK SMILES IDX 95 14 93 15 82 16 83 17 91 18 84 19 90 20 85 21 86 22 87 23
REMARK SMILES IDX 88 24 89 25 96 26 97 28 98 29 102 30 99 31 101 32 100 33
REMARK SMILES IDX 8 34 9 35 10 36 11 37 12 39 13 40 14 41 78 42 15 43 77 44
REMARK SMILES IDX 16 45 17 46 18 47 71 48 19 49 76 50 70 51 72 52 20 53 75 54
REMARK SMILES IDX 69 55 68 56 21 58 55 59 34 60 54 61 35 62 38 63 53 64 73 65
REMARK SMILES IDX 36 66 37 67 52 69 74 70 39 71 22 72 23 73 32 74 24 75 25 76
REMARK SMILES IDX 31 77 33 78 26 79 27 80 28 81 29 82 30 83 56 84 57 85 66 86
REMARK SMILES IDX 58 87 59 88 65 89 67 90 60 91 61 92 62 93 63 94 64 95 40 96
REMARK SMILES IDX 41 97 50 98 42 99 43 100 49 101 51 102 44 103 45 104 46 105
REMARK SMILES IDX 47 106 48 107
REMARK H PARENT 3 8 96 27 10 38 72 57 38 68
REMARK Flexibility Score: inf
ROOT
ATOM      1  C   UNL A   1      39.210  22.546  26.507  1.00  0.00     0.002 C 
ENDROOT
BRANCH   1   2
ATOM      2  C   UNL A   1      38.517  21.606  25.516  1.00  0.00     0.002 C 
BRANCH   2   3
ATOM      3  C   UNL A   1      37.003  21.790  25.354  1.00  0.00     0.021 C 
BRANCH   3   4
ATOM      4  C   UNL A   1      36.448  23.139  25.801  1.00  0.00     0.116 C 
BRANCH   4   5
ATOM      5  N   UNL A   1      35.645  23.040  27.006  1.00  0.00    -0.351 N 
ATOM      6  O   UNL A   1      33.726  22.920  28.209  1.00  0.00    -0.267 OA
ATOM      7  C   UNL A   1      34.281  23.108  27.133  1.00  0.00     0.272 C 
ATOM      8  H   UNL A   1      36.146  22.906  27.843  1.00  0.00     0.163 HD
BRANCH   7   9
ATOM      9  C   UNL A   1      33.435  23.371  25.927  1.00  0.00     0.163 C 
ATOM     10  N   UNL A   1      33.134  24.572  25.498  1.00  0.00    -0.158 NA
ATOM     11  C   UNL A   1      32.806  22.313  25.136  1.00  0.00     0.091 C 
ATOM     12  N   UNL A   1      32.247  24.371  24.434  1.00  0.00    -0.196 N 
ATOM     13  C   UNL A   1      32.041  23.026  24.098  1.00  0.00     0.282 C 
ATOM     14  C   UNL A   1      32.853  20.989  25.296  1.00  0.00     0.099 C 
ATOM     15  O   UNL A   1      31.391  22.502  23.211  1.00  0.00    -0.267 OA
BRANCH  12  16
ATOM     16  C   UNL A   1      31.487  25.471  23.976  1.00  0.00     0.069 A 
ATOM     17  C   UNL A   1      31.609  25.929  22.656  1.00  0.00     0.030 A 
ATOM     18  C   UNL A   1      30.665  26.186  24.862  1.00  0.00     0.030 A 
ATOM     19  C   UNL A   1      30.929  27.077  22.232  1.00  0.00     0.021 A 
ATOM     20  C   UNL A   1      30.013  27.354  24.459  1.00  0.00     0.021 A 
ATOM     21  C   UNL A   1      30.146  27.790  23.143  1.00  0.00     0.054 A 
BRANCH  21  22
ATOM     22  S   UNL A   1      29.388  29.304  22.630  1.00  0.00     0.124 S 
ATOM     23  O   UNL A   1      29.442  30.233  23.736  1.00  0.00    -0.237 OA
ATOM     24  O   UNL A   1      29.908  29.646  21.325  1.00  0.00    -0.237 OA
ATOM     25  O   UNL A   1      27.828  28.956  22.401  1.00  0.00    -0.744 OA
ENDBRANCH  21  22
ENDBRANCH  12  16
BRANCH  14  26
ATOM     26  N   UNL A   1      32.342  20.037  24.452  1.00  0.00    -0.361 N 
ATOM     27  H   UNL A   1      31.684  20.348  23.791  1.00  0.00     0.166 HD
BRANCH  26  28
ATOM     28  C   UNL A   1      32.653  18.672  24.426  1.00  0.00     0.038 A 
ATOM     29  C   UNL A   1      33.087  18.093  23.227  1.00  0.00     0.026 A 
ATOM     30  C   UNL A   1      32.606  17.875  25.575  1.00  0.00     0.026 A 
ATOM     31  C   UNL A   1      33.444  16.744  23.173  1.00  0.00     0.002 A 
ATOM     32  C   UNL A   1      32.938  16.519  25.519  1.00  0.00     0.002 A 
ATOM     33  C   UNL A   1      33.360  15.955  24.318  1.00  0.00     0.000 A 
ENDBRANCH  26  28
ENDBRANCH  14  26
ENDBRANCH   7   9
ENDBRANCH   4   5
ENDBRANCH   3   4
ENDBRANCH   2   3
ENDBRANCH   1   2
BRANCH   1  34
ATOM     34  C   UNL A   1      40.576  22.086  27.025  1.00  0.00     0.021 C 
BRANCH  34  35
ATOM     35  C   UNL A   1      41.613  23.188  27.228  1.00  0.00     0.116 C 
BRANCH  35  36
ATOM     36  N   UNL A   1      41.699  24.103  26.102  1.00  0.00    -0.352 N 
ATOM     37  C   UNL A   1      41.584  25.473  26.082  1.00  0.00     0.251 C 
ATOM     38  H   UNL A   1      41.865  23.681  25.229  1.00  0.00     0.163 HD
ATOM     39  O   UNL A   1      41.561  26.064  25.006  1.00  0.00    -0.269 OA
BRANCH  37  40
ATOM     40  C   UNL A   1      41.454  26.233  27.346  1.00  0.00     0.039 A 
ATOM     41  C   UNL A   1      42.403  27.216  27.639  1.00  0.00     0.014 A 
ATOM     42  C   UNL A   1      40.415  25.977  28.246  1.00  0.00     0.014 A 
ATOM     43  C   UNL A   1      42.273  27.988  28.798  1.00  0.00     0.010 A 
ATOM     44  C   UNL A   1      40.250  26.789  29.368  1.00  0.00     0.010 A 
ATOM     45  C   UNL A   1      41.175  27.805  29.654  1.00  0.00    -0.014 A 
BRANCH  45  46
ATOM     46  C   UNL A   1      40.976  28.671  30.846  1.00  0.00     0.031 A 
ATOM     47  C   UNL A   1      39.909  29.732  30.844  1.00  0.00     0.074 A 
ATOM     48  C   UNL A   1      41.798  28.545  31.907  1.00  0.00     0.049 A 
ATOM     49  N   UNL A   1      39.641  30.637  31.751  1.00  0.00    -0.248 NA
ATOM     50  C   UNL A   1      39.045  29.800  29.654  1.00  0.00     0.031 C 
ATOM     51  C   UNL A   1      42.902  27.588  32.013  1.00  0.00     0.029 A 
ATOM     52  N   UNL A   1      41.845  29.237  33.092  1.00  0.00    -0.354 N 
ATOM     53  C   UNL A   1      38.588  31.386  31.241  1.00  0.00     0.074 A 
ATOM     54  C   UNL A   1      38.297  30.861  29.923  1.00  0.00     0.031 C 
ATOM     55  C   UNL A   1      43.511  27.749  33.200  1.00  0.00     0.029 A 
ATOM     56  C   UNL A   1      42.865  28.838  33.925  1.00  0.00     0.049 A 
ATOM     57  H   UNL A   1      41.208  29.951  33.324  1.00  0.00     0.167 HD
ATOM     58  C   UNL A   1      37.907  32.401  31.825  1.00  0.00     0.037 A 
ATOM     59  C   UNL A   1      43.244  29.304  35.131  1.00  0.00     0.037 A 
ATOM     60  C   UNL A   1      38.184  32.907  33.145  1.00  0.00     0.049 A 
ATOM     61  C   UNL A   1      42.469  30.426  35.765  1.00  0.00     0.074 A 
ATOM     62  C   UNL A   1      37.528  33.910  33.838  1.00  0.00     0.029 A 
ATOM     63  N   UNL A   1      39.199  32.450  33.973  1.00  0.00    -0.354 N 
ATOM     64  N   UNL A   1      41.445  31.092  35.286  1.00  0.00    -0.248 NA
ATOM     65  C   UNL A   1      42.893  30.856  37.104  1.00  0.00     0.031 C 
ATOM     66  C   UNL A   1      38.163  34.077  35.074  1.00  0.00     0.029 A 
ATOM     67  C   UNL A   1      39.192  33.153  35.166  1.00  0.00     0.049 A 
ATOM     68  H   UNL A   1      39.831  31.731  33.746  1.00  0.00     0.167 HD
ATOM     69  C   UNL A   1      41.089  32.003  36.274  1.00  0.00     0.074 A 
ATOM     70  C   UNL A   1      41.998  31.794  37.382  1.00  0.00     0.031 C 
ATOM     71  C   UNL A   1      40.099  32.929  36.263  1.00  0.00     0.037 A 
BRANCH  58  72
ATOM     72  C   UNL A   1      36.784  33.024  31.044  1.00  0.00     0.058 A 
ATOM     73  C   UNL A   1      35.440  32.789  31.380  1.00  0.00     0.135 A 
ATOM     74  C   UNL A   1      37.048  33.889  29.970  1.00  0.00     0.135 A 
ATOM     75  F   UNL A   1      35.131  31.959  32.389  1.00  0.00    -0.206 F 
ATOM     76  C   UNL A   1      34.400  33.364  30.659  1.00  0.00     0.059 A 
ATOM     77  C   UNL A   1      36.022  34.496  29.251  1.00  0.00     0.059 A 
ATOM     78  F   UNL A   1      38.314  34.148  29.606  1.00  0.00    -0.206 F 
ATOM     79  C   UNL A   1      34.700  34.214  29.594  1.00  0.00     0.060 A 
BRANCH  79  80
ATOM     80  S   UNL A   1      33.336  34.951  28.668  1.00  0.00     0.124 S 
ATOM     81  O   UNL A   1      32.366  35.198  29.730  1.00  0.00    -0.237 OA
ATOM     82  O   UNL A   1      33.956  36.139  28.089  1.00  0.00    -0.237 OA
ATOM     83  O   UNL A   1      32.972  33.908  27.714  1.00  0.00    -0.744 OA
ENDBRANCH  79  80
ENDBRANCH  58  72
BRANCH  59  84
ATOM     84  C   UNL A   1      44.412  28.699  35.823  1.00  0.00     0.058 A 
ATOM     85  C   UNL A   1      45.708  29.196  35.626  1.00  0.00     0.135 A 
ATOM     86  C   UNL A   1      44.253  27.620  36.707  1.00  0.00     0.135 A 
ATOM     87  F   UNL A   1      45.911  30.222  34.786  1.00  0.00    -0.206 F 
ATOM     88  C   UNL A   1      46.809  28.637  36.267  1.00  0.00     0.059 A 
ATOM     89  C   UNL A   1      45.335  27.060  37.378  1.00  0.00     0.059 A 
ATOM     90  F   UNL A   1      43.029  27.120  36.944  1.00  0.00    -0.206 F 
ATOM     91  C   UNL A   1      46.610  27.568  37.144  1.00  0.00     0.060 A 
BRANCH  91  92
ATOM     92  S   UNL A   1      48.037  26.881  38.013  1.00  0.00     0.124 S 
ATOM     93  O   UNL A   1      48.576  28.064  38.673  1.00  0.00    -0.237 OA
ATOM     94  O   UNL A   1      47.419  25.886  38.883  1.00  0.00    -0.237 OA
ATOM     95  O   UNL A   1      48.853  26.333  36.932  1.00  0.00    -0.744 OA
ENDBRANCH  91  92
ENDBRANCH  59  84
BRANCH  71  96
ATOM     96  C   UNL A   1      39.925  33.769  37.497  1.00  0.00     0.058 A 
ATOM     97  C   UNL A   1      40.602  34.988  37.660  1.00  0.00     0.135 A 
ATOM     98  C   UNL A   1      39.032  33.374  38.506  1.00  0.00     0.135 A 
ATOM     99  F   UNL A   1      41.472  35.407  36.728  1.00  0.00    -0.206 F 
ATOM    100  C   UNL A   1      40.415  35.777  38.791  1.00  0.00     0.059 A 
ATOM    101  C   UNL A   1      38.811  34.158  39.634  1.00  0.00     0.059 A 
ATOM    102  F   UNL A   1      38.353  32.221  38.395  1.00  0.00    -0.206 F 
ATOM    103  C   UNL A   1      39.517  35.353  39.772  1.00  0.00     0.060 A 
BRANCH 103 104
ATOM    104  S   UNL A   1      39.256  36.402  41.218  1.00  0.00     0.124 S 
ATOM    105  O   UNL A   1      38.849  37.659  40.601  1.00  0.00    -0.237 OA
ATOM    106  O   UNL A   1      38.210  35.685  41.943  1.00  0.00    -0.237 OA
ATOM    107  O   UNL A   1      40.563  36.414  41.869  1.00  0.00    -0.744 OA
ENDBRANCH 103 104
ENDBRANCH  71  96
ENDBRANCH  45  46
ENDBRANCH  37  40
ENDBRANCH  35  36
ENDBRANCH  34  35
ENDBRANCH   1  34
TORSDOF 20
ENDMDL
MODEL 3
REMARK VINA RESULT:     -12.1      5.664      7.698
REMARK SMILES O=C(NCCCCCCNC(=O)c1ccc(-c2c3nc(c(-c4c(F)cc(S(=O)(=O)[O-])cc4F)c4ccc([nH]4)c(-c4c(F)cc(S(=O)(=O)[O-])cc4F)c4nc(c(-c5c(F)cc(S(=O)(=O)[O-])cc5F)c5ccc2[nH]5)C=C4)C=C3)cc1)C1=NN(c2ccc(S(=O)(=O)[O-])cc2)C(=O)/C1=C\Nc1ccccc1
REMARK SMILES IDX 7 1 6 2 5 3 4 4 3 5 1 6 2 7 79 9 80 10 94 11 81 12 92 13
REMARK SMILES IDX 95 14 93 15 82 16 83 17 91 18 84 19 90 20 85 21 86 22 87 23
REMARK SMILES IDX 88 24 89 25 96 26 97 28 98 29 102 30 99 31 101 32 100 33
REMARK SMILES IDX 8 34 9 35 10 36 11 37 12 39 13 40 14 41 78 42 15 43 77 44
REMARK SMILES IDX 16 45 17 46 18 47 71 48 19 49 76 50 70 51 72 52 20 53 75 54
REMARK SMILES IDX 69 55 68 56 21 58 55 59 34 60 54 61 35 62 38 63 53 64 73 65
REMARK SMILES IDX 36 66 37 67 52 69 74 70 39 71 22 72 23 73 32 74 24 75 25 76
REMARK SMILES IDX 31 77 33 78 26 79 27 80 28 81 29 82 30 83 56 84 57 85 66 86
REMARK SMILES IDX 58 87 59 88 65 89 67 90 60 91 61 92 62 93 63 94 64 95 40 96
REMARK SMILES IDX 41 97 50 98 42 99 43 100 49 101 51 102 44 103 45 104 46 105
REMARK SMILES IDX 47 106 48 107
REMARK H PARENT 3 8 96 27 10 38 72 57 38 68
REMARK Flexibility Score: inf
ROOT
ATOM      1  C   UNL A   1      38.618  21.469  25.761  1.00  0.00     0.002 C 
ENDROOT
BRANCH   1   2
ATOM      2  C   UNL A   1      37.373  21.451  24.871  1.00  0.00     0.002 C 
BRANCH   2   3
ATOM      3  C   UNL A   1      36.033  21.695  25.575  1.00  0.00     0.021 C 
BRANCH   3   4
ATOM      4  C   UNL A   1      35.910  23.018  26.325  1.00  0.00     0.116 C 
BRANCH   4   5
ATOM      5  N   UNL A   1      34.948  22.958  27.410  1.00  0.00    -0.351 N 
ATOM      6  O   UNL A   1      32.881  22.912  28.341  1.00  0.00    -0.267 OA
ATOM      7  C   UNL A   1      33.583  23.070  27.350  1.00  0.00     0.272 C 
ATOM      8  H   UNL A   1      35.326  22.817  28.309  1.00  0.00     0.163 HD
BRANCH   7   9
ATOM      9  C   UNL A   1      32.917  23.348  26.039  1.00  0.00     0.163 C 
ATOM     10  N   UNL A   1      32.648  24.553  25.600  1.00  0.00    -0.158 NA
ATOM     11  C   UNL A   1      32.444  22.298  25.136  1.00  0.00     0.091 C 
ATOM     12  N   UNL A   1      31.935  24.362  24.411  1.00  0.00    -0.196 N 
ATOM     13  C   UNL A   1      31.821  23.022  24.014  1.00  0.00     0.282 C 
ATOM     14  C   UNL A   1      32.505  20.972  25.268  1.00  0.00     0.099 C 
ATOM     15  O   UNL A   1      31.325  22.508  23.027  1.00  0.00    -0.267 OA
BRANCH  12  16
ATOM     16  C   UNL A   1      31.220  25.456  23.873  1.00  0.00     0.069 A 
ATOM     17  C   UNL A   1      31.809  26.302  22.923  1.00  0.00     0.030 A 
ATOM     18  C   UNL A   1      29.937  25.770  24.351  1.00  0.00     0.030 A 
ATOM     19  C   UNL A   1      31.135  27.440  22.463  1.00  0.00     0.021 A 
ATOM     20  C   UNL A   1      29.273  26.924  23.927  1.00  0.00     0.021 A 
ATOM     21  C   UNL A   1      29.875  27.750  22.981  1.00  0.00     0.054 A 
BRANCH  21  22
ATOM     22  S   UNL A   1      29.083  29.252  22.484  1.00  0.00     0.124 S 
ATOM     23  O   UNL A   1      29.702  29.704  21.259  1.00  0.00    -0.237 OA
ATOM     24  O   UNL A   1      27.654  29.060  22.587  1.00  0.00    -0.237 OA
ATOM     25  O   UNL A   1      29.460  30.340  23.616  1.00  0.00    -0.744 OA
ENDBRANCH  21  22
ENDBRANCH  12  16
BRANCH  14  26
ATOM     26  N   UNL A   1      32.153  20.033  24.333  1.00  0.00    -0.361 N 
ATOM     27  H   UNL A   1      31.517  20.323  23.641  1.00  0.00     0.166 HD
BRANCH  26  28
ATOM     28  C   UNL A   1      32.598  18.707  24.253  1.00  0.00     0.038 A 
ATOM     29  C   UNL A   1      33.176  18.252  23.062  1.00  0.00     0.026 A 
ATOM     30  C   UNL A   1      32.543  17.835  25.346  1.00  0.00     0.026 A 
ATOM     31  C   UNL A   1      33.667  16.948  22.959  1.00  0.00     0.002 A 
ATOM     32  C   UNL A   1      33.009  16.523  25.239  1.00  0.00     0.002 A 
ATOM     33  C   UNL A   1      33.575  16.082  24.045  1.00  0.00     0.000 A 
ENDBRANCH  26  28
ENDBRANCH  14  26
ENDBRANCH   7   9
ENDBRANCH   4   5
ENDBRANCH   3   4
ENDBRANCH   2   3
ENDBRANCH   1   2
BRANCH   1  34
ATOM     34  C   UNL A   1      39.733  20.492  25.376  1.00  0.00     0.021 C 
BRANCH  34  35
ATOM     35  C   UNL A   1      40.163  19.513  26.466  1.00  0.00     0.116 C 
BRANCH  35  36
ATOM     36  N   UNL A   1      41.388  18.804  26.141  1.00  0.00    -0.352 N 
ATOM     37  C   UNL A   1      42.652  19.301  25.922  1.00  0.00     0.251 C 
ATOM     38  H   UNL A   1      41.302  17.826  26.069  1.00  0.00     0.163 HD
ATOM     39  O   UNL A   1      43.541  18.549  25.534  1.00  0.00    -0.269 OA
BRANCH  37  40
ATOM     40  C   UNL A   1      42.934  20.741  26.121  1.00  0.00     0.039 A 
ATOM     41  C   UNL A   1      42.969  21.245  27.424  1.00  0.00     0.014 A 
ATOM     42  C   UNL A   1      43.154  21.596  25.037  1.00  0.00     0.014 A 
ATOM     43  C   UNL A   1      43.290  22.588  27.644  1.00  0.00     0.010 A 
ATOM     44  C   UNL A   1      43.535  22.918  25.260  1.00  0.00     0.010 A 
ATOM     45  C   UNL A   1      43.611  23.428  26.565  1.00  0.00    -0.014 A 
BRANCH  45  46
ATOM     46  C   UNL A   1      44.034  24.836  26.785  1.00  0.00     0.031 A 
ATOM     47  C   UNL A   1      45.478  25.228  26.626  1.00  0.00     0.074 A 
ATOM     48  C   UNL A   1      43.130  25.749  27.192  1.00  0.00     0.049 A 
ATOM     49  N   UNL A   1      46.052  26.382  26.858  1.00  0.00    -0.248 NA
ATOM     50  C   UNL A   1      46.404  24.179  26.169  1.00  0.00     0.031 C 
ATOM     51  C   UNL A   1      41.709  25.484  27.431  1.00  0.00     0.029 A 
ATOM     52  N   UNL A   1      43.273  27.080  27.494  1.00  0.00    -0.354 N 
ATOM     53  C   UNL A   1      47.402  26.197  26.585  1.00  0.00     0.074 A 
ATOM     54  C   UNL A   1      47.570  24.806  26.218  1.00  0.00     0.031 C 
ATOM     55  C   UNL A   1      41.112  26.618  27.834  1.00  0.00     0.029 A 
ATOM     56  C   UNL A   1      42.109  27.680  27.914  1.00  0.00     0.049 A 
ATOM     57  H   UNL A   1      44.129  27.561  27.417  1.00  0.00     0.167 HD
ATOM     58  C   UNL A   1      48.406  27.106  26.612  1.00  0.00     0.037 A 
ATOM     59  C   UNL A   1      41.872  28.940  28.329  1.00  0.00     0.037 A 
ATOM     60  C   UNL A   1      48.232  28.493  26.957  1.00  0.00     0.049 A 
ATOM     61  C   UNL A   1      43.000  29.936  28.343  1.00  0.00     0.074 A 
ATOM     62  C   UNL A   1      49.182  29.501  26.980  1.00  0.00     0.029 A 
ATOM     63  N   UNL A   1      47.029  29.071  27.338  1.00  0.00    -0.354 N 
ATOM     64  N   UNL A   1      44.262  29.753  28.037  1.00  0.00    -0.248 NA
ATOM     65  C   UNL A   1      42.673  31.308  28.751  1.00  0.00     0.031 C 
ATOM     66  C   UNL A   1      48.559  30.681  27.401  1.00  0.00     0.029 A 
ATOM     67  C   UNL A   1      47.213  30.418  27.604  1.00  0.00     0.049 A 
ATOM     68  H   UNL A   1      46.172  28.594  27.408  1.00  0.00     0.167 HD
ATOM     69  C   UNL A   1      44.874  30.991  28.193  1.00  0.00     0.074 A 
ATOM     70  C   UNL A   1      43.841  31.918  28.608  1.00  0.00     0.031 C 
ATOM     71  C   UNL A   1      46.174  31.330  28.010  1.00  0.00     0.037 A 
BRANCH  58  72
ATOM     72  C   UNL A   1      49.784  26.629  26.245  1.00  0.00     0.058 A 
ATOM     73  C   UNL A   1      50.312  26.839  24.960  1.00  0.00     0.135 A 
ATOM     74  C   UNL A   1      50.598  25.986  27.190  1.00  0.00     0.135 A 
ATOM     75  F   UNL A   1      49.571  27.435  24.013  1.00  0.00    -0.206 F 
ATOM     76  C   UNL A   1      51.586  26.399  24.618  1.00  0.00     0.059 A 
ATOM     77  C   UNL A   1      51.886  25.562  26.877  1.00  0.00     0.059 A 
ATOM     78  F   UNL A   1      50.143  25.761  28.433  1.00  0.00    -0.206 F 
ATOM     79  C   UNL A   1      52.365  25.759  25.582  1.00  0.00     0.060 A 
BRANCH  79  80
ATOM     80  S   UNL A   1      54.017  25.194  25.120  1.00  0.00     0.124 S 
ATOM     81  O   UNL A   1      54.227  25.910  23.866  1.00  0.00    -0.237 OA
ATOM     82  O   UNL A   1      54.828  25.640  26.248  1.00  0.00    -0.237 OA
ATOM     83  O   UNL A   1      53.858  23.748  24.998  1.00  0.00    -0.744 OA
ENDBRANCH  79  80
ENDBRANCH  58  72
BRANCH  59  84
ATOM     84  C   UNL A   1      40.504  29.334  28.754  1.00  0.00     0.058 A 
ATOM     85  C   UNL A   1      40.198  29.547  30.106  1.00  0.00     0.135 A 
ATOM     86  C   UNL A   1      39.477  29.520  27.815  1.00  0.00     0.135 A 
ATOM     87  F   UNL A   1      41.144  29.375  31.041  1.00  0.00    -0.206 F 
ATOM     88  C   UNL A   1      38.920  29.914  30.517  1.00  0.00     0.059 A 
ATOM     89  C   UNL A   1      38.198  29.910  28.198  1.00  0.00     0.059 A 
ATOM     90  F   UNL A   1      39.723  29.347  26.506  1.00  0.00    -0.206 F 
ATOM     91  C   UNL A   1      37.926  30.094  29.552  1.00  0.00     0.060 A 
BRANCH  91  92
ATOM     92  S   UNL A   1      36.284  30.622  30.087  1.00  0.00     0.124 S 
ATOM     93  O   UNL A   1      35.448  30.130  28.998  1.00  0.00    -0.237 OA
ATOM     94  O   UNL A   1      36.139  29.934  31.366  1.00  0.00    -0.237 OA
ATOM     95  O   UNL A   1      36.414  32.074  30.178  1.00  0.00    -0.744 OA
ENDBRANCH  91  92
ENDBRANCH  59  84
BRANCH  71  96
ATOM     96  C   UNL A   1      46.551  32.768  28.228  1.00  0.00     0.058 A 
ATOM     97  C   UNL A   1      47.055  33.220  29.457  1.00  0.00     0.135 A 
ATOM     98  C   UNL A   1      46.454  33.695  27.178  1.00  0.00     0.135 A 
ATOM     99  F   UNL A   1      47.161  32.374  30.495  1.00  0.00    -0.206 F 
ATOM    100  C   UNL A   1      47.431  34.546  29.645  1.00  0.00     0.059 A 
ATOM    101  C   UNL A   1      46.846  35.021  27.335  1.00  0.00     0.059 A 
ATOM    102  F   UNL A   1      45.986  33.313  25.978  1.00  0.00    -0.206 F 
ATOM    103  C   UNL A   1      47.323  35.439  28.577  1.00  0.00     0.060 A 
BRANCH 103 104
ATOM    104  S   UNL A   1      47.846  37.149  28.822  1.00  0.00     0.124 S 
ATOM    105  O   UNL A   1      47.261  37.453  30.124  1.00  0.00    -0.237 OA
ATOM    106  O   UNL A   1      49.302  37.041  28.791  1.00  0.00    -0.237 OA
ATOM    107  O   UNL A   1      47.253  37.852  27.687  1.00  0.00    -0.744 OA
ENDBRANCH 103 104
ENDBRANCH  71  96
ENDBRANCH  45  46
ENDBRANCH  37  40
ENDBRANCH  35  36
ENDBRANCH  34  35
ENDBRANCH   1  34
TORSDOF 20
ENDMDL
