MODEL 1
REMARK VINA RESULT:     -10.4      0.000      0.000
REMARK SMILES O=C(NCCCCCCNC(=O)c1ccc(-c2c3nc(c(-c4c(F)cc(S(=O)(=O)[O-])cc4F)c4ccc([nH]4)c(-c4c(F)cc(S(=O)(=O)[O-])cc4F)c4nc(c(-c5c(F)cc(S(=O)(=O)[O-])cc5F)c5ccc2[nH]5)C=C4)C=C3)cc1)C(=O)N1CC[N@@H+]2CCC[C@H]2C1
REMARK SMILES IDX 7 1 6 2 5 3 4 4 3 5 1 6 2 7 79 9 80 10 81 11 82 12 89 13
REMARK SMILES IDX 83 14 88 15 84 16 87 17 85 18 86 20 8 21 9 22 10 23 11 24
REMARK SMILES IDX 12 26 13 27 14 28 78 29 15 30 77 31 16 32 17 33 18 34 71 35
REMARK SMILES IDX 19 36 76 37 70 38 72 39 20 40 75 41 69 42 68 43 21 45 55 46
REMARK SMILES IDX 34 47 54 48 35 49 38 50 53 51 73 52 36 53 37 54 52 56 74 57
REMARK SMILES IDX 39 58 22 59 23 60 32 61 24 62 25 63 31 64 33 65 26 66 27 67
REMARK SMILES IDX 28 68 29 69 30 70 56 71 57 72 66 73 58 74 59 75 65 76 67 77
REMARK SMILES IDX 60 78 61 79 62 80 63 81 64 82 40 83 41 84 50 85 42 86 43 87
REMARK SMILES IDX 49 88 51 89 44 90 45 91 46 92 47 93 48 94
REMARK H PARENT 3 8 84 19 10 25 72 44 38 55
REMARK Flexibility Score: inf
ROOT
ATOM      1  C   UNL A   1      33.181  27.988  24.693  1.00  0.00     0.002 C 
ENDROOT
BRANCH   1   2
ATOM      2  C   UNL A   1      32.055  26.950  24.650  1.00  0.00     0.002 C 
BRANCH   2   3
ATOM      3  C   UNL A   1      32.058  25.986  23.470  1.00  0.00     0.021 C 
BRANCH   3   4
ATOM      4  C   UNL A   1      31.278  24.701  23.658  1.00  0.00     0.116 C 
BRANCH   4   5
ATOM      5  N   UNL A   1      30.485  24.550  24.847  1.00  0.00    -0.348 N 
ATOM      6  O   UNL A   1      30.403  24.098  27.079  1.00  0.00    -0.264 OA
ATOM      7  C   UNL A   1      30.912  23.880  25.985  1.00  0.00     0.309 C 
ATOM      8  H   UNL A   1      29.583  24.945  24.854  1.00  0.00     0.163 HD
BRANCH   7   9
ATOM      9  C   UNL A   1      31.941  22.743  25.823  1.00  0.00     0.312 C 
ATOM     10  O   UNL A   1      31.526  21.702  25.313  1.00  0.00    -0.263 OA
BRANCH   9  11
ATOM     11  N   UNL A   1      33.282  22.949  26.151  1.00  0.00    -0.323 N 
ATOM     12  C   UNL A   1      34.031  24.222  26.136  1.00  0.00     0.181 C 
ATOM     13  C   UNL A   1      34.123  21.761  26.353  1.00  0.00     0.185 C 
ATOM     14  C   UNL A   1      35.319  24.173  25.241  1.00  0.00     0.284 C 
ATOM     15  C   UNL A   1      35.139  21.737  25.210  1.00  0.00     0.204 C 
ATOM     16  N   UNL A   1      36.038  22.898  25.311  1.00  0.00    -0.330 N 
ATOM     17  C   UNL A   1      36.117  20.581  25.152  1.00  0.00     0.073 C 
ATOM     18  C   UNL A   1      37.030  22.667  24.268  1.00  0.00     0.262 C 
ATOM     19  H   UNL A   1      36.495  22.983  26.219  1.00  0.00     0.348 HD
ATOM     20  C   UNL A   1      37.358  21.188  24.481  1.00  0.00     0.068 C 
ENDBRANCH   9  11
ENDBRANCH   7   9
ENDBRANCH   4   5
ENDBRANCH   3   4
ENDBRANCH   2   3
ENDBRANCH   1   2
BRANCH   1  21
ATOM     21  C   UNL A   1      34.141  27.926  25.886  1.00  0.00     0.021 C 
BRANCH  21  22
ATOM     22  C   UNL A   1      33.536  28.238  27.250  1.00  0.00     0.116 C 
BRANCH  22  23
ATOM     23  N   UNL A   1      33.444  29.663  27.513  1.00  0.00    -0.352 N 
ATOM     24  C   UNL A   1      34.374  30.519  28.046  1.00  0.00     0.251 C 
ATOM     25  H   UNL A   1      32.584  30.077  27.273  1.00  0.00     0.163 HD
ATOM     26  O   UNL A   1      34.044  31.670  28.332  1.00  0.00    -0.269 OA
BRANCH  24  27
ATOM     27  C   UNL A   1      35.757  30.062  28.303  1.00  0.00     0.039 A 
ATOM     28  C   UNL A   1      36.681  30.091  27.255  1.00  0.00     0.014 A 
ATOM     29  C   UNL A   1      36.144  29.590  29.561  1.00  0.00     0.014 A 
ATOM     30  C   UNL A   1      38.005  29.708  27.484  1.00  0.00     0.010 A 
ATOM     31  C   UNL A   1      37.482  29.279  29.806  1.00  0.00     0.010 A 
ATOM     32  C   UNL A   1      38.426  29.333  28.770  1.00  0.00    -0.014 A 
BRANCH  32  33
ATOM     33  C   UNL A   1      39.849  28.999  29.045  1.00  0.00     0.031 A 
ATOM     34  C   UNL A   1      40.780  30.043  29.602  1.00  0.00     0.074 A 
ATOM     35  C   UNL A   1      40.315  27.771  28.743  1.00  0.00     0.049 A 
ATOM     36  N   UNL A   1      42.064  29.962  29.841  1.00  0.00    -0.248 NA
ATOM     37  C   UNL A   1      40.196  31.359  29.908  1.00  0.00     0.031 C 
ATOM     38  C   UNL A   1      39.525  26.687  28.156  1.00  0.00     0.029 A 
ATOM     39  N   UNL A   1      41.570  27.229  28.875  1.00  0.00    -0.354 N 
ATOM     40  C   UNL A   1      42.441  31.210  30.322  1.00  0.00     0.074 A 
ATOM     41  C   UNL A   1      41.264  32.050  30.281  1.00  0.00     0.031 C 
ATOM     42  C   UNL A   1      40.307  25.608  27.992  1.00  0.00     0.029 A 
ATOM     43  C   UNL A   1      41.663  25.933  28.422  1.00  0.00     0.049 A 
ATOM     44  H   UNL A   1      42.332  27.721  29.259  1.00  0.00     0.167 HD
ATOM     45  C   UNL A   1      43.649  31.611  30.784  1.00  0.00     0.037 A 
ATOM     46  C   UNL A   1      42.723  25.104  28.346  1.00  0.00     0.037 A 
ATOM     47  C   UNL A   1      44.815  30.766  30.833  1.00  0.00     0.049 A 
ATOM     48  C   UNL A   1      44.061  25.578  28.847  1.00  0.00     0.074 A 
ATOM     49  C   UNL A   1      46.078  31.068  31.314  1.00  0.00     0.029 A 
ATOM     50  N   UNL A   1      44.864  29.453  30.386  1.00  0.00    -0.354 N 
ATOM     51  N   UNL A   1      44.386  26.746  29.349  1.00  0.00    -0.248 NA
ATOM     52  C   UNL A   1      45.175  24.623  28.779  1.00  0.00     0.031 C 
ATOM     53  C   UNL A   1      46.900  29.956  31.114  1.00  0.00     0.029 A 
ATOM     54  C   UNL A   1      46.138  28.939  30.562  1.00  0.00     0.049 A 
ATOM     55  H   UNL A   1      44.104  28.960  30.000  1.00  0.00     0.167 HD
ATOM     56  C   UNL A   1      45.733  26.655  29.683  1.00  0.00     0.074 A 
ATOM     57  C   UNL A   1      46.158  25.314  29.342  1.00  0.00     0.031 C 
ATOM     58  C   UNL A   1      46.545  27.596  30.224  1.00  0.00     0.037 A 
BRANCH  45  59
ATOM     59  C   UNL A   1      43.773  33.025  31.287  1.00  0.00     0.058 A 
ATOM     60  C   UNL A   1      43.609  33.338  32.647  1.00  0.00     0.135 A 
ATOM     61  C   UNL A   1      44.102  34.073  30.412  1.00  0.00     0.135 A 
ATOM     62  F   UNL A   1      43.277  32.379  33.526  1.00  0.00    -0.206 F 
ATOM     63  C   UNL A   1      43.740  34.641  33.116  1.00  0.00     0.059 A 
ATOM     64  C   UNL A   1      44.271  35.379  30.864  1.00  0.00     0.059 A 
ATOM     65  F   UNL A   1      44.271  33.833  29.102  1.00  0.00    -0.206 F 
ATOM     66  C   UNL A   1      44.074  35.655  32.217  1.00  0.00     0.060 A 
BRANCH  66  67
ATOM     67  S   UNL A   1      44.252  37.337  32.847  1.00  0.00     0.124 S 
ATOM     68  O   UNL A   1      45.520  37.245  33.566  1.00  0.00    -0.237 OA
ATOM     69  O   UNL A   1      44.278  38.127  31.620  1.00  0.00    -0.237 OA
ATOM     70  O   UNL A   1      43.069  37.516  33.682  1.00  0.00    -0.744 OA
ENDBRANCH  66  67
ENDBRANCH  45  59
BRANCH  46  71
ATOM     71  C   UNL A   1      42.561  23.740  27.771  1.00  0.00     0.058 A 
ATOM     72  C   UNL A   1      42.387  22.618  28.595  1.00  0.00     0.135 A 
ATOM     73  C   UNL A   1      42.575  23.533  26.382  1.00  0.00     0.135 A 
ATOM     74  F   UNL A   1      42.372  22.762  29.929  1.00  0.00    -0.206 F 
ATOM     75  C   UNL A   1      42.256  21.338  28.066  1.00  0.00     0.059 A 
ATOM     76  C   UNL A   1      42.416  22.267  25.828  1.00  0.00     0.059 A 
ATOM     77  F   UNL A   1      42.720  24.574  25.548  1.00  0.00    -0.206 F 
ATOM     78  C   UNL A   1      42.269  21.173  26.680  1.00  0.00     0.060 A 
BRANCH  78  79
ATOM     79  S   UNL A   1      42.060  19.512  26.001  1.00  0.00     0.124 S 
ATOM     80  O   UNL A   1      42.554  18.685  27.095  1.00  0.00    -0.237 OA
ATOM     81  O   UNL A   1      40.622  19.461  25.757  1.00  0.00    -0.237 OA
ATOM     82  O   UNL A   1      42.892  19.534  24.801  1.00  0.00    -0.744 OA
ENDBRANCH  78  79
ENDBRANCH  46  71
BRANCH  58  83
ATOM     83  C   UNL A   1      47.967  27.203  30.519  1.00  0.00     0.058 A 
ATOM     84  C   UNL A   1      49.010  27.464  29.617  1.00  0.00     0.135 A 
ATOM     85  C   UNL A   1      48.297  26.602  31.745  1.00  0.00     0.135 A 
ATOM     86  F   UNL A   1      48.750  28.032  28.429  1.00  0.00    -0.206 F 
ATOM     87  C   UNL A   1      50.326  27.122  29.910  1.00  0.00     0.059 A 
ATOM     88  C   UNL A   1      49.610  26.279  32.071  1.00  0.00     0.059 A 
ATOM     89  F   UNL A   1      47.340  26.338  32.648  1.00  0.00    -0.206 F 
ATOM     90  C   UNL A   1      50.618  26.533  31.142  1.00  0.00     0.060 A 
BRANCH  90  91
ATOM     91  S   UNL A   1      52.335  26.127  31.522  1.00  0.00     0.124 S 
ATOM     92  O   UNL A   1      52.939  26.132  30.194  1.00  0.00    -0.237 OA
ATOM     93  O   UNL A   1      52.726  27.223  32.402  1.00  0.00    -0.237 OA
ATOM     94  O   UNL A   1      52.242  24.819  32.164  1.00  0.00    -0.744 OA
ENDBRANCH  90  91
ENDBRANCH  58  83
ENDBRANCH  32  33
ENDBRANCH  24  27
ENDBRANCH  22  23
ENDBRANCH  21  22
ENDBRANCH   1  21
TORSDOF 17
ENDMDL
MODEL 2
REMARK VINA RESULT:     -10.2      4.789     10.418
REMARK SMILES O=C(NCCCCCCNC(=O)c1ccc(-c2c3nc(c(-c4c(F)cc(S(=O)(=O)[O-])cc4F)c4ccc([nH]4)c(-c4c(F)cc(S(=O)(=O)[O-])cc4F)c4nc(c(-c5c(F)cc(S(=O)(=O)[O-])cc5F)c5ccc2[nH]5)C=C4)C=C3)cc1)C(=O)N1CC[N@@H+]2CCC[C@H]2C1
REMARK SMILES IDX 7 1 6 2 5 3 4 4 3 5 1 6 2 7 79 9 80 10 81 11 82 12 89 13
REMARK SMILES IDX 83 14 88 15 84 16 87 17 85 18 86 20 8 21 9 22 10 23 11 24
REMARK SMILES IDX 12 26 13 27 14 28 78 29 15 30 77 31 16 32 17 33 18 34 71 35
REMARK SMILES IDX 19 36 76 37 70 38 72 39 20 40 75 41 69 42 68 43 21 45 55 46
REMARK SMILES IDX 34 47 54 48 35 49 38 50 53 51 73 52 36 53 37 54 52 56 74 57
REMARK SMILES IDX 39 58 22 59 23 60 32 61 24 62 25 63 31 64 33 65 26 66 27 67
REMARK SMILES IDX 28 68 29 69 30 70 56 71 57 72 66 73 58 74 59 75 65 76 67 77
REMARK SMILES IDX 60 78 61 79 62 80 63 81 64 82 40 83 41 84 50 85 42 86 43 87
REMARK SMILES IDX 49 88 51 89 44 90 45 91 46 92 47 93 48 94
REMARK H PARENT 3 8 84 19 10 25 72 44 38 55
REMARK Flexibility Score: inf
ROOT
ATOM      1  C   UNL A   1      37.328  23.937  26.018  1.00  0.00     0.002 C 
ENDROOT
BRANCH   1   2
ATOM      2  C   UNL A   1      36.055  23.463  25.310  1.00  0.00     0.002 C 
BRANCH   2   3
ATOM      3  C   UNL A   1      34.736  24.023  25.828  1.00  0.00     0.021 C 
BRANCH   3   4
ATOM      4  C   UNL A   1      34.055  25.048  24.943  1.00  0.00     0.116 C 
BRANCH   4   5
ATOM      5  N   UNL A   1      34.235  24.950  23.520  1.00  0.00    -0.348 N 
ATOM      6  O   UNL A   1      33.595  25.611  21.436  1.00  0.00    -0.264 OA
ATOM      7  C   UNL A   1      33.281  25.340  22.589  1.00  0.00     0.309 C 
ATOM      8  H   UNL A   1      35.085  24.584  23.186  1.00  0.00     0.163 HD
BRANCH   7   9
ATOM      9  C   UNL A   1      31.795  25.280  22.994  1.00  0.00     0.312 C 
ATOM     10  O   UNL A   1      31.272  24.166  22.986  1.00  0.00    -0.263 OA
BRANCH   9  11
ATOM     11  N   UNL A   1      31.135  26.428  23.439  1.00  0.00    -0.323 N 
ATOM     12  C   UNL A   1      30.918  27.688  22.702  1.00  0.00     0.181 C 
ATOM     13  C   UNL A   1      30.770  26.494  24.861  1.00  0.00     0.185 C 
ATOM     14  C   UNL A   1      31.464  28.951  23.458  1.00  0.00     0.284 C 
ATOM     15  C   UNL A   1      31.623  27.598  25.487  1.00  0.00     0.204 C 
ATOM     16  N   UNL A   1      31.261  28.902  24.908  1.00  0.00    -0.330 N 
ATOM     17  C   UNL A   1      31.475  27.856  26.973  1.00  0.00     0.073 C 
ATOM     18  C   UNL A   1      32.030  29.861  25.693  1.00  0.00     0.262 C 
ATOM     19  H   UNL A   1      30.265  29.114  24.972  1.00  0.00     0.348 HD
ATOM     20  C   UNL A   1      31.793  29.351  27.115  1.00  0.00     0.068 C 
ENDBRANCH   9  11
ENDBRANCH   7   9
ENDBRANCH   4   5
ENDBRANCH   3   4
ENDBRANCH   2   3
ENDBRANCH   1   2
BRANCH   1  21
ATOM     21  C   UNL A   1      38.466  22.920  26.161  1.00  0.00     0.021 C 
BRANCH  21  22
ATOM     22  C   UNL A   1      39.688  23.386  26.944  1.00  0.00     0.116 C 
BRANCH  22  23
ATOM     23  N   UNL A   1      40.754  23.873  26.086  1.00  0.00    -0.352 N 
ATOM     24  C   UNL A   1      41.502  25.019  26.180  1.00  0.00     0.251 C 
ATOM     25  H   UNL A   1      40.972  23.293  25.321  1.00  0.00     0.163 HD
ATOM     26  O   UNL A   1      42.258  25.325  25.259  1.00  0.00    -0.269 OA
BRANCH  24  27
ATOM     27  C   UNL A   1      41.385  25.898  27.364  1.00  0.00     0.039 A 
ATOM     28  C   UNL A   1      42.355  26.882  27.568  1.00  0.00     0.014 A 
ATOM     29  C   UNL A   1      40.340  25.748  28.280  1.00  0.00     0.014 A 
ATOM     30  C   UNL A   1      42.243  27.755  28.654  1.00  0.00     0.010 A 
ATOM     31  C   UNL A   1      40.189  26.666  29.319  1.00  0.00     0.010 A 
ATOM     32  C   UNL A   1      41.139  27.678  29.519  1.00  0.00    -0.014 A 
BRANCH  32  33
ATOM     33  C   UNL A   1      40.965  28.650  30.630  1.00  0.00     0.031 A 
ATOM     34  C   UNL A   1      41.800  28.535  31.878  1.00  0.00     0.074 A 
ATOM     35  C   UNL A   1      40.017  29.604  30.538  1.00  0.00     0.049 A 
ATOM     36  N   UNL A   1      41.744  29.242  32.978  1.00  0.00    -0.248 NA
ATOM     37  C   UNL A   1      42.814  27.469  31.904  1.00  0.00     0.031 C 
ATOM     38  C   UNL A   1      39.113  29.791  29.401  1.00  0.00     0.029 A 
ATOM     39  N   UNL A   1      39.646  30.591  31.419  1.00  0.00    -0.354 N 
ATOM     40  C   UNL A   1      42.710  28.710  33.822  1.00  0.00     0.074 A 
ATOM     41  C   UNL A   1      43.294  27.579  33.134  1.00  0.00     0.031 C 
ATOM     42  C   UNL A   1      38.303  30.834  29.647  1.00  0.00     0.029 A 
ATOM     43  C   UNL A   1      38.600  31.365  30.973  1.00  0.00     0.049 A 
ATOM     44  H   UNL A   1      40.088  30.731  32.288  1.00  0.00     0.167 HD
ATOM     45  C   UNL A   1      43.097  29.141  35.047  1.00  0.00     0.037 A 
ATOM     46  C   UNL A   1      37.942  32.379  31.570  1.00  0.00     0.037 A 
ATOM     47  C   UNL A   1      42.519  30.275  35.722  1.00  0.00     0.049 A 
ATOM     48  C   UNL A   1      38.376  32.828  32.940  1.00  0.00     0.074 A 
ATOM     49  C   UNL A   1      42.864  30.812  36.951  1.00  0.00     0.029 A 
ATOM     50  N   UNL A   1      41.478  31.047  35.229  1.00  0.00    -0.354 N 
ATOM     51  N   UNL A   1      39.330  32.345  33.702  1.00  0.00    -0.248 NA
ATOM     52  C   UNL A   1      37.654  33.963  33.529  1.00  0.00     0.031 C 
ATOM     53  C   UNL A   1      42.000  31.877  37.221  1.00  0.00     0.029 A 
ATOM     54  C   UNL A   1      41.154  32.043  36.136  1.00  0.00     0.049 A 
ATOM     55  H   UNL A   1      41.033  30.907  34.361  1.00  0.00     0.167 HD
ATOM     56  C   UNL A   1      39.339  33.135  34.846  1.00  0.00     0.074 A 
ATOM     57  C   UNL A   1      38.309  34.137  34.669  1.00  0.00     0.031 C 
ATOM     58  C   UNL A   1      40.130  33.040  35.943  1.00  0.00     0.037 A 
BRANCH  45  59
ATOM     59  C   UNL A   1      44.207  28.391  35.735  1.00  0.00     0.058 A 
ATOM     60  C   UNL A   1      43.940  27.318  36.603  1.00  0.00     0.135 A 
ATOM     61  C   UNL A   1      45.551  28.715  35.493  1.00  0.00     0.135 A 
ATOM     62  F   UNL A   1      42.673  26.975  36.884  1.00  0.00    -0.206 F 
ATOM     63  C   UNL A   1      44.965  26.613  37.226  1.00  0.00     0.059 A 
ATOM     64  C   UNL A   1      46.593  28.002  36.080  1.00  0.00     0.059 A 
ATOM     65  F   UNL A   1      45.866  29.730  34.673  1.00  0.00    -0.206 F 
ATOM     66  C   UNL A   1      46.289  26.960  36.955  1.00  0.00     0.060 A 
BRANCH  66  67
ATOM     67  S   UNL A   1      47.604  26.025  37.763  1.00  0.00     0.124 S 
ATOM     68  O   UNL A   1      47.025  24.685  37.805  1.00  0.00    -0.237 OA
ATOM     69  O   UNL A   1      48.722  26.202  36.843  1.00  0.00    -0.237 OA
ATOM     70  O   UNL A   1      47.749  26.686  39.057  1.00  0.00    -0.744 OA
ENDBRANCH  66  67
ENDBRANCH  45  59
BRANCH  46  71
ATOM     71  C   UNL A   1      36.802  33.038  30.875  1.00  0.00     0.058 A 
ATOM     72  C   UNL A   1      35.476  32.802  31.268  1.00  0.00     0.135 A 
ATOM     73  C   UNL A   1      37.017  33.921  29.806  1.00  0.00     0.135 A 
ATOM     74  F   UNL A   1      35.216  31.962  32.281  1.00  0.00    -0.206 F 
ATOM     75  C   UNL A   1      34.404  33.398  30.612  1.00  0.00     0.059 A 
ATOM     76  C   UNL A   1      35.964  34.553  29.153  1.00  0.00     0.059 A 
ATOM     77  F   UNL A   1      38.267  34.197  29.402  1.00  0.00    -0.206 F 
ATOM     78  C   UNL A   1      34.659  34.275  29.556  1.00  0.00     0.060 A 
BRANCH  78  79
ATOM     79  S   UNL A   1      33.262  35.073  28.734  1.00  0.00     0.124 S 
ATOM     80  O   UNL A   1      32.722  33.976  27.941  1.00  0.00    -0.237 OA
ATOM     81  O   UNL A   1      32.450  35.506  29.867  1.00  0.00    -0.237 OA
ATOM     82  O   UNL A   1      33.891  36.151  27.976  1.00  0.00    -0.744 OA
ENDBRANCH  78  79
ENDBRANCH  46  71
BRANCH  58  83
ATOM     83  C   UNL A   1      39.943  34.067  37.027  1.00  0.00     0.058 A 
ATOM     84  C   UNL A   1      40.499  35.353  36.934  1.00  0.00     0.135 A 
ATOM     85  C   UNL A   1      39.152  33.776  38.151  1.00  0.00     0.135 A 
ATOM     86  F   UNL A   1      41.267  35.683  35.884  1.00  0.00    -0.206 F 
ATOM     87  C   UNL A   1      40.297  36.305  37.928  1.00  0.00     0.059 A 
ATOM     88  C   UNL A   1      38.912  34.723  39.142  1.00  0.00     0.059 A 
ATOM     89  F   UNL A   1      38.589  32.565  38.286  1.00  0.00    -0.206 F 
ATOM     90  C   UNL A   1      39.499  35.982  39.027  1.00  0.00     0.060 A 
BRANCH  90  91
ATOM     91  S   UNL A   1      39.217  37.239  40.292  1.00  0.00     0.124 S 
ATOM     92  O   UNL A   1      38.402  36.507  41.256  1.00  0.00    -0.237 OA
ATOM     93  O   UNL A   1      40.575  37.558  40.721  1.00  0.00    -0.237 OA
ATOM     94  O   UNL A   1      38.529  38.303  39.567  1.00  0.00    -0.744 OA
ENDBRANCH  90  91
ENDBRANCH  58  83
ENDBRANCH  32  33
ENDBRANCH  24  27
ENDBRANCH  22  23
ENDBRANCH  21  22
ENDBRANCH   1  21
TORSDOF 17
ENDMDL
MODEL 3
REMARK VINA RESULT:     -10.2      1.305      1.906
REMARK SMILES O=C(NCCCCCCNC(=O)c1ccc(-c2c3nc(c(-c4c(F)cc(S(=O)(=O)[O-])cc4F)c4ccc([nH]4)c(-c4c(F)cc(S(=O)(=O)[O-])cc4F)c4nc(c(-c5c(F)cc(S(=O)(=O)[O-])cc5F)c5ccc2[nH]5)C=C4)C=C3)cc1)C(=O)N1CC[N@@H+]2CCC[C@H]2C1
REMARK SMILES IDX 7 1 6 2 5 3 4 4 3 5 1 6 2 7 79 9 80 10 81 11 82 12 89 13
REMARK SMILES IDX 83 14 88 15 84 16 87 17 85 18 86 20 8 21 9 22 10 23 11 24
REMARK SMILES IDX 12 26 13 27 14 28 78 29 15 30 77 31 16 32 17 33 18 34 71 35
REMARK SMILES IDX 19 36 76 37 70 38 72 39 20 40 75 41 69 42 68 43 21 45 55 46
REMARK SMILES IDX 34 47 54 48 35 49 38 50 53 51 73 52 36 53 37 54 52 56 74 57
REMARK SMILES IDX 39 58 22 59 23 60 32 61 24 62 25 63 31 64 33 65 26 66 27 67
REMARK SMILES IDX 28 68 29 69 30 70 56 71 57 72 66 73 58 74 59 75 65 76 67 77
REMARK SMILES IDX 60 78 61 79 62 80 63 81 64 82 40 83 41 84 50 85 42 86 43 87
REMARK SMILES IDX 49 88 51 89 44 90 45 91 46 92 47 93 48 94
REMARK H PARENT 3 8 84 19 10 25 72 44 38 55
REMARK Flexibility Score: inf
ROOT
ATOM      1  C   UNL A   1      31.387  28.347  25.743  1.00  0.00     0.002 C 
ENDROOT
BRANCH   1   2
ATOM      2  C   UNL A   1      31.762  29.018  24.417  1.00  0.00     0.002 C 
BRANCH   2   3
ATOM      3  C   UNL A   1      30.883  28.695  23.215  1.00  0.00     0.021 C 
BRANCH   3   4
ATOM      4  C   UNL A   1      30.820  27.237  22.809  1.00  0.00     0.116 C 
BRANCH   4   5
ATOM      5  N   UNL A   1      31.639  26.795  21.714  1.00  0.00    -0.348 N 
ATOM      6  O   UNL A   1      33.213  25.345  20.932  1.00  0.00    -0.264 OA
ATOM      7  C   UNL A   1      32.778  26.014  21.862  1.00  0.00     0.309 C 
ATOM      8  H   UNL A   1      31.378  27.064  20.804  1.00  0.00     0.163 HD
BRANCH   7   9
ATOM      9  C   UNL A   1      33.573  26.121  23.179  1.00  0.00     0.312 C 
ATOM     10  O   UNL A   1      34.242  27.142  23.330  1.00  0.00    -0.263 OA
BRANCH   9  11
ATOM     11  N   UNL A   1      33.438  25.145  24.169  1.00  0.00    -0.323 N 
ATOM     12  C   UNL A   1      34.348  24.873  25.300  1.00  0.00     0.181 C 
ATOM     13  C   UNL A   1      32.387  24.133  23.988  1.00  0.00     0.185 C 
ATOM     14  C   UNL A   1      34.856  23.388  25.344  1.00  0.00     0.284 C 
ATOM     15  C   UNL A   1      33.094  22.797  23.758  1.00  0.00     0.204 C 
ATOM     16  N   UNL A   1      33.837  22.406  24.967  1.00  0.00    -0.330 N 
ATOM     17  C   UNL A   1      32.236  21.574  23.501  1.00  0.00     0.073 C 
ATOM     18  C   UNL A   1      34.325  21.065  24.663  1.00  0.00     0.262 C 
ATOM     19  H   UNL A   1      33.263  22.388  25.811  1.00  0.00     0.348 HD
ATOM     20  C   UNL A   1      33.078  20.417  24.060  1.00  0.00     0.068 C 
ENDBRANCH   9  11
ENDBRANCH   7   9
ENDBRANCH   4   5
ENDBRANCH   3   4
ENDBRANCH   2   3
ENDBRANCH   1   2
BRANCH   1  21
ATOM     21  C   UNL A   1      32.517  27.673  26.526  1.00  0.00     0.021 C 
BRANCH  21  22
ATOM     22  C   UNL A   1      33.824  28.452  26.625  1.00  0.00     0.116 C 
BRANCH  22  23
ATOM     23  N   UNL A   1      33.648  29.776  27.195  1.00  0.00    -0.352 N 
ATOM     24  C   UNL A   1      34.496  30.512  27.983  1.00  0.00     0.251 C 
ATOM     25  H   UNL A   1      32.790  30.211  26.984  1.00  0.00     0.163 HD
ATOM     26  O   UNL A   1      34.093  31.558  28.493  1.00  0.00    -0.269 OA
BRANCH  24  27
ATOM     27  C   UNL A   1      35.875  30.045  28.245  1.00  0.00     0.039 A 
ATOM     28  C   UNL A   1      36.821  30.135  27.221  1.00  0.00     0.014 A 
ATOM     29  C   UNL A   1      36.236  29.504  29.483  1.00  0.00     0.014 A 
ATOM     30  C   UNL A   1      38.141  29.743  27.457  1.00  0.00     0.010 A 
ATOM     31  C   UNL A   1      37.569  29.184  29.739  1.00  0.00     0.010 A 
ATOM     32  C   UNL A   1      38.535  29.298  28.729  1.00  0.00    -0.014 A 
BRANCH  32  33
ATOM     33  C   UNL A   1      39.953  28.954  29.017  1.00  0.00     0.031 A 
ATOM     34  C   UNL A   1      40.886  29.989  29.586  1.00  0.00     0.074 A 
ATOM     35  C   UNL A   1      40.414  27.723  28.715  1.00  0.00     0.049 A 
ATOM     36  N   UNL A   1      42.167  29.899  29.837  1.00  0.00    -0.248 NA
ATOM     37  C   UNL A   1      40.309  31.308  29.891  1.00  0.00     0.031 C 
ATOM     38  C   UNL A   1      39.621  26.647  28.117  1.00  0.00     0.029 A 
ATOM     39  N   UNL A   1      41.664  27.172  28.858  1.00  0.00    -0.354 N 
ATOM     40  C   UNL A   1      42.548  31.142  30.326  1.00  0.00     0.074 A 
ATOM     41  C   UNL A   1      41.378  31.991  30.276  1.00  0.00     0.031 C 
ATOM     42  C   UNL A   1      40.398  25.563  27.957  1.00  0.00     0.029 A 
ATOM     43  C   UNL A   1      41.752  25.877  28.402  1.00  0.00     0.049 A 
ATOM     44  H   UNL A   1      42.425  27.657  29.251  1.00  0.00     0.167 HD
ATOM     45  C   UNL A   1      43.755  31.533  30.801  1.00  0.00     0.037 A 
ATOM     46  C   UNL A   1      42.806  25.041  28.332  1.00  0.00     0.037 A 
ATOM     47  C   UNL A   1      44.915  30.679  30.858  1.00  0.00     0.049 A 
ATOM     48  C   UNL A   1      44.143  25.504  28.847  1.00  0.00     0.074 A 
ATOM     49  C   UNL A   1      46.174  30.971  31.352  1.00  0.00     0.029 A 
ATOM     50  N   UNL A   1      44.958  29.368  30.407  1.00  0.00    -0.354 N 
ATOM     51  N   UNL A   1      44.472  26.668  29.357  1.00  0.00    -0.248 NA
ATOM     52  C   UNL A   1      45.251  24.541  28.788  1.00  0.00     0.031 C 
ATOM     53  C   UNL A   1      46.991  29.854  31.156  1.00  0.00     0.029 A 
ATOM     54  C   UNL A   1      46.227  28.844  30.593  1.00  0.00     0.049 A 
ATOM     55  H   UNL A   1      44.198  28.881  30.012  1.00  0.00     0.167 HD
ATOM     56  C   UNL A   1      45.814  26.566  29.704  1.00  0.00     0.074 A 
ATOM     57  C   UNL A   1      46.233  25.223  29.362  1.00  0.00     0.031 C 
ATOM     58  C   UNL A   1      46.627  27.500  30.256  1.00  0.00     0.037 A 
BRANCH  45  59
ATOM     59  C   UNL A   1      43.884  32.945  31.309  1.00  0.00     0.058 A 
ATOM     60  C   UNL A   1      43.733  33.251  32.673  1.00  0.00     0.135 A 
ATOM     61  C   UNL A   1      44.205  33.997  30.437  1.00  0.00     0.135 A 
ATOM     62  F   UNL A   1      43.410  32.288  33.550  1.00  0.00    -0.206 F 
ATOM     63  C   UNL A   1      43.869  34.552  33.147  1.00  0.00     0.059 A 
ATOM     64  C   UNL A   1      44.378  35.300  30.894  1.00  0.00     0.059 A 
ATOM     65  F   UNL A   1      44.360  33.764  29.124  1.00  0.00    -0.206 F 
ATOM     66  C   UNL A   1      44.195  35.570  32.250  1.00  0.00     0.060 A 
BRANCH  66  67
ATOM     67  S   UNL A   1      44.379  37.248  32.886  1.00  0.00     0.124 S 
ATOM     68  O   UNL A   1      43.092  37.452  33.546  1.00  0.00    -0.237 OA
ATOM     69  O   UNL A   1      45.531  37.121  33.773  1.00  0.00    -0.237 OA
ATOM     70  O   UNL A   1      44.600  38.047  31.685  1.00  0.00    -0.744 OA
ENDBRANCH  66  67
ENDBRANCH  45  59
BRANCH  46  71
ATOM     71  C   UNL A   1      42.641  23.680  27.751  1.00  0.00     0.058 A 
ATOM     72  C   UNL A   1      42.432  22.559  28.569  1.00  0.00     0.135 A 
ATOM     73  C   UNL A   1      42.686  23.474  26.363  1.00  0.00     0.135 A 
ATOM     74  F   UNL A   1      42.387  22.701  29.902  1.00  0.00    -0.206 F 
ATOM     75  C   UNL A   1      42.297  21.282  28.035  1.00  0.00     0.059 A 
ATOM     76  C   UNL A   1      42.523  22.212  25.803  1.00  0.00     0.059 A 
ATOM     77  F   UNL A   1      42.864  24.515  25.534  1.00  0.00    -0.206 F 
ATOM     78  C   UNL A   1      42.341  21.119  26.649  1.00  0.00     0.060 A 
BRANCH  78  79
ATOM     79  S   UNL A   1      42.127  19.462  25.963  1.00  0.00     0.124 S 
ATOM     80  O   UNL A   1      40.683  19.409  25.769  1.00  0.00    -0.237 OA
ATOM     81  O   UNL A   1      42.935  19.527  24.750  1.00  0.00    -0.237 OA
ATOM     82  O   UNL A   1      42.655  18.594  27.013  1.00  0.00    -0.744 OA
ENDBRANCH  78  79
ENDBRANCH  46  71
BRANCH  58  83
ATOM     83  C   UNL A   1      48.044  27.096  30.562  1.00  0.00     0.058 A 
ATOM     84  C   UNL A   1      49.084  27.277  29.637  1.00  0.00     0.135 A 
ATOM     85  C   UNL A   1      48.374  26.567  31.822  1.00  0.00     0.135 A 
ATOM     86  F   UNL A   1      48.824  27.773  28.417  1.00  0.00    -0.206 F 
ATOM     87  C   UNL A   1      50.395  26.926  29.940  1.00  0.00     0.059 A 
ATOM     88  C   UNL A   1      49.683  26.237  32.156  1.00  0.00     0.059 A 
ATOM     89  F   UNL A   1      47.420  26.382  32.748  1.00  0.00    -0.206 F 
ATOM     90  C   UNL A   1      50.686  26.410  31.204  1.00  0.00     0.060 A 
BRANCH  90  91
ATOM     91  S   UNL A   1      52.398  25.992  31.595  1.00  0.00     0.124 S 
ATOM     92  O   UNL A   1      52.720  26.990  32.610  1.00  0.00    -0.237 OA
ATOM     93  O   UNL A   1      52.282  24.617  32.072  1.00  0.00    -0.237 OA
ATOM     94  O   UNL A   1      53.088  26.150  30.318  1.00  0.00    -0.744 OA
ENDBRANCH  90  91
ENDBRANCH  58  83
ENDBRANCH  32  33
ENDBRANCH  24  27
ENDBRANCH  22  23
ENDBRANCH  21  22
ENDBRANCH   1  21
TORSDOF 17
ENDMDL
