MODEL 1
REMARK VINA RESULT:     -12.1      0.000      0.000
REMARK SMILES Cc1cc2cc(-c3ccc([C@@H](C)C(=O)NCCCCCCNC(=O)c4ccc(-c5c6nc(c(-c7c(F)cc(S(=O)(=O)[O-])cc7F)c7ccc([nH]7)c(-c7c(F)cc(S(=O)(=O)[O-])cc7F)c7nc(c(-c8c(F)cc(S(=O)(=O)[O-])cc8F)c8ccc5[nH]8)C=C7)C=C6)cc4)cc3)ccc2[nH]1
REMARK SMILES IDX 19 1 18 2 17 3 16 4 15 5 13 6 14 7 11 9 12 10 10 11 7 12
REMARK SMILES IDX 8 13 92 14 9 15 91 16 6 17 1 18 2 19 3 20 96 21 4 22 95 23
REMARK SMILES IDX 5 25 94 26 93 27 20 28 21 29 22 30 23 31 24 33 25 34 26 35
REMARK SMILES IDX 90 36 27 37 89 38 28 39 29 40 30 41 83 42 31 43 88 44 82 45
REMARK SMILES IDX 84 46 32 47 87 48 81 49 80 50 33 52 67 53 46 54 66 55 47 56
REMARK SMILES IDX 50 57 65 58 85 59 48 60 49 61 64 63 86 64 51 65 34 66 35 67
REMARK SMILES IDX 44 68 36 69 37 70 43 71 45 72 38 73 39 74 40 75 41 76 42 77
REMARK SMILES IDX 68 78 69 79 78 80 70 81 71 82 77 83 79 84 72 85 73 86 74 87
REMARK SMILES IDX 75 88 76 89 52 90 53 91 62 92 54 93 55 94 61 95 63 96 56 97
REMARK SMILES IDX 57 98 58 99 59 100 60 101
REMARK H PARENT 15 8 96 24 22 32 84 51 50 62
REMARK Flexibility Score: inf
ROOT
ATOM      1  C   UNL A   1      33.314  26.556  24.650  1.00  0.00     0.002 C 
ENDROOT
BRANCH   1   2
ATOM      2  C   UNL A   1      34.029  25.701  25.705  1.00  0.00     0.002 C 
BRANCH   2   3
ATOM      3  C   UNL A   1      35.128  24.783  25.158  1.00  0.00     0.021 C 
BRANCH   3   4
ATOM      4  C   UNL A   1      34.850  23.293  25.363  1.00  0.00     0.116 C 
BRANCH   4   5
ATOM      5  N   UNL A   1      34.253  23.030  26.658  1.00  0.00    -0.356 N 
ATOM      6  C   UNL A   1      33.012  22.600  27.012  1.00  0.00     0.227 C 
ATOM      7  O   UNL A   1      32.775  22.549  28.228  1.00  0.00    -0.274 OA
ATOM      8  H   UNL A   1      34.855  23.194  27.419  1.00  0.00     0.163 HD
BRANCH   6   9
ATOM      9  C   UNL A   1      31.934  22.166  26.007  1.00  0.00     0.105 C 
ATOM     10  C   UNL A   1      32.410  21.113  25.003  1.00  0.00     0.023 C 
BRANCH   9  11
ATOM     11  C   UNL A   1      31.145  23.327  25.423  1.00  0.00    -0.036 A 
ATOM     12  C   UNL A   1      29.761  25.598  24.380  1.00  0.00    -0.018 A 
ATOM     13  C   UNL A   1      30.335  24.630  23.542  1.00  0.00     0.009 A 
ATOM     14  C   UNL A   1      29.885  25.398  25.762  1.00  0.00     0.009 A 
ATOM     15  C   UNL A   1      30.974  23.499  24.050  1.00  0.00     0.005 A 
ATOM     16  C   UNL A   1      30.581  24.291  26.274  1.00  0.00     0.005 A 
BRANCH  12  17
ATOM     17  C   UNL A   1      29.056  26.757  23.792  1.00  0.00    -0.018 A 
ATOM     18  C   UNL A   1      28.514  32.243  21.110  1.00  0.00     0.064 C 
ATOM     19  C   UNL A   1      28.575  30.905  21.747  1.00  0.00     0.013 A 
ATOM     20  C   UNL A   1      29.650  30.072  21.968  1.00  0.00     0.031 A 
ATOM     21  N   UNL A   1      27.459  30.277  22.250  1.00  0.00    -0.359 N 
ATOM     22  C   UNL A   1      29.172  28.911  22.626  1.00  0.00     0.000 A 
ATOM     23  C   UNL A   1      27.799  29.059  22.797  1.00  0.00     0.046 A 
ATOM     24  H   UNL A   1      26.547  30.645  22.223  1.00  0.00     0.166 HD
ATOM     25  C   UNL A   1      29.792  27.746  23.107  1.00  0.00     0.019 A 
ATOM     26  C   UNL A   1      27.017  28.087  23.432  1.00  0.00     0.027 A 
ATOM     27  C   UNL A   1      27.671  26.947  23.929  1.00  0.00     0.011 A 
ENDBRANCH  12  17
ENDBRANCH   9  11
ENDBRANCH   6   9
ENDBRANCH   4   5
ENDBRANCH   3   4
ENDBRANCH   2   3
ENDBRANCH   1   2
BRANCH   1  28
ATOM     28  C   UNL A   1      33.320  28.066  24.910  1.00  0.00     0.021 C 
BRANCH  28  29
ATOM     29  C   UNL A   1      34.171  28.505  26.099  1.00  0.00     0.116 C 
BRANCH  29  30
ATOM     30  N   UNL A   1      33.876  29.874  26.495  1.00  0.00    -0.352 N 
ATOM     31  C   UNL A   1      34.456  30.646  27.469  1.00  0.00     0.251 C 
ATOM     32  H   UNL A   1      33.153  30.309  25.989  1.00  0.00     0.163 HD
ATOM     33  O   UNL A   1      33.914  31.689  27.825  1.00  0.00    -0.269 OA
BRANCH  31  34
ATOM     34  C   UNL A   1      35.728  30.222  28.092  1.00  0.00     0.039 A 
ATOM     35  C   UNL A   1      36.926  30.434  27.403  1.00  0.00     0.014 A 
ATOM     36  C   UNL A   1      35.738  29.588  29.337  1.00  0.00     0.014 A 
ATOM     37  C   UNL A   1      38.138  30.056  27.987  1.00  0.00     0.010 A 
ATOM     38  C   UNL A   1      36.950  29.274  29.947  1.00  0.00     0.010 A 
ATOM     39  C   UNL A   1      38.162  29.499  29.277  1.00  0.00    -0.014 A 
BRANCH  39  40
ATOM     40  C   UNL A   1      39.442  29.135  29.936  1.00  0.00     0.031 A 
ATOM     41  C   UNL A   1      39.933  29.923  31.121  1.00  0.00     0.074 A 
ATOM     42  C   UNL A   1      40.189  28.133  29.431  1.00  0.00     0.049 A 
ATOM     43  N   UNL A   1      41.055  29.806  31.784  1.00  0.00    -0.248 NA
ATOM     44  C   UNL A   1      39.057  31.000  31.610  1.00  0.00     0.031 C 
ATOM     45  C   UNL A   1      39.840  27.322  28.262  1.00  0.00     0.029 A 
ATOM     46  N   UNL A   1      41.403  27.631  29.830  1.00  0.00    -0.354 N 
ATOM     47  C   UNL A   1      41.025  30.796  32.758  1.00  0.00     0.074 A 
ATOM     48  C   UNL A   1      39.800  31.541  32.564  1.00  0.00     0.031 C 
ATOM     49  C   UNL A   1      40.804  26.412  28.052  1.00  0.00     0.029 A 
ATOM     50  C   UNL A   1      41.859  26.599  29.044  1.00  0.00     0.049 A 
ATOM     51  H   UNL A   1      41.901  27.978  30.605  1.00  0.00     0.167 HD
ATOM     52  C   UNL A   1      41.925  31.047  33.740  1.00  0.00     0.037 A 
ATOM     53  C   UNL A   1      43.001  25.886  29.112  1.00  0.00     0.037 A 
ATOM     54  C   UNL A   1      43.132  30.289  33.938  1.00  0.00     0.049 A 
ATOM     55  C   UNL A   1      43.990  26.191  30.203  1.00  0.00     0.074 A 
ATOM     56  C   UNL A   1      44.088  30.435  34.928  1.00  0.00     0.029 A 
ATOM     57  N   UNL A   1      43.550  29.240  33.132  1.00  0.00    -0.354 N 
ATOM     58  N   UNL A   1      43.921  27.100  31.148  1.00  0.00    -0.248 NA
ATOM     59  C   UNL A   1      45.209  25.373  30.244  1.00  0.00     0.031 C 
ATOM     60  C   UNL A   1      45.104  29.501  34.697  1.00  0.00     0.029 A 
ATOM     61  C   UNL A   1      44.757  28.741  33.592  1.00  0.00     0.049 A 
ATOM     62  H   UNL A   1      43.061  28.901  32.348  1.00  0.00     0.167 HD
ATOM     63  C   UNL A   1      45.072  26.941  31.913  1.00  0.00     0.074 A 
ATOM     64  C   UNL A   1      45.814  25.844  31.326  1.00  0.00     0.031 C 
ATOM     65  C   UNL A   1      45.477  27.639  33.002  1.00  0.00     0.037 A 
BRANCH  52  66
ATOM     66  C   UNL A   1      41.630  32.184  34.680  1.00  0.00     0.058 A 
ATOM     67  C   UNL A   1      42.150  33.471  34.466  1.00  0.00     0.135 A 
ATOM     68  C   UNL A   1      40.791  31.996  35.791  1.00  0.00     0.135 A 
ATOM     69  F   UNL A   1      42.969  33.704  33.428  1.00  0.00    -0.206 F 
ATOM     70  C   UNL A   1      41.876  34.522  35.334  1.00  0.00     0.059 A 
ATOM     71  C   UNL A   1      40.480  33.041  36.658  1.00  0.00     0.059 A 
ATOM     72  F   UNL A   1      40.265  30.788  36.046  1.00  0.00    -0.206 F 
ATOM     73  C   UNL A   1      41.040  34.298  36.429  1.00  0.00     0.060 A 
BRANCH  73  74
ATOM     74  S   UNL A   1      40.694  35.673  37.546  1.00  0.00     0.124 S 
ATOM     75  O   UNL A   1      42.020  36.262  37.700  1.00  0.00    -0.237 OA
ATOM     76  O   UNL A   1      39.734  36.462  36.781  1.00  0.00    -0.237 OA
ATOM     77  O   UNL A   1      40.156  35.019  38.734  1.00  0.00    -0.744 OA
ENDBRANCH  73  74
ENDBRANCH  52  66
BRANCH  53  78
ATOM     78  C   UNL A   1      43.261  24.799  28.130  1.00  0.00     0.058 A 
ATOM     79  C   UNL A   1      43.892  25.070  26.907  1.00  0.00     0.135 A 
ATOM     80  C   UNL A   1      42.891  23.471  28.395  1.00  0.00     0.135 A 
ATOM     81  F   UNL A   1      44.260  26.325  26.606  1.00  0.00    -0.206 F 
ATOM     82  C   UNL A   1      44.127  24.069  25.970  1.00  0.00     0.059 A 
ATOM     83  C   UNL A   1      43.140  22.448  27.485  1.00  0.00     0.059 A 
ATOM     84  F   UNL A   1      42.302  23.156  29.558  1.00  0.00    -0.206 F 
ATOM     85  C   UNL A   1      43.747  22.760  26.269  1.00  0.00     0.060 A 
BRANCH  85  86
ATOM     86  S   UNL A   1      44.091  21.460  25.062  1.00  0.00     0.124 S 
ATOM     87  O   UNL A   1      45.436  21.051  25.450  1.00  0.00    -0.237 OA
ATOM     88  O   UNL A   1      43.028  20.500  25.335  1.00  0.00    -0.237 OA
ATOM     89  O   UNL A   1      43.985  22.155  23.783  1.00  0.00    -0.744 OA
ENDBRANCH  85  86
ENDBRANCH  53  78
BRANCH  65  90
ATOM     90  C   UNL A   1      46.762  27.213  33.658  1.00  0.00     0.058 A 
ATOM     91  C   UNL A   1      47.993  27.797  33.321  1.00  0.00     0.135 A 
ATOM     92  C   UNL A   1      46.752  26.245  34.675  1.00  0.00     0.135 A 
ATOM     93  F   UNL A   1      48.058  28.723  32.351  1.00  0.00    -0.206 F 
ATOM     94  C   UNL A   1      49.173  27.419  33.952  1.00  0.00     0.059 A 
ATOM     95  C   UNL A   1      47.915  25.872  35.339  1.00  0.00     0.059 A 
ATOM     96  F   UNL A   1      45.599  25.663  35.043  1.00  0.00    -0.206 F 
ATOM     97  C   UNL A   1      49.124  26.456  34.962  1.00  0.00     0.060 A 
BRANCH  97  98
ATOM     98  S   UNL A   1      50.657  26.000  35.799  1.00  0.00     0.124 S 
ATOM     99  O   UNL A   1      51.575  27.020  35.306  1.00  0.00    -0.237 OA
ATOM    100  O   UNL A   1      50.287  26.107  37.208  1.00  0.00    -0.237 OA
ATOM    101  O   UNL A   1      50.912  24.643  35.327  1.00  0.00    -0.744 OA
ENDBRANCH  97  98
ENDBRANCH  65  90
ENDBRANCH  39  40
ENDBRANCH  31  34
ENDBRANCH  29  30
ENDBRANCH  28  29
ENDBRANCH   1  28
TORSDOF 18
ENDMDL
MODEL 2
REMARK VINA RESULT:     -11.6      4.826      7.023
REMARK SMILES Cc1cc2cc(-c3ccc([C@@H](C)C(=O)NCCCCCCNC(=O)c4ccc(-c5c6nc(c(-c7c(F)cc(S(=O)(=O)[O-])cc7F)c7ccc([nH]7)c(-c7c(F)cc(S(=O)(=O)[O-])cc7F)c7nc(c(-c8c(F)cc(S(=O)(=O)[O-])cc8F)c8ccc5[nH]8)C=C7)C=C6)cc4)cc3)ccc2[nH]1
REMARK SMILES IDX 19 1 18 2 17 3 16 4 15 5 13 6 14 7 11 9 12 10 10 11 7 12
REMARK SMILES IDX 8 13 92 14 9 15 91 16 6 17 1 18 2 19 3 20 96 21 4 22 95 23
REMARK SMILES IDX 5 25 94 26 93 27 20 28 21 29 22 30 23 31 24 33 25 34 26 35
REMARK SMILES IDX 90 36 27 37 89 38 28 39 29 40 30 41 83 42 31 43 88 44 82 45
REMARK SMILES IDX 84 46 32 47 87 48 81 49 80 50 33 52 67 53 46 54 66 55 47 56
REMARK SMILES IDX 50 57 65 58 85 59 48 60 49 61 64 63 86 64 51 65 34 66 35 67
REMARK SMILES IDX 44 68 36 69 37 70 43 71 45 72 38 73 39 74 40 75 41 76 42 77
REMARK SMILES IDX 68 78 69 79 78 80 70 81 71 82 77 83 79 84 72 85 73 86 74 87
REMARK SMILES IDX 75 88 76 89 52 90 53 91 62 92 54 93 55 94 61 95 63 96 56 97
REMARK SMILES IDX 57 98 58 99 59 100 60 101
REMARK H PARENT 15 8 96 24 22 32 84 51 50 62
REMARK Flexibility Score: inf
ROOT
ATOM      1  C   UNL A   1      33.452  29.121  25.784  1.00  0.00     0.002 C 
ENDROOT
BRANCH   1   2
ATOM      2  C   UNL A   1      33.621  28.087  24.662  1.00  0.00     0.002 C 
BRANCH   2   3
ATOM      3  C   UNL A   1      33.825  28.677  23.263  1.00  0.00     0.021 C 
BRANCH   3   4
ATOM      4  C   UNL A   1      32.539  28.783  22.442  1.00  0.00     0.116 C 
BRANCH   4   5
ATOM      5  N   UNL A   1      31.537  29.589  23.110  1.00  0.00    -0.356 N 
ATOM      6  C   UNL A   1      30.215  29.379  23.347  1.00  0.00     0.227 C 
ATOM      7  O   UNL A   1      29.597  30.310  23.883  1.00  0.00    -0.274 OA
ATOM      8  H   UNL A   1      31.877  30.447  23.455  1.00  0.00     0.163 HD
BRANCH   6   9
ATOM      9  C   UNL A   1      29.480  28.071  23.011  1.00  0.00     0.105 C 
ATOM     10  C   UNL A   1      27.989  28.093  23.353  1.00  0.00     0.023 C 
BRANCH   9  11
ATOM     11  C   UNL A   1      30.237  26.823  23.433  1.00  0.00    -0.036 A 
ATOM     12  C   UNL A   1      31.781  24.535  24.172  1.00  0.00    -0.018 A 
ATOM     13  C   UNL A   1      31.184  25.367  25.131  1.00  0.00     0.009 A 
ATOM     14  C   UNL A   1      31.577  24.867  22.826  1.00  0.00     0.009 A 
ATOM     15  C   UNL A   1      30.395  26.460  24.770  1.00  0.00     0.005 A 
ATOM     16  C   UNL A   1      30.834  26.001  22.463  1.00  0.00     0.005 A 
BRANCH  12  17
ATOM     17  C   UNL A   1      32.572  23.363  24.604  1.00  0.00    -0.018 A 
ATOM     18  C   UNL A   1      37.489  19.720  24.971  1.00  0.00     0.064 C 
ATOM     19  C   UNL A   1      36.269  20.563  24.936  1.00  0.00     0.013 A 
ATOM     20  C   UNL A   1      36.082  21.838  24.448  1.00  0.00     0.031 A 
ATOM     21  N   UNL A   1      35.059  20.130  25.425  1.00  0.00    -0.359 N 
ATOM     22  C   UNL A   1      34.720  22.182  24.644  1.00  0.00     0.000 A 
ATOM     23  C   UNL A   1      34.096  21.099  25.253  1.00  0.00     0.046 A 
ATOM     24  H   UNL A   1      34.904  19.250  25.840  1.00  0.00     0.166 HD
ATOM     25  C   UNL A   1      33.956  23.321  24.341  1.00  0.00     0.019 A 
ATOM     26  C   UNL A   1      32.734  21.107  25.575  1.00  0.00     0.027 A 
ATOM     27  C   UNL A   1      31.990  22.249  25.232  1.00  0.00     0.011 A 
ENDBRANCH  12  17
ENDBRANCH   9  11
ENDBRANCH   6   9
ENDBRANCH   4   5
ENDBRANCH   3   4
ENDBRANCH   2   3
ENDBRANCH   1   2
BRANCH   1  28
ATOM     28  C   UNL A   1      34.073  28.740  27.131  1.00  0.00     0.021 C 
BRANCH  28  29
ATOM     29  C   UNL A   1      35.375  29.465  27.462  1.00  0.00     0.116 C 
BRANCH  29  30
ATOM     30  N   UNL A   1      35.321  30.100  28.770  1.00  0.00    -0.352 N 
ATOM     31  C   UNL A   1      36.289  30.195  29.737  1.00  0.00     0.251 C 
ATOM     32  H   UNL A   1      34.461  30.523  28.994  1.00  0.00     0.163 HD
ATOM     33  O   UNL A   1      35.986  30.549  30.872  1.00  0.00    -0.269 OA
BRANCH  31  34
ATOM     34  C   UNL A   1      37.694  29.864  29.414  1.00  0.00     0.039 A 
ATOM     35  C   UNL A   1      38.561  29.500  30.447  1.00  0.00     0.014 A 
ATOM     36  C   UNL A   1      38.164  29.945  28.100  1.00  0.00     0.014 A 
ATOM     37  C   UNL A   1      39.886  29.167  30.155  1.00  0.00     0.010 A 
ATOM     38  C   UNL A   1      39.464  29.547  27.802  1.00  0.00     0.010 A 
ATOM     39  C   UNL A   1      40.341  29.159  28.826  1.00  0.00    -0.014 A 
BRANCH  39  40
ATOM     40  C   UNL A   1      41.731  28.761  28.489  1.00  0.00     0.031 A 
ATOM     41  C   UNL A   1      42.827  29.793  28.460  1.00  0.00     0.074 A 
ATOM     42  C   UNL A   1      41.995  27.483  28.152  1.00  0.00     0.049 A 
ATOM     43  N   UNL A   1      44.082  29.656  28.119  1.00  0.00    -0.248 NA
ATOM     44  C   UNL A   1      42.455  31.165  28.842  1.00  0.00     0.031 C 
ATOM     45  C   UNL A   1      41.010  26.400  28.102  1.00  0.00     0.029 A 
ATOM     46  N   UNL A   1      43.168  26.879  27.775  1.00  0.00    -0.354 N 
ATOM     47  C   UNL A   1      44.647  30.921  28.236  1.00  0.00     0.074 A 
ATOM     48  C   UNL A   1      43.584  31.823  28.624  1.00  0.00     0.031 C 
ATOM     49  C   UNL A   1      41.623  25.262  27.740  1.00  0.00     0.029 A 
ATOM     50  C   UNL A   1      43.034  25.540  27.493  1.00  0.00     0.049 A 
ATOM     51  H   UNL A   1      44.026  27.359  27.713  1.00  0.00     0.167 HD
ATOM     52  C   UNL A   1      45.938  31.292  28.059  1.00  0.00     0.037 A 
ATOM     53  C   UNL A   1      43.945  24.638  27.075  1.00  0.00     0.037 A 
ATOM     54  C   UNL A   1      46.993  30.385  27.691  1.00  0.00     0.049 A 
ATOM     55  C   UNL A   1      45.370  25.077  26.874  1.00  0.00     0.074 A 
ATOM     56  C   UNL A   1      48.342  30.653  27.528  1.00  0.00     0.029 A 
ATOM     57  N   UNL A   1      46.821  29.033  27.431  1.00  0.00    -0.354 N 
ATOM     58  N   UNL A   1      45.897  26.268  27.038  1.00  0.00    -0.248 NA
ATOM     59  C   UNL A   1      46.326  24.052  26.436  1.00  0.00     0.031 C 
ATOM     60  C   UNL A   1      48.977  29.472  27.130  1.00  0.00     0.029 A 
ATOM     61  C   UNL A   1      48.035  28.457  27.093  1.00  0.00     0.049 A 
ATOM     62  H   UNL A   1      45.962  28.554  27.479  1.00  0.00     0.167 HD
ATOM     63  C   UNL A   1      47.251  26.127  26.754  1.00  0.00     0.074 A 
ATOM     64  C   UNL A   1      47.464  24.734  26.417  1.00  0.00     0.031 C 
ATOM     65  C   UNL A   1      48.230  27.065  26.771  1.00  0.00     0.037 A 
BRANCH  52  66
ATOM     66  C   UNL A   1      46.281  32.742  28.270  1.00  0.00     0.058 A 
ATOM     67  C   UNL A   1      46.718  33.221  29.516  1.00  0.00     0.135 A 
ATOM     68  C   UNL A   1      46.203  33.659  27.209  1.00  0.00     0.135 A 
ATOM     69  F   UNL A   1      46.795  32.392  30.569  1.00  0.00    -0.206 F 
ATOM     70  C   UNL A   1      47.035  34.561  29.712  1.00  0.00     0.059 A 
ATOM     71  C   UNL A   1      46.544  35.000  27.375  1.00  0.00     0.059 A 
ATOM     72  F   UNL A   1      45.793  33.258  25.997  1.00  0.00    -0.206 F 
ATOM     73  C   UNL A   1      46.945  35.444  28.635  1.00  0.00     0.060 A 
BRANCH  73  74
ATOM     74  S   UNL A   1      47.362  37.179  28.904  1.00  0.00     0.124 S 
ATOM     75  O   UNL A   1      48.141  37.480  27.708  1.00  0.00    -0.237 OA
ATOM     76  O   UNL A   1      46.047  37.808  28.979  1.00  0.00    -0.237 OA
ATOM     77  O   UNL A   1      48.115  37.158  30.154  1.00  0.00    -0.744 OA
ENDBRANCH  73  74
ENDBRANCH  52  66
BRANCH  53  78
ATOM     78  C   UNL A   1      43.543  23.226  26.841  1.00  0.00     0.058 A 
ATOM     79  C   UNL A   1      43.490  22.698  25.542  1.00  0.00     0.135 A 
ATOM     80  C   UNL A   1      43.210  22.374  27.906  1.00  0.00     0.135 A 
ATOM     81  F   UNL A   1      43.796  23.474  24.491  1.00  0.00    -0.206 F 
ATOM     82  C   UNL A   1      43.099  21.385  25.303  1.00  0.00     0.059 A 
ATOM     83  C   UNL A   1      42.841  21.049  27.695  1.00  0.00     0.059 A 
ATOM     84  F   UNL A   1      43.263  22.824  29.169  1.00  0.00    -0.206 F 
ATOM     85  C   UNL A   1      42.777  20.567  26.388  1.00  0.00     0.060 A 
BRANCH  85  86
ATOM     86  S   UNL A   1      42.308  18.852  26.071  1.00  0.00     0.124 S 
ATOM     87  O   UNL A   1      42.573  18.233  27.365  1.00  0.00    -0.237 OA
ATOM     88  O   UNL A   1      40.903  18.982  25.701  1.00  0.00    -0.237 OA
ATOM     89  O   UNL A   1      43.200  18.456  24.986  1.00  0.00    -0.744 OA
ENDBRANCH  85  86
ENDBRANCH  53  78
BRANCH  65  90
ATOM     90  C   UNL A   1      49.629  26.611  26.457  1.00  0.00     0.058 A 
ATOM     91  C   UNL A   1      50.432  25.973  27.416  1.00  0.00     0.135 A 
ATOM     92  C   UNL A   1      50.153  26.770  25.164  1.00  0.00     0.135 A 
ATOM     93  F   UNL A   1      49.981  25.803  28.668  1.00  0.00    -0.206 F 
ATOM     94  C   UNL A   1      51.714  25.530  27.110  1.00  0.00     0.059 A 
ATOM     95  C   UNL A   1      51.421  26.309  24.828  1.00  0.00     0.059 A 
ATOM     96  F   UNL A   1      49.422  27.364  24.207  1.00  0.00    -0.206 F 
ATOM     97  C   UNL A   1      52.199  25.701  25.812  1.00  0.00     0.060 A 
BRANCH  97  98
ATOM     98  S   UNL A   1      53.851  25.088  25.417  1.00  0.00     0.124 S 
ATOM     99  O   UNL A   1      54.648  25.685  26.482  1.00  0.00    -0.237 OA
ATOM    100  O   UNL A   1      53.674  23.641  25.493  1.00  0.00    -0.237 OA
ATOM    101  O   UNL A   1      54.098  25.613  24.077  1.00  0.00    -0.744 OA
ENDBRANCH  97  98
ENDBRANCH  65  90
ENDBRANCH  39  40
ENDBRANCH  31  34
ENDBRANCH  29  30
ENDBRANCH  28  29
ENDBRANCH   1  28
TORSDOF 18
ENDMDL
MODEL 3
REMARK VINA RESULT:     -11.5      4.546      9.033
REMARK SMILES Cc1cc2cc(-c3ccc([C@@H](C)C(=O)NCCCCCCNC(=O)c4ccc(-c5c6nc(c(-c7c(F)cc(S(=O)(=O)[O-])cc7F)c7ccc([nH]7)c(-c7c(F)cc(S(=O)(=O)[O-])cc7F)c7nc(c(-c8c(F)cc(S(=O)(=O)[O-])cc8F)c8ccc5[nH]8)C=C7)C=C6)cc4)cc3)ccc2[nH]1
REMARK SMILES IDX 19 1 18 2 17 3 16 4 15 5 13 6 14 7 11 9 12 10 10 11 7 12
REMARK SMILES IDX 8 13 92 14 9 15 91 16 6 17 1 18 2 19 3 20 96 21 4 22 95 23
REMARK SMILES IDX 5 25 94 26 93 27 20 28 21 29 22 30 23 31 24 33 25 34 26 35
REMARK SMILES IDX 90 36 27 37 89 38 28 39 29 40 30 41 83 42 31 43 88 44 82 45
REMARK SMILES IDX 84 46 32 47 87 48 81 49 80 50 33 52 67 53 46 54 66 55 47 56
REMARK SMILES IDX 50 57 65 58 85 59 48 60 49 61 64 63 86 64 51 65 34 66 35 67
REMARK SMILES IDX 44 68 36 69 37 70 43 71 45 72 38 73 39 74 40 75 41 76 42 77
REMARK SMILES IDX 68 78 69 79 78 80 70 81 71 82 77 83 79 84 72 85 73 86 74 87
REMARK SMILES IDX 75 88 76 89 52 90 53 91 62 92 54 93 55 94 61 95 63 96 56 97
REMARK SMILES IDX 57 98 58 99 59 100 60 101
REMARK H PARENT 15 8 96 24 22 32 84 51 50 62
REMARK Flexibility Score: inf
ROOT
ATOM      1  C   UNL A   1      35.757  32.991  31.497  1.00  0.00     0.002 C 
ENDROOT
BRANCH   1   2
ATOM      2  C   UNL A   1      37.093  32.928  30.744  1.00  0.00     0.002 C 
BRANCH   2   3
ATOM      3  C   UNL A   1      38.183  33.862  31.281  1.00  0.00     0.021 C 
BRANCH   3   4
ATOM      4  C   UNL A   1      37.807  34.566  32.586  1.00  0.00     0.116 C 
BRANCH   4   5
ATOM      5  N   UNL A   1      38.909  34.578  33.528  1.00  0.00    -0.356 N 
ATOM      6  C   UNL A   1      39.296  33.688  34.480  1.00  0.00     0.227 C 
ATOM      7  O   UNL A   1      40.251  34.027  35.194  1.00  0.00    -0.274 OA
ATOM      8  H   UNL A   1      39.480  35.378  33.468  1.00  0.00     0.163 HD
BRANCH   6   9
ATOM      9  C   UNL A   1      38.639  32.315  34.690  1.00  0.00     0.105 C 
ATOM     10  C   UNL A   1      37.748  32.237  35.932  1.00  0.00     0.023 C 
BRANCH   9  11
ATOM     11  C   UNL A   1      39.590  31.147  34.484  1.00  0.00    -0.036 A 
ATOM     12  C   UNL A   1      41.314  28.886  34.209  1.00  0.00    -0.018 A 
ATOM     13  C   UNL A   1      40.389  29.239  33.214  1.00  0.00     0.009 A 
ATOM     14  C   UNL A   1      41.366  29.702  35.347  1.00  0.00     0.009 A 
ATOM     15  C   UNL A   1      39.577  30.367  33.329  1.00  0.00     0.005 A 
ATOM     16  C   UNL A   1      40.506  30.802  35.491  1.00  0.00     0.005 A 
BRANCH  12  17
ATOM     17  C   UNL A   1      42.183  27.705  34.021  1.00  0.00    -0.018 A 
ATOM     18  C   UNL A   1      44.592  22.224  35.342  1.00  0.00     0.064 C 
ATOM     19  C   UNL A   1      44.041  23.546  34.957  1.00  0.00     0.013 A 
ATOM     20  C   UNL A   1      42.961  24.241  35.459  1.00  0.00     0.031 A 
ATOM     21  N   UNL A   1      44.599  24.317  33.964  1.00  0.00    -0.359 N 
ATOM     22  C   UNL A   1      42.868  25.467  34.752  1.00  0.00     0.000 A 
ATOM     23  C   UNL A   1      43.904  25.498  33.824  1.00  0.00     0.046 A 
ATOM     24  H   UNL A   1      45.385  24.061  33.430  1.00  0.00     0.166 HD
ATOM     25  C   UNL A   1      41.997  26.566  34.831  1.00  0.00     0.019 A 
ATOM     26  C   UNL A   1      44.106  26.586  32.967  1.00  0.00     0.027 A 
ATOM     27  C   UNL A   1      43.236  27.683  33.090  1.00  0.00     0.011 A 
ENDBRANCH  12  17
ENDBRANCH   9  11
ENDBRANCH   6   9
ENDBRANCH   4   5
ENDBRANCH   3   4
ENDBRANCH   2   3
ENDBRANCH   1   2
BRANCH   1  28
ATOM     28  C   UNL A   1      34.513  32.671  30.661  1.00  0.00     0.021 C 
BRANCH  28  29
ATOM     29  C   UNL A   1      34.752  32.624  29.154  1.00  0.00     0.116 C 
BRANCH  29  30
ATOM     30  N   UNL A   1      34.049  31.512  28.532  1.00  0.00    -0.352 N 
ATOM     31  C   UNL A   1      34.546  30.347  28.007  1.00  0.00     0.251 C 
ATOM     32  H   UNL A   1      33.071  31.612  28.480  1.00  0.00     0.163 HD
ATOM     33  O   UNL A   1      33.830  29.639  27.304  1.00  0.00    -0.269 OA
BRANCH  31  34
ATOM     34  C   UNL A   1      35.943  29.947  28.282  1.00  0.00     0.039 A 
ATOM     35  C   UNL A   1      36.896  30.067  27.267  1.00  0.00     0.014 A 
ATOM     36  C   UNL A   1      36.306  29.424  29.527  1.00  0.00     0.014 A 
ATOM     37  C   UNL A   1      38.224  29.712  27.518  1.00  0.00     0.010 A 
ATOM     38  C   UNL A   1      37.641  29.135  29.796  1.00  0.00     0.010 A 
ATOM     39  C   UNL A   1      38.613  29.270  28.793  1.00  0.00    -0.014 A 
BRANCH  39  40
ATOM     40  C   UNL A   1      40.028  28.933  29.095  1.00  0.00     0.031 A 
ATOM     41  C   UNL A   1      40.928  29.955  29.735  1.00  0.00     0.074 A 
ATOM     42  C   UNL A   1      40.515  27.727  28.740  1.00  0.00     0.049 A 
ATOM     43  N   UNL A   1      42.205  29.876  30.008  1.00  0.00    -0.248 NA
ATOM     44  C   UNL A   1      40.317  31.246  30.092  1.00  0.00     0.031 C 
ATOM     45  C   UNL A   1      39.751  26.667  28.077  1.00  0.00     0.029 A 
ATOM     46  N   UNL A   1      41.772  27.193  28.875  1.00  0.00    -0.354 N 
ATOM     47  C   UNL A   1      42.552  31.104  30.558  1.00  0.00     0.074 A 
ATOM     48  C   UNL A   1      41.365  31.930  30.529  1.00  0.00     0.031 C 
ATOM     49  C   UNL A   1      40.548  25.604  27.884  1.00  0.00     0.029 A 
ATOM     50  C   UNL A   1      41.888  25.919  28.372  1.00  0.00     0.049 A 
ATOM     51  H   UNL A   1      42.521  27.676  29.294  1.00  0.00     0.167 HD
ATOM     52  C   UNL A   1      43.745  31.499  31.065  1.00  0.00     0.037 A 
ATOM     53  C   UNL A   1      42.955  25.098  28.305  1.00  0.00     0.037 A 
ATOM     54  C   UNL A   1      44.917  30.664  31.109  1.00  0.00     0.049 A 
ATOM     55  C   UNL A   1      44.272  25.564  28.863  1.00  0.00     0.074 A 
ATOM     56  C   UNL A   1      46.162  30.955  31.640  1.00  0.00     0.029 A 
ATOM     57  N   UNL A   1      44.990  29.374  30.605  1.00  0.00    -0.354 N 
ATOM     58  N   UNL A   1      44.570  26.712  29.427  1.00  0.00    -0.248 NA
ATOM     59  C   UNL A   1      45.398  24.624  28.783  1.00  0.00     0.031 C 
ATOM     60  C   UNL A   1      46.999  29.855  31.420  1.00  0.00     0.029 A 
ATOM     61  C   UNL A   1      46.262  28.861  30.797  1.00  0.00     0.049 A 
ATOM     62  H   UNL A   1      44.247  28.894  30.173  1.00  0.00     0.167 HD
ATOM     63  C   UNL A   1      45.907  26.618  29.796  1.00  0.00     0.074 A 
ATOM     64  C   UNL A   1      46.358  25.300  29.400  1.00  0.00     0.031 C 
ATOM     65  C   UNL A   1      46.691  27.541  30.407  1.00  0.00     0.037 A 
BRANCH  52  66
ATOM     66  C   UNL A   1      43.838  32.894  31.621  1.00  0.00     0.058 A 
ATOM     67  C   UNL A   1      43.479  33.183  32.947  1.00  0.00     0.135 A 
ATOM     68  C   UNL A   1      44.321  33.950  30.831  1.00  0.00     0.135 A 
ATOM     69  F   UNL A   1      42.996  32.216  33.743  1.00  0.00    -0.206 F 
ATOM     70  C   UNL A   1      43.565  34.472  33.462  1.00  0.00     0.059 A 
ATOM     71  C   UNL A   1      44.444  35.243  31.333  1.00  0.00     0.059 A 
ATOM     72  F   UNL A   1      44.680  33.733  29.556  1.00  0.00    -0.206 F 
ATOM     73  C   UNL A   1      44.049  35.497  32.647  1.00  0.00     0.060 A 
BRANCH  73  74
ATOM     74  S   UNL A   1      44.156  37.165  33.330  1.00  0.00     0.124 S 
ATOM     75  O   UNL A   1      42.861  37.292  33.989  1.00  0.00    -0.237 OA
ATOM     76  O   UNL A   1      45.312  37.065  34.216  1.00  0.00    -0.237 OA
ATOM     77  O   UNL A   1      44.345  38.004  32.151  1.00  0.00    -0.744 OA
ENDBRANCH  73  74
ENDBRANCH  52  66
BRANCH  53  78
ATOM     78  C   UNL A   1      42.817  23.743  27.707  1.00  0.00     0.058 A 
ATOM     79  C   UNL A   1      43.024  23.538  26.335  1.00  0.00     0.135 A 
ATOM     80  C   UNL A   1      42.483  22.628  28.492  1.00  0.00     0.135 A 
ATOM     81  F   UNL A   1      43.341  24.573  25.543  1.00  0.00    -0.206 F 
ATOM     82  C   UNL A   1      42.882  22.281  25.756  1.00  0.00     0.059 A 
ATOM     83  C   UNL A   1      42.362  21.356  27.941  1.00  0.00     0.059 A 
ATOM     84  F   UNL A   1      42.294  22.767  29.813  1.00  0.00    -0.206 F 
ATOM     85  C   UNL A   1      42.551  21.195  26.568  1.00  0.00     0.060 A 
BRANCH  85  86
ATOM     86  S   UNL A   1      42.407  19.560  25.814  1.00  0.00     0.124 S 
ATOM     87  O   UNL A   1      43.403  19.640  24.752  1.00  0.00    -0.237 OA
ATOM     88  O   UNL A   1      42.733  18.678  26.930  1.00  0.00    -0.237 OA
ATOM     89  O   UNL A   1      41.016  19.515  25.376  1.00  0.00    -0.744 OA
ENDBRANCH  85  86
ENDBRANCH  53  78
BRANCH  65  90
ATOM     90  C   UNL A   1      48.107  27.144  30.725  1.00  0.00     0.058 A 
ATOM     91  C   UNL A   1      48.433  26.450  31.900  1.00  0.00     0.135 A 
ATOM     92  C   UNL A   1      49.141  27.418  29.815  1.00  0.00     0.135 A 
ATOM     93  F   UNL A   1      47.483  26.169  32.805  1.00  0.00    -0.206 F 
ATOM     94  C   UNL A   1      49.740  26.061  32.173  1.00  0.00     0.059 A 
ATOM     95  C   UNL A   1      50.450  27.013  30.054  1.00  0.00     0.059 A 
ATOM     96  F   UNL A   1      48.880  28.069  28.671  1.00  0.00    -0.206 F 
ATOM     97  C   UNL A   1      50.742  26.345  31.243  1.00  0.00     0.060 A 
BRANCH  97  98
ATOM     98  S   UNL A   1      52.428  25.803  31.592  1.00  0.00     0.124 S 
ATOM     99  O   UNL A   1      52.209  24.432  32.039  1.00  0.00    -0.237 OA
ATOM    100  O   UNL A   1      53.079  25.951  30.294  1.00  0.00    -0.237 OA
ATOM    101  O   UNL A   1      52.879  26.735  32.622  1.00  0.00    -0.744 OA
ENDBRANCH  97  98
ENDBRANCH  65  90
ENDBRANCH  39  40
ENDBRANCH  31  34
ENDBRANCH  29  30
ENDBRANCH  28  29
ENDBRANCH   1  28
TORSDOF 18
ENDMDL
