MODEL 1
REMARK VINA RESULT:     -11.0      0.000      0.000
REMARK SMILES Cc1cc(SCC(=O)NCCCCCCNC(=O)c2ccc(-c3c4nc(c(-c5c(F)cc(S(=O)(=O)[O-])cc5F)c5ccc([nH]5)c(-c5c(F)cc(S(=O)(=O)[O-])cc5F)c5nc(c(-c6c(F)cc(S(=O)(=O)[O-])cc6F)c6ccc3[nH]6)C=C5)C=C4)cc2)c2cc(I)ccc2n1
REMARK SMILES IDX 13 1 12 2 11 3 10 4 9 5 7 6 8 7 6 9 5 10 4 11 1 12 2 13 3 14
REMARK SMILES IDX 92 15 91 16 85 17 90 18 86 19 89 20 87 21 88 22 14 23 15 24
REMARK SMILES IDX 16 25 17 26 18 28 19 29 20 30 84 31 21 32 83 33 22 34 23 35
REMARK SMILES IDX 24 36 77 37 25 38 82 39 76 40 78 41 26 42 81 43 75 44 74 45
REMARK SMILES IDX 27 47 61 48 40 49 60 50 41 51 44 52 59 53 79 54 42 55 43 56
REMARK SMILES IDX 58 58 80 59 45 60 28 61 29 62 38 63 30 64 31 65 37 66 39 67
REMARK SMILES IDX 32 68 33 69 34 70 35 71 36 72 62 73 63 74 72 75 64 76 65 77
REMARK SMILES IDX 71 78 73 79 66 80 67 81 68 82 69 83 70 84 46 85 47 86 56 87
REMARK SMILES IDX 48 88 49 89 55 90 57 91 50 92 51 93 52 94 53 95 54 96
REMARK H PARENT 9 8 16 27 78 46 44 57
REMARK Flexibility Score: inf
ROOT
ATOM      1  C   UNL A   1      31.518  28.583  25.642  1.00  0.00     0.002 C 
ENDROOT
BRANCH   1   2
ATOM      2  C   UNL A   1      31.090  29.153  24.285  1.00  0.00     0.002 C 
BRANCH   2   3
ATOM      3  C   UNL A   1      31.703  28.469  23.052  1.00  0.00     0.021 C 
BRANCH   3   4
ATOM      4  C   UNL A   1      31.037  27.148  22.660  1.00  0.00     0.116 C 
BRANCH   4   5
ATOM      5  N   UNL A   1      31.656  26.591  21.473  1.00  0.00    -0.355 N 
ATOM      6  C   UNL A   1      32.724  25.759  21.350  1.00  0.00     0.230 C 
ATOM      7  O   UNL A   1      33.118  25.497  20.209  1.00  0.00    -0.274 OA
ATOM      8  H   UNL A   1      31.236  26.856  20.622  1.00  0.00     0.163 HD
BRANCH   6   9
ATOM      9  C   UNL A   1      33.355  25.092  22.555  1.00  0.00     0.174 C 
BRANCH   9  10
ATOM     10  S   UNL A   1      33.545  23.285  22.455  1.00  0.00    -0.115 SA
BRANCH  10  11
ATOM     11  C   UNL A   1      34.472  22.774  23.914  1.00  0.00     0.019 A 
ATOM     12  C   UNL A   1      37.965  21.795  24.976  1.00  0.00     0.067 C 
ATOM     13  C   UNL A   1      36.499  22.106  25.007  1.00  0.00     0.039 A 
ATOM     14  C   UNL A   1      35.826  22.447  23.845  1.00  0.00     0.039 A 
ATOM     15  N   UNL A   1      35.882  21.998  26.202  1.00  0.00    -0.253 NA
ATOM     16  C   UNL A   1      34.570  22.258  26.277  1.00  0.00     0.072 A 
ATOM     17  C   UNL A   1      33.799  22.663  25.166  1.00  0.00     0.015 A 
ATOM     18  C   UNL A   1      33.959  22.111  27.516  1.00  0.00     0.030 A 
ATOM     19  C   UNL A   1      32.414  22.920  25.376  1.00  0.00     0.026 A 
ATOM     20  C   UNL A   1      32.597  22.356  27.708  1.00  0.00     0.017 A 
ATOM     21  C   UNL A   1      31.826  22.765  26.631  1.00  0.00     0.014 A 
ATOM     22  I   UNL A   1      29.801  23.136  26.887  1.00  0.00    -0.044 I 
ENDBRANCH  10  11
ENDBRANCH   9  10
ENDBRANCH   6   9
ENDBRANCH   4   5
ENDBRANCH   3   4
ENDBRANCH   2   3
ENDBRANCH   1   2
BRANCH   1  23
ATOM     23  C   UNL A   1      33.013  28.291  25.789  1.00  0.00     0.021 C 
BRANCH  23  24
ATOM     24  C   UNL A   1      33.573  28.499  27.191  1.00  0.00     0.116 C 
BRANCH  24  25
ATOM     25  N   UNL A   1      33.520  29.888  27.619  1.00  0.00    -0.352 N 
ATOM     26  C   UNL A   1      34.504  30.647  28.211  1.00  0.00     0.251 C 
ATOM     27  H   UNL A   1      32.664  30.349  27.462  1.00  0.00     0.163 HD
ATOM     28  O   UNL A   1      34.249  31.768  28.640  1.00  0.00    -0.269 OA
BRANCH  26  29
ATOM     29  C   UNL A   1      35.864  30.083  28.360  1.00  0.00     0.039 A 
ATOM     30  C   UNL A   1      36.269  29.525  29.575  1.00  0.00     0.014 A 
ATOM     31  C   UNL A   1      36.754  30.157  27.286  1.00  0.00     0.014 A 
ATOM     32  C   UNL A   1      37.606  29.189  29.765  1.00  0.00     0.010 A 
ATOM     33  C   UNL A   1      38.081  29.750  27.458  1.00  0.00     0.010 A 
ATOM     34  C   UNL A   1      38.529  29.309  28.712  1.00  0.00    -0.014 A 
BRANCH  34  35
ATOM     35  C   UNL A   1      39.959  28.984  28.953  1.00  0.00     0.031 A 
ATOM     36  C   UNL A   1      40.848  29.941  29.703  1.00  0.00     0.074 A 
ATOM     37  C   UNL A   1      40.438  27.789  28.558  1.00  0.00     0.049 A 
ATOM     38  N   UNL A   1      42.112  29.816  30.021  1.00  0.00    -0.248 NA
ATOM     39  C   UNL A   1      40.239  31.201  30.157  1.00  0.00     0.031 C 
ATOM     40  C   UNL A   1      39.667  26.764  27.854  1.00  0.00     0.029 A 
ATOM     41  N   UNL A   1      41.675  27.220  28.722  1.00  0.00    -0.354 N 
ATOM     42  C   UNL A   1      42.452  30.979  30.702  1.00  0.00     0.074 A 
ATOM     43  C   UNL A   1      41.270  31.813  30.725  1.00  0.00     0.031 C 
ATOM     44  C   UNL A   1      40.425  25.669  27.705  1.00  0.00     0.029 A 
ATOM     45  C   UNL A   1      41.754  25.932  28.247  1.00  0.00     0.049 A 
ATOM     46  H   UNL A   1      42.434  27.688  29.140  1.00  0.00     0.167 HD
ATOM     47  C   UNL A   1      43.638  31.316  31.267  1.00  0.00     0.037 A 
ATOM     48  C   UNL A   1      42.780  25.061  28.247  1.00  0.00     0.037 A 
ATOM     49  C   UNL A   1      44.812  30.482  31.246  1.00  0.00     0.049 A 
ATOM     50  C   UNL A   1      44.098  25.477  28.830  1.00  0.00     0.074 A 
ATOM     51  C   UNL A   1      46.069  30.750  31.760  1.00  0.00     0.029 A 
ATOM     52  N   UNL A   1      44.870  29.212  30.692  1.00  0.00    -0.354 N 
ATOM     53  N   UNL A   1      44.417  26.603  29.423  1.00  0.00    -0.248 NA
ATOM     54  C   UNL A   1      45.201  24.511  28.733  1.00  0.00     0.031 C 
ATOM     55  C   UNL A   1      46.895  29.651  31.494  1.00  0.00     0.029 A 
ATOM     56  C   UNL A   1      46.142  28.684  30.847  1.00  0.00     0.049 A 
ATOM     57  H   UNL A   1      44.119  28.752  30.252  1.00  0.00     0.167 HD
ATOM     58  C   UNL A   1      45.754  26.478  29.779  1.00  0.00     0.074 A 
ATOM     59  C   UNL A   1      46.180  25.162  29.347  1.00  0.00     0.031 C 
ATOM     60  C   UNL A   1      46.554  27.374  30.407  1.00  0.00     0.037 A 
BRANCH  47  61
ATOM     61  C   UNL A   1      43.723  32.654  31.948  1.00  0.00     0.058 A 
ATOM     62  C   UNL A   1      44.068  33.816  31.240  1.00  0.00     0.135 A 
ATOM     63  C   UNL A   1      43.439  32.781  33.317  1.00  0.00     0.135 A 
ATOM     64  F   UNL A   1      44.366  33.747  29.933  1.00  0.00    -0.206 F 
ATOM     65  C   UNL A   1      44.155  35.053  31.870  1.00  0.00     0.059 A 
ATOM     66  C   UNL A   1      43.499  34.012  33.965  1.00  0.00     0.059 A 
ATOM     67  F   UNL A   1      43.105  31.702  34.041  1.00  0.00    -0.206 F 
ATOM     68  C   UNL A   1      43.874  35.140  33.235  1.00  0.00     0.060 A 
BRANCH  68  69
ATOM     69  S   UNL A   1      44.010  36.749  34.043  1.00  0.00     0.124 S 
ATOM     70  O   UNL A   1      44.483  36.368  35.370  1.00  0.00    -0.237 OA
ATOM     71  O   UNL A   1      44.978  37.443  33.201  1.00  0.00    -0.237 OA
ATOM     72  O   UNL A   1      42.648  37.272  33.989  1.00  0.00    -0.744 OA
ENDBRANCH  68  69
ENDBRANCH  47  61
BRANCH  48  73
ATOM     73  C   UNL A   1      42.578  23.699  27.692  1.00  0.00     0.058 A 
ATOM     74  C   UNL A   1      42.655  23.472  26.311  1.00  0.00     0.135 A 
ATOM     75  C   UNL A   1      42.371  22.593  28.530  1.00  0.00     0.135 A 
ATOM     76  F   UNL A   1      42.845  24.501  25.471  1.00  0.00    -0.206 F 
ATOM     77  C   UNL A   1      42.545  22.192  25.779  1.00  0.00     0.059 A 
ATOM     78  C   UNL A   1      42.279  21.301  28.023  1.00  0.00     0.059 A 
ATOM     79  F   UNL A   1      42.303  22.761  29.860  1.00  0.00    -0.206 F 
ATOM     80  C   UNL A   1      42.367  21.111  26.644  1.00  0.00     0.060 A 
BRANCH  80  81
ATOM     81  S   UNL A   1      42.321  19.444  25.951  1.00  0.00     0.124 S 
ATOM     82  O   UNL A   1      42.804  18.646  27.072  1.00  0.00    -0.237 OA
ATOM     83  O   UNL A   1      40.909  19.289  25.617  1.00  0.00    -0.237 OA
ATOM     84  O   UNL A   1      43.221  19.534  24.805  1.00  0.00    -0.744 OA
ENDBRANCH  80  81
ENDBRANCH  48  73
BRANCH  60  85
ATOM     85  C   UNL A   1      47.970  26.957  30.678  1.00  0.00     0.058 A 
ATOM     86  C   UNL A   1      49.020  27.333  29.828  1.00  0.00     0.135 A 
ATOM     87  C   UNL A   1      48.284  26.211  31.825  1.00  0.00     0.135 A 
ATOM     88  F   UNL A   1      48.768  28.040  28.715  1.00  0.00    -0.206 F 
ATOM     89  C   UNL A   1      50.335  26.969  30.097  1.00  0.00     0.059 A 
ATOM     90  C   UNL A   1      49.595  25.852  32.123  1.00  0.00     0.059 A 
ATOM     91  F   UNL A   1      47.315  25.833  32.673  1.00  0.00    -0.206 F 
ATOM     92  C   UNL A   1      50.613  26.228  31.247  1.00  0.00     0.060 A 
BRANCH  92  93
ATOM     93  S   UNL A   1      52.328  25.788  31.601  1.00  0.00     0.124 S 
ATOM     94  O   UNL A   1      52.678  26.772  32.622  1.00  0.00    -0.237 OA
ATOM     95  O   UNL A   1      52.210  24.409  32.065  1.00  0.00    -0.237 OA
ATOM     96  O   UNL A   1      52.993  25.956  30.313  1.00  0.00    -0.744 OA
ENDBRANCH  92  93
ENDBRANCH  60  85
ENDBRANCH  34  35
ENDBRANCH  26  29
ENDBRANCH  24  25
ENDBRANCH  23  24
ENDBRANCH   1  23
TORSDOF 18
ENDMDL
MODEL 2
REMARK VINA RESULT:     -10.9      4.489     10.475
REMARK SMILES Cc1cc(SCC(=O)NCCCCCCNC(=O)c2ccc(-c3c4nc(c(-c5c(F)cc(S(=O)(=O)[O-])cc5F)c5ccc([nH]5)c(-c5c(F)cc(S(=O)(=O)[O-])cc5F)c5nc(c(-c6c(F)cc(S(=O)(=O)[O-])cc6F)c6ccc3[nH]6)C=C5)C=C4)cc2)c2cc(I)ccc2n1
REMARK SMILES IDX 13 1 12 2 11 3 10 4 9 5 7 6 8 7 6 9 5 10 4 11 1 12 2 13 3 14
REMARK SMILES IDX 92 15 91 16 85 17 90 18 86 19 89 20 87 21 88 22 14 23 15 24
REMARK SMILES IDX 16 25 17 26 18 28 19 29 20 30 84 31 21 32 83 33 22 34 23 35
REMARK SMILES IDX 24 36 77 37 25 38 82 39 76 40 78 41 26 42 81 43 75 44 74 45
REMARK SMILES IDX 27 47 61 48 40 49 60 50 41 51 44 52 59 53 79 54 42 55 43 56
REMARK SMILES IDX 58 58 80 59 45 60 28 61 29 62 38 63 30 64 31 65 37 66 39 67
REMARK SMILES IDX 32 68 33 69 34 70 35 71 36 72 62 73 63 74 72 75 64 76 65 77
REMARK SMILES IDX 71 78 73 79 66 80 67 81 68 82 69 83 70 84 46 85 47 86 56 87
REMARK SMILES IDX 48 88 49 89 55 90 57 91 50 92 51 93 52 94 53 95 54 96
REMARK H PARENT 9 8 16 27 78 46 44 57
REMARK Flexibility Score: inf
ROOT
ATOM      1  C   UNL A   1      42.293  22.557  28.227  1.00  0.00     0.002 C 
ENDROOT
BRANCH   1   2
ATOM      2  C   UNL A   1      41.140  21.585  27.957  1.00  0.00     0.002 C 
BRANCH   2   3
ATOM      3  C   UNL A   1      40.506  21.672  26.560  1.00  0.00     0.021 C 
BRANCH   3   4
ATOM      4  C   UNL A   1      39.160  22.400  26.516  1.00  0.00     0.116 C 
BRANCH   4   5
ATOM      5  N   UNL A   1      38.549  22.275  25.207  1.00  0.00    -0.355 N 
ATOM      6  C   UNL A   1      37.247  22.094  24.862  1.00  0.00     0.230 C 
ATOM      7  O   UNL A   1      36.989  21.923  23.666  1.00  0.00    -0.274 OA
ATOM      8  H   UNL A   1      39.175  22.330  24.449  1.00  0.00     0.163 HD
BRANCH   6   9
ATOM      9  C   UNL A   1      36.132  22.194  25.883  1.00  0.00     0.174 C 
BRANCH   9  10
ATOM     10  S   UNL A   1      35.256  23.787  25.950  1.00  0.00    -0.115 SA
BRANCH  10  11
ATOM     11  C   UNL A   1      33.738  23.592  24.996  1.00  0.00     0.019 A 
ATOM     12  C   UNL A   1      32.126  21.264  22.492  1.00  0.00     0.067 C 
ATOM     13  C   UNL A   1      32.361  22.411  23.427  1.00  0.00     0.039 A 
ATOM     14  C   UNL A   1      33.567  22.538  24.099  1.00  0.00     0.039 A 
ATOM     15  N   UNL A   1      31.365  23.313  23.543  1.00  0.00    -0.253 NA
ATOM     16  C   UNL A   1      31.532  24.360  24.361  1.00  0.00     0.072 A 
ATOM     17  C   UNL A   1      32.699  24.558  25.131  1.00  0.00     0.015 A 
ATOM     18  C   UNL A   1      30.498  25.285  24.438  1.00  0.00     0.030 A 
ATOM     19  C   UNL A   1      32.754  25.706  25.972  1.00  0.00     0.026 A 
ATOM     20  C   UNL A   1      30.567  26.413  25.258  1.00  0.00     0.017 A 
ATOM     21  C   UNL A   1      31.700  26.618  26.029  1.00  0.00     0.014 A 
ATOM     22  I   UNL A   1      31.831  28.285  27.258  1.00  0.00    -0.044 I 
ENDBRANCH  10  11
ENDBRANCH   9  10
ENDBRANCH   6   9
ENDBRANCH   4   5
ENDBRANCH   3   4
ENDBRANCH   2   3
ENDBRANCH   1   2
BRANCH   1  23
ATOM     23  C   UNL A   1      43.386  22.590  27.157  1.00  0.00     0.021 C 
BRANCH  23  24
ATOM     24  C   UNL A   1      43.719  23.978  26.621  1.00  0.00     0.116 C 
BRANCH  24  25
ATOM     25  N   UNL A   1      42.729  24.468  25.674  1.00  0.00    -0.352 N 
ATOM     26  C   UNL A   1      41.722  25.384  25.875  1.00  0.00     0.251 C 
ATOM     27  H   UNL A   1      42.789  24.094  24.765  1.00  0.00     0.163 HD
ATOM     28  O   UNL A   1      40.881  25.583  25.003  1.00  0.00    -0.269 OA
BRANCH  26  29
ATOM     29  C   UNL A   1      41.640  26.100  27.167  1.00  0.00     0.039 A 
ATOM     30  C   UNL A   1      40.718  25.702  28.139  1.00  0.00     0.014 A 
ATOM     31  C   UNL A   1      42.463  27.207  27.387  1.00  0.00     0.014 A 
ATOM     32  C   UNL A   1      40.509  26.504  29.257  1.00  0.00     0.010 A 
ATOM     33  C   UNL A   1      42.300  27.971  28.547  1.00  0.00     0.010 A 
ATOM     34  C   UNL A   1      41.289  27.654  29.467  1.00  0.00    -0.014 A 
BRANCH  34  35
ATOM     35  C   UNL A   1      41.017  28.516  30.647  1.00  0.00     0.031 A 
ATOM     36  C   UNL A   1      41.932  28.492  31.843  1.00  0.00     0.074 A 
ATOM     37  C   UNL A   1      39.983  29.378  30.608  1.00  0.00     0.049 A 
ATOM     38  N   UNL A   1      41.860  29.188  32.950  1.00  0.00    -0.248 NA
ATOM     39  C   UNL A   1      43.077  27.570  31.789  1.00  0.00     0.031 C 
ATOM     40  C   UNL A   1      39.047  29.518  29.492  1.00  0.00     0.029 A 
ATOM     41  N   UNL A   1      39.565  30.320  31.512  1.00  0.00    -0.354 N 
ATOM     42  C   UNL A   1      42.941  28.784  33.726  1.00  0.00     0.074 A 
ATOM     43  C   UNL A   1      43.636  27.758  32.977  1.00  0.00     0.031 C 
ATOM     44  C   UNL A   1      38.207  30.531  29.747  1.00  0.00     0.029 A 
ATOM     45  C   UNL A   1      38.505  31.073  31.069  1.00  0.00     0.049 A 
ATOM     46  H   UNL A   1      39.986  30.445  32.394  1.00  0.00     0.167 HD
ATOM     47  C   UNL A   1      43.325  29.234  34.946  1.00  0.00     0.037 A 
ATOM     48  C   UNL A   1      37.844  32.087  31.660  1.00  0.00     0.037 A 
ATOM     49  C   UNL A   1      42.634  30.257  35.688  1.00  0.00     0.049 A 
ATOM     50  C   UNL A   1      38.254  32.531  33.033  1.00  0.00     0.074 A 
ATOM     51  C   UNL A   1      42.925  30.756  36.946  1.00  0.00     0.029 A 
ATOM     52  N   UNL A   1      41.519  30.947  35.233  1.00  0.00    -0.354 N 
ATOM     53  N   UNL A   1      39.246  32.099  33.775  1.00  0.00    -0.248 NA
ATOM     54  C   UNL A   1      37.448  33.589  33.656  1.00  0.00     0.031 C 
ATOM     55  C   UNL A   1      41.971  31.731  37.262  1.00  0.00     0.029 A 
ATOM     56  C   UNL A   1      41.108  31.865  36.186  1.00  0.00     0.049 A 
ATOM     57  H   UNL A   1      41.084  30.806  34.361  1.00  0.00     0.167 HD
ATOM     58  C   UNL A   1      39.191  32.840  34.949  1.00  0.00     0.074 A 
ATOM     59  C   UNL A   1      38.076  33.756  34.813  1.00  0.00     0.031 C 
ATOM     60  C   UNL A   1      39.993  32.766  36.040  1.00  0.00     0.037 A 
BRANCH  47  61
ATOM     61  C   UNL A   1      44.548  28.609  35.559  1.00  0.00     0.058 A 
ATOM     62  C   UNL A   1      44.459  27.468  36.372  1.00  0.00     0.135 A 
ATOM     63  C   UNL A   1      45.823  29.143  35.316  1.00  0.00     0.135 A 
ATOM     64  F   UNL A   1      43.263  26.928  36.650  1.00  0.00    -0.206 F 
ATOM     65  C   UNL A   1      45.589  26.894  36.946  1.00  0.00     0.059 A 
ATOM     66  C   UNL A   1      46.970  28.574  35.863  1.00  0.00     0.059 A 
ATOM     67  F   UNL A   1      45.965  30.233  34.547  1.00  0.00    -0.206 F 
ATOM     68  C   UNL A   1      46.840  27.458  36.690  1.00  0.00     0.060 A 
BRANCH  68  69
ATOM     69  S   UNL A   1      48.295  26.713  37.457  1.00  0.00     0.124 S 
ATOM     70  O   UNL A   1      48.975  26.145  36.297  1.00  0.00    -0.237 OA
ATOM     71  O   UNL A   1      48.949  27.862  38.074  1.00  0.00    -0.237 OA
ATOM     72  O   UNL A   1      47.729  25.743  38.389  1.00  0.00    -0.744 OA
ENDBRANCH  68  69
ENDBRANCH  47  61
BRANCH  48  73
ATOM     73  C   UNL A   1      36.739  32.759  30.931  1.00  0.00     0.058 A 
ATOM     74  C   UNL A   1      35.402  32.496  31.258  1.00  0.00     0.135 A 
ATOM     75  C   UNL A   1      36.997  33.721  29.942  1.00  0.00     0.135 A 
ATOM     76  F   UNL A   1      35.108  31.577  32.191  1.00  0.00    -0.206 F 
ATOM     77  C   UNL A   1      34.356  33.172  30.639  1.00  0.00     0.059 A 
ATOM     78  C   UNL A   1      35.970  34.425  29.324  1.00  0.00     0.059 A 
ATOM     79  F   UNL A   1      38.263  34.016  29.605  1.00  0.00    -0.206 F 
ATOM     80  C   UNL A   1      34.651  34.143  29.680  1.00  0.00     0.060 A 
BRANCH  80  81
ATOM     81  S   UNL A   1      33.291  35.082  28.952  1.00  0.00     0.124 S 
ATOM     82  O   UNL A   1      34.000  36.198  28.338  1.00  0.00    -0.237 OA
ATOM     83  O   UNL A   1      32.707  34.111  28.031  1.00  0.00    -0.237 OA
ATOM     84  O   UNL A   1      32.461  35.416  30.105  1.00  0.00    -0.744 OA
ENDBRANCH  80  81
ENDBRANCH  48  73
BRANCH  60  85
ATOM     85  C   UNL A   1      39.703  33.711  37.169  1.00  0.00     0.058 A 
ATOM     86  C   UNL A   1      38.915  33.324  38.264  1.00  0.00     0.135 A 
ATOM     87  C   UNL A   1      40.255  35.002  37.176  1.00  0.00     0.135 A 
ATOM     88  F   UNL A   1      38.359  32.104  38.298  1.00  0.00    -0.206 F 
ATOM     89  C   UNL A   1      38.671  34.193  39.323  1.00  0.00     0.059 A 
ATOM     90  C   UNL A   1      40.039  35.880  38.234  1.00  0.00     0.059 A 
ATOM     91  F   UNL A   1      41.021  35.416  36.154  1.00  0.00    -0.206 F 
ATOM     92  C   UNL A   1      39.238  35.470  39.299  1.00  0.00     0.060 A 
BRANCH  92  93
ATOM     93  S   UNL A   1      38.939  36.576  40.694  1.00  0.00     0.124 S 
ATOM     94  O   UNL A   1      40.253  36.607  41.330  1.00  0.00    -0.237 OA
ATOM     95  O   UNL A   1      38.526  37.810  40.034  1.00  0.00    -0.237 OA
ATOM     96  O   UNL A   1      37.892  35.894  41.448  1.00  0.00    -0.744 OA
ENDBRANCH  92  93
ENDBRANCH  60  85
ENDBRANCH  34  35
ENDBRANCH  26  29
ENDBRANCH  24  25
ENDBRANCH  23  24
ENDBRANCH   1  23
TORSDOF 18
ENDMDL
MODEL 3
REMARK VINA RESULT:     -10.9      5.162      7.625
REMARK SMILES Cc1cc(SCC(=O)NCCCCCCNC(=O)c2ccc(-c3c4nc(c(-c5c(F)cc(S(=O)(=O)[O-])cc5F)c5ccc([nH]5)c(-c5c(F)cc(S(=O)(=O)[O-])cc5F)c5nc(c(-c6c(F)cc(S(=O)(=O)[O-])cc6F)c6ccc3[nH]6)C=C5)C=C4)cc2)c2cc(I)ccc2n1
REMARK SMILES IDX 13 1 12 2 11 3 10 4 9 5 7 6 8 7 6 9 5 10 4 11 1 12 2 13 3 14
REMARK SMILES IDX 92 15 91 16 85 17 90 18 86 19 89 20 87 21 88 22 14 23 15 24
REMARK SMILES IDX 16 25 17 26 18 28 19 29 20 30 84 31 21 32 83 33 22 34 23 35
REMARK SMILES IDX 24 36 77 37 25 38 82 39 76 40 78 41 26 42 81 43 75 44 74 45
REMARK SMILES IDX 27 47 61 48 40 49 60 50 41 51 44 52 59 53 79 54 42 55 43 56
REMARK SMILES IDX 58 58 80 59 45 60 28 61 29 62 38 63 30 64 31 65 37 66 39 67
REMARK SMILES IDX 32 68 33 69 34 70 35 71 36 72 62 73 63 74 72 75 64 76 65 77
REMARK SMILES IDX 71 78 73 79 66 80 67 81 68 82 69 83 70 84 46 85 47 86 56 87
REMARK SMILES IDX 48 88 49 89 55 90 57 91 50 92 51 93 52 94 53 95 54 96
REMARK H PARENT 9 8 16 27 78 46 44 57
REMARK Flexibility Score: inf
ROOT
ATOM      1  C   UNL A   1      33.564  33.575  28.230  1.00  0.00     0.002 C 
ENDROOT
BRANCH   1   2
ATOM      2  C   UNL A   1      34.175  34.909  28.671  1.00  0.00     0.002 C 
BRANCH   2   3
ATOM      3  C   UNL A   1      33.173  35.995  29.094  1.00  0.00     0.021 C 
BRANCH   3   4
ATOM      4  C   UNL A   1      33.084  36.224  30.605  1.00  0.00     0.116 C 
BRANCH   4   5
ATOM      5  N   UNL A   1      33.092  34.961  31.319  1.00  0.00    -0.355 N 
ATOM      6  C   UNL A   1      33.989  34.465  32.211  1.00  0.00     0.230 C 
ATOM      7  O   UNL A   1      33.816  33.310  32.616  1.00  0.00    -0.274 OA
ATOM      8  H   UNL A   1      32.327  34.371  31.128  1.00  0.00     0.163 HD
BRANCH   6   9
ATOM      9  C   UNL A   1      35.107  35.318  32.774  1.00  0.00     0.174 C 
BRANCH   9  10
ATOM     10  S   UNL A   1      36.340  34.446  33.788  1.00  0.00    -0.115 SA
BRANCH  10  11
ATOM     11  C   UNL A   1      37.856  34.363  32.816  1.00  0.00     0.019 A 
ATOM     12  C   UNL A   1      39.041  34.330  29.227  1.00  0.00     0.067 C 
ATOM     13  C   UNL A   1      39.030  34.316  30.726  1.00  0.00     0.039 A 
ATOM     14  C   UNL A   1      37.832  34.333  31.422  1.00  0.00     0.039 A 
ATOM     15  N   UNL A   1      40.229  34.249  31.340  1.00  0.00    -0.253 NA
ATOM     16  C   UNL A   1      40.268  34.225  32.679  1.00  0.00     0.072 A 
ATOM     17  C   UNL A   1      39.112  34.289  33.486  1.00  0.00     0.015 A 
ATOM     18  C   UNL A   1      41.517  34.128  33.281  1.00  0.00     0.030 A 
ATOM     19  C   UNL A   1      39.286  34.266  34.899  1.00  0.00     0.026 A 
ATOM     20  C   UNL A   1      41.674  34.095  34.668  1.00  0.00     0.017 A 
ATOM     21  C   UNL A   1      40.551  34.168  35.476  1.00  0.00     0.014 A 
ATOM     22  I   UNL A   1      40.754  34.123  37.541  1.00  0.00    -0.044 I 
ENDBRANCH  10  11
ENDBRANCH   9  10
ENDBRANCH   6   9
ENDBRANCH   4   5
ENDBRANCH   3   4
ENDBRANCH   2   3
ENDBRANCH   1   2
BRANCH   1  23
ATOM     23  C   UNL A   1      34.516  32.377  28.256  1.00  0.00     0.021 C 
BRANCH  23  24
ATOM     24  C   UNL A   1      35.690  32.511  29.219  1.00  0.00     0.116 C 
BRANCH  24  25
ATOM     25  N   UNL A   1      35.501  31.755  30.447  1.00  0.00    -0.352 N 
ATOM     26  C   UNL A   1      36.358  30.866  31.054  1.00  0.00     0.251 C 
ATOM     27  H   UNL A   1      34.642  31.900  30.907  1.00  0.00     0.163 HD
ATOM     28  O   UNL A   1      35.985  30.203  32.017  1.00  0.00    -0.269 OA
BRANCH  26  29
ATOM     29  C   UNL A   1      37.723  30.689  30.511  1.00  0.00     0.039 A 
ATOM     30  C   UNL A   1      37.922  30.522  29.138  1.00  0.00     0.014 A 
ATOM     31  C   UNL A   1      38.806  30.643  31.391  1.00  0.00     0.014 A 
ATOM     32  C   UNL A   1      39.177  30.151  28.665  1.00  0.00     0.010 A 
ATOM     33  C   UNL A   1      40.082  30.342  30.903  1.00  0.00     0.010 A 
ATOM     34  C   UNL A   1      40.268  30.046  29.544  1.00  0.00    -0.014 A 
BRANCH  34  35
ATOM     35  C   UNL A   1      41.589  29.607  29.021  1.00  0.00     0.031 A 
ATOM     36  C   UNL A   1      42.778  30.531  29.066  1.00  0.00     0.074 A 
ATOM     37  C   UNL A   1      41.733  28.346  28.571  1.00  0.00     0.049 A 
ATOM     38  N   UNL A   1      44.007  30.312  28.673  1.00  0.00    -0.248 NA
ATOM     39  C   UNL A   1      42.559  31.873  29.627  1.00  0.00     0.031 C 
ATOM     40  C   UNL A   1      40.664  27.348  28.509  1.00  0.00     0.029 A 
ATOM     41  N   UNL A   1      42.839  27.677  28.114  1.00  0.00    -0.354 N 
ATOM     42  C   UNL A   1      44.706  31.486  28.930  1.00  0.00     0.074 A 
ATOM     43  C   UNL A   1      43.756  32.427  29.485  1.00  0.00     0.031 C 
ATOM     44  C   UNL A   1      41.179  26.178  28.105  1.00  0.00     0.029 A 
ATOM     45  C   UNL A   1      42.599  26.356  27.822  1.00  0.00     0.049 A 
ATOM     46  H   UNL A   1      43.721  28.103  28.007  1.00  0.00     0.167 HD
ATOM     47  C   UNL A   1      46.020  31.752  28.733  1.00  0.00     0.037 A 
ATOM     48  C   UNL A   1      43.429  25.395  27.373  1.00  0.00     0.037 A 
ATOM     49  C   UNL A   1      46.965  30.813  28.185  1.00  0.00     0.049 A 
ATOM     50  C   UNL A   1      44.868  25.728  27.112  1.00  0.00     0.074 A 
ATOM     51  C   UNL A   1      48.309  30.999  27.915  1.00  0.00     0.029 A 
ATOM     52  N   UNL A   1      46.666  29.504  27.835  1.00  0.00    -0.354 N 
ATOM     53  N   UNL A   1      45.499  26.860  27.310  1.00  0.00    -0.248 NA
ATOM     54  C   UNL A   1      45.705  24.659  26.553  1.00  0.00     0.031 C 
ATOM     55  C   UNL A   1      48.818  29.810  27.377  1.00  0.00     0.029 A 
ATOM     56  C   UNL A   1      47.799  28.872  27.347  1.00  0.00     0.049 A 
ATOM     57  H   UNL A   1      45.779  29.085  27.919  1.00  0.00     0.167 HD
ATOM     58  C   UNL A   1      46.811  26.639  26.911  1.00  0.00     0.074 A 
ATOM     59  C   UNL A   1      46.886  25.260  26.471  1.00  0.00     0.031 C 
ATOM     60  C   UNL A   1      47.857  27.501  26.908  1.00  0.00     0.037 A 
BRANCH  47  61
ATOM     61  C   UNL A   1      46.511  33.124  29.105  1.00  0.00     0.058 A 
ATOM     62  C   UNL A   1      46.991  33.406  30.394  1.00  0.00     0.135 A 
ATOM     63  C   UNL A   1      46.520  34.162  28.160  1.00  0.00     0.135 A 
ATOM     64  F   UNL A   1      46.988  32.455  31.340  1.00  0.00    -0.206 F 
ATOM     65  C   UNL A   1      47.438  34.677  30.741  1.00  0.00     0.059 A 
ATOM     66  C   UNL A   1      46.982  35.436  28.478  1.00  0.00     0.059 A 
ATOM     67  F   UNL A   1      46.072  33.946  26.914  1.00  0.00    -0.206 F 
ATOM     68  C   UNL A   1      47.424  35.688  29.777  1.00  0.00     0.060 A 
BRANCH  68  69
ATOM     69  S   UNL A   1      47.989  37.337  30.249  1.00  0.00     0.124 S 
ATOM     70  O   UNL A   1      46.723  38.009  30.523  1.00  0.00    -0.237 OA
ATOM     71  O   UNL A   1      48.824  37.062  31.413  1.00  0.00    -0.237 OA
ATOM     72  O   UNL A   1      48.704  37.803  29.065  1.00  0.00    -0.744 OA
ENDBRANCH  68  69
ENDBRANCH  47  61
BRANCH  48  73
ATOM     73  C   UNL A   1      42.907  24.020  27.171  1.00  0.00     0.058 A 
ATOM     74  C   UNL A   1      42.547  23.573  25.893  1.00  0.00     0.135 A 
ATOM     75  C   UNL A   1      42.821  23.108  28.235  1.00  0.00     0.135 A 
ATOM     76  F   UNL A   1      42.606  24.412  24.847  1.00  0.00    -0.206 F 
ATOM     77  C   UNL A   1      42.129  22.265  25.672  1.00  0.00     0.059 A 
ATOM     78  C   UNL A   1      42.426  21.790  28.036  1.00  0.00     0.059 A 
ATOM     79  F   UNL A   1      43.168  23.488  29.475  1.00  0.00    -0.206 F 
ATOM     80  C   UNL A   1      42.082  21.378  26.749  1.00  0.00     0.060 A 
BRANCH  80  81
ATOM     81  S   UNL A   1      41.630  19.657  26.435  1.00  0.00     0.124 S 
ATOM     82  O   UNL A   1      42.057  19.011  27.670  1.00  0.00    -0.237 OA
ATOM     83  O   UNL A   1      40.188  19.752  26.228  1.00  0.00    -0.237 OA
ATOM     84  O   UNL A   1      42.405  19.321  25.244  1.00  0.00    -0.744 OA
ENDBRANCH  80  81
ENDBRANCH  48  73
BRANCH  60  85
ATOM     85  C   UNL A   1      49.178  26.974  26.429  1.00  0.00     0.058 A 
ATOM     86  C   UNL A   1      49.590  27.134  25.097  1.00  0.00     0.135 A 
ATOM     87  C   UNL A   1      50.059  26.343  27.321  1.00  0.00     0.135 A 
ATOM     88  F   UNL A   1      48.780  27.724  24.205  1.00  0.00    -0.206 F 
ATOM     89  C   UNL A   1      50.827  26.670  24.662  1.00  0.00     0.059 A 
ATOM     90  C   UNL A   1      51.308  25.888  26.911  1.00  0.00     0.059 A 
ATOM     91  F   UNL A   1      49.712  26.173  28.607  1.00  0.00    -0.206 F 
ATOM     92  C   UNL A   1      51.680  26.047  25.577  1.00  0.00     0.060 A 
BRANCH  92  93
ATOM     93  S   UNL A   1      53.295  25.478  25.006  1.00  0.00     0.124 S 
ATOM     94  O   UNL A   1      53.314  24.105  25.501  1.00  0.00    -0.237 OA
ATOM     95  O   UNL A   1      53.188  25.628  23.558  1.00  0.00    -0.237 OA
ATOM     96  O   UNL A   1      54.227  26.394  25.658  1.00  0.00    -0.744 OA
ENDBRANCH  92  93
ENDBRANCH  60  85
ENDBRANCH  34  35
ENDBRANCH  26  29
ENDBRANCH  24  25
ENDBRANCH  23  24
ENDBRANCH   1  23
TORSDOF 18
ENDMDL
