MODEL 1
REMARK VINA RESULT:     -11.8      0.000      0.000
REMARK SMILES Cc1cc2c(c(C)c1Cl)C=C(C(=O)NCCCCCCNC(=O)c1ccc(-c3c4nc(c(-c5c(F)cc(S(=O)(=O)[O-])cc5F)c5ccc([nH]5)c(-c5c(F)cc(S(=O)(=O)[O-])cc5F)c5nc(c(-c6c(F)cc(S(=O)(=O)[O-])cc6F)c6ccc3[nH]6)C=C5)C=C4)cc1)[C@@H](C(F)(F)F)O2
REMARK SMILES IDX 18 1 17 2 16 3 15 4 14 5 12 6 13 7 11 9 1 10 2 11 3 12 8 13
REMARK SMILES IDX 4 14 6 15 9 16 5 17 95 18 7 19 10 20 90 21 91 22 92 23 93 24
REMARK SMILES IDX 94 25 19 26 20 27 21 28 22 29 23 31 24 32 25 33 89 34 26 35
REMARK SMILES IDX 88 36 27 37 28 38 29 39 82 40 30 41 87 42 81 43 83 44 31 45
REMARK SMILES IDX 86 46 80 47 79 48 32 50 66 51 45 52 65 53 46 54 49 55 64 56
REMARK SMILES IDX 84 57 47 58 48 59 63 61 85 62 50 63 33 64 34 65 43 66 35 67
REMARK SMILES IDX 36 68 42 69 44 70 37 71 38 72 39 73 40 74 41 75 67 76 68 77
REMARK SMILES IDX 77 78 69 79 70 80 76 81 78 82 71 83 72 84 73 85 74 86 75 87
REMARK SMILES IDX 51 88 52 89 61 90 53 91 54 92 60 93 62 94 55 95 56 96 57 97
REMARK SMILES IDX 58 98 59 99
REMARK H PARENT 14 8 21 30 83 49 49 60
REMARK Flexibility Score: inf
ROOT
ATOM      1  C   UNL A   1      35.969  33.020  28.045  1.00  0.00     0.002 C 
ENDROOT
BRANCH   1   2
ATOM      2  C   UNL A   1      34.585  32.381  27.863  1.00  0.00     0.002 C 
BRANCH   2   3
ATOM      3  C   UNL A   1      34.548  30.861  28.030  1.00  0.00     0.021 C 
BRANCH   3   4
ATOM      4  C   UNL A   1      33.670  30.156  27.002  1.00  0.00     0.116 C 
BRANCH   4   5
ATOM      5  N   UNL A   1      32.635  29.359  27.634  1.00  0.00    -0.352 N 
ATOM      6  C   UNL A   1      31.908  28.259  27.330  1.00  0.00     0.251 C 
ATOM      7  O   UNL A   1      31.120  27.888  28.207  1.00  0.00    -0.270 OA
ATOM      8  H   UNL A   1      32.399  29.712  28.522  1.00  0.00     0.163 HD
BRANCH   6   9
ATOM      9  C   UNL A   1      31.993  27.498  26.046  1.00  0.00     0.067 C 
ATOM     10  C   UNL A   1      33.111  23.344  21.169  1.00  0.00     0.046 C 
ATOM     11  C   UNL A   1      33.196  24.164  22.428  1.00  0.00    -0.028 A 
ATOM     12  C   UNL A   1      32.165  25.083  22.639  1.00  0.00     0.052 A 
ATOM     13  C   UNL A   1      34.207  24.047  23.402  1.00  0.00     0.047 A 
ATOM     14  C   UNL A   1      32.133  25.867  23.786  1.00  0.00     0.128 A 
ATOM     15  C   UNL A   1      34.188  24.845  24.577  1.00  0.00    -0.021 A 
ATOM     16  Cl  UNL A   1      35.480  22.890  23.155  1.00  0.00    -0.084 Cl
ATOM     17  C   UNL A   1      33.119  25.754  24.768  1.00  0.00     0.022 A 
ATOM     18  O   UNL A   1      31.057  26.694  23.878  1.00  0.00    -0.475 OA
ATOM     19  C   UNL A   1      35.267  24.741  25.630  1.00  0.00     0.047 C 
ATOM     20  C   UNL A   1      32.952  26.555  25.986  1.00  0.00     0.026 C 
ATOM     21  C   UNL A   1      31.112  27.755  24.860  1.00  0.00     0.314 C 
BRANCH  21  22
ATOM     22  C   UNL A   1      31.438  29.082  24.154  1.00  0.00     0.429 C 
ATOM     23  F   UNL A   1      32.778  29.232  24.019  1.00  0.00    -0.167 F 
ATOM     24  F   UNL A   1      30.918  29.152  22.906  1.00  0.00    -0.167 F 
ATOM     25  F   UNL A   1      30.972  30.155  24.834  1.00  0.00    -0.167 F 
ENDBRANCH  21  22
ENDBRANCH   6   9
ENDBRANCH   4   5
ENDBRANCH   3   4
ENDBRANCH   2   3
ENDBRANCH   1   2
BRANCH   1  26
ATOM     26  C   UNL A   1      36.158  33.809  29.344  1.00  0.00     0.021 C 
BRANCH  26  27
ATOM     27  C   UNL A   1      37.089  33.146  30.352  1.00  0.00     0.116 C 
BRANCH  27  28
ATOM     28  N   UNL A   1      36.445  32.029  31.023  1.00  0.00    -0.352 N 
ATOM     29  C   UNL A   1      36.793  30.704  31.020  1.00  0.00     0.251 C 
ATOM     30  H   UNL A   1      35.647  32.257  31.554  1.00  0.00     0.163 HD
ATOM     31  O   UNL A   1      36.008  29.860  31.446  1.00  0.00    -0.269 OA
BRANCH  29  32
ATOM     32  C   UNL A   1      38.112  30.301  30.493  1.00  0.00     0.039 A 
ATOM     33  C   UNL A   1      38.289  30.200  29.112  1.00  0.00     0.014 A 
ATOM     34  C   UNL A   1      39.168  30.020  31.366  1.00  0.00     0.014 A 
ATOM     35  C   UNL A   1      39.543  29.862  28.603  1.00  0.00     0.010 A 
ATOM     36  C   UNL A   1      40.434  29.755  30.856  1.00  0.00     0.010 A 
ATOM     37  C   UNL A   1      40.631  29.660  29.471  1.00  0.00    -0.014 A 
BRANCH  37  38
ATOM     38  C   UNL A   1      41.975  29.323  28.944  1.00  0.00     0.031 A 
ATOM     39  C   UNL A   1      42.267  27.921  28.483  1.00  0.00     0.074 A 
ATOM     40  C   UNL A   1      42.936  30.266  28.910  1.00  0.00     0.049 A 
ATOM     41  N   UNL A   1      43.385  27.419  28.026  1.00  0.00    -0.248 NA
ATOM     42  C   UNL A   1      41.163  26.950  28.565  1.00  0.00     0.031 C 
ATOM     43  C   UNL A   1      42.775  31.651  29.359  1.00  0.00     0.029 A 
ATOM     44  N   UNL A   1      44.236  30.207  28.479  1.00  0.00    -0.354 N 
ATOM     45  C   UNL A   1      43.120  26.080  27.766  1.00  0.00     0.074 A 
ATOM     46  C   UNL A   1      41.756  25.830  28.177  1.00  0.00     0.031 C 
ATOM     47  C   UNL A   1      43.922  32.317  29.148  1.00  0.00     0.029 A 
ATOM     48  C   UNL A   1      44.910  31.401  28.587  1.00  0.00     0.049 A 
ATOM     49  H   UNL A   1      44.649  29.385  28.126  1.00  0.00     0.167 HD
ATOM     50  C   UNL A   1      43.930  25.152  27.205  1.00  0.00     0.037 A 
ATOM     51  C   UNL A   1      46.180  31.720  28.269  1.00  0.00     0.037 A 
ATOM     52  C   UNL A   1      45.280  25.416  26.783  1.00  0.00     0.049 A 
ATOM     53  C   UNL A   1      47.073  30.660  27.681  1.00  0.00     0.074 A 
ATOM     54  C   UNL A   1      46.172  24.553  26.172  1.00  0.00     0.029 A 
ATOM     55  N   UNL A   1      45.932  26.632  26.923  1.00  0.00    -0.354 N 
ATOM     56  N   UNL A   1      46.792  29.409  27.401  1.00  0.00    -0.248 NA
ATOM     57  C   UNL A   1      48.453  31.052  27.365  1.00  0.00     0.031 C 
ATOM     58  C   UNL A   1      47.379  25.234  25.988  1.00  0.00     0.029 A 
ATOM     59  C   UNL A   1      47.223  26.537  26.434  1.00  0.00     0.049 A 
ATOM     60  H   UNL A   1      45.534  27.445  27.315  1.00  0.00     0.167 HD
ATOM     61  C   UNL A   1      47.952  28.872  26.855  1.00  0.00     0.074 A 
ATOM     62  C   UNL A   1      48.934  29.937  26.830  1.00  0.00     0.031 C 
ATOM     63  C   UNL A   1      48.186  27.610  26.416  1.00  0.00     0.037 A 
BRANCH  50  64
ATOM     64  C   UNL A   1      43.374  23.770  27.000  1.00  0.00     0.058 A 
ATOM     65  C   UNL A   1      42.984  23.318  25.729  1.00  0.00     0.135 A 
ATOM     66  C   UNL A   1      43.277  22.868  28.073  1.00  0.00     0.135 A 
ATOM     67  F   UNL A   1      43.037  24.144  24.671  1.00  0.00    -0.206 F 
ATOM     68  C   UNL A   1      42.499  22.030  25.531  1.00  0.00     0.059 A 
ATOM     69  C   UNL A   1      42.823  21.565  27.893  1.00  0.00     0.059 A 
ATOM     70  F   UNL A   1      43.633  23.249  29.310  1.00  0.00    -0.206 F 
ATOM     71  C   UNL A   1      42.427  21.159  26.620  1.00  0.00     0.060 A 
BRANCH  71  72
ATOM     72  S   UNL A   1      41.814  19.485  26.337  1.00  0.00     0.124 S 
ATOM     73  O   UNL A   1      42.511  19.122  25.106  1.00  0.00    -0.237 OA
ATOM     74  O   UNL A   1      42.252  18.787  27.541  1.00  0.00    -0.237 OA
ATOM     75  O   UNL A   1      40.371  19.667  26.209  1.00  0.00    -0.744 OA
ENDBRANCH  71  72
ENDBRANCH  50  64
BRANCH  51  76
ATOM     76  C   UNL A   1      46.668  33.110  28.471  1.00  0.00     0.058 A 
ATOM     77  C   UNL A   1      46.573  34.062  27.445  1.00  0.00     0.135 A 
ATOM     78  C   UNL A   1      47.215  33.524  29.696  1.00  0.00     0.135 A 
ATOM     79  F   UNL A   1      46.065  33.714  26.253  1.00  0.00    -0.206 F 
ATOM     80  C   UNL A   1      47.009  35.371  27.622  1.00  0.00     0.059 A 
ATOM     81  C   UNL A   1      47.633  34.834  29.906  1.00  0.00     0.059 A 
ATOM     82  F   UNL A   1      47.315  32.656  30.716  1.00  0.00    -0.206 F 
ATOM     83  C   UNL A   1      47.532  35.749  28.859  1.00  0.00     0.060 A 
BRANCH  83  84
ATOM     84  S   UNL A   1      48.042  37.466  29.092  1.00  0.00     0.124 S 
ATOM     85  O   UNL A   1      46.884  38.189  28.578  1.00  0.00    -0.237 OA
ATOM     86  O   UNL A   1      48.244  37.528  30.537  1.00  0.00    -0.237 OA
ATOM     87  O   UNL A   1      49.257  37.570  28.291  1.00  0.00    -0.744 OA
ENDBRANCH  83  84
ENDBRANCH  51  76
BRANCH  63  88
ATOM     88  C   UNL A   1      49.548  27.307  25.855  1.00  0.00     0.058 A 
ATOM     89  C   UNL A   1      50.598  26.867  26.675  1.00  0.00     0.135 A 
ATOM     90  C   UNL A   1      49.782  27.382  24.472  1.00  0.00     0.135 A 
ATOM     91  F   UNL A   1      50.428  26.783  28.003  1.00  0.00    -0.206 F 
ATOM     92  C   UNL A   1      51.838  26.523  26.145  1.00  0.00     0.059 A 
ATOM     93  C   UNL A   1      51.004  27.017  23.917  1.00  0.00     0.059 A 
ATOM     94  F   UNL A   1      48.807  27.787  23.642  1.00  0.00    -0.206 F 
ATOM     95  C   UNL A   1      52.029  26.595  24.764  1.00  0.00     0.060 A 
BRANCH  95  96
ATOM     96  S   UNL A   1      53.628  26.099  24.089  1.00  0.00     0.124 S 
ATOM     97  O   UNL A   1      53.899  24.879  24.843  1.00  0.00    -0.237 OA
ATOM     98  O   UNL A   1      53.323  25.915  22.674  1.00  0.00    -0.237 OA
ATOM     99  O   UNL A   1      54.495  27.232  24.398  1.00  0.00    -0.744 OA
ENDBRANCH  95  96
ENDBRANCH  63  88
ENDBRANCH  37  38
ENDBRANCH  29  32
ENDBRANCH  27  28
ENDBRANCH  26  27
ENDBRANCH   1  26
TORSDOF 17
ENDMDL
MODEL 2
REMARK VINA RESULT:     -11.7      3.437      9.137
REMARK SMILES Cc1cc2c(c(C)c1Cl)C=C(C(=O)NCCCCCCNC(=O)c1ccc(-c3c4nc(c(-c5c(F)cc(S(=O)(=O)[O-])cc5F)c5ccc([nH]5)c(-c5c(F)cc(S(=O)(=O)[O-])cc5F)c5nc(c(-c6c(F)cc(S(=O)(=O)[O-])cc6F)c6ccc3[nH]6)C=C5)C=C4)cc1)[C@@H](C(F)(F)F)O2
REMARK SMILES IDX 18 1 17 2 16 3 15 4 14 5 12 6 13 7 11 9 1 10 2 11 3 12 8 13
REMARK SMILES IDX 4 14 6 15 9 16 5 17 95 18 7 19 10 20 90 21 91 22 92 23 93 24
REMARK SMILES IDX 94 25 19 26 20 27 21 28 22 29 23 31 24 32 25 33 89 34 26 35
REMARK SMILES IDX 88 36 27 37 28 38 29 39 82 40 30 41 87 42 81 43 83 44 31 45
REMARK SMILES IDX 86 46 80 47 79 48 32 50 66 51 45 52 65 53 46 54 49 55 64 56
REMARK SMILES IDX 84 57 47 58 48 59 63 61 85 62 50 63 33 64 34 65 43 66 35 67
REMARK SMILES IDX 36 68 42 69 44 70 37 71 38 72 39 73 40 74 41 75 67 76 68 77
REMARK SMILES IDX 77 78 69 79 70 80 76 81 78 82 71 83 72 84 73 85 74 86 75 87
REMARK SMILES IDX 51 88 52 89 61 90 53 91 54 92 60 93 62 94 55 95 56 96 57 97
REMARK SMILES IDX 58 98 59 99
REMARK H PARENT 14 8 21 30 83 49 49 60
REMARK Flexibility Score: inf
ROOT
ATOM      1  C   UNL A   1      33.118  28.888  24.474  1.00  0.00     0.002 C 
ENDROOT
BRANCH   1   2
ATOM      2  C   UNL A   1      32.508  28.424  23.144  1.00  0.00     0.002 C 
BRANCH   2   3
ATOM      3  C   UNL A   1      31.218  27.610  23.274  1.00  0.00     0.021 C 
BRANCH   3   4
ATOM      4  C   UNL A   1      31.459  26.120  23.494  1.00  0.00     0.116 C 
BRANCH   4   5
ATOM      5  N   UNL A   1      31.104  25.711  24.841  1.00  0.00    -0.352 N 
ATOM      6  C   UNL A   1      31.436  24.714  25.694  1.00  0.00     0.251 C 
ATOM      7  O   UNL A   1      30.891  24.763  26.801  1.00  0.00    -0.270 OA
ATOM      8  H   UNL A   1      30.444  26.322  25.241  1.00  0.00     0.163 HD
BRANCH   6   9
ATOM      9  C   UNL A   1      32.383  23.599  25.386  1.00  0.00     0.067 C 
ATOM     10  C   UNL A   1      37.310  19.383  24.898  1.00  0.00     0.046 C 
ATOM     11  C   UNL A   1      36.461  20.609  25.099  1.00  0.00    -0.028 A 
ATOM     12  C   UNL A   1      35.091  20.458  24.870  1.00  0.00     0.052 A 
ATOM     13  C   UNL A   1      36.941  21.864  25.523  1.00  0.00     0.047 A 
ATOM     14  C   UNL A   1      34.216  21.521  25.057  1.00  0.00     0.128 A 
ATOM     15  C   UNL A   1      36.058  22.960  25.714  1.00  0.00    -0.021 A 
ATOM     16  Cl  UNL A   1      38.641  22.052  25.830  1.00  0.00    -0.084 Cl
ATOM     17  C   UNL A   1      34.672  22.767  25.491  1.00  0.00     0.022 A 
ATOM     18  O   UNL A   1      32.908  21.225  24.831  1.00  0.00    -0.475 OA
ATOM     19  C   UNL A   1      36.552  24.316  26.161  1.00  0.00     0.047 C 
ATOM     20  C   UNL A   1      33.664  23.800  25.750  1.00  0.00     0.026 C 
ATOM     21  C   UNL A   1      31.987  22.332  24.690  1.00  0.00     0.314 C 
BRANCH  21  22
ATOM     22  C   UNL A   1      31.676  22.545  23.199  1.00  0.00     0.429 C 
ATOM     23  F   UNL A   1      31.626  21.356  22.550  1.00  0.00    -0.167 F 
ATOM     24  F   UNL A   1      30.479  23.142  22.995  1.00  0.00    -0.167 F 
ATOM     25  F   UNL A   1      32.606  23.310  22.583  1.00  0.00    -0.167 F 
ENDBRANCH  21  22
ENDBRANCH   6   9
ENDBRANCH   4   5
ENDBRANCH   3   4
ENDBRANCH   2   3
ENDBRANCH   1   2
BRANCH   1  26
ATOM     26  C   UNL A   1      33.958  27.839  25.208  1.00  0.00     0.021 C 
BRANCH  26  27
ATOM     27  C   UNL A   1      34.019  28.029  26.719  1.00  0.00     0.116 C 
BRANCH  27  28
ATOM     28  N   UNL A   1      33.686  29.392  27.102  1.00  0.00    -0.352 N 
ATOM     29  C   UNL A   1      34.417  30.281  27.845  1.00  0.00     0.251 C 
ATOM     30  H   UNL A   1      32.815  29.720  26.783  1.00  0.00     0.163 HD
ATOM     31  O   UNL A   1      33.889  31.305  28.274  1.00  0.00    -0.269 OA
BRANCH  29  32
ATOM     32  C   UNL A   1      35.836  29.993  28.133  1.00  0.00     0.039 A 
ATOM     33  C   UNL A   1      36.197  29.577  29.416  1.00  0.00     0.014 A 
ATOM     34  C   UNL A   1      36.805  30.140  27.136  1.00  0.00     0.014 A 
ATOM     35  C   UNL A   1      37.529  29.262  29.686  1.00  0.00     0.010 A 
ATOM     36  C   UNL A   1      38.118  29.756  27.387  1.00  0.00     0.010 A 
ATOM     37  C   UNL A   1      38.495  29.326  28.667  1.00  0.00    -0.014 A 
BRANCH  37  38
ATOM     38  C   UNL A   1      39.910  28.972  28.933  1.00  0.00     0.031 A 
ATOM     39  C   UNL A   1      40.830  29.987  29.555  1.00  0.00     0.074 A 
ATOM     40  C   UNL A   1      40.371  27.754  28.588  1.00  0.00     0.049 A 
ATOM     41  N   UNL A   1      42.104  29.884  29.832  1.00  0.00    -0.248 NA
ATOM     42  C   UNL A   1      40.248  31.297  29.890  1.00  0.00     0.031 C 
ATOM     43  C   UNL A   1      39.576  26.701  27.951  1.00  0.00     0.029 A 
ATOM     44  N   UNL A   1      41.615  27.194  28.723  1.00  0.00    -0.354 N 
ATOM     45  C   UNL A   1      42.473  31.109  30.374  1.00  0.00     0.074 A 
ATOM     46  C   UNL A   1      41.308  31.963  30.326  1.00  0.00     0.031 C 
ATOM     47  C   UNL A   1      40.345  25.612  27.783  1.00  0.00     0.029 A 
ATOM     48  C   UNL A   1      41.693  25.901  28.262  1.00  0.00     0.049 A 
ATOM     49  H   UNL A   1      42.382  27.674  29.113  1.00  0.00     0.167 HD
ATOM     50  C   UNL A   1      43.667  31.477  30.894  1.00  0.00     0.037 A 
ATOM     51  C   UNL A   1      42.734  25.046  28.229  1.00  0.00     0.037 A 
ATOM     52  C   UNL A   1      44.817  30.614  30.953  1.00  0.00     0.049 A 
ATOM     53  C   UNL A   1      44.062  25.492  28.780  1.00  0.00     0.074 A 
ATOM     54  C   UNL A   1      46.063  30.880  31.491  1.00  0.00     0.029 A 
ATOM     55  N   UNL A   1      44.862  29.317  30.462  1.00  0.00    -0.354 N 
ATOM     56  N   UNL A   1      44.382  26.641  29.328  1.00  0.00    -0.248 NA
ATOM     57  C   UNL A   1      45.170  24.530  28.708  1.00  0.00     0.031 C 
ATOM     58  C   UNL A   1      46.876  29.762  31.282  1.00  0.00     0.029 A 
ATOM     59  C   UNL A   1      46.121  28.779  30.662  1.00  0.00     0.049 A 
ATOM     60  H   UNL A   1      44.108  28.850  30.033  1.00  0.00     0.167 HD
ATOM     61  C   UNL A   1      45.721  26.531  29.689  1.00  0.00     0.074 A 
ATOM     62  C   UNL A   1      46.146  25.199  29.309  1.00  0.00     0.031 C 
ATOM     63  C   UNL A   1      46.526  27.449  30.278  1.00  0.00     0.037 A 
BRANCH  50  64
ATOM     64  C   UNL A   1      43.787  32.868  31.455  1.00  0.00     0.058 A 
ATOM     65  C   UNL A   1      43.524  33.137  32.808  1.00  0.00     0.135 A 
ATOM     66  C   UNL A   1      44.220  33.933  30.648  1.00  0.00     0.135 A 
ATOM     67  F   UNL A   1      43.089  32.160  33.620  1.00  0.00    -0.206 F 
ATOM     68  C   UNL A   1      43.665  34.415  33.336  1.00  0.00     0.059 A 
ATOM     69  C   UNL A   1      44.396  35.214  31.163  1.00  0.00     0.059 A 
ATOM     70  F   UNL A   1      44.483  33.732  29.347  1.00  0.00    -0.206 F 
ATOM     71  C   UNL A   1      44.107  35.447  32.506  1.00  0.00     0.060 A 
BRANCH  71  72
ATOM     72  S   UNL A   1      44.302  37.094  33.217  1.00  0.00     0.124 S 
ATOM     73  O   UNL A   1      44.604  37.891  32.032  1.00  0.00    -0.237 OA
ATOM     74  O   UNL A   1      42.995  37.328  33.822  1.00  0.00    -0.237 OA
ATOM     75  O   UNL A   1      45.406  36.930  34.159  1.00  0.00    -0.744 OA
ENDBRANCH  71  72
ENDBRANCH  50  64
BRANCH  51  76
ATOM     76  C   UNL A   1      42.551  23.675  27.685  1.00  0.00     0.058 A 
ATOM     77  C   UNL A   1      42.608  23.436  26.304  1.00  0.00     0.135 A 
ATOM     78  C   UNL A   1      42.340  22.573  28.529  1.00  0.00     0.135 A 
ATOM     79  F   UNL A   1      42.800  24.457  25.455  1.00  0.00    -0.206 F 
ATOM     80  C   UNL A   1      42.456  22.158  25.777  1.00  0.00     0.059 A 
ATOM     81  C   UNL A   1      42.211  21.281  28.028  1.00  0.00     0.059 A 
ATOM     82  F   UNL A   1      42.291  22.744  29.859  1.00  0.00    -0.206 F 
ATOM     83  C   UNL A   1      42.264  21.085  26.648  1.00  0.00     0.060 A 
BRANCH  83  84
ATOM     84  S   UNL A   1      42.125  19.423  25.955  1.00  0.00     0.124 S 
ATOM     85  O   UNL A   1      42.978  19.524  24.776  1.00  0.00    -0.237 OA
ATOM     86  O   UNL A   1      42.635  18.597  27.044  1.00  0.00    -0.237 OA
ATOM     87  O   UNL A   1      40.696  19.287  25.689  1.00  0.00    -0.744 OA
ENDBRANCH  83  84
ENDBRANCH  51  76
BRANCH  63  88
ATOM     88  C   UNL A   1      47.947  27.048  30.566  1.00  0.00     0.058 A 
ATOM     89  C   UNL A   1      49.009  27.480  29.758  1.00  0.00     0.135 A 
ATOM     90  C   UNL A   1      48.256  26.292  31.709  1.00  0.00     0.135 A 
ATOM     91  F   UNL A   1      48.767  28.200  28.652  1.00  0.00    -0.206 F 
ATOM     92  C   UNL A   1      50.329  27.164  30.064  1.00  0.00     0.059 A 
ATOM     93  C   UNL A   1      49.569  25.989  32.050  1.00  0.00     0.059 A 
ATOM     94  F   UNL A   1      47.276  25.864  32.522  1.00  0.00    -0.206 F 
ATOM     95  C   UNL A   1      50.599  26.423  31.217  1.00  0.00     0.060 A 
BRANCH  95  96
ATOM     96  S   UNL A   1      52.321  26.065  31.625  1.00  0.00     0.124 S 
ATOM     97  O   UNL A   1      52.187  24.852  32.426  1.00  0.00    -0.237 OA
ATOM     98  O   UNL A   1      52.921  25.890  30.306  1.00  0.00    -0.237 OA
ATOM     99  O   UNL A   1      52.754  27.253  32.354  1.00  0.00    -0.744 OA
ENDBRANCH  95  96
ENDBRANCH  63  88
ENDBRANCH  37  38
ENDBRANCH  29  32
ENDBRANCH  27  28
ENDBRANCH  26  27
ENDBRANCH   1  26
TORSDOF 17
ENDMDL
MODEL 3
REMARK VINA RESULT:     -11.5      6.628     11.634
REMARK SMILES Cc1cc2c(c(C)c1Cl)C=C(C(=O)NCCCCCCNC(=O)c1ccc(-c3c4nc(c(-c5c(F)cc(S(=O)(=O)[O-])cc5F)c5ccc([nH]5)c(-c5c(F)cc(S(=O)(=O)[O-])cc5F)c5nc(c(-c6c(F)cc(S(=O)(=O)[O-])cc6F)c6ccc3[nH]6)C=C5)C=C4)cc1)[C@@H](C(F)(F)F)O2
REMARK SMILES IDX 18 1 17 2 16 3 15 4 14 5 12 6 13 7 11 9 1 10 2 11 3 12 8 13
REMARK SMILES IDX 4 14 6 15 9 16 5 17 95 18 7 19 10 20 90 21 91 22 92 23 93 24
REMARK SMILES IDX 94 25 19 26 20 27 21 28 22 29 23 31 24 32 25 33 89 34 26 35
REMARK SMILES IDX 88 36 27 37 28 38 29 39 82 40 30 41 87 42 81 43 83 44 31 45
REMARK SMILES IDX 86 46 80 47 79 48 32 50 66 51 45 52 65 53 46 54 49 55 64 56
REMARK SMILES IDX 84 57 47 58 48 59 63 61 85 62 50 63 33 64 34 65 43 66 35 67
REMARK SMILES IDX 36 68 42 69 44 70 37 71 38 72 39 73 40 74 41 75 67 76 68 77
REMARK SMILES IDX 77 78 69 79 70 80 76 81 78 82 71 83 72 84 73 85 74 86 75 87
REMARK SMILES IDX 51 88 52 89 61 90 53 91 54 92 60 93 62 94 55 95 56 96 57 97
REMARK SMILES IDX 58 98 59 99
REMARK H PARENT 14 8 21 30 83 49 49 60
REMARK Flexibility Score: inf
ROOT
ATOM      1  C   UNL A   1      37.655  22.509  25.761  1.00  0.00     0.002 C 
ENDROOT
BRANCH   1   2
ATOM      2  C   UNL A   1      36.646  22.842  24.654  1.00  0.00     0.002 C 
BRANCH   2   3
ATOM      3  C   UNL A   1      35.785  24.080  24.917  1.00  0.00     0.021 C 
BRANCH   3   4
ATOM      4  C   UNL A   1      34.306  23.867  24.614  1.00  0.00     0.116 C 
BRANCH   4   5
ATOM      5  N   UNL A   1      33.983  24.209  23.241  1.00  0.00    -0.352 N 
ATOM      6  C   UNL A   1      33.344  25.211  22.593  1.00  0.00     0.251 C 
ATOM      7  O   UNL A   1      33.321  25.114  21.362  1.00  0.00    -0.270 OA
ATOM      8  H   UNL A   1      34.319  23.531  22.611  1.00  0.00     0.163 HD
BRANCH   6   9
ATOM      9  C   UNL A   1      32.685  26.380  23.253  1.00  0.00     0.067 C 
ATOM     10  C   UNL A   1      31.067  31.818  26.432  1.00  0.00     0.046 C 
ATOM     11  C   UNL A   1      31.754  30.574  25.935  1.00  0.00    -0.028 A 
ATOM     12  C   UNL A   1      31.084  29.849  24.947  1.00  0.00     0.052 A 
ATOM     13  C   UNL A   1      33.015  30.120  26.369  1.00  0.00     0.047 A 
ATOM     14  C   UNL A   1      31.647  28.702  24.399  1.00  0.00     0.128 A 
ATOM     15  C   UNL A   1      33.600  28.947  25.820  1.00  0.00    -0.021 A 
ATOM     16  Cl  UNL A   1      33.864  31.030  27.582  1.00  0.00    -0.084 Cl
ATOM     17  C   UNL A   1      32.902  28.246  24.807  1.00  0.00     0.022 A 
ATOM     18  O   UNL A   1      30.902  28.115  23.424  1.00  0.00    -0.475 OA
ATOM     19  C   UNL A   1      34.948  28.438  26.277  1.00  0.00     0.047 C 
ATOM     20  C   UNL A   1      33.455  27.082  24.106  1.00  0.00     0.026 C 
ATOM     21  C   UNL A   1      31.253  26.766  23.037  1.00  0.00     0.314 C 
BRANCH  21  22
ATOM     22  C   UNL A   1      30.266  25.780  23.686  1.00  0.00     0.429 C 
ATOM     23  F   UNL A   1      28.996  26.237  23.574  1.00  0.00    -0.167 F 
ATOM     24  F   UNL A   1      30.287  24.560  23.101  1.00  0.00    -0.167 F 
ATOM     25  F   UNL A   1      30.519  25.590  25.001  1.00  0.00    -0.167 F 
ENDBRANCH  21  22
ENDBRANCH   6   9
ENDBRANCH   4   5
ENDBRANCH   3   4
ENDBRANCH   2   3
ENDBRANCH   1   2
BRANCH   1  26
ATOM     26  C   UNL A   1      38.264  23.718  26.477  1.00  0.00     0.021 C 
BRANCH  26  27
ATOM     27  C   UNL A   1      39.669  23.486  27.019  1.00  0.00     0.116 C 
BRANCH  27  28
ATOM     28  N   UNL A   1      40.684  24.005  26.117  1.00  0.00    -0.352 N 
ATOM     29  C   UNL A   1      41.296  25.231  26.121  1.00  0.00     0.251 C 
ATOM     30  H   UNL A   1      40.972  23.389  25.405  1.00  0.00     0.163 HD
ATOM     31  O   UNL A   1      41.958  25.592  25.150  1.00  0.00    -0.269 OA
BRANCH  29  32
ATOM     32  C   UNL A   1      41.145  26.114  27.294  1.00  0.00     0.039 A 
ATOM     33  C   UNL A   1      41.949  27.251  27.396  1.00  0.00     0.014 A 
ATOM     34  C   UNL A   1      40.211  25.814  28.292  1.00  0.00     0.014 A 
ATOM     35  C   UNL A   1      41.783  28.114  28.479  1.00  0.00     0.010 A 
ATOM     36  C   UNL A   1      39.998  26.713  29.331  1.00  0.00     0.010 A 
ATOM     37  C   UNL A   1      40.790  27.864  29.441  1.00  0.00    -0.014 A 
BRANCH  37  38
ATOM     38  C   UNL A   1      40.587  28.786  30.585  1.00  0.00     0.031 A 
ATOM     39  C   UNL A   1      41.439  28.647  31.817  1.00  0.00     0.074 A 
ATOM     40  C   UNL A   1      39.619  29.721  30.527  1.00  0.00     0.049 A 
ATOM     41  N   UNL A   1      41.392  29.328  32.933  1.00  0.00    -0.248 NA
ATOM     42  C   UNL A   1      42.465  27.591  31.802  1.00  0.00     0.031 C 
ATOM     43  C   UNL A   1      38.712  29.927  29.395  1.00  0.00     0.029 A 
ATOM     44  N   UNL A   1      39.236  30.673  31.436  1.00  0.00    -0.354 N 
ATOM     45  C   UNL A   1      42.379  28.786  33.748  1.00  0.00     0.074 A 
ATOM     46  C   UNL A   1      42.964  27.678  33.026  1.00  0.00     0.031 C 
ATOM     47  C   UNL A   1      37.902  30.964  29.665  1.00  0.00     0.029 A 
ATOM     48  C   UNL A   1      38.203  31.471  31.000  1.00  0.00     0.049 A 
ATOM     49  H   UNL A   1      39.661  30.777  32.319  1.00  0.00     0.167 HD
ATOM     50  C   UNL A   1      42.782  29.196  34.973  1.00  0.00     0.037 A 
ATOM     51  C   UNL A   1      37.572  32.493  31.609  1.00  0.00     0.037 A 
ATOM     52  C   UNL A   1      42.205  30.312  35.675  1.00  0.00     0.049 A 
ATOM     53  C   UNL A   1      38.014  32.907  32.988  1.00  0.00     0.074 A 
ATOM     54  C   UNL A   1      42.565  30.830  36.906  1.00  0.00     0.029 A 
ATOM     55  N   UNL A   1      41.151  31.084  35.209  1.00  0.00    -0.354 N 
ATOM     56  N   UNL A   1      38.979  32.410  33.726  1.00  0.00    -0.248 NA
ATOM     57  C   UNL A   1      37.285  34.016  33.615  1.00  0.00     0.031 C 
ATOM     58  C   UNL A   1      41.697  31.885  37.206  1.00  0.00     0.029 A 
ATOM     59  C   UNL A   1      40.831  32.059  36.138  1.00  0.00     0.049 A 
ATOM     60  H   UNL A   1      40.697  30.956  34.343  1.00  0.00     0.167 HD
ATOM     61  C   UNL A   1      38.988  33.163  34.896  1.00  0.00     0.074 A 
ATOM     62  C   UNL A   1      37.942  34.157  34.760  1.00  0.00     0.031 C 
ATOM     63  C   UNL A   1      39.787  33.041  35.984  1.00  0.00     0.037 A 
BRANCH  50  64
ATOM     64  C   UNL A   1      43.911  28.447  35.626  1.00  0.00     0.058 A 
ATOM     65  C   UNL A   1      45.252  28.791  35.391  1.00  0.00     0.135 A 
ATOM     66  C   UNL A   1      43.652  27.408  36.535  1.00  0.00     0.135 A 
ATOM     67  F   UNL A   1      45.558  29.764  34.516  1.00  0.00    -0.206 F 
ATOM     68  C   UNL A   1      46.296  28.121  36.018  1.00  0.00     0.059 A 
ATOM     69  C   UNL A   1      44.680  26.743  37.196  1.00  0.00     0.059 A 
ATOM     70  F   UNL A   1      42.389  27.036  36.794  1.00  0.00    -0.206 F 
ATOM     71  C   UNL A   1      46.000  27.100  36.923  1.00  0.00     0.060 A 
BRANCH  71  72
ATOM     72  S   UNL A   1      47.370  26.257  37.741  1.00  0.00     0.124 S 
ATOM     73  O   UNL A   1      46.665  25.245  38.523  1.00  0.00    -0.237 OA
ATOM     74  O   UNL A   1      48.145  25.757  36.610  1.00  0.00    -0.237 OA
ATOM     75  O   UNL A   1      48.008  27.316  38.517  1.00  0.00    -0.744 OA
ENDBRANCH  71  72
ENDBRANCH  50  64
BRANCH  51  76
ATOM     76  C   UNL A   1      36.478  33.214  30.905  1.00  0.00     0.058 A 
ATOM     77  C   UNL A   1      35.139  33.029  31.279  1.00  0.00     0.135 A 
ATOM     78  C   UNL A   1      36.746  34.119  29.866  1.00  0.00     0.135 A 
ATOM     79  F   UNL A   1      34.830  32.170  32.261  1.00  0.00    -0.206 F 
ATOM     80  C   UNL A   1      34.103  33.707  30.644  1.00  0.00     0.059 A 
ATOM     81  C   UNL A   1      35.731  34.829  29.232  1.00  0.00     0.059 A 
ATOM     82  F   UNL A   1      38.012  34.343  29.479  1.00  0.00    -0.206 F 
ATOM     83  C   UNL A   1      34.411  34.610  29.625  1.00  0.00     0.060 A 
BRANCH  83  84
ATOM     84  S   UNL A   1      33.062  35.526  28.847  1.00  0.00     0.124 S 
ATOM     85  O   UNL A   1      32.369  36.071  30.009  1.00  0.00    -0.237 OA
ATOM     86  O   UNL A   1      33.786  36.491  28.025  1.00  0.00    -0.237 OA
ATOM     87  O   UNL A   1      32.339  34.498  28.106  1.00  0.00    -0.744 OA
ENDBRANCH  83  84
ENDBRANCH  51  76
BRANCH  63  88
ATOM     88  C   UNL A   1      39.579  34.012  37.114  1.00  0.00     0.058 A 
ATOM     89  C   UNL A   1      38.864  33.654  38.267  1.00  0.00     0.135 A 
ATOM     90  C   UNL A   1      40.171  35.286  37.077  1.00  0.00     0.135 A 
ATOM     91  F   UNL A   1      38.276  32.451  38.351  1.00  0.00    -0.206 F 
ATOM     92  C   UNL A   1      38.730  34.531  39.339  1.00  0.00     0.059 A 
ATOM     93  C   UNL A   1      40.074  36.167  38.148  1.00  0.00     0.059 A 
ATOM     94  F   UNL A   1      40.875  35.674  36.000  1.00  0.00    -0.206 F 
ATOM     95  C   UNL A   1      39.345  35.783  39.273  1.00  0.00     0.060 A 
BRANCH  95  96
ATOM     96  S   UNL A   1      39.202  36.887  40.693  1.00  0.00     0.124 S 
ATOM     97  O   UNL A   1      40.604  37.146  41.007  1.00  0.00    -0.237 OA
ATOM     98  O   UNL A   1      38.459  38.014  40.136  1.00  0.00    -0.237 OA
ATOM     99  O   UNL A   1      38.476  36.088  41.676  1.00  0.00    -0.744 OA
ENDBRANCH  95  96
ENDBRANCH  63  88
ENDBRANCH  37  38
ENDBRANCH  29  32
ENDBRANCH  27  28
ENDBRANCH  26  27
ENDBRANCH   1  26
TORSDOF 17
ENDMDL
