MODEL 1
REMARK VINA RESULT:     -12.5      0.000      0.000
REMARK SMILES COc1ccc(Cl)c2sc(N3CC(C(=O)NCCCCCCNC(=O)c4ccc(-c5c6nc(c(-c7c(F)cc(S(=O)(=O)[O-])cc7F)c7ccc([nH]7)c(-c7c(F)cc(S(=O)(=O)[O-])cc7F)c7nc(c(-c8c(F)cc(S(=O)(=O)[O-])cc8F)c8ccc5[nH]8)C=C7)C=C6)cc4)C3)nc12
REMARK SMILES IDX 20 1 19 2 18 3 17 4 16 5 14 6 15 7 13 9 11 10 12 11 92 12
REMARK SMILES IDX 10 13 3 14 4 15 94 16 5 17 8 18 93 19 6 20 9 21 7 22 2 23
REMARK SMILES IDX 1 24 21 25 22 26 23 27 24 28 25 30 26 31 27 32 91 33 28 34
REMARK SMILES IDX 90 35 29 36 30 37 31 38 84 39 32 40 89 41 83 42 85 43 33 44
REMARK SMILES IDX 88 45 82 46 81 47 34 49 68 50 47 51 67 52 48 53 51 54 66 55
REMARK SMILES IDX 86 56 49 57 50 58 65 60 87 61 52 62 35 63 36 64 45 65 37 66
REMARK SMILES IDX 38 67 44 68 46 69 39 70 40 71 41 72 42 73 43 74 69 75 70 76
REMARK SMILES IDX 79 77 71 78 72 79 78 80 80 81 73 82 74 83 75 84 76 85 77 86
REMARK SMILES IDX 53 87 54 88 63 89 55 90 56 91 62 92 64 93 57 94 58 95 59 96
REMARK SMILES IDX 60 97 61 98
REMARK H PARENT 16 8 23 29 85 48 51 59
REMARK Flexibility Score: inf
ROOT
ATOM      1  C   UNL A   1      37.654  22.948  25.274  1.00  0.00     0.002 C 
ENDROOT
BRANCH   1   2
ATOM      2  C   UNL A   1      36.261  22.947  25.925  1.00  0.00     0.002 C 
BRANCH   2   3
ATOM      3  C   UNL A   1      35.631  21.566  26.151  1.00  0.00     0.021 C 
BRANCH   3   4
ATOM      4  C   UNL A   1      35.311  20.798  24.868  1.00  0.00     0.116 C 
BRANCH   4   5
ATOM      5  N   UNL A   1      34.244  19.840  25.082  1.00  0.00    -0.356 N 
ATOM      6  C   UNL A   1      32.881  19.985  25.111  1.00  0.00     0.226 C 
ATOM      7  O   UNL A   1      32.243  18.944  25.335  1.00  0.00    -0.275 OA
ATOM      8  H   UNL A   1      34.555  18.918  25.234  1.00  0.00     0.163 HD
BRANCH   6   9
ATOM      9  C   UNL A   1      32.174  21.316  24.866  1.00  0.00     0.117 C 
ATOM     10  N   UNL A   1      32.629  23.326  24.955  1.00  0.00    -0.346 N 
ATOM     11  C   UNL A   1      32.788  22.354  23.928  1.00  0.00     0.134 C 
ATOM     12  C   UNL A   1      32.093  22.417  25.921  1.00  0.00     0.134 C 
BRANCH  10  13
ATOM     13  C   UNL A   1      32.353  24.644  24.848  1.00  0.00     0.186 A 
ATOM     14  C   UNL A   1      32.992  28.150  25.402  1.00  0.00     0.146 A 
ATOM     15  C   UNL A   1      32.260  29.296  25.046  1.00  0.00     0.050 A 
ATOM     16  C   UNL A   1      32.476  26.864  25.069  1.00  0.00     0.127 A 
ATOM     17  C   UNL A   1      31.028  29.185  24.410  1.00  0.00     0.026 A 
ATOM     18  C   UNL A   1      31.263  26.787  24.376  1.00  0.00     0.079 A 
ATOM     19  N   UNL A   1      33.048  25.625  25.377  1.00  0.00    -0.216 NA
ATOM     20  C   UNL A   1      30.516  27.935  24.067  1.00  0.00     0.060 A 
ATOM     21  S   UNL A   1      30.944  25.139  23.997  1.00  0.00    -0.095 S 
ATOM     22  Cl  UNL A   1      28.991  27.849  23.272  1.00  0.00    -0.083 Cl
BRANCH  14  23
ATOM     23  O   UNL A   1      34.236  28.230  25.983  1.00  0.00    -0.494 OA
ATOM     24  C   UNL A   1      34.304  29.012  27.171  1.00  0.00     0.278 C 
ENDBRANCH  14  23
ENDBRANCH  10  13
ENDBRANCH   6   9
ENDBRANCH   4   5
ENDBRANCH   3   4
ENDBRANCH   2   3
ENDBRANCH   1   2
BRANCH   1  25
ATOM     25  C   UNL A   1      38.614  21.840  25.728  1.00  0.00     0.021 C 
BRANCH  25  26
ATOM     26  C   UNL A   1      39.694  22.333  26.675  1.00  0.00     0.116 C 
BRANCH  26  27
ATOM     27  N   UNL A   1      41.031  22.204  26.101  1.00  0.00    -0.352 N 
ATOM     28  C   UNL A   1      41.958  23.199  25.856  1.00  0.00     0.251 C 
ATOM     29  H   UNL A   1      41.306  21.291  25.856  1.00  0.00     0.163 HD
ATOM     30  O   UNL A   1      42.864  23.020  25.058  1.00  0.00    -0.269 OA
BRANCH  28  31
ATOM     31  C   UNL A   1      41.840  24.469  26.597  1.00  0.00     0.039 A 
ATOM     32  C   UNL A   1      42.490  24.665  27.820  1.00  0.00     0.014 A 
ATOM     33  C   UNL A   1      41.025  25.462  26.059  1.00  0.00     0.014 A 
ATOM     34  C   UNL A   1      42.322  25.882  28.474  1.00  0.00     0.010 A 
ATOM     35  C   UNL A   1      41.009  26.715  26.600  1.00  0.00     0.010 A 
ATOM     36  C   UNL A   1      41.572  26.892  27.853  1.00  0.00    -0.014 A 
BRANCH  36  37
ATOM     37  C   UNL A   1      41.364  28.183  28.478  1.00  0.00     0.031 A 
ATOM     38  C   UNL A   1      42.403  29.181  28.140  1.00  0.00     0.074 A 
ATOM     39  C   UNL A   1      40.210  28.497  29.106  1.00  0.00     0.049 A 
ATOM     40  N   UNL A   1      43.382  29.574  28.883  1.00  0.00    -0.248 NA
ATOM     41  C   UNL A   1      42.481  29.666  26.752  1.00  0.00     0.031 C 
ATOM     42  C   UNL A   1      38.968  27.710  29.166  1.00  0.00     0.029 A 
ATOM     43  N   UNL A   1      39.870  29.641  29.760  1.00  0.00    -0.354 N 
ATOM     44  C   UNL A   1      44.022  30.569  28.153  1.00  0.00     0.074 A 
ATOM     45  C   UNL A   1      43.595  30.402  26.789  1.00  0.00     0.031 C 
ATOM     46  C   UNL A   1      37.960  28.484  29.627  1.00  0.00     0.029 A 
ATOM     47  C   UNL A   1      38.518  29.749  30.068  1.00  0.00     0.049 A 
ATOM     48  H   UNL A   1      40.527  30.335  29.995  1.00  0.00     0.167 HD
ATOM     49  C   UNL A   1      44.591  31.632  28.787  1.00  0.00     0.037 A 
ATOM     50  C   UNL A   1      37.911  30.805  30.661  1.00  0.00     0.037 A 
ATOM     51  C   UNL A   1      44.613  31.412  30.213  1.00  0.00     0.049 A 
ATOM     52  C   UNL A   1      38.967  31.533  31.408  1.00  0.00     0.074 A 
ATOM     53  C   UNL A   1      45.384  30.697  31.103  1.00  0.00     0.029 A 
ATOM     54  N   UNL A   1      43.420  31.688  30.831  1.00  0.00    -0.354 N 
ATOM     55  N   UNL A   1      39.632  31.010  32.406  1.00  0.00    -0.248 NA
ATOM     56  C   UNL A   1      39.564  32.727  30.820  1.00  0.00     0.031 C 
ATOM     57  C   UNL A   1      44.546  30.418  32.223  1.00  0.00     0.029 A 
ATOM     58  C   UNL A   1      43.301  31.006  32.015  1.00  0.00     0.049 A 
ATOM     59  H   UNL A   1      42.737  32.298  30.471  1.00  0.00     0.167 HD
ATOM     60  C   UNL A   1      40.899  31.545  32.293  1.00  0.00     0.074 A 
ATOM     61  C   UNL A   1      40.756  32.705  31.422  1.00  0.00     0.031 C 
ATOM     62  C   UNL A   1      42.005  30.825  32.637  1.00  0.00     0.037 A 
BRANCH  49  63
ATOM     63  C   UNL A   1      44.718  33.030  28.223  1.00  0.00     0.058 A 
ATOM     64  C   UNL A   1      45.982  33.486  27.787  1.00  0.00     0.135 A 
ATOM     65  C   UNL A   1      43.723  34.027  28.333  1.00  0.00     0.135 A 
ATOM     66  F   UNL A   1      47.010  32.631  27.661  1.00  0.00    -0.206 F 
ATOM     67  C   UNL A   1      46.245  34.832  27.524  1.00  0.00     0.059 A 
ATOM     68  C   UNL A   1      43.948  35.364  28.023  1.00  0.00     0.059 A 
ATOM     69  F   UNL A   1      42.511  33.771  28.837  1.00  0.00    -0.206 F 
ATOM     70  C   UNL A   1      45.220  35.766  27.651  1.00  0.00     0.060 A 
BRANCH  70  71
ATOM     71  S   UNL A   1      45.570  37.511  27.370  1.00  0.00     0.124 S 
ATOM     72  O   UNL A   1      44.314  37.975  26.796  1.00  0.00    -0.237 OA
ATOM     73  O   UNL A   1      45.870  37.979  28.720  1.00  0.00    -0.237 OA
ATOM     74  O   UNL A   1      46.710  37.482  26.457  1.00  0.00    -0.744 OA
ENDBRANCH  70  71
ENDBRANCH  49  63
BRANCH  50  75
ATOM     75  C   UNL A   1      36.605  31.430  30.325  1.00  0.00     0.058 A 
ATOM     76  C   UNL A   1      35.820  32.030  31.326  1.00  0.00     0.135 A 
ATOM     77  C   UNL A   1      36.270  31.751  28.994  1.00  0.00     0.135 A 
ATOM     78  F   UNL A   1      36.069  31.775  32.619  1.00  0.00    -0.206 F 
ATOM     79  C   UNL A   1      34.826  32.969  31.033  1.00  0.00     0.059 A 
ATOM     80  C   UNL A   1      35.280  32.682  28.677  1.00  0.00     0.059 A 
ATOM     81  F   UNL A   1      36.968  31.244  27.966  1.00  0.00    -0.206 F 
ATOM     82  C   UNL A   1      34.589  33.316  29.703  1.00  0.00     0.060 A 
BRANCH  82  83
ATOM     83  S   UNL A   1      33.473  34.692  29.336  1.00  0.00     0.124 S 
ATOM     84  O   UNL A   1      32.893  34.968  30.646  1.00  0.00    -0.237 OA
ATOM     85  O   UNL A   1      34.392  35.701  28.820  1.00  0.00    -0.237 OA
ATOM     86  O   UNL A   1      32.553  34.129  28.352  1.00  0.00    -0.744 OA
ENDBRANCH  82  83
ENDBRANCH  50  75
BRANCH  62  87
ATOM     87  C   UNL A   1      41.839  29.708  33.626  1.00  0.00     0.058 A 
ATOM     88  C   UNL A   1      41.608  28.360  33.301  1.00  0.00     0.135 A 
ATOM     89  C   UNL A   1      42.016  30.020  34.982  1.00  0.00     0.135 A 
ATOM     90  F   UNL A   1      41.494  27.970  32.025  1.00  0.00    -0.206 F 
ATOM     91  C   UNL A   1      41.538  27.371  34.287  1.00  0.00     0.059 A 
ATOM     92  C   UNL A   1      41.978  29.049  35.976  1.00  0.00     0.059 A 
ATOM     93  F   UNL A   1      42.276  31.285  35.351  1.00  0.00    -0.206 F 
ATOM     94  C   UNL A   1      41.729  27.727  35.623  1.00  0.00     0.060 A 
BRANCH  94  95
ATOM     95  S   UNL A   1      41.702  26.444  36.894  1.00  0.00     0.124 S 
ATOM     96  O   UNL A   1      41.738  25.220  36.099  1.00  0.00    -0.237 OA
ATOM     97  O   UNL A   1      42.908  26.736  37.662  1.00  0.00    -0.237 OA
ATOM     98  O   UNL A   1      40.448  26.690  37.602  1.00  0.00    -0.744 OA
ENDBRANCH  94  95
ENDBRANCH  62  87
ENDBRANCH  36  37
ENDBRANCH  28  31
ENDBRANCH  26  27
ENDBRANCH  25  26
ENDBRANCH   1  25
TORSDOF 18
ENDMDL
MODEL 2
REMARK VINA RESULT:     -11.8      3.103      9.629
REMARK SMILES COc1ccc(Cl)c2sc(N3CC(C(=O)NCCCCCCNC(=O)c4ccc(-c5c6nc(c(-c7c(F)cc(S(=O)(=O)[O-])cc7F)c7ccc([nH]7)c(-c7c(F)cc(S(=O)(=O)[O-])cc7F)c7nc(c(-c8c(F)cc(S(=O)(=O)[O-])cc8F)c8ccc5[nH]8)C=C7)C=C6)cc4)C3)nc12
REMARK SMILES IDX 20 1 19 2 18 3 17 4 16 5 14 6 15 7 13 9 11 10 12 11 92 12
REMARK SMILES IDX 10 13 3 14 4 15 94 16 5 17 8 18 93 19 6 20 9 21 7 22 2 23
REMARK SMILES IDX 1 24 21 25 22 26 23 27 24 28 25 30 26 31 27 32 91 33 28 34
REMARK SMILES IDX 90 35 29 36 30 37 31 38 84 39 32 40 89 41 83 42 85 43 33 44
REMARK SMILES IDX 88 45 82 46 81 47 34 49 68 50 47 51 67 52 48 53 51 54 66 55
REMARK SMILES IDX 86 56 49 57 50 58 65 60 87 61 52 62 35 63 36 64 45 65 37 66
REMARK SMILES IDX 38 67 44 68 46 69 39 70 40 71 41 72 42 73 43 74 69 75 70 76
REMARK SMILES IDX 79 77 71 78 72 79 78 80 80 81 73 82 74 83 75 84 76 85 77 86
REMARK SMILES IDX 53 87 54 88 63 89 55 90 56 91 62 92 64 93 57 94 58 95 59 96
REMARK SMILES IDX 60 97 61 98
REMARK H PARENT 16 8 23 29 85 48 51 59
REMARK Flexibility Score: inf
ROOT
ATOM      1  C   UNL A   1      33.125  30.655  27.250  1.00  0.00     0.002 C 
ENDROOT
BRANCH   1   2
ATOM      2  C   UNL A   1      32.705  29.213  26.919  1.00  0.00     0.002 C 
BRANCH   2   3
ATOM      3  C   UNL A   1      31.711  29.057  25.760  1.00  0.00     0.021 C 
BRANCH   3   4
ATOM      4  C   UNL A   1      32.280  29.416  24.386  1.00  0.00     0.116 C 
BRANCH   4   5
ATOM      5  N   UNL A   1      31.232  29.483  23.386  1.00  0.00    -0.356 N 
ATOM      6  C   UNL A   1      30.722  28.536  22.536  1.00  0.00     0.226 C 
ATOM      7  O   UNL A   1      29.818  28.933  21.783  1.00  0.00    -0.275 OA
ATOM      8  H   UNL A   1      30.810  30.368  23.303  1.00  0.00     0.163 HD
BRANCH   6   9
ATOM      9  C   UNL A   1      31.198  27.086  22.513  1.00  0.00     0.117 C 
ATOM     10  N   UNL A   1      32.244  25.801  23.744  1.00  0.00    -0.346 N 
ATOM     11  C   UNL A   1      30.865  26.147  23.672  1.00  0.00     0.134 C 
ATOM     12  C   UNL A   1      32.661  26.691  22.704  1.00  0.00     0.134 C 
BRANCH  10  13
ATOM     13  C   UNL A   1      32.813  24.621  24.072  1.00  0.00     0.186 A 
ATOM     14  C   UNL A   1      35.361  22.549  25.563  1.00  0.00     0.146 A 
ATOM     15  C   UNL A   1      35.515  21.153  25.609  1.00  0.00     0.050 A 
ATOM     16  C   UNL A   1      34.248  23.104  24.868  1.00  0.00     0.127 A 
ATOM     17  C   UNL A   1      34.618  20.316  24.954  1.00  0.00     0.026 A 
ATOM     18  C   UNL A   1      33.329  22.235  24.270  1.00  0.00     0.079 A 
ATOM     19  N   UNL A   1      33.961  24.462  24.691  1.00  0.00    -0.216 NA
ATOM     20  C   UNL A   1      33.517  20.843  24.280  1.00  0.00     0.060 A 
ATOM     21  S   UNL A   1      32.033  23.159  23.617  1.00  0.00    -0.095 S 
ATOM     22  Cl  UNL A   1      32.429  19.766  23.493  1.00  0.00    -0.083 Cl
BRANCH  14  23
ATOM     23  O   UNL A   1      36.202  23.399  26.244  1.00  0.00    -0.494 OA
ATOM     24  C   UNL A   1      37.481  23.596  25.650  1.00  0.00     0.278 C 
ENDBRANCH  14  23
ENDBRANCH  10  13
ENDBRANCH   6   9
ENDBRANCH   4   5
ENDBRANCH   3   4
ENDBRANCH   2   3
ENDBRANCH   1   2
BRANCH   1  25
ATOM     25  C   UNL A   1      34.522  30.830  27.861  1.00  0.00     0.021 C 
BRANCH  25  26
ATOM     26  C   UNL A   1      34.865  32.277  28.168  1.00  0.00     0.116 C 
BRANCH  26  27
ATOM     27  N   UNL A   1      34.582  32.627  29.557  1.00  0.00    -0.352 N 
ATOM     28  C   UNL A   1      35.118  32.077  30.706  1.00  0.00     0.251 C 
ATOM     29  H   UNL A   1      33.926  33.349  29.693  1.00  0.00     0.163 HD
ATOM     30  O   UNL A   1      34.545  32.198  31.777  1.00  0.00    -0.269 OA
BRANCH  28  31
ATOM     31  C   UNL A   1      36.405  31.363  30.612  1.00  0.00     0.039 A 
ATOM     32  C   UNL A   1      37.611  32.048  30.440  1.00  0.00     0.014 A 
ATOM     33  C   UNL A   1      36.380  29.970  30.660  1.00  0.00     0.014 A 
ATOM     34  C   UNL A   1      38.787  31.311  30.340  1.00  0.00     0.010 A 
ATOM     35  C   UNL A   1      37.542  29.259  30.751  1.00  0.00     0.010 A 
ATOM     36  C   UNL A   1      38.732  29.917  30.490  1.00  0.00    -0.014 A 
BRANCH  36  37
ATOM     37  C   UNL A   1      39.921  29.092  30.405  1.00  0.00     0.031 A 
ATOM     38  C   UNL A   1      40.572  28.849  31.710  1.00  0.00     0.074 A 
ATOM     39  C   UNL A   1      40.249  28.425  29.277  1.00  0.00     0.049 A 
ATOM     40  N   UNL A   1      41.640  29.409  32.169  1.00  0.00    -0.248 NA
ATOM     41  C   UNL A   1      39.858  28.030  32.706  1.00  0.00     0.031 C 
ATOM     42  C   UNL A   1      39.463  28.294  28.040  1.00  0.00     0.029 A 
ATOM     43  N   UNL A   1      41.331  27.640  29.025  1.00  0.00    -0.354 N 
ATOM     44  C   UNL A   1      41.885  28.791  33.390  1.00  0.00     0.074 A 
ATOM     45  C   UNL A   1      40.650  28.160  33.774  1.00  0.00     0.031 C 
ATOM     46  C   UNL A   1      39.987  27.317  27.267  1.00  0.00     0.029 A 
ATOM     47  C   UNL A   1      41.241  26.888  27.858  1.00  0.00     0.049 A 
ATOM     48  H   UNL A   1      42.115  27.608  29.621  1.00  0.00     0.167 HD
ATOM     49  C   UNL A   1      43.163  28.587  33.816  1.00  0.00     0.037 A 
ATOM     50  C   UNL A   1      42.150  25.990  27.409  1.00  0.00     0.037 A 
ATOM     51  C   UNL A   1      44.093  29.286  32.963  1.00  0.00     0.049 A 
ATOM     52  C   UNL A   1      43.447  26.353  28.033  1.00  0.00     0.074 A 
ATOM     53  C   UNL A   1      44.539  30.582  32.819  1.00  0.00     0.029 A 
ATOM     54  N   UNL A   1      44.379  28.620  31.799  1.00  0.00    -0.354 N 
ATOM     55  N   UNL A   1      44.058  27.488  27.810  1.00  0.00    -0.248 NA
ATOM     56  C   UNL A   1      43.905  25.619  29.207  1.00  0.00     0.031 C 
ATOM     57  C   UNL A   1      44.962  30.710  31.462  1.00  0.00     0.029 A 
ATOM     58  C   UNL A   1      44.810  29.482  30.822  1.00  0.00     0.049 A 
ATOM     59  H   UNL A   1      44.288  27.648  31.679  1.00  0.00     0.167 HD
ATOM     60  C   UNL A   1      44.660  27.796  29.014  1.00  0.00     0.074 A 
ATOM     61  C   UNL A   1      44.678  26.551  29.771  1.00  0.00     0.031 C 
ATOM     62  C   UNL A   1      44.793  29.089  29.428  1.00  0.00     0.037 A 
BRANCH  49  63
ATOM     63  C   UNL A   1      43.629  27.440  34.686  1.00  0.00     0.058 A 
ATOM     64  C   UNL A   1      44.114  27.711  35.984  1.00  0.00     0.135 A 
ATOM     65  C   UNL A   1      43.869  26.130  34.214  1.00  0.00     0.135 A 
ATOM     66  F   UNL A   1      43.958  28.928  36.531  1.00  0.00    -0.206 F 
ATOM     67  C   UNL A   1      44.817  26.767  36.735  1.00  0.00     0.059 A 
ATOM     68  C   UNL A   1      44.520  25.159  34.967  1.00  0.00     0.059 A 
ATOM     69  F   UNL A   1      43.571  25.756  32.965  1.00  0.00    -0.206 F 
ATOM     70  C   UNL A   1      45.021  25.493  36.214  1.00  0.00     0.060 A 
BRANCH  70  71
ATOM     71  S   UNL A   1      45.980  24.292  37.154  1.00  0.00     0.124 S 
ATOM     72  O   UNL A   1      46.181  23.238  36.168  1.00  0.00    -0.237 OA
ATOM     73  O   UNL A   1      47.163  25.067  37.514  1.00  0.00    -0.237 OA
ATOM     74  O   UNL A   1      45.098  23.956  38.269  1.00  0.00    -0.744 OA
ENDBRANCH  70  71
ENDBRANCH  49  63
BRANCH  50  75
ATOM     75  C   UNL A   1      41.908  24.653  26.807  1.00  0.00     0.058 A 
ATOM     76  C   UNL A   1      42.780  24.140  25.829  1.00  0.00     0.135 A 
ATOM     77  C   UNL A   1      41.037  23.725  27.412  1.00  0.00     0.135 A 
ATOM     78  F   UNL A   1      43.640  24.955  25.200  1.00  0.00    -0.206 F 
ATOM     79  C   UNL A   1      42.855  22.775  25.538  1.00  0.00     0.059 A 
ATOM     80  C   UNL A   1      41.091  22.359  27.136  1.00  0.00     0.059 A 
ATOM     81  F   UNL A   1      40.178  24.110  28.369  1.00  0.00    -0.206 F 
ATOM     82  C   UNL A   1      42.030  21.886  26.225  1.00  0.00     0.060 A 
BRANCH  82  83
ATOM     83  S   UNL A   1      42.285  20.106  26.021  1.00  0.00     0.124 S 
ATOM     84  O   UNL A   1      43.497  20.066  25.210  1.00  0.00    -0.237 OA
ATOM     85  O   UNL A   1      42.426  19.658  27.402  1.00  0.00    -0.237 OA
ATOM     86  O   UNL A   1      41.067  19.665  25.346  1.00  0.00    -0.744 OA
ENDBRANCH  82  83
ENDBRANCH  50  75
BRANCH  62  87
ATOM     87  C   UNL A   1      44.801  30.167  28.383  1.00  0.00     0.058 A 
ATOM     88  C   UNL A   1      43.662  30.811  27.870  1.00  0.00     0.135 A 
ATOM     89  C   UNL A   1      46.051  30.629  27.948  1.00  0.00     0.135 A 
ATOM     90  F   UNL A   1      42.434  30.474  28.284  1.00  0.00    -0.206 F 
ATOM     91  C   UNL A   1      43.767  31.858  26.948  1.00  0.00     0.059 A 
ATOM     92  C   UNL A   1      46.180  31.686  27.055  1.00  0.00     0.059 A 
ATOM     93  F   UNL A   1      47.176  30.076  28.431  1.00  0.00    -0.206 F 
ATOM     94  C   UNL A   1      45.033  32.291  26.551  1.00  0.00     0.060 A 
BRANCH  94  95
ATOM     95  S   UNL A   1      45.175  33.684  25.409  1.00  0.00     0.124 S 
ATOM     96  O   UNL A   1      44.591  33.141  24.186  1.00  0.00    -0.237 OA
ATOM     97  O   UNL A   1      44.396  34.720  26.078  1.00  0.00    -0.237 OA
ATOM     98  O   UNL A   1      46.614  33.934  25.354  1.00  0.00    -0.744 OA
ENDBRANCH  94  95
ENDBRANCH  62  87
ENDBRANCH  36  37
ENDBRANCH  28  31
ENDBRANCH  26  27
ENDBRANCH  25  26
ENDBRANCH   1  25
TORSDOF 18
ENDMDL
MODEL 3
REMARK VINA RESULT:     -11.6      3.192      9.736
REMARK SMILES COc1ccc(Cl)c2sc(N3CC(C(=O)NCCCCCCNC(=O)c4ccc(-c5c6nc(c(-c7c(F)cc(S(=O)(=O)[O-])cc7F)c7ccc([nH]7)c(-c7c(F)cc(S(=O)(=O)[O-])cc7F)c7nc(c(-c8c(F)cc(S(=O)(=O)[O-])cc8F)c8ccc5[nH]8)C=C7)C=C6)cc4)C3)nc12
REMARK SMILES IDX 20 1 19 2 18 3 17 4 16 5 14 6 15 7 13 9 11 10 12 11 92 12
REMARK SMILES IDX 10 13 3 14 4 15 94 16 5 17 8 18 93 19 6 20 9 21 7 22 2 23
REMARK SMILES IDX 1 24 21 25 22 26 23 27 24 28 25 30 26 31 27 32 91 33 28 34
REMARK SMILES IDX 90 35 29 36 30 37 31 38 84 39 32 40 89 41 83 42 85 43 33 44
REMARK SMILES IDX 88 45 82 46 81 47 34 49 68 50 47 51 67 52 48 53 51 54 66 55
REMARK SMILES IDX 86 56 49 57 50 58 65 60 87 61 52 62 35 63 36 64 45 65 37 66
REMARK SMILES IDX 38 67 44 68 46 69 39 70 40 71 41 72 42 73 43 74 69 75 70 76
REMARK SMILES IDX 79 77 71 78 72 79 78 80 80 81 73 82 74 83 75 84 76 85 77 86
REMARK SMILES IDX 53 87 54 88 63 89 55 90 56 91 62 92 64 93 57 94 58 95 59 96
REMARK SMILES IDX 60 97 61 98
REMARK H PARENT 16 8 23 29 85 48 51 59
REMARK Flexibility Score: inf
ROOT
ATOM      1  C   UNL A   1      32.989  30.462  26.743  1.00  0.00     0.002 C 
ENDROOT
BRANCH   1   2
ATOM      2  C   UNL A   1      32.638  29.327  25.766  1.00  0.00     0.002 C 
BRANCH   2   3
ATOM      3  C   UNL A   1      31.389  29.553  24.903  1.00  0.00     0.021 C 
BRANCH   3   4
ATOM      4  C   UNL A   1      31.176  28.503  23.811  1.00  0.00     0.116 C 
BRANCH   4   5
ATOM      5  N   UNL A   1      29.807  28.023  23.805  1.00  0.00    -0.356 N 
ATOM      6  C   UNL A   1      29.286  26.755  23.800  1.00  0.00     0.226 C 
ATOM      7  O   UNL A   1      28.047  26.693  23.784  1.00  0.00    -0.275 OA
ATOM      8  H   UNL A   1      29.130  28.737  23.806  1.00  0.00     0.163 HD
BRANCH   6   9
ATOM      9  C   UNL A   1      30.147  25.495  23.833  1.00  0.00     0.117 C 
ATOM     10  N   UNL A   1      32.056  24.963  24.409  1.00  0.00    -0.346 N 
ATOM     11  C   UNL A   1      30.832  25.063  25.129  1.00  0.00     0.134 C 
ATOM     12  C   UNL A   1      31.516  25.408  23.161  1.00  0.00     0.134 C 
BRANCH  10  13
ATOM     13  C   UNL A   1      33.080  24.100  24.582  1.00  0.00     0.186 A 
ATOM     14  C   UNL A   1      34.565  20.819  24.769  1.00  0.00     0.146 A 
ATOM     15  C   UNL A   1      35.880  20.407  25.044  1.00  0.00     0.050 A 
ATOM     16  C   UNL A   1      34.252  22.209  24.788  1.00  0.00     0.127 A 
ATOM     17  C   UNL A   1      36.863  21.336  25.370  1.00  0.00     0.026 A 
ATOM     18  C   UNL A   1      35.275  23.123  25.060  1.00  0.00     0.079 A 
ATOM     19  N   UNL A   1      32.997  22.789  24.576  1.00  0.00    -0.216 NA
ATOM     20  C   UNL A   1      36.575  22.700  25.381  1.00  0.00     0.060 A 
ATOM     21  S   UNL A   1      34.653  24.719  24.895  1.00  0.00    -0.095 S 
ATOM     22  Cl  UNL A   1      37.828  23.812  25.781  1.00  0.00    -0.083 Cl
BRANCH  14  23
ATOM     23  O   UNL A   1      33.585  19.928  24.392  1.00  0.00    -0.494 OA
ATOM     24  C   UNL A   1      32.942  19.243  25.462  1.00  0.00     0.278 C 
ENDBRANCH  14  23
ENDBRANCH  10  13
ENDBRANCH   6   9
ENDBRANCH   4   5
ENDBRANCH   3   4
ENDBRANCH   2   3
ENDBRANCH   1   2
BRANCH   1  25
ATOM     25  C   UNL A   1      34.302  30.302  27.522  1.00  0.00     0.021 C 
BRANCH  25  26
ATOM     26  C   UNL A   1      35.068  31.603  27.679  1.00  0.00     0.116 C 
BRANCH  26  27
ATOM     27  N   UNL A   1      34.858  32.212  28.989  1.00  0.00    -0.352 N 
ATOM     28  C   UNL A   1      35.399  31.839  30.205  1.00  0.00     0.251 C 
ATOM     29  H   UNL A   1      34.252  32.988  29.010  1.00  0.00     0.163 HD
ATOM     30  O   UNL A   1      34.874  32.185  31.250  1.00  0.00    -0.269 OA
BRANCH  28  31
ATOM     31  C   UNL A   1      36.635  31.034  30.208  1.00  0.00     0.039 A 
ATOM     32  C   UNL A   1      36.608  29.651  30.414  1.00  0.00     0.014 A 
ATOM     33  C   UNL A   1      37.845  31.702  30.037  1.00  0.00     0.014 A 
ATOM     34  C   UNL A   1      37.813  28.956  30.422  1.00  0.00     0.010 A 
ATOM     35  C   UNL A   1      39.004  31.003  29.857  1.00  0.00     0.010 A 
ATOM     36  C   UNL A   1      39.001  29.649  30.150  1.00  0.00    -0.014 A 
BRANCH  36  37
ATOM     37  C   UNL A   1      40.289  28.983  30.136  1.00  0.00     0.031 A 
ATOM     38  C   UNL A   1      40.869  28.783  31.482  1.00  0.00     0.074 A 
ATOM     39  C   UNL A   1      40.781  28.399  29.021  1.00  0.00     0.049 A 
ATOM     40  N   UNL A   1      41.821  29.457  32.032  1.00  0.00    -0.248 NA
ATOM     41  C   UNL A   1      40.196  27.849  32.401  1.00  0.00     0.031 C 
ATOM     42  C   UNL A   1      40.109  28.210  27.726  1.00  0.00     0.029 A 
ATOM     43  N   UNL A   1      41.970  27.765  28.836  1.00  0.00    -0.354 N 
ATOM     44  C   UNL A   1      42.053  28.836  33.255  1.00  0.00     0.074 A 
ATOM     45  C   UNL A   1      40.885  28.043  33.529  1.00  0.00     0.031 C 
ATOM     46  C   UNL A   1      40.809  27.331  26.973  1.00  0.00     0.029 A 
ATOM     47  C   UNL A   1      42.061  27.046  27.648  1.00  0.00     0.049 A 
ATOM     48  H   UNL A   1      42.706  27.812  29.488  1.00  0.00     0.167 HD
ATOM     49  C   UNL A   1      43.313  28.781  33.772  1.00  0.00     0.037 A 
ATOM     50  C   UNL A   1      43.108  26.284  27.250  1.00  0.00     0.037 A 
ATOM     51  C   UNL A   1      44.205  29.619  33.008  1.00  0.00     0.049 A 
ATOM     52  C   UNL A   1      44.299  26.787  27.978  1.00  0.00     0.074 A 
ATOM     53  C   UNL A   1      44.491  30.964  32.927  1.00  0.00     0.029 A 
ATOM     54  N   UNL A   1      44.658  29.032  31.854  1.00  0.00    -0.354 N 
ATOM     55  N   UNL A   1      44.774  27.996  27.828  1.00  0.00    -0.248 NA
ATOM     56  C   UNL A   1      44.761  26.079  29.167  1.00  0.00     0.031 C 
ATOM     57  C   UNL A   1      44.992  31.188  31.610  1.00  0.00     0.029 A 
ATOM     58  C   UNL A   1      45.045  29.971  30.933  1.00  0.00     0.049 A 
ATOM     59  H   UNL A   1      44.701  28.060  31.706  1.00  0.00     0.167 HD
ATOM     60  C   UNL A   1      45.243  28.339  29.081  1.00  0.00     0.074 A 
ATOM     61  C   UNL A   1      45.365  27.082  29.809  1.00  0.00     0.031 C 
ATOM     62  C   UNL A   1      45.180  29.624  29.533  1.00  0.00     0.037 A 
BRANCH  49  63
ATOM     63  C   UNL A   1      43.858  27.675  34.648  1.00  0.00     0.058 A 
ATOM     64  C   UNL A   1      44.363  27.994  35.928  1.00  0.00     0.135 A 
ATOM     65  C   UNL A   1      44.149  26.369  34.193  1.00  0.00     0.135 A 
ATOM     66  F   UNL A   1      44.163  29.211  36.457  1.00  0.00    -0.206 F 
ATOM     67  C   UNL A   1      45.132  27.099  36.676  1.00  0.00     0.059 A 
ATOM     68  C   UNL A   1      44.866  25.445  34.945  1.00  0.00     0.059 A 
ATOM     69  F   UNL A   1      43.835  25.957  32.960  1.00  0.00    -0.206 F 
ATOM     70  C   UNL A   1      45.383  25.826  36.171  1.00  0.00     0.060 A 
BRANCH  70  71
ATOM     71  S   UNL A   1      46.424  24.692  37.106  1.00  0.00     0.124 S 
ATOM     72  O   UNL A   1      45.447  24.031  37.962  1.00  0.00    -0.237 OA
ATOM     73  O   UNL A   1      47.005  23.873  36.046  1.00  0.00    -0.237 OA
ATOM     74  O   UNL A   1      47.363  25.580  37.787  1.00  0.00    -0.744 OA
ENDBRANCH  70  71
ENDBRANCH  49  63
BRANCH  50  75
ATOM     75  C   UNL A   1      43.083  24.946  26.601  1.00  0.00     0.058 A 
ATOM     76  C   UNL A   1      43.599  24.771  25.304  1.00  0.00     0.135 A 
ATOM     77  C   UNL A   1      42.876  23.773  27.353  1.00  0.00     0.135 A 
ATOM     78  F   UNL A   1      43.823  25.835  24.519  1.00  0.00    -0.206 F 
ATOM     79  C   UNL A   1      43.981  23.517  24.816  1.00  0.00     0.059 A 
ATOM     80  C   UNL A   1      43.245  22.511  26.886  1.00  0.00     0.059 A 
ATOM     81  F   UNL A   1      42.402  23.833  28.607  1.00  0.00    -0.206 F 
ATOM     82  C   UNL A   1      43.833  22.396  25.631  1.00  0.00     0.060 A 
BRANCH  82  83
ATOM     83  S   UNL A   1      44.536  20.817  25.095  1.00  0.00     0.124 S 
ATOM     84  O   UNL A   1      45.881  20.879  25.658  1.00  0.00    -0.237 OA
ATOM     85  O   UNL A   1      43.630  19.855  25.713  1.00  0.00    -0.237 OA
ATOM     86  O   UNL A   1      44.465  20.891  23.639  1.00  0.00    -0.744 OA
ENDBRANCH  82  83
ENDBRANCH  50  75
BRANCH  62  87
ATOM     87  C   UNL A   1      45.125  30.727  28.516  1.00  0.00     0.058 A 
ATOM     88  C   UNL A   1      46.206  31.167  27.733  1.00  0.00     0.135 A 
ATOM     89  C   UNL A   1      43.873  31.306  28.265  1.00  0.00     0.135 A 
ATOM     90  F   UNL A   1      47.420  30.618  27.866  1.00  0.00    -0.206 F 
ATOM     91  C   UNL A   1      46.048  32.155  26.757  1.00  0.00     0.059 A 
ATOM     92  C   UNL A   1      43.686  32.270  27.281  1.00  0.00     0.059 A 
ATOM     93  F   UNL A   1      42.795  30.900  28.957  1.00  0.00    -0.206 F 
ATOM     94  C   UNL A   1      44.781  32.697  26.535  1.00  0.00     0.060 A 
BRANCH  94  95
ATOM     95  S   UNL A   1      44.558  33.928  25.232  1.00  0.00     0.124 S 
ATOM     96  O   UNL A   1      43.517  34.784  25.791  1.00  0.00    -0.237 OA
ATOM     97  O   UNL A   1      45.886  34.526  25.134  1.00  0.00    -0.237 OA
ATOM     98  O   UNL A   1      44.155  33.133  24.075  1.00  0.00    -0.744 OA
ENDBRANCH  94  95
ENDBRANCH  62  87
ENDBRANCH  36  37
ENDBRANCH  28  31
ENDBRANCH  26  27
ENDBRANCH  25  26
ENDBRANCH   1  25
TORSDOF 18
ENDMDL
