MODEL 1
REMARK VINA RESULT:     -12.0      0.000      0.000
REMARK SMILES Cc1cc2nc(SCC(=O)NCCCCCCNC(=O)c3ccc(-c4c5nc(c(-c6c(F)cc(S(=O)(=O)[O-])cc6F)c6ccc([nH]6)c(-c6c(F)cc(S(=O)(=O)[O-])cc6F)c6nc(c(-c7c(F)cc(S(=O)(=O)[O-])cc7F)c7ccc4[nH]7)C=C6)C=C5)cc3)n(CC(C)C)c(=O)c2[nH]1
REMARK SMILES IDX 14 1 13 2 12 3 11 4 9 5 10 6 8 8 7 9 6 10 1 11 2 12 3 13
REMARK SMILES IDX 95 14 4 15 94 16 5 18 92 19 87 20 93 21 88 22 89 23 90 24
REMARK SMILES IDX 91 25 15 26 16 27 17 28 18 29 19 30 20 32 21 33 22 34 86 35
REMARK SMILES IDX 23 36 85 37 24 38 25 39 26 40 79 41 27 42 84 43 78 44 80 45
REMARK SMILES IDX 28 46 83 47 77 48 76 49 29 51 63 52 42 53 62 54 43 55 46 56
REMARK SMILES IDX 61 57 81 58 44 59 45 60 60 62 82 63 47 64 30 65 31 66 40 67
REMARK SMILES IDX 32 68 33 69 39 70 41 71 34 72 35 73 36 74 37 75 38 76 64 77
REMARK SMILES IDX 65 78 74 79 66 80 67 81 73 82 75 83 68 84 69 85 70 86 71 87
REMARK SMILES IDX 72 88 48 89 49 90 58 91 50 92 51 93 57 94 59 95 52 96 53 97
REMARK SMILES IDX 54 98 55 99 56 100
REMARK H PARENT 11 7 95 17 18 31 80 50 46 61
REMARK Flexibility Score: inf
ROOT
ATOM      1  C   UNL A   1      36.559  22.621  25.553  1.00  0.00     0.002 C 
ENDROOT
BRANCH   1   2
ATOM      2  C   UNL A   1      35.420  23.427  26.190  1.00  0.00     0.021 C 
BRANCH   2   3
ATOM      3  C   UNL A   1      34.012  23.012  25.774  1.00  0.00     0.116 C 
BRANCH   3   4
ATOM      4  N   UNL A   1      33.015  23.339  26.772  1.00  0.00    -0.355 N 
ATOM      5  C   UNL A   1      31.709  23.660  26.597  1.00  0.00     0.230 C 
ATOM      6  O   UNL A   1      30.956  23.464  27.555  1.00  0.00    -0.274 OA
ATOM      7  H   UNL A   1      33.329  23.327  27.704  1.00  0.00     0.163 HD
BRANCH   5   8
ATOM      8  C   UNL A   1      31.140  24.127  25.283  1.00  0.00     0.178 C 
BRANCH   8   9
ATOM      9  S   UNL A   1      30.211  25.625  25.275  1.00  0.00    -0.078 SA
BRANCH   9  10
ATOM     10  C   UNL A   1      30.526  26.829  24.048  1.00  0.00     0.172 A 
ATOM     11  C   UNL A   1      28.383  31.365  20.874  1.00  0.00     0.064 C 
ATOM     12  C   UNL A   1      29.017  30.317  21.714  1.00  0.00     0.014 A 
ATOM     13  C   UNL A   1      28.448  29.418  22.604  1.00  0.00     0.052 A 
ATOM     14  N   UNL A   1      30.378  30.076  21.688  1.00  0.00    -0.353 N 
ATOM     15  C   UNL A   1      29.487  28.589  23.036  1.00  0.00     0.097 A 
ATOM     16  C   UNL A   1      30.653  29.003  22.492  1.00  0.00     0.131 A 
ATOM     17  H   UNL A   1      31.041  30.593  21.176  1.00  0.00     0.166 HD
ATOM     18  N   UNL A   1      29.424  27.511  23.896  1.00  0.00    -0.222 NA
ATOM     19  C   UNL A   1      31.891  28.351  22.735  1.00  0.00     0.278 A 
ATOM     20  N   UNL A   1      31.743  27.113  23.409  1.00  0.00    -0.286 N 
ATOM     21  O   UNL A   1      32.957  28.826  22.378  1.00  0.00    -0.267 OA
BRANCH  20  22
ATOM     22  C   UNL A   1      32.956  26.288  23.347  1.00  0.00     0.131 C 
BRANCH  22  23
ATOM     23  C   UNL A   1      32.853  25.077  22.370  1.00  0.00     0.003 C 
ATOM     24  C   UNL A   1      32.792  25.457  20.885  1.00  0.00     0.009 C 
ATOM     25  C   UNL A   1      34.067  24.152  22.537  1.00  0.00     0.009 C 
ENDBRANCH  22  23
ENDBRANCH  20  22
ENDBRANCH   9  10
ENDBRANCH   8   9
ENDBRANCH   5   8
ENDBRANCH   3   4
ENDBRANCH   2   3
ENDBRANCH   1   2
BRANCH   1  26
ATOM     26  C   UNL A   1      37.980  22.938  26.044  1.00  0.00     0.002 C 
BRANCH  26  27
ATOM     27  C   UNL A   1      39.028  21.830  25.873  1.00  0.00     0.021 C 
BRANCH  27  28
ATOM     28  C   UNL A   1      40.244  21.986  26.770  1.00  0.00     0.116 C 
BRANCH  28  29
ATOM     29  N   UNL A   1      41.486  21.949  26.009  1.00  0.00    -0.352 N 
ATOM     30  C   UNL A   1      42.251  23.010  25.582  1.00  0.00     0.251 C 
ATOM     31  H   UNL A   1      41.819  21.053  25.771  1.00  0.00     0.163 HD
ATOM     32  O   UNL A   1      43.034  22.867  24.650  1.00  0.00    -0.269 OA
BRANCH  30  33
ATOM     33  C   UNL A   1      42.127  24.312  26.262  1.00  0.00     0.039 A 
ATOM     34  C   UNL A   1      41.334  25.323  25.708  1.00  0.00     0.014 A 
ATOM     35  C   UNL A   1      42.849  24.538  27.437  1.00  0.00     0.014 A 
ATOM     36  C   UNL A   1      41.238  26.545  26.366  1.00  0.00     0.010 A 
ATOM     37  C   UNL A   1      42.678  25.707  28.138  1.00  0.00     0.010 A 
ATOM     38  C   UNL A   1      41.911  26.726  27.581  1.00  0.00    -0.014 A 
BRANCH  38  39
ATOM     39  C   UNL A   1      41.740  27.957  28.340  1.00  0.00     0.031 A 
ATOM     40  C   UNL A   1      42.828  28.952  28.148  1.00  0.00     0.074 A 
ATOM     41  C   UNL A   1      40.587  28.269  28.967  1.00  0.00     0.049 A 
ATOM     42  N   UNL A   1      43.716  29.338  29.002  1.00  0.00    -0.248 NA
ATOM     43  C   UNL A   1      43.043  29.479  26.789  1.00  0.00     0.031 C 
ATOM     44  C   UNL A   1      39.318  27.532  28.945  1.00  0.00     0.029 A 
ATOM     45  N   UNL A   1      40.273  29.384  29.678  1.00  0.00    -0.354 N 
ATOM     46  C   UNL A   1      44.444  30.337  28.363  1.00  0.00     0.074 A 
ATOM     47  C   UNL A   1      44.135  30.226  26.962  1.00  0.00     0.031 C 
ATOM     48  C   UNL A   1      38.329  28.324  29.418  1.00  0.00     0.029 A 
ATOM     49  C   UNL A   1      38.914  29.553  29.921  1.00  0.00     0.049 A 
ATOM     50  H   UNL A   1      40.953  30.021  29.997  1.00  0.00     0.167 HD
ATOM     51  C   UNL A   1      45.028  31.349  29.065  1.00  0.00     0.037 A 
ATOM     52  C   UNL A   1      38.317  30.645  30.462  1.00  0.00     0.037 A 
ATOM     53  C   UNL A   1      45.108  31.031  30.470  1.00  0.00     0.049 A 
ATOM     54  C   UNL A   1      39.375  31.391  31.194  1.00  0.00     0.074 A 
ATOM     55  C   UNL A   1      45.681  30.013  31.206  1.00  0.00     0.029 A 
ATOM     56  N   UNL A   1      44.194  31.627  31.304  1.00  0.00    -0.354 N 
ATOM     57  N   UNL A   1      39.992  30.936  32.251  1.00  0.00    -0.248 NA
ATOM     58  C   UNL A   1      40.059  32.463  30.489  1.00  0.00     0.031 C 
ATOM     59  C   UNL A   1      44.750  29.746  32.254  1.00  0.00     0.029 A 
ATOM     60  C   UNL A   1      43.699  30.658  32.139  1.00  0.00     0.049 A 
ATOM     61  H   UNL A   1      43.940  32.578  31.304  1.00  0.00     0.167 HD
ATOM     62  C   UNL A   1      41.307  31.348  32.100  1.00  0.00     0.074 A 
ATOM     63  C   UNL A   1      41.265  32.367  31.053  1.00  0.00     0.031 C 
ATOM     64  C   UNL A   1      42.339  30.631  32.635  1.00  0.00     0.037 A 
BRANCH  51  65
ATOM     65  C   UNL A   1      45.172  32.766  28.556  1.00  0.00     0.058 A 
ATOM     66  C   UNL A   1      46.445  33.373  28.546  1.00  0.00     0.135 A 
ATOM     67  C   UNL A   1      44.081  33.641  28.343  1.00  0.00     0.135 A 
ATOM     68  F   UNL A   1      47.551  32.643  28.756  1.00  0.00    -0.206 F 
ATOM     69  C   UNL A   1      46.615  34.752  28.401  1.00  0.00     0.059 A 
ATOM     70  C   UNL A   1      44.233  35.006  28.137  1.00  0.00     0.059 A 
ATOM     71  F   UNL A   1      42.809  33.234  28.425  1.00  0.00    -0.206 F 
ATOM     72  C   UNL A   1      45.500  35.560  28.209  1.00  0.00     0.060 A 
BRANCH  72  73
ATOM     73  S   UNL A   1      45.704  37.347  28.120  1.00  0.00     0.124 S 
ATOM     74  O   UNL A   1      45.270  37.755  29.451  1.00  0.00    -0.237 OA
ATOM     75  O   UNL A   1      47.132  37.473  27.844  1.00  0.00    -0.237 OA
ATOM     76  O   UNL A   1      44.823  37.732  27.021  1.00  0.00    -0.744 OA
ENDBRANCH  72  73
ENDBRANCH  51  65
BRANCH  52  77
ATOM     77  C   UNL A   1      37.005  31.257  30.118  1.00  0.00     0.058 A 
ATOM     78  C   UNL A   1      36.191  31.828  31.114  1.00  0.00     0.135 A 
ATOM     79  C   UNL A   1      36.660  31.566  28.786  1.00  0.00     0.135 A 
ATOM     80  F   UNL A   1      36.449  31.599  32.410  1.00  0.00    -0.206 F 
ATOM     81  C   UNL A   1      35.143  32.706  30.812  1.00  0.00     0.059 A 
ATOM     82  C   UNL A   1      35.614  32.431  28.461  1.00  0.00     0.059 A 
ATOM     83  F   UNL A   1      37.393  31.111  27.759  1.00  0.00    -0.206 F 
ATOM     84  C   UNL A   1      34.880  33.022  29.480  1.00  0.00     0.060 A 
BRANCH  84  85
ATOM     85  S   UNL A   1      33.654  34.296  29.097  1.00  0.00     0.124 S 
ATOM     86  O   UNL A   1      33.136  34.625  30.421  1.00  0.00    -0.237 OA
ATOM     87  O   UNL A   1      34.469  35.324  28.458  1.00  0.00    -0.237 OA
ATOM     88  O   UNL A   1      32.714  33.609  28.214  1.00  0.00    -0.744 OA
ENDBRANCH  84  85
ENDBRANCH  52  77
BRANCH  64  89
ATOM     89  C   UNL A   1      42.019  29.573  33.662  1.00  0.00     0.058 A 
ATOM     90  C   UNL A   1      41.677  28.242  33.362  1.00  0.00     0.135 A 
ATOM     91  C   UNL A   1      42.229  29.889  35.012  1.00  0.00     0.135 A 
ATOM     92  F   UNL A   1      41.549  27.829  32.095  1.00  0.00    -0.206 F 
ATOM     93  C   UNL A   1      41.524  27.279  34.363  1.00  0.00     0.059 A 
ATOM     94  C   UNL A   1      42.112  28.939  36.023  1.00  0.00     0.059 A 
ATOM     95  F   UNL A   1      42.613  31.128  35.360  1.00  0.00    -0.206 F 
ATOM     96  C   UNL A   1      41.750  27.635  35.692  1.00  0.00     0.060 A 
BRANCH  96  97
ATOM     97  S   UNL A   1      41.639  26.370  36.976  1.00  0.00     0.124 S 
ATOM     98  O   UNL A   1      41.598  25.138  36.194  1.00  0.00    -0.237 OA
ATOM     99  O   UNL A   1      42.860  26.591  37.745  1.00  0.00    -0.237 OA
ATOM    100  O   UNL A   1      40.402  26.702  37.679  1.00  0.00    -0.744 OA
ENDBRANCH  96  97
ENDBRANCH  64  89
ENDBRANCH  38  39
ENDBRANCH  30  33
ENDBRANCH  28  29
ENDBRANCH  27  28
ENDBRANCH  26  27
ENDBRANCH   1  26
TORSDOF 20
ENDMDL
MODEL 2
REMARK VINA RESULT:     -11.8      2.200      4.043
REMARK SMILES Cc1cc2nc(SCC(=O)NCCCCCCNC(=O)c3ccc(-c4c5nc(c(-c6c(F)cc(S(=O)(=O)[O-])cc6F)c6ccc([nH]6)c(-c6c(F)cc(S(=O)(=O)[O-])cc6F)c6nc(c(-c7c(F)cc(S(=O)(=O)[O-])cc7F)c7ccc4[nH]7)C=C6)C=C5)cc3)n(CC(C)C)c(=O)c2[nH]1
REMARK SMILES IDX 14 1 13 2 12 3 11 4 9 5 10 6 8 8 7 9 6 10 1 11 2 12 3 13
REMARK SMILES IDX 95 14 4 15 94 16 5 18 92 19 87 20 93 21 88 22 89 23 90 24
REMARK SMILES IDX 91 25 15 26 16 27 17 28 18 29 19 30 20 32 21 33 22 34 86 35
REMARK SMILES IDX 23 36 85 37 24 38 25 39 26 40 79 41 27 42 84 43 78 44 80 45
REMARK SMILES IDX 28 46 83 47 77 48 76 49 29 51 63 52 42 53 62 54 43 55 46 56
REMARK SMILES IDX 61 57 81 58 44 59 45 60 60 62 82 63 47 64 30 65 31 66 40 67
REMARK SMILES IDX 32 68 33 69 39 70 41 71 34 72 35 73 36 74 37 75 38 76 64 77
REMARK SMILES IDX 65 78 74 79 66 80 67 81 73 82 75 83 68 84 69 85 70 86 71 87
REMARK SMILES IDX 72 88 48 89 49 90 58 91 50 92 51 93 57 94 59 95 52 96 53 97
REMARK SMILES IDX 54 98 55 99 56 100
REMARK H PARENT 11 7 95 17 18 31 80 50 46 61
REMARK Flexibility Score: inf
ROOT
ATOM      1  C   UNL A   1      37.008  21.197  25.468  1.00  0.00     0.002 C 
ENDROOT
BRANCH   1   2
ATOM      2  C   UNL A   1      35.876  21.906  24.714  1.00  0.00     0.021 C 
BRANCH   2   3
ATOM      3  C   UNL A   1      36.322  22.943  23.687  1.00  0.00     0.116 C 
BRANCH   3   4
ATOM      4  N   UNL A   1      35.522  24.149  23.727  1.00  0.00    -0.355 N 
ATOM      5  C   UNL A   1      34.279  24.363  23.229  1.00  0.00     0.230 C 
ATOM      6  O   UNL A   1      33.622  25.272  23.744  1.00  0.00    -0.274 OA
ATOM      7  H   UNL A   1      35.937  24.919  24.178  1.00  0.00     0.163 HD
BRANCH   5   8
ATOM      8  C   UNL A   1      33.646  23.488  22.178  1.00  0.00     0.178 C 
BRANCH   8   9
ATOM      9  S   UNL A   1      32.243  22.527  22.644  1.00  0.00    -0.078 SA
BRANCH   9  10
ATOM     10  C   UNL A   1      32.363  21.425  23.995  1.00  0.00     0.172 A 
ATOM     11  C   UNL A   1      32.666  15.771  25.780  1.00  0.00     0.064 C 
ATOM     12  C   UNL A   1      32.712  17.206  25.397  1.00  0.00     0.014 A 
ATOM     13  C   UNL A   1      32.495  17.811  24.168  1.00  0.00     0.052 A 
ATOM     14  N   UNL A   1      32.979  18.204  26.314  1.00  0.00    -0.353 N 
ATOM     15  C   UNL A   1      32.556  19.189  24.398  1.00  0.00     0.097 A 
ATOM     16  C   UNL A   1      32.865  19.418  25.693  1.00  0.00     0.131 A 
ATOM     17  H   UNL A   1      33.214  18.065  27.260  1.00  0.00     0.166 HD
ATOM     18  N   UNL A   1      32.365  20.218  23.499  1.00  0.00    -0.222 NA
ATOM     19  C   UNL A   1      32.988  20.725  26.235  1.00  0.00     0.278 A 
ATOM     20  N   UNL A   1      32.538  21.737  25.352  1.00  0.00    -0.286 N 
ATOM     21  O   UNL A   1      33.428  20.925  27.356  1.00  0.00    -0.267 OA
BRANCH  20  22
ATOM     22  C   UNL A   1      32.335  23.025  26.025  1.00  0.00     0.131 C 
BRANCH  22  23
ATOM     23  C   UNL A   1      30.875  23.566  25.939  1.00  0.00     0.003 C 
ATOM     24  C   UNL A   1      29.920  22.999  26.996  1.00  0.00     0.009 C 
ATOM     25  C   UNL A   1      30.860  25.093  26.106  1.00  0.00     0.009 C 
ENDBRANCH  22  23
ENDBRANCH  20  22
ENDBRANCH   9  10
ENDBRANCH   8   9
ENDBRANCH   5   8
ENDBRANCH   3   4
ENDBRANCH   2   3
ENDBRANCH   1   2
BRANCH   1  26
ATOM     26  C   UNL A   1      38.312  21.990  25.650  1.00  0.00     0.002 C 
BRANCH  26  27
ATOM     27  C   UNL A   1      39.546  21.190  26.086  1.00  0.00     0.021 C 
BRANCH  27  28
ATOM     28  C   UNL A   1      40.635  22.033  26.727  1.00  0.00     0.116 C 
BRANCH  28  29
ATOM     29  N   UNL A   1      41.847  22.058  25.918  1.00  0.00    -0.352 N 
ATOM     30  C   UNL A   1      42.548  23.155  25.475  1.00  0.00     0.251 C 
ATOM     31  H   UNL A   1      42.209  21.180  25.657  1.00  0.00     0.163 HD
ATOM     32  O   UNL A   1      43.300  23.056  24.511  1.00  0.00    -0.269 OA
BRANCH  30  33
ATOM     33  C   UNL A   1      42.394  24.444  26.174  1.00  0.00     0.039 A 
ATOM     34  C   UNL A   1      41.575  25.443  25.637  1.00  0.00     0.014 A 
ATOM     35  C   UNL A   1      43.115  24.670  27.349  1.00  0.00     0.014 A 
ATOM     36  C   UNL A   1      41.451  26.652  26.312  1.00  0.00     0.010 A 
ATOM     37  C   UNL A   1      42.918  25.825  28.068  1.00  0.00     0.010 A 
ATOM     38  C   UNL A   1      42.125  26.833  27.528  1.00  0.00    -0.014 A 
BRANCH  38  39
ATOM     39  C   UNL A   1      41.926  28.048  28.305  1.00  0.00     0.031 A 
ATOM     40  C   UNL A   1      43.007  29.057  28.153  1.00  0.00     0.074 A 
ATOM     41  C   UNL A   1      40.757  28.337  28.914  1.00  0.00     0.049 A 
ATOM     42  N   UNL A   1      43.874  29.436  29.032  1.00  0.00    -0.248 NA
ATOM     43  C   UNL A   1      43.244  29.610  26.809  1.00  0.00     0.031 C 
ATOM     44  C   UNL A   1      39.496  27.589  28.853  1.00  0.00     0.029 A 
ATOM     45  N   UNL A   1      40.418  29.437  29.639  1.00  0.00    -0.354 N 
ATOM     46  C   UNL A   1      44.605  30.454  28.426  1.00  0.00     0.074 A 
ATOM     47  C   UNL A   1      44.325  30.365  27.016  1.00  0.00     0.031 C 
ATOM     48  C   UNL A   1      38.490  28.362  29.320  1.00  0.00     0.029 A 
ATOM     49  C   UNL A   1      39.052  29.588  29.857  1.00  0.00     0.049 A 
ATOM     50  H   UNL A   1      41.085  30.074  29.982  1.00  0.00     0.167 HD
ATOM     51  C   UNL A   1      45.165  31.458  29.157  1.00  0.00     0.037 A 
ATOM     52  C   UNL A   1      38.434  30.664  30.405  1.00  0.00     0.037 A 
ATOM     53  C   UNL A   1      45.219  31.115  30.557  1.00  0.00     0.049 A 
ATOM     54  C   UNL A   1      39.470  31.407  31.171  1.00  0.00     0.074 A 
ATOM     55  C   UNL A   1      45.787  30.090  31.287  1.00  0.00     0.029 A 
ATOM     56  N   UNL A   1      44.283  31.688  31.383  1.00  0.00    -0.354 N 
ATOM     57  N   UNL A   1      40.070  30.939  32.232  1.00  0.00    -0.248 NA
ATOM     58  C   UNL A   1      40.157  32.498  30.499  1.00  0.00     0.031 C 
ATOM     59  C   UNL A   1      44.839  29.795  32.311  1.00  0.00     0.029 A 
ATOM     60  C   UNL A   1      43.781  30.699  32.191  1.00  0.00     0.049 A 
ATOM     61  H   UNL A   1      44.019  32.636  31.395  1.00  0.00     0.167 HD
ATOM     62  C   UNL A   1      41.383  31.367  32.116  1.00  0.00     0.074 A 
ATOM     63  C   UNL A   1      41.353  32.404  31.086  1.00  0.00     0.031 C 
ATOM     64  C   UNL A   1      42.411  30.650  32.659  1.00  0.00     0.037 A 
BRANCH  51  65
ATOM     65  C   UNL A   1      45.304  32.885  28.676  1.00  0.00     0.058 A 
ATOM     66  C   UNL A   1      46.570  33.506  28.707  1.00  0.00     0.135 A 
ATOM     67  C   UNL A   1      44.209  33.752  28.453  1.00  0.00     0.135 A 
ATOM     68  F   UNL A   1      47.679  32.784  28.931  1.00  0.00    -0.206 F 
ATOM     69  C   UNL A   1      46.728  34.889  28.590  1.00  0.00     0.059 A 
ATOM     70  C   UNL A   1      44.350  35.122  28.275  1.00  0.00     0.059 A 
ATOM     71  F   UNL A   1      42.940  33.330  28.498  1.00  0.00    -0.206 F 
ATOM     72  C   UNL A   1      45.609  35.689  28.386  1.00  0.00     0.060 A 
BRANCH  72  73
ATOM     73  S   UNL A   1      45.795  37.478  28.333  1.00  0.00     0.124 S 
ATOM     74  O   UNL A   1      47.058  37.618  27.617  1.00  0.00    -0.237 OA
ATOM     75  O   UNL A   1      44.597  37.884  27.605  1.00  0.00    -0.237 OA
ATOM     76  O   UNL A   1      45.822  37.856  29.743  1.00  0.00    -0.744 OA
ENDBRANCH  72  73
ENDBRANCH  51  65
BRANCH  52  77
ATOM     77  C   UNL A   1      37.123  31.270  30.045  1.00  0.00     0.058 A 
ATOM     78  C   UNL A   1      36.312  31.873  31.025  1.00  0.00     0.135 A 
ATOM     79  C   UNL A   1      36.777  31.541  28.706  1.00  0.00     0.135 A 
ATOM     80  F   UNL A   1      36.572  31.681  32.327  1.00  0.00    -0.206 F 
ATOM     81  C   UNL A   1      35.266  32.744  30.699  1.00  0.00     0.059 A 
ATOM     82  C   UNL A   1      35.733  32.398  28.356  1.00  0.00     0.059 A 
ATOM     83  F   UNL A   1      37.506  31.053  27.690  1.00  0.00    -0.206 F 
ATOM     84  C   UNL A   1      35.002  33.021  29.359  1.00  0.00     0.060 A 
BRANCH  84  85
ATOM     85  S   UNL A   1      33.779  34.288  28.941  1.00  0.00     0.124 S 
ATOM     86  O   UNL A   1      33.187  34.579  30.242  1.00  0.00    -0.237 OA
ATOM     87  O   UNL A   1      34.611  35.341  28.369  1.00  0.00    -0.237 OA
ATOM     88  O   UNL A   1      32.897  33.609  27.994  1.00  0.00    -0.744 OA
ENDBRANCH  84  85
ENDBRANCH  52  77
BRANCH  64  89
ATOM     89  C   UNL A   1      42.081  29.570  33.659  1.00  0.00     0.058 A 
ATOM     90  C   UNL A   1      41.819  28.228  33.334  1.00  0.00     0.135 A 
ATOM     91  C   UNL A   1      42.198  29.885  35.021  1.00  0.00     0.135 A 
ATOM     92  F   UNL A   1      41.785  27.819  32.059  1.00  0.00    -0.206 F 
ATOM     93  C   UNL A   1      41.652  27.251  34.319  1.00  0.00     0.059 A 
ATOM     94  C   UNL A   1      42.066  28.923  36.019  1.00  0.00     0.059 A 
ATOM     95  F   UNL A   1      42.503  31.139  35.397  1.00  0.00    -0.206 F 
ATOM     96  C   UNL A   1      41.785  27.607  35.660  1.00  0.00     0.060 A 
BRANCH  96  97
ATOM     97  S   UNL A   1      41.658  26.328  36.930  1.00  0.00     0.124 S 
ATOM     98  O   UNL A   1      41.624  25.105  36.134  1.00  0.00    -0.237 OA
ATOM     99  O   UNL A   1      42.870  26.540  37.716  1.00  0.00    -0.237 OA
ATOM    100  O   UNL A   1      40.413  26.654  37.622  1.00  0.00    -0.744 OA
ENDBRANCH  96  97
ENDBRANCH  64  89
ENDBRANCH  38  39
ENDBRANCH  30  33
ENDBRANCH  28  29
ENDBRANCH  27  28
ENDBRANCH  26  27
ENDBRANCH   1  26
TORSDOF 20
ENDMDL
MODEL 3
REMARK VINA RESULT:     -11.8      3.289      4.800
REMARK SMILES Cc1cc2nc(SCC(=O)NCCCCCCNC(=O)c3ccc(-c4c5nc(c(-c6c(F)cc(S(=O)(=O)[O-])cc6F)c6ccc([nH]6)c(-c6c(F)cc(S(=O)(=O)[O-])cc6F)c6nc(c(-c7c(F)cc(S(=O)(=O)[O-])cc7F)c7ccc4[nH]7)C=C6)C=C5)cc3)n(CC(C)C)c(=O)c2[nH]1
REMARK SMILES IDX 14 1 13 2 12 3 11 4 9 5 10 6 8 8 7 9 6 10 1 11 2 12 3 13
REMARK SMILES IDX 95 14 4 15 94 16 5 18 92 19 87 20 93 21 88 22 89 23 90 24
REMARK SMILES IDX 91 25 15 26 16 27 17 28 18 29 19 30 20 32 21 33 22 34 86 35
REMARK SMILES IDX 23 36 85 37 24 38 25 39 26 40 79 41 27 42 84 43 78 44 80 45
REMARK SMILES IDX 28 46 83 47 77 48 76 49 29 51 63 52 42 53 62 54 43 55 46 56
REMARK SMILES IDX 61 57 81 58 44 59 45 60 60 62 82 63 47 64 30 65 31 66 40 67
REMARK SMILES IDX 32 68 33 69 39 70 41 71 34 72 35 73 36 74 37 75 38 76 64 77
REMARK SMILES IDX 65 78 74 79 66 80 67 81 73 82 75 83 68 84 69 85 70 86 71 87
REMARK SMILES IDX 72 88 48 89 49 90 58 91 50 92 51 93 57 94 59 95 52 96 53 97
REMARK SMILES IDX 54 98 55 99 56 100
REMARK H PARENT 11 7 95 17 18 31 80 50 46 61
REMARK Flexibility Score: inf
ROOT
ATOM      1  C   UNL A   1      41.869  20.316  27.186  1.00  0.00     0.002 C 
ENDROOT
BRANCH   1   2
ATOM      2  C   UNL A   1      40.713  21.313  27.336  1.00  0.00     0.021 C 
BRANCH   2   3
ATOM      3  C   UNL A   1      39.796  21.438  26.123  1.00  0.00     0.116 C 
BRANCH   3   4
ATOM      4  N   UNL A   1      39.138  22.727  26.051  1.00  0.00    -0.355 N 
ATOM      5  C   UNL A   1      37.823  23.002  25.872  1.00  0.00     0.230 C 
ATOM      6  O   UNL A   1      37.423  24.096  26.280  1.00  0.00    -0.274 OA
ATOM      7  H   UNL A   1      39.727  23.509  26.145  1.00  0.00     0.163 HD
BRANCH   5   8
ATOM      8  C   UNL A   1      36.838  22.008  25.312  1.00  0.00     0.178 C 
BRANCH   8   9
ATOM      9  S   UNL A   1      35.295  21.820  26.146  1.00  0.00    -0.078 SA
BRANCH   9  10
ATOM     10  C   UNL A   1      33.965  22.880  25.747  1.00  0.00     0.172 A 
ATOM     11  C   UNL A   1      32.010  28.474  25.378  1.00  0.00     0.064 C 
ATOM     12  C   UNL A   1      32.471  27.063  25.334  1.00  0.00     0.014 A 
ATOM     13  C   UNL A   1      33.631  26.485  25.830  1.00  0.00     0.052 A 
ATOM     14  N   UNL A   1      31.715  26.058  24.761  1.00  0.00    -0.353 N 
ATOM     15  C   UNL A   1      33.503  25.110  25.611  1.00  0.00     0.097 A 
ATOM     16  C   UNL A   1      32.351  24.862  24.951  1.00  0.00     0.131 A 
ATOM     17  H   UNL A   1      30.858  26.183  24.291  1.00  0.00     0.166 HD
ATOM     18  N   UNL A   1      34.375  24.100  25.964  1.00  0.00    -0.222 NA
ATOM     19  C   UNL A   1      31.935  23.551  24.594  1.00  0.00     0.278 A 
ATOM     20  N   UNL A   1      32.722  22.537  25.192  1.00  0.00    -0.286 N 
ATOM     21  O   UNL A   1      30.983  23.350  23.856  1.00  0.00    -0.267 OA
BRANCH  20  22
ATOM     22  C   UNL A   1      32.093  21.213  25.114  1.00  0.00     0.131 C 
BRANCH  22  23
ATOM     23  C   UNL A   1      32.798  20.229  24.132  1.00  0.00     0.003 C 
ATOM     24  C   UNL A   1      32.738  18.755  24.551  1.00  0.00     0.009 C 
ATOM     25  C   UNL A   1      32.159  20.316  22.738  1.00  0.00     0.009 C 
ENDBRANCH  22  23
ENDBRANCH  20  22
ENDBRANCH   9  10
ENDBRANCH   8   9
ENDBRANCH   5   8
ENDBRANCH   3   4
ENDBRANCH   2   3
ENDBRANCH   1   2
BRANCH   1  26
ATOM     26  C   UNL A   1      41.694  19.216  26.127  1.00  0.00     0.002 C 
BRANCH  26  27
ATOM     27  C   UNL A   1      42.748  18.102  26.114  1.00  0.00     0.021 C 
BRANCH  27  28
ATOM     28  C   UNL A   1      44.181  18.608  26.123  1.00  0.00     0.116 C 
BRANCH  28  29
ATOM     29  N   UNL A   1      44.683  18.839  24.775  1.00  0.00    -0.352 N 
ATOM     30  C   UNL A   1      44.669  20.010  24.054  1.00  0.00     0.251 C 
ATOM     31  H   UNL A   1      45.081  18.059  24.324  1.00  0.00     0.163 HD
ATOM     32  O   UNL A   1      44.761  19.981  22.832  1.00  0.00    -0.269 OA
BRANCH  30  33
ATOM     33  C   UNL A   1      44.551  21.296  24.765  1.00  0.00     0.039 A 
ATOM     34  C   UNL A   1      43.509  22.178  24.459  1.00  0.00     0.014 A 
ATOM     35  C   UNL A   1      45.522  21.642  25.708  1.00  0.00     0.014 A 
ATOM     36  C   UNL A   1      43.424  23.388  25.140  1.00  0.00     0.010 A 
ATOM     37  C   UNL A   1      45.385  22.791  26.450  1.00  0.00     0.010 A 
ATOM     38  C   UNL A   1      44.365  23.684  26.135  1.00  0.00    -0.014 A 
BRANCH  38  39
ATOM     39  C   UNL A   1      44.234  24.895  26.933  1.00  0.00     0.031 A 
ATOM     40  C   UNL A   1      45.290  25.911  26.683  1.00  0.00     0.074 A 
ATOM     41  C   UNL A   1      43.128  25.174  27.652  1.00  0.00     0.049 A 
ATOM     42  N   UNL A   1      46.235  26.291  27.477  1.00  0.00    -0.248 NA
ATOM     43  C   UNL A   1      45.395  26.471  25.325  1.00  0.00     0.031 C 
ATOM     44  C   UNL A   1      41.871  24.419  27.708  1.00  0.00     0.029 A 
ATOM     45  N   UNL A   1      42.853  26.268  28.411  1.00  0.00    -0.354 N 
ATOM     46  C   UNL A   1      46.899  27.316  26.809  1.00  0.00     0.074 A 
ATOM     47  C   UNL A   1      46.486  27.232  25.432  1.00  0.00     0.031 C 
ATOM     48  C   UNL A   1      40.910  25.184  28.272  1.00  0.00     0.029 A 
ATOM     49  C   UNL A   1      41.513  26.411  28.759  1.00  0.00     0.049 A 
ATOM     50  H   UNL A   1      43.545  26.909  28.692  1.00  0.00     0.167 HD
ATOM     51  C   UNL A   1      47.520  28.321  27.488  1.00  0.00     0.037 A 
ATOM     52  C   UNL A   1      40.944  27.481  29.369  1.00  0.00     0.037 A 
ATOM     53  C   UNL A   1      47.710  27.973  28.875  1.00  0.00     0.049 A 
ATOM     54  C   UNL A   1      42.044  28.227  30.036  1.00  0.00     0.074 A 
ATOM     55  C   UNL A   1      48.351  26.948  29.542  1.00  0.00     0.029 A 
ATOM     56  N   UNL A   1      46.853  28.536  29.790  1.00  0.00    -0.354 N 
ATOM     57  N   UNL A   1      42.745  27.758  31.033  1.00  0.00    -0.248 NA
ATOM     58  C   UNL A   1      42.657  29.324  29.307  1.00  0.00     0.031 C 
ATOM     59  C   UNL A   1      47.506  26.643  30.651  1.00  0.00     0.029 A 
ATOM     60  C   UNL A   1      46.437  27.541  30.636  1.00  0.00     0.049 A 
ATOM     61  H   UNL A   1      46.587  29.483  29.831  1.00  0.00     0.167 HD
ATOM     62  C   UNL A   1      44.039  28.194  30.794  1.00  0.00     0.074 A 
ATOM     63  C   UNL A   1      43.904  29.235  29.776  1.00  0.00     0.031 C 
ATOM     64  C   UNL A   1      45.118  27.481  31.233  1.00  0.00     0.037 A 
BRANCH  51  65
ATOM     65  C   UNL A   1      47.605  29.751  27.003  1.00  0.00     0.058 A 
ATOM     66  C   UNL A   1      48.839  30.432  27.065  1.00  0.00     0.135 A 
ATOM     67  C   UNL A   1      46.476  30.564  26.746  1.00  0.00     0.135 A 
ATOM     68  F   UNL A   1      49.974  29.764  27.322  1.00  0.00    -0.206 F 
ATOM     69  C   UNL A   1      48.934  31.820  26.944  1.00  0.00     0.059 A 
ATOM     70  C   UNL A   1      46.557  31.939  26.563  1.00  0.00     0.059 A 
ATOM     71  F   UNL A   1      45.228  30.082  26.759  1.00  0.00    -0.206 F 
ATOM     72  C   UNL A   1      47.784  32.565  26.705  1.00  0.00     0.060 A 
BRANCH  72  73
ATOM     73  S   UNL A   1      47.887  34.361  26.647  1.00  0.00     0.124 S 
ATOM     74  O   UNL A   1      46.481  34.735  26.741  1.00  0.00    -0.237 OA
ATOM     75  O   UNL A   1      48.708  34.653  27.817  1.00  0.00    -0.237 OA
ATOM     76  O   UNL A   1      48.526  34.620  25.360  1.00  0.00    -0.744 OA
ENDBRANCH  72  73
ENDBRANCH  51  65
BRANCH  52  77
ATOM     77  C   UNL A   1      39.601  28.080  29.138  1.00  0.00     0.058 A 
ATOM     78  C   UNL A   1      38.664  28.177  30.184  1.00  0.00     0.135 A 
ATOM     79  C   UNL A   1      39.318  28.837  27.984  1.00  0.00     0.135 A 
ATOM     80  F   UNL A   1      38.856  27.500  31.326  1.00  0.00    -0.206 F 
ATOM     81  C   UNL A   1      37.552  29.024  30.118  1.00  0.00     0.059 A 
ATOM     82  C   UNL A   1      38.211  29.682  27.890  1.00  0.00     0.059 A 
ATOM     83  F   UNL A   1      40.164  28.853  26.942  1.00  0.00    -0.206 F 
ATOM     84  C   UNL A   1      37.350  29.795  28.974  1.00  0.00     0.060 A 
BRANCH  84  85
ATOM     85  S   UNL A   1      36.025  31.027  28.959  1.00  0.00     0.124 S 
ATOM     86  O   UNL A   1      36.683  32.171  28.337  1.00  0.00    -0.237 OA
ATOM     87  O   UNL A   1      35.000  30.367  28.157  1.00  0.00    -0.237 OA
ATOM     88  O   UNL A   1      35.698  31.190  30.373  1.00  0.00    -0.744 OA
ENDBRANCH  84  85
ENDBRANCH  52  77
BRANCH  64  89
ATOM     89  C   UNL A   1      44.891  26.396  32.255  1.00  0.00     0.058 A 
ATOM     90  C   UNL A   1      44.615  25.051  31.950  1.00  0.00     0.135 A 
ATOM     91  C   UNL A   1      45.127  26.708  33.602  1.00  0.00     0.135 A 
ATOM     92  F   UNL A   1      44.470  24.646  30.682  1.00  0.00    -0.206 F 
ATOM     93  C   UNL A   1      44.549  24.070  32.943  1.00  0.00     0.059 A 
ATOM     94  C   UNL A   1      45.096  25.742  34.604  1.00  0.00     0.059 A 
ATOM     95  F   UNL A   1      45.451  27.964  33.954  1.00  0.00    -0.206 F 
ATOM     96  C   UNL A   1      44.798  24.423  34.268  1.00  0.00     0.060 A 
BRANCH  96  97
ATOM     97  S   UNL A   1      44.799  23.140  35.539  1.00  0.00     0.124 S 
ATOM     98  O   UNL A   1      46.218  23.028  35.862  1.00  0.00    -0.237 OA
ATOM     99  O   UNL A   1      43.957  23.724  36.579  1.00  0.00    -0.237 OA
ATOM    100  O   UNL A   1      44.222  21.983  34.859  1.00  0.00    -0.744 OA
ENDBRANCH  96  97
ENDBRANCH  64  89
ENDBRANCH  38  39
ENDBRANCH  30  33
ENDBRANCH  28  29
ENDBRANCH  27  28
ENDBRANCH  26  27
ENDBRANCH   1  26
TORSDOF 20
ENDMDL
