MODEL 1
REMARK VINA RESULT:     -10.9      0.000      0.000
REMARK SMILES C=CCN(CC(=O)NCCCCCCNC(=O)c1ccc(-c2c3nc(c(-c4c(F)cc(S(=O)(=O)[O-])cc4F)c4ccc([nH]4)c(-c4c(F)cc(S(=O)(=O)[O-])cc4F)c4nc(c(-c5c(F)cc(S(=O)(=O)[O-])cc5F)c5ccc2[nH]5)C=C4)C=C3)cc1)C(=O)c1cc(-c2csc(C)n2)c[nH]1
REMARK SMILES IDX 11 1 10 2 9 3 8 4 6 5 7 6 5 8 4 9 3 10 2 11 1 12 84 13 85 14
REMARK SMILES IDX 86 15 87 16 96 17 88 18 95 19 89 21 90 22 94 23 91 24 92 25
REMARK SMILES IDX 93 26 12 27 13 28 14 29 15 30 16 31 17 33 18 34 19 35 83 36
REMARK SMILES IDX 20 37 82 38 21 39 22 40 23 41 76 42 24 43 81 44 75 45 77 46
REMARK SMILES IDX 25 47 80 48 74 49 73 50 26 52 60 53 39 54 59 55 40 56 43 57
REMARK SMILES IDX 58 58 78 59 41 60 42 61 57 63 79 64 44 65 27 66 28 67 37 68
REMARK SMILES IDX 29 69 30 70 36 71 38 72 31 73 32 74 33 75 34 76 35 77 61 78
REMARK SMILES IDX 62 79 71 80 63 81 64 82 70 83 72 84 65 85 66 86 67 87 68 88
REMARK SMILES IDX 69 89 45 90 46 91 55 92 47 93 48 94 54 95 56 96 49 97 50 98
REMARK SMILES IDX 51 99 52 100 53 101
REMARK H PARENT 8 7 96 20 15 32 77 51 43 62
REMARK Flexibility Score: inf
ROOT
ATOM      1  C   UNL A   1      32.164  28.277  27.319  1.00  0.00     0.002 C 
ENDROOT
BRANCH   1   2
ATOM      2  C   UNL A   1      32.192  26.925  26.596  1.00  0.00     0.021 C 
BRANCH   2   3
ATOM      3  C   UNL A   1      30.847  26.443  26.061  1.00  0.00     0.116 C 
BRANCH   3   4
ATOM      4  N   UNL A   1      30.579  25.052  26.344  1.00  0.00    -0.355 N 
ATOM      5  C   UNL A   1      30.685  23.965  25.530  1.00  0.00     0.239 C 
ATOM      6  O   UNL A   1      30.742  22.860  26.081  1.00  0.00    -0.273 OA
ATOM      7  H   UNL A   1      30.277  24.861  27.261  1.00  0.00     0.163 HD
BRANCH   5   8
ATOM      8  C   UNL A   1      30.896  24.095  24.013  1.00  0.00     0.220 C 
BRANCH   8   9
ATOM      9  N   UNL A   1      32.257  24.362  23.519  1.00  0.00    -0.324 N 
BRANCH   9  10
ATOM     10  C   UNL A   1      33.310  23.424  23.888  1.00  0.00     0.147 C 
BRANCH  10  11
ATOM     11  C   UNL A   1      34.033  23.938  25.100  1.00  0.00    -0.014 C 
ATOM     12  C   UNL A   1      34.931  24.931  25.074  1.00  0.00     0.006 C 
ENDBRANCH  10  11
ENDBRANCH   9  10
BRANCH   9  13
ATOM     13  C   UNL A   1      32.538  25.243  22.466  1.00  0.00     0.271 C 
ATOM     14  O   UNL A   1      33.058  24.859  21.419  1.00  0.00    -0.267 OA
BRANCH  13  15
ATOM     15  C   UNL A   1      32.121  26.618  22.600  1.00  0.00     0.105 A 
ATOM     16  C   UNL A   1      30.865  27.198  22.526  1.00  0.00     0.043 A 
ATOM     17  N   UNL A   1      32.999  27.623  22.943  1.00  0.00    -0.357 N 
ATOM     18  C   UNL A   1      31.022  28.598  22.688  1.00  0.00     0.019 A 
ATOM     19  C   UNL A   1      32.356  28.830  22.939  1.00  0.00     0.093 A 
ATOM     20  H   UNL A   1      33.951  27.491  23.159  1.00  0.00     0.166 HD
BRANCH  18  21
ATOM     21  C   UNL A   1      29.955  29.594  22.584  1.00  0.00     0.083 A 
ATOM     22  C   UNL A   1      29.186  30.084  23.618  1.00  0.00     0.095 A 
ATOM     23  N   UNL A   1      29.652  30.105  21.332  1.00  0.00    -0.241 NA
ATOM     24  S   UNL A   1      28.035  31.200  23.013  1.00  0.00    -0.127 S 
ATOM     25  C   UNL A   1      28.637  30.934  21.424  1.00  0.00     0.090 A 
ATOM     26  C   UNL A   1      28.009  31.625  20.266  1.00  0.00     0.079 C 
ENDBRANCH  18  21
ENDBRANCH  13  15
ENDBRANCH   9  13
ENDBRANCH   8   9
ENDBRANCH   5   8
ENDBRANCH   3   4
ENDBRANCH   2   3
ENDBRANCH   1   2
BRANCH   1  27
ATOM     27  C   UNL A   1      33.218  29.302  26.888  1.00  0.00     0.002 C 
BRANCH  27  28
ATOM     28  C   UNL A   1      34.655  29.038  27.351  1.00  0.00     0.021 C 
BRANCH  28  29
ATOM     29  C   UNL A   1      35.490  30.272  27.687  1.00  0.00     0.116 C 
BRANCH  29  30
ATOM     30  N   UNL A   1      35.410  30.643  29.087  1.00  0.00    -0.352 N 
ATOM     31  C   UNL A   1      36.391  30.604  30.049  1.00  0.00     0.251 C 
ATOM     32  H   UNL A   1      34.531  30.968  29.389  1.00  0.00     0.163 HD
ATOM     33  O   UNL A   1      36.104  30.842  31.218  1.00  0.00    -0.269 OA
BRANCH  31  34
ATOM     34  C   UNL A   1      37.783  30.244  29.690  1.00  0.00     0.039 A 
ATOM     35  C   UNL A   1      38.702  30.027  30.722  1.00  0.00     0.014 A 
ATOM     36  C   UNL A   1      38.196  30.160  28.356  1.00  0.00     0.014 A 
ATOM     37  C   UNL A   1      40.018  29.668  30.421  1.00  0.00     0.010 A 
ATOM     38  C   UNL A   1      39.507  29.782  28.056  1.00  0.00     0.010 A 
ATOM     39  C   UNL A   1      40.425  29.527  29.086  1.00  0.00    -0.014 A 
BRANCH  39  40
ATOM     40  C   UNL A   1      41.806  29.105  28.756  1.00  0.00     0.031 A 
ATOM     41  C   UNL A   1      42.929  30.101  28.768  1.00  0.00     0.074 A 
ATOM     42  C   UNL A   1      42.047  27.830  28.404  1.00  0.00     0.049 A 
ATOM     43  N   UNL A   1      44.174  29.941  28.400  1.00  0.00    -0.248 NA
ATOM     44  C   UNL A   1      42.603  31.455  29.241  1.00  0.00     0.031 C 
ATOM     45  C   UNL A   1      41.043  26.767  28.335  1.00  0.00     0.029 A 
ATOM     46  N   UNL A   1      43.214  27.215  28.028  1.00  0.00    -0.354 N 
ATOM     47  C   UNL A   1      44.777  31.182  28.560  1.00  0.00     0.074 A 
ATOM     48  C   UNL A   1      43.762  32.079  29.078  1.00  0.00     0.031 C 
ATOM     49  C   UNL A   1      41.640  25.627  27.948  1.00  0.00     0.029 A 
ATOM     50  C   UNL A   1      43.061  25.884  27.727  1.00  0.00     0.049 A 
ATOM     51  H   UNL A   1      44.079  27.682  27.980  1.00  0.00     0.167 HD
ATOM     52  C   UNL A   1      46.052  31.545  28.287  1.00  0.00     0.037 A 
ATOM     53  C   UNL A   1      43.963  24.974  27.314  1.00  0.00     0.037 A 
ATOM     54  C   UNL A   1      47.074  30.657  27.801  1.00  0.00     0.049 A 
ATOM     55  C   UNL A   1      45.393  25.376  27.110  1.00  0.00     0.074 A 
ATOM     56  C   UNL A   1      48.387  30.945  27.471  1.00  0.00     0.029 A 
ATOM     57  N   UNL A   1      46.899  29.298  27.591  1.00  0.00    -0.354 N 
ATOM     58  N   UNL A   1      45.936  26.563  27.232  1.00  0.00    -0.248 NA
ATOM     59  C   UNL A   1      46.330  24.316  26.716  1.00  0.00     0.031 C 
ATOM     60  C   UNL A   1      49.011  29.754  27.073  1.00  0.00     0.029 A 
ATOM     61  C   UNL A   1      48.084  28.728  27.156  1.00  0.00     0.049 A 
ATOM     62  H   UNL A   1      46.056  28.809  27.732  1.00  0.00     0.167 HD
ATOM     63  C   UNL A   1      47.279  26.395  26.917  1.00  0.00     0.074 A 
ATOM     64  C   UNL A   1      47.469  24.991  26.616  1.00  0.00     0.031 C 
ATOM     65  C   UNL A   1      48.261  27.328  26.871  1.00  0.00     0.037 A 
BRANCH  52  66
ATOM     66  C   UNL A   1      46.391  32.988  28.495  1.00  0.00     0.058 A 
ATOM     67  C   UNL A   1      46.864  33.455  29.730  1.00  0.00     0.135 A 
ATOM     68  C   UNL A   1      46.203  33.918  27.461  1.00  0.00     0.135 A 
ATOM     69  F   UNL A   1      47.041  32.602  30.750  1.00  0.00    -0.206 F 
ATOM     70  C   UNL A   1      47.117  34.806  29.944  1.00  0.00     0.059 A 
ATOM     71  C   UNL A   1      46.452  35.273  27.652  1.00  0.00     0.059 A 
ATOM     72  F   UNL A   1      45.739  33.518  26.268  1.00  0.00    -0.206 F 
ATOM     73  C   UNL A   1      46.892  35.709  28.903  1.00  0.00     0.060 A 
BRANCH  73  74
ATOM     74  S   UNL A   1      47.163  37.474  29.171  1.00  0.00     0.124 S 
ATOM     75  O   UNL A   1      47.069  37.562  30.625  1.00  0.00    -0.237 OA
ATOM     76  O   UNL A   1      48.493  37.694  28.611  1.00  0.00    -0.237 OA
ATOM     77  O   UNL A   1      46.067  38.086  28.427  1.00  0.00    -0.744 OA
ENDBRANCH  73  74
ENDBRANCH  52  66
BRANCH  53  78
ATOM     78  C   UNL A   1      43.522  23.583  27.066  1.00  0.00     0.058 A 
ATOM     79  C   UNL A   1      43.243  22.720  28.133  1.00  0.00     0.135 A 
ATOM     80  C   UNL A   1      43.312  23.118  25.762  1.00  0.00     0.135 A 
ATOM     81  F   UNL A   1      43.430  23.132  29.396  1.00  0.00    -0.206 F 
ATOM     82  C   UNL A   1      42.757  21.435  27.918  1.00  0.00     0.059 A 
ATOM     83  C   UNL A   1      42.823  21.838  25.521  1.00  0.00     0.059 A 
ATOM     84  F   UNL A   1      43.559  23.918  24.714  1.00  0.00    -0.206 F 
ATOM     85  C   UNL A   1      42.547  21.005  26.607  1.00  0.00     0.060 A 
BRANCH  85  86
ATOM     86  S   UNL A   1      41.822  19.379  26.302  1.00  0.00     0.124 S 
ATOM     87  O   UNL A   1      42.275  18.633  27.470  1.00  0.00    -0.237 OA
ATOM     88  O   UNL A   1      40.392  19.664  26.244  1.00  0.00    -0.237 OA
ATOM     89  O   UNL A   1      42.425  18.997  25.028  1.00  0.00    -0.744 OA
ENDBRANCH  85  86
ENDBRANCH  53  78
BRANCH  65  90
ATOM     90  C   UNL A   1      49.627  26.853  26.479  1.00  0.00     0.058 A 
ATOM     91  C   UNL A   1      50.029  26.849  25.136  1.00  0.00     0.135 A 
ATOM     92  C   UNL A   1      50.540  26.412  27.447  1.00  0.00     0.135 A 
ATOM     93  F   UNL A   1      49.184  27.257  24.176  1.00  0.00    -0.206 F 
ATOM     94  C   UNL A   1      51.295  26.414  24.761  1.00  0.00     0.059 A 
ATOM     95  C   UNL A   1      51.812  25.974  27.094  1.00  0.00     0.059 A 
ATOM     96  F   UNL A   1      50.194  26.395  28.744  1.00  0.00    -0.206 F 
ATOM     97  C   UNL A   1      52.177  25.969  25.747  1.00  0.00     0.060 A 
BRANCH  97  98
ATOM     98  S   UNL A   1      53.831  25.412  25.278  1.00  0.00     0.124 S 
ATOM     99  O   UNL A   1      54.654  26.046  26.302  1.00  0.00    -0.237 OA
ATOM    100  O   UNL A   1      53.724  23.959  25.363  1.00  0.00    -0.237 OA
ATOM    101  O   UNL A   1      53.983  25.943  23.927  1.00  0.00    -0.744 OA
ENDBRANCH  97  98
ENDBRANCH  65  90
ENDBRANCH  39  40
ENDBRANCH  31  34
ENDBRANCH  29  30
ENDBRANCH  28  29
ENDBRANCH  27  28
ENDBRANCH   1  27
TORSDOF 22
ENDMDL
MODEL 2
REMARK VINA RESULT:     -10.5      6.576      8.724
REMARK SMILES C=CCN(CC(=O)NCCCCCCNC(=O)c1ccc(-c2c3nc(c(-c4c(F)cc(S(=O)(=O)[O-])cc4F)c4ccc([nH]4)c(-c4c(F)cc(S(=O)(=O)[O-])cc4F)c4nc(c(-c5c(F)cc(S(=O)(=O)[O-])cc5F)c5ccc2[nH]5)C=C4)C=C3)cc1)C(=O)c1cc(-c2csc(C)n2)c[nH]1
REMARK SMILES IDX 11 1 10 2 9 3 8 4 6 5 7 6 5 8 4 9 3 10 2 11 1 12 84 13 85 14
REMARK SMILES IDX 86 15 87 16 96 17 88 18 95 19 89 21 90 22 94 23 91 24 92 25
REMARK SMILES IDX 93 26 12 27 13 28 14 29 15 30 16 31 17 33 18 34 19 35 83 36
REMARK SMILES IDX 20 37 82 38 21 39 22 40 23 41 76 42 24 43 81 44 75 45 77 46
REMARK SMILES IDX 25 47 80 48 74 49 73 50 26 52 60 53 39 54 59 55 40 56 43 57
REMARK SMILES IDX 58 58 78 59 41 60 42 61 57 63 79 64 44 65 27 66 28 67 37 68
REMARK SMILES IDX 29 69 30 70 36 71 38 72 31 73 32 74 33 75 34 76 35 77 61 78
REMARK SMILES IDX 62 79 71 80 63 81 64 82 70 83 72 84 65 85 66 86 67 87 68 88
REMARK SMILES IDX 69 89 45 90 46 91 55 92 47 93 48 94 54 95 56 96 49 97 50 98
REMARK SMILES IDX 51 99 52 100 53 101
REMARK H PARENT 8 7 96 20 15 32 77 51 43 62
REMARK Flexibility Score: inf
ROOT
ATOM      1  C   UNL A   1      35.887  32.398  28.004  1.00  0.00     0.002 C 
ENDROOT
BRANCH   1   2
ATOM      2  C   UNL A   1      35.369  31.096  28.626  1.00  0.00     0.021 C 
BRANCH   2   3
ATOM      3  C   UNL A   1      34.902  30.038  27.632  1.00  0.00     0.116 C 
BRANCH   3   4
ATOM      4  N   UNL A   1      33.615  30.328  27.043  1.00  0.00    -0.355 N 
ATOM      5  C   UNL A   1      32.532  29.518  26.884  1.00  0.00     0.239 C 
ATOM      6  O   UNL A   1      31.447  30.074  26.680  1.00  0.00    -0.273 OA
ATOM      7  H   UNL A   1      33.505  31.248  26.708  1.00  0.00     0.163 HD
BRANCH   5   8
ATOM      8  C   UNL A   1      32.603  28.000  27.113  1.00  0.00     0.220 C 
BRANCH   8   9
ATOM      9  N   UNL A   1      32.500  27.113  25.943  1.00  0.00    -0.324 N 
BRANCH   9  10
ATOM     10  C   UNL A   1      33.737  26.605  25.362  1.00  0.00     0.147 C 
BRANCH  10  11
ATOM     11  C   UNL A   1      33.719  26.831  23.877  1.00  0.00    -0.014 C 
ATOM     12  C   UNL A   1      33.721  25.847  22.968  1.00  0.00     0.006 C 
ENDBRANCH  10  11
ENDBRANCH   9  10
BRANCH   9  13
ATOM     13  C   UNL A   1      31.316  26.464  25.567  1.00  0.00     0.271 C 
ATOM     14  O   UNL A   1      31.005  25.363  26.019  1.00  0.00    -0.267 OA
BRANCH  13  15
ATOM     15  C   UNL A   1      30.407  27.164  24.689  1.00  0.00     0.105 A 
ATOM     16  C   UNL A   1      30.465  28.438  24.149  1.00  0.00     0.043 A 
ATOM     17  N   UNL A   1      29.295  26.557  24.148  1.00  0.00    -0.357 N 
ATOM     18  C   UNL A   1      29.288  28.641  23.386  1.00  0.00     0.019 A 
ATOM     19  C   UNL A   1      28.581  27.460  23.409  1.00  0.00     0.093 A 
ATOM     20  H   UNL A   1      29.049  25.612  24.276  1.00  0.00     0.166 HD
BRANCH  18  21
ATOM     21  C   UNL A   1      28.906  29.888  22.721  1.00  0.00     0.083 A 
ATOM     22  C   UNL A   1      28.385  30.014  21.451  1.00  0.00     0.095 A 
ATOM     23  N   UNL A   1      29.089  31.079  23.404  1.00  0.00    -0.241 NA
ATOM     24  S   UNL A   1      28.133  31.669  21.085  1.00  0.00    -0.127 S 
ATOM     25  C   UNL A   1      28.749  32.089  22.635  1.00  0.00     0.090 A 
ATOM     26  C   UNL A   1      28.868  33.519  23.025  1.00  0.00     0.079 C 
ENDBRANCH  18  21
ENDBRANCH  13  15
ENDBRANCH   9  13
ENDBRANCH   8   9
ENDBRANCH   5   8
ENDBRANCH   3   4
ENDBRANCH   2   3
ENDBRANCH   1   2
BRANCH   1  27
ATOM     27  C   UNL A   1      35.566  33.690  28.762  1.00  0.00     0.002 C 
BRANCH  27  28
ATOM     28  C   UNL A   1      34.090  34.096  28.823  1.00  0.00     0.021 C 
BRANCH  28  29
ATOM     29  C   UNL A   1      33.810  35.581  29.044  1.00  0.00     0.116 C 
BRANCH  29  30
ATOM     30  N   UNL A   1      32.865  35.822  30.118  1.00  0.00    -0.352 N 
ATOM     31  C   UNL A   1      32.923  35.416  31.429  1.00  0.00     0.251 C 
ATOM     32  H   UNL A   1      32.071  36.351  29.872  1.00  0.00     0.163 HD
ATOM     33  O   UNL A   1      31.964  35.611  32.169  1.00  0.00    -0.269 OA
BRANCH  31  34
ATOM     34  C   UNL A   1      34.123  34.714  31.946  1.00  0.00     0.039 A 
ATOM     35  C   UNL A   1      34.002  33.367  32.306  1.00  0.00     0.014 A 
ATOM     36  C   UNL A   1      35.342  35.377  32.114  1.00  0.00     0.014 A 
ATOM     37  C   UNL A   1      35.116  32.670  32.780  1.00  0.00     0.010 A 
ATOM     38  C   UNL A   1      36.460  34.674  32.568  1.00  0.00     0.010 A 
ATOM     39  C   UNL A   1      36.356  33.314  32.898  1.00  0.00    -0.014 A 
BRANCH  39  40
ATOM     40  C   UNL A   1      37.554  32.572  33.358  1.00  0.00     0.031 A 
ATOM     41  C   UNL A   1      38.165  32.869  34.696  1.00  0.00     0.074 A 
ATOM     42  C   UNL A   1      38.120  31.656  32.552  1.00  0.00     0.049 A 
ATOM     43  N   UNL A   1      39.272  32.404  35.216  1.00  0.00    -0.248 NA
ATOM     44  C   UNL A   1      37.444  33.823  35.552  1.00  0.00     0.031 C 
ATOM     45  C   UNL A   1      37.637  31.285  31.221  1.00  0.00     0.029 A 
ATOM     46  N   UNL A   1      39.234  30.876  32.735  1.00  0.00    -0.354 N 
ATOM     47  C   UNL A   1      39.404  33.035  36.446  1.00  0.00     0.074 A 
ATOM     48  C   UNL A   1      38.251  33.901  36.601  1.00  0.00     0.031 C 
ATOM     49  C   UNL A   1      38.447  30.343  30.710  1.00  0.00     0.029 A 
ATOM     50  C   UNL A   1      39.511  30.057  31.669  1.00  0.00     0.049 A 
ATOM     51  H   UNL A   1      39.781  30.901  33.552  1.00  0.00     0.167 HD
ATOM     52  C   UNL A   1      40.400  32.917  37.355  1.00  0.00     0.037 A 
ATOM     53  C   UNL A   1      40.513  29.178  31.482  1.00  0.00     0.037 A 
ATOM     54  C   UNL A   1      41.533  32.040  37.225  1.00  0.00     0.049 A 
ATOM     55  C   UNL A   1      41.554  28.991  32.545  1.00  0.00     0.074 A 
ATOM     56  C   UNL A   1      42.604  31.875  38.085  1.00  0.00     0.029 A 
ATOM     57  N   UNL A   1      41.731  31.164  36.170  1.00  0.00    -0.354 N 
ATOM     58  N   UNL A   1      41.682  29.623  33.686  1.00  0.00    -0.248 NA
ATOM     59  C   UNL A   1      42.582  27.972  32.296  1.00  0.00     0.031 C 
ATOM     60  C   UNL A   1      43.445  30.887  37.554  1.00  0.00     0.029 A 
ATOM     61  C   UNL A   1      42.895  30.440  36.364  1.00  0.00     0.049 A 
ATOM     62  H   UNL A   1      41.131  31.069  35.394  1.00  0.00     0.167 HD
ATOM     63  C   UNL A   1      42.814  29.087  34.288  1.00  0.00     0.074 A 
ATOM     64  C   UNL A   1      43.324  28.068  33.393  1.00  0.00     0.031 C 
ATOM     65  C   UNL A   1      43.384  29.422  35.471  1.00  0.00     0.037 A 
BRANCH  52  66
ATOM     66  C   UNL A   1      40.301  33.791  38.567  1.00  0.00     0.058 A 
ATOM     67  C   UNL A   1      39.554  33.401  39.687  1.00  0.00     0.135 A 
ATOM     68  C   UNL A   1      40.928  35.046  38.590  1.00  0.00     0.135 A 
ATOM     69  F   UNL A   1      38.924  32.216  39.699  1.00  0.00    -0.206 F 
ATOM     70  C   UNL A   1      39.408  34.240  40.787  1.00  0.00     0.059 A 
ATOM     71  C   UNL A   1      40.797  35.901  39.680  1.00  0.00     0.059 A 
ATOM     72  F   UNL A   1      41.641  35.466  37.534  1.00  0.00    -0.206 F 
ATOM     73  C   UNL A   1      40.019  35.495  40.766  1.00  0.00     0.060 A 
BRANCH  73  74
ATOM     74  S   UNL A   1      39.803  36.623  42.158  1.00  0.00     0.124 S 
ATOM     75  O   UNL A   1      41.107  36.533  42.807  1.00  0.00    -0.237 OA
ATOM     76  O   UNL A   1      39.508  37.897  41.511  1.00  0.00    -0.237 OA
ATOM     77  O   UNL A   1      38.690  36.025  42.889  1.00  0.00    -0.744 OA
ENDBRANCH  73  74
ENDBRANCH  52  66
BRANCH  53  78
ATOM     78  C   UNL A   1      40.569  28.406  30.220  1.00  0.00     0.058 A 
ATOM     79  C   UNL A   1      41.505  28.724  29.228  1.00  0.00     0.135 A 
ATOM     80  C   UNL A   1      39.733  27.301  30.016  1.00  0.00     0.135 A 
ATOM     81  F   UNL A   1      42.324  29.774  29.390  1.00  0.00    -0.206 F 
ATOM     82  C   UNL A   1      41.621  27.963  28.070  1.00  0.00     0.059 A 
ATOM     83  C   UNL A   1      39.832  26.522  28.869  1.00  0.00     0.059 A 
ATOM     84  F   UNL A   1      38.830  26.959  30.948  1.00  0.00    -0.206 F 
ATOM     85  C   UNL A   1      40.781  26.861  27.902  1.00  0.00     0.060 A 
BRANCH  85  86
ATOM     86  S   UNL A   1      40.978  25.795  26.456  1.00  0.00     0.124 S 
ATOM     87  O   UNL A   1      42.124  24.982  26.846  1.00  0.00    -0.237 OA
ATOM     88  O   UNL A   1      39.698  25.099  26.386  1.00  0.00    -0.237 OA
ATOM     89  O   UNL A   1      41.215  26.757  25.384  1.00  0.00    -0.744 OA
ENDBRANCH  85  86
ENDBRANCH  53  78
BRANCH  65  90
ATOM     90  C   UNL A   1      44.623  28.675  35.860  1.00  0.00     0.058 A 
ATOM     91  C   UNL A   1      44.546  27.503  36.627  1.00  0.00     0.135 A 
ATOM     92  C   UNL A   1      45.889  29.123  35.458  1.00  0.00     0.135 A 
ATOM     93  F   UNL A   1      43.354  27.042  37.037  1.00  0.00    -0.206 F 
ATOM     94  C   UNL A   1      45.689  26.800  36.991  1.00  0.00     0.059 A 
ATOM     95  C   UNL A   1      47.045  28.435  35.811  1.00  0.00     0.059 A 
ATOM     96  F   UNL A   1      46.009  30.243  34.728  1.00  0.00    -0.206 F 
ATOM     97  C   UNL A   1      46.936  27.279  36.586  1.00  0.00     0.060 A 
BRANCH  97  98
ATOM     98  S   UNL A   1      48.429  26.370  37.040  1.00  0.00     0.124 S 
ATOM     99  O   UNL A   1      47.904  25.022  37.230  1.00  0.00    -0.237 OA
ATOM    100  O   UNL A   1      49.292  26.554  35.877  1.00  0.00    -0.237 OA
ATOM    101  O   UNL A   1      48.871  27.053  38.252  1.00  0.00    -0.744 OA
ENDBRANCH  97  98
ENDBRANCH  65  90
ENDBRANCH  39  40
ENDBRANCH  31  34
ENDBRANCH  29  30
ENDBRANCH  28  29
ENDBRANCH  27  28
ENDBRANCH   1  27
TORSDOF 22
ENDMDL
MODEL 3
REMARK VINA RESULT:     -10.4      6.548      9.127
REMARK SMILES C=CCN(CC(=O)NCCCCCCNC(=O)c1ccc(-c2c3nc(c(-c4c(F)cc(S(=O)(=O)[O-])cc4F)c4ccc([nH]4)c(-c4c(F)cc(S(=O)(=O)[O-])cc4F)c4nc(c(-c5c(F)cc(S(=O)(=O)[O-])cc5F)c5ccc2[nH]5)C=C4)C=C3)cc1)C(=O)c1cc(-c2csc(C)n2)c[nH]1
REMARK SMILES IDX 11 1 10 2 9 3 8 4 6 5 7 6 5 8 4 9 3 10 2 11 1 12 84 13 85 14
REMARK SMILES IDX 86 15 87 16 96 17 88 18 95 19 89 21 90 22 94 23 91 24 92 25
REMARK SMILES IDX 93 26 12 27 13 28 14 29 15 30 16 31 17 33 18 34 19 35 83 36
REMARK SMILES IDX 20 37 82 38 21 39 22 40 23 41 76 42 24 43 81 44 75 45 77 46
REMARK SMILES IDX 25 47 80 48 74 49 73 50 26 52 60 53 39 54 59 55 40 56 43 57
REMARK SMILES IDX 58 58 78 59 41 60 42 61 57 63 79 64 44 65 27 66 28 67 37 68
REMARK SMILES IDX 29 69 30 70 36 71 38 72 31 73 32 74 33 75 34 76 35 77 61 78
REMARK SMILES IDX 62 79 71 80 63 81 64 82 70 83 72 84 65 85 66 86 67 87 68 88
REMARK SMILES IDX 69 89 45 90 46 91 55 92 47 93 48 94 54 95 56 96 49 97 50 98
REMARK SMILES IDX 51 99 52 100 53 101
REMARK H PARENT 8 7 96 20 15 32 77 51 43 62
REMARK Flexibility Score: inf
ROOT
ATOM      1  C   UNL A   1      34.918  32.063  27.797  1.00  0.00     0.002 C 
ENDROOT
BRANCH   1   2
ATOM      2  C   UNL A   1      34.350  30.660  27.559  1.00  0.00     0.021 C 
BRANCH   2   3
ATOM      3  C   UNL A   1      33.019  30.611  26.816  1.00  0.00     0.116 C 
BRANCH   3   4
ATOM      4  N   UNL A   1      32.044  29.743  27.436  1.00  0.00    -0.355 N 
ATOM      5  C   UNL A   1      31.710  28.458  27.132  1.00  0.00     0.239 C 
ATOM      6  O   UNL A   1      31.115  27.816  28.005  1.00  0.00    -0.273 OA
ATOM      7  H   UNL A   1      31.549  30.138  28.190  1.00  0.00     0.163 HD
BRANCH   5   8
ATOM      8  C   UNL A   1      32.189  27.770  25.843  1.00  0.00     0.220 C 
BRANCH   8   9
ATOM      9  N   UNL A   1      31.175  27.253  24.910  1.00  0.00    -0.324 N 
BRANCH   9  10
ATOM     10  C   UNL A   1      31.225  27.713  23.527  1.00  0.00     0.147 C 
BRANCH  10  11
ATOM     11  C   UNL A   1      30.138  28.725  23.300  1.00  0.00    -0.014 C 
ATOM     12  C   UNL A   1      30.176  29.666  22.347  1.00  0.00     0.006 C 
ENDBRANCH  10  11
ENDBRANCH   9  10
BRANCH   9  13
ATOM     13  C   UNL A   1      30.394  26.118  25.168  1.00  0.00     0.271 C 
ATOM     14  O   UNL A   1      29.175  26.114  24.996  1.00  0.00    -0.267 OA
BRANCH  13  15
ATOM     15  C   UNL A   1      31.069  24.904  25.563  1.00  0.00     0.105 A 
ATOM     16  C   UNL A   1      31.876  24.038  24.845  1.00  0.00     0.043 A 
ATOM     17  N   UNL A   1      31.068  24.454  26.865  1.00  0.00    -0.357 N 
ATOM     18  C   UNL A   1      32.245  22.973  25.705  1.00  0.00     0.019 A 
ATOM     19  C   UNL A   1      31.724  23.257  26.948  1.00  0.00     0.093 A 
ATOM     20  H   UNL A   1      30.654  24.924  27.625  1.00  0.00     0.166 HD
BRANCH  18  21
ATOM     21  C   UNL A   1      33.019  21.793  25.319  1.00  0.00     0.083 A 
ATOM     22  C   UNL A   1      32.513  20.568  24.938  1.00  0.00     0.095 A 
ATOM     23  N   UNL A   1      34.402  21.877  25.343  1.00  0.00    -0.241 NA
ATOM     24  S   UNL A   1      33.798  19.479  24.620  1.00  0.00    -0.127 S 
ATOM     25  C   UNL A   1      34.924  20.713  25.026  1.00  0.00     0.090 A 
ATOM     26  C   UNL A   1      36.383  20.425  25.004  1.00  0.00     0.079 C 
ENDBRANCH  18  21
ENDBRANCH  13  15
ENDBRANCH   9  13
ENDBRANCH   8   9
ENDBRANCH   5   8
ENDBRANCH   3   4
ENDBRANCH   2   3
ENDBRANCH   1   2
BRANCH   1  27
ATOM     27  C   UNL A   1      34.231  32.903  28.879  1.00  0.00     0.002 C 
BRANCH  27  28
ATOM     28  C   UNL A   1      33.284  34.003  28.389  1.00  0.00     0.021 C 
BRANCH  28  29
ATOM     29  C   UNL A   1      33.625  35.427  28.823  1.00  0.00     0.116 C 
BRANCH  29  30
ATOM     30  N   UNL A   1      32.851  35.869  29.967  1.00  0.00    -0.352 N 
ATOM     31  C   UNL A   1      33.014  35.554  31.295  1.00  0.00     0.251 C 
ATOM     32  H   UNL A   1      32.106  36.479  29.763  1.00  0.00     0.163 HD
ATOM     33  O   UNL A   1      32.180  35.928  32.114  1.00  0.00    -0.269 OA
BRANCH  31  34
ATOM     34  C   UNL A   1      34.170  34.739  31.738  1.00  0.00     0.039 A 
ATOM     35  C   UNL A   1      35.453  35.287  31.625  1.00  0.00     0.014 A 
ATOM     36  C   UNL A   1      34.005  33.438  32.222  1.00  0.00     0.014 A 
ATOM     37  C   UNL A   1      36.564  34.555  32.050  1.00  0.00     0.010 A 
ATOM     38  C   UNL A   1      35.115  32.714  32.665  1.00  0.00     0.010 A 
ATOM     39  C   UNL A   1      36.401  33.270  32.588  1.00  0.00    -0.014 A 
BRANCH  39  40
ATOM     40  C   UNL A   1      37.568  32.502  33.082  1.00  0.00     0.031 A 
ATOM     41  C   UNL A   1      38.182  32.823  34.413  1.00  0.00     0.074 A 
ATOM     42  C   UNL A   1      38.104  31.537  32.313  1.00  0.00     0.049 A 
ATOM     43  N   UNL A   1      39.267  32.336  34.957  1.00  0.00    -0.248 NA
ATOM     44  C   UNL A   1      37.492  33.833  35.230  1.00  0.00     0.031 C 
ATOM     45  C   UNL A   1      37.614  31.137  30.993  1.00  0.00     0.029 A 
ATOM     46  N   UNL A   1      39.186  30.723  32.531  1.00  0.00    -0.354 N 
ATOM     47  C   UNL A   1      39.417  33.006  36.165  1.00  0.00     0.074 A 
ATOM     48  C   UNL A   1      38.296  33.919  36.281  1.00  0.00     0.031 C 
ATOM     49  C   UNL A   1      38.391  30.148  30.521  1.00  0.00     0.029 A 
ATOM     50  C   UNL A   1      39.438  29.856  31.498  1.00  0.00     0.049 A 
ATOM     51  H   UNL A   1      39.729  30.757  33.351  1.00  0.00     0.167 HD
ATOM     52  C   UNL A   1      40.402  32.883  37.084  1.00  0.00     0.037 A 
ATOM     53  C   UNL A   1      40.408  28.935  31.349  1.00  0.00     0.037 A 
ATOM     54  C   UNL A   1      41.502  31.961  36.993  1.00  0.00     0.049 A 
ATOM     55  C   UNL A   1      41.435  28.747  32.425  1.00  0.00     0.074 A 
ATOM     56  C   UNL A   1      42.562  31.786  37.866  1.00  0.00     0.029 A 
ATOM     57  N   UNL A   1      41.673  31.040  35.971  1.00  0.00    -0.354 N 
ATOM     58  N   UNL A   1      41.581  29.415  33.544  1.00  0.00    -0.248 NA
ATOM     59  C   UNL A   1      42.426  27.683  32.219  1.00  0.00     0.031 C 
ATOM     60  C   UNL A   1      43.368  30.749  37.376  1.00  0.00     0.029 A 
ATOM     61  C   UNL A   1      42.808  30.281  36.199  1.00  0.00     0.049 A 
ATOM     62  H   UNL A   1      41.074  30.940  35.196  1.00  0.00     0.167 HD
ATOM     63  C   UNL A   1      42.688  28.859  34.172  1.00  0.00     0.074 A 
ATOM     64  C   UNL A   1      43.164  27.790  33.317  1.00  0.00     0.031 C 
ATOM     65  C   UNL A   1      43.263  29.214  35.346  1.00  0.00     0.037 A 
BRANCH  52  66
ATOM     66  C   UNL A   1      40.330  33.803  38.263  1.00  0.00     0.058 A 
ATOM     67  C   UNL A   1      41.056  35.001  38.298  1.00  0.00     0.135 A 
ATOM     68  C   UNL A   1      39.557  33.461  39.384  1.00  0.00     0.135 A 
ATOM     69  F   UNL A   1      41.822  35.357  37.255  1.00  0.00    -0.206 F 
ATOM     70  C   UNL A   1      41.040  35.824  39.419  1.00  0.00     0.059 A 
ATOM     71  C   UNL A   1      39.525  34.271  40.515  1.00  0.00     0.059 A 
ATOM     72  F   UNL A   1      38.857  32.317  39.400  1.00  0.00    -0.206 F 
ATOM     73  C   UNL A   1      40.285  35.441  40.529  1.00  0.00     0.060 A 
BRANCH  73  74
ATOM     74  S   UNL A   1      40.288  36.466  42.015  1.00  0.00     0.124 S 
ATOM     75  O   UNL A   1      41.199  35.720  42.877  1.00  0.00    -0.237 OA
ATOM     76  O   UNL A   1      40.787  37.750  41.533  1.00  0.00    -0.237 OA
ATOM     77  O   UNL A   1      38.885  36.456  42.418  1.00  0.00    -0.744 OA
ENDBRANCH  73  74
ENDBRANCH  52  66
BRANCH  53  78
ATOM     78  C   UNL A   1      40.442  28.116  30.116  1.00  0.00     0.058 A 
ATOM     79  C   UNL A   1      41.406  28.352  29.127  1.00  0.00     0.135 A 
ATOM     80  C   UNL A   1      39.553  27.048  29.937  1.00  0.00     0.135 A 
ATOM     81  F   UNL A   1      42.276  29.364  29.266  1.00  0.00    -0.206 F 
ATOM     82  C   UNL A   1      41.499  27.545  27.999  1.00  0.00     0.059 A 
ATOM     83  C   UNL A   1      39.628  26.225  28.819  1.00  0.00     0.059 A 
ATOM     84  F   UNL A   1      38.622  26.786  30.866  1.00  0.00    -0.206 F 
ATOM     85  C   UNL A   1      40.607  26.481  27.856  1.00  0.00     0.060 A 
BRANCH  85  86
ATOM     86  S   UNL A   1      40.769  25.357  26.451  1.00  0.00     0.124 S 
ATOM     87  O   UNL A   1      41.796  24.438  26.929  1.00  0.00    -0.237 OA
ATOM     88  O   UNL A   1      39.427  24.799  26.322  1.00  0.00    -0.237 OA
ATOM     89  O   UNL A   1      41.170  26.254  25.372  1.00  0.00    -0.744 OA
ENDBRANCH  85  86
ENDBRANCH  53  78
BRANCH  65  90
ATOM     90  C   UNL A   1      44.471  28.436  35.770  1.00  0.00     0.058 A 
ATOM     91  C   UNL A   1      44.347  27.302  36.586  1.00  0.00     0.135 A 
ATOM     92  C   UNL A   1      45.755  28.816  35.353  1.00  0.00     0.135 A 
ATOM     93  F   UNL A   1      43.137  26.906  37.012  1.00  0.00    -0.206 F 
ATOM     94  C   UNL A   1      45.461  26.571  36.982  1.00  0.00     0.059 A 
ATOM     95  C   UNL A   1      46.882  28.098  35.737  1.00  0.00     0.059 A 
ATOM     96  F   UNL A   1      45.920  29.898  34.575  1.00  0.00    -0.206 F 
ATOM     97  C   UNL A   1      46.726  26.982  36.561  1.00  0.00     0.060 A 
BRANCH  97  98
ATOM     98  S   UNL A   1      48.182  26.035  37.057  1.00  0.00     0.124 S 
ATOM     99  O   UNL A   1      49.220  26.640  36.230  1.00  0.00    -0.237 OA
ATOM    100  O   UNL A   1      48.277  26.305  38.488  1.00  0.00    -0.237 OA
ATOM    101  O   UNL A   1      47.816  24.666  36.709  1.00  0.00    -0.744 OA
ENDBRANCH  97  98
ENDBRANCH  65  90
ENDBRANCH  39  40
ENDBRANCH  31  34
ENDBRANCH  29  30
ENDBRANCH  28  29
ENDBRANCH  27  28
ENDBRANCH   1  27
TORSDOF 22
ENDMDL
