MODEL 1
REMARK VINA RESULT:     -11.0      0.000      0.000
REMARK SMILES O=C(NCCCCCCNC(=O)c1ccc(OCc2sccc2Br)cn1)c1ccc(-c2c3nc(c(-c4c(F)cc(S(=O)(=O)[O-])cc4F)c4ccc([nH]4)c(-c4c(F)cc(S(=O)(=O)[O-])cc4F)c4nc(c(-c5c(F)cc(S(=O)(=O)[O-])cc5F)c5ccc2[nH]5)C=C4)C=C3)cc1
REMARK SMILES IDX 6 1 5 2 4 3 3 4 1 5 2 6 27 8 28 9 92 10 29 11 91 12 30 13
REMARK SMILES IDX 31 14 32 15 85 16 33 17 90 18 84 19 86 20 34 21 89 22 83 23
REMARK SMILES IDX 82 24 35 26 69 27 48 28 68 29 49 30 52 31 67 32 87 33 50 34
REMARK SMILES IDX 51 35 66 37 88 38 53 39 36 40 37 41 46 42 38 43 39 44 45 45
REMARK SMILES IDX 47 46 40 47 41 48 42 49 43 50 44 51 70 52 71 53 80 54 72 55
REMARK SMILES IDX 73 56 79 57 81 58 74 59 75 60 76 61 77 62 78 63 54 64 55 65
REMARK SMILES IDX 64 66 56 67 57 68 63 69 65 70 58 71 59 72 60 73 61 74 62 75
REMARK SMILES IDX 7 76 8 77 9 78 10 79 11 80 12 82 13 83 14 84 26 85 15 86
REMARK SMILES IDX 25 87 16 88 17 89 18 90 19 91 20 92 23 93 21 94 22 95 24 96
REMARK H PARENT 3 7 86 25 52 36 10 81
REMARK Flexibility Score: inf
ROOT
ATOM      1  C   UNL A   1      37.049  23.224  24.458  1.00  0.00     0.002 C 
ENDROOT
BRANCH   1   2
ATOM      2  C   UNL A   1      37.383  23.159  25.951  1.00  0.00     0.021 C 
BRANCH   2   3
ATOM      3  C   UNL A   1      38.282  24.280  26.462  1.00  0.00     0.116 C 
BRANCH   3   4
ATOM      4  N   UNL A   1      39.680  24.068  26.125  1.00  0.00    -0.352 N 
ATOM      5  O   UNL A   1      41.877  24.550  26.000  1.00  0.00    -0.269 OA
ATOM      6  C   UNL A   1      40.789  24.771  26.527  1.00  0.00     0.251 C 
ATOM      7  H   UNL A   1      39.858  23.312  25.522  1.00  0.00     0.163 HD
BRANCH   6   8
ATOM      8  C   UNL A   1      40.669  25.808  27.575  1.00  0.00     0.039 A 
ATOM      9  C   UNL A   1      41.502  26.932  27.572  1.00  0.00     0.014 A 
ATOM     10  C   UNL A   1      39.696  25.660  28.567  1.00  0.00     0.014 A 
ATOM     11  C   UNL A   1      41.447  27.838  28.627  1.00  0.00     0.010 A 
ATOM     12  C   UNL A   1      39.594  26.609  29.586  1.00  0.00     0.010 A 
ATOM     13  C   UNL A   1      40.487  27.692  29.641  1.00  0.00    -0.014 A 
BRANCH  13  14
ATOM     14  C   UNL A   1      40.393  28.698  30.730  1.00  0.00     0.031 A 
ATOM     15  C   UNL A   1      41.275  28.604  31.944  1.00  0.00     0.074 A 
ATOM     16  C   UNL A   1      39.494  29.694  30.622  1.00  0.00     0.049 A 
ATOM     17  N   UNL A   1      41.290  29.359  33.013  1.00  0.00    -0.248 NA
ATOM     18  C   UNL A   1      42.263  27.514  31.966  1.00  0.00     0.031 C 
ATOM     19  C   UNL A   1      38.582  29.886  29.492  1.00  0.00     0.029 A 
ATOM     20  N   UNL A   1      39.193  30.728  31.472  1.00  0.00    -0.354 N 
ATOM     21  C   UNL A   1      42.269  28.827  33.843  1.00  0.00     0.074 A 
ATOM     22  C   UNL A   1      42.810  27.669  33.164  1.00  0.00     0.031 C 
ATOM     23  C   UNL A   1      37.836  30.979  29.710  1.00  0.00     0.029 A 
ATOM     24  C   UNL A   1      38.173  31.531  31.018  1.00  0.00     0.049 A 
ATOM     25  H   UNL A   1      39.661  30.881  32.324  1.00  0.00     0.167 HD
ATOM     26  C   UNL A   1      42.681  29.268  35.058  1.00  0.00     0.037 A 
ATOM     27  C   UNL A   1      37.554  32.575  31.599  1.00  0.00     0.037 A 
ATOM     28  C   UNL A   1      42.135  30.425  35.723  1.00  0.00     0.049 A 
ATOM     29  C   UNL A   1      38.004  33.027  32.959  1.00  0.00     0.074 A 
ATOM     30  C   UNL A   1      42.503  30.971  36.940  1.00  0.00     0.029 A 
ATOM     31  N   UNL A   1      41.099  31.208  35.233  1.00  0.00    -0.354 N 
ATOM     32  N   UNL A   1      38.952  32.531  33.718  1.00  0.00    -0.248 NA
ATOM     33  C   UNL A   1      37.305  34.180  33.541  1.00  0.00     0.031 C 
ATOM     34  C   UNL A   1      41.659  32.055  37.208  1.00  0.00     0.029 A 
ATOM     35  C   UNL A   1      40.802  32.219  36.132  1.00  0.00     0.049 A 
ATOM     36  H   UNL A   1      40.642  31.066  34.372  1.00  0.00     0.167 HD
ATOM     37  C   UNL A   1      38.980  33.326  34.858  1.00  0.00     0.074 A 
ATOM     38  C   UNL A   1      37.958  34.339  34.685  1.00  0.00     0.031 C 
ATOM     39  C   UNL A   1      39.785  33.227  35.944  1.00  0.00     0.037 A 
BRANCH  26  40
ATOM     40  C   UNL A   1      43.754  28.478  35.759  1.00  0.00     0.058 A 
ATOM     41  C   UNL A   1      43.446  27.446  36.660  1.00  0.00     0.135 A 
ATOM     42  C   UNL A   1      45.111  28.747  35.514  1.00  0.00     0.135 A 
ATOM     43  F   UNL A   1      42.167  27.153  36.942  1.00  0.00    -0.206 F 
ATOM     44  C   UNL A   1      44.444  26.737  37.322  1.00  0.00     0.059 A 
ATOM     45  C   UNL A   1      46.126  28.031  36.144  1.00  0.00     0.059 A 
ATOM     46  F   UNL A   1      45.464  29.719  34.658  1.00  0.00    -0.206 F 
ATOM     47  C   UNL A   1      45.781  27.042  37.064  1.00  0.00     0.060 A 
BRANCH  47  48
ATOM     48  S   UNL A   1      47.062  26.134  37.954  1.00  0.00     0.124 S 
ATOM     49  O   UNL A   1      47.365  25.062  37.009  1.00  0.00    -0.237 OA
ATOM     50  O   UNL A   1      48.104  27.142  38.120  1.00  0.00    -0.237 OA
ATOM     51  O   UNL A   1      46.393  25.718  39.182  1.00  0.00    -0.744 OA
ENDBRANCH  47  48
ENDBRANCH  26  40
BRANCH  27  52
ATOM     52  C   UNL A   1      36.443  33.253  30.884  1.00  0.00     0.058 A 
ATOM     53  C   UNL A   1      35.115  33.108  31.309  1.00  0.00     0.135 A 
ATOM     54  C   UNL A   1      36.695  34.110  29.800  1.00  0.00     0.135 A 
ATOM     55  F   UNL A   1      34.825  32.297  32.337  1.00  0.00    -0.206 F 
ATOM     56  C   UNL A   1      34.074  33.789  30.687  1.00  0.00     0.059 A 
ATOM     57  C   UNL A   1      35.675  34.821  29.178  1.00  0.00     0.059 A 
ATOM     58  F   UNL A   1      37.952  34.294  29.368  1.00  0.00    -0.206 F 
ATOM     59  C   UNL A   1      34.366  34.650  29.627  1.00  0.00     0.060 A 
BRANCH  59  60
ATOM     60  S   UNL A   1      33.018  35.590  28.879  1.00  0.00     0.124 S 
ATOM     61  O   UNL A   1      32.358  34.568  28.074  1.00  0.00    -0.237 OA
ATOM     62  O   UNL A   1      32.282  36.053  30.051  1.00  0.00    -0.237 OA
ATOM     63  O   UNL A   1      33.711  36.635  28.131  1.00  0.00    -0.744 OA
ENDBRANCH  59  60
ENDBRANCH  27  52
BRANCH  39  64
ATOM     64  C   UNL A   1      39.629  34.267  37.019  1.00  0.00     0.058 A 
ATOM     65  C   UNL A   1      38.831  34.047  38.152  1.00  0.00     0.135 A 
ATOM     66  C   UNL A   1      40.340  35.475  36.941  1.00  0.00     0.135 A 
ATOM     67  F   UNL A   1      38.122  32.913  38.271  1.00  0.00    -0.206 F 
ATOM     68  C   UNL A   1      38.733  34.996  39.166  1.00  0.00     0.059 A 
ATOM     69  C   UNL A   1      40.278  36.426  37.954  1.00  0.00     0.059 A 
ATOM     70  F   UNL A   1      41.124  35.732  35.881  1.00  0.00    -0.206 F 
ATOM     71  C   UNL A   1      39.464  36.181  39.060  1.00  0.00     0.060 A 
BRANCH  71  72
ATOM     72  S   UNL A   1      39.369  37.382  40.405  1.00  0.00     0.124 S 
ATOM     73  O   UNL A   1      40.734  37.898  40.435  1.00  0.00    -0.237 OA
ATOM     74  O   UNL A   1      38.350  38.309  39.924  1.00  0.00    -0.237 OA
ATOM     75  O   UNL A   1      38.978  36.572  41.556  1.00  0.00    -0.744 OA
ENDBRANCH  71  72
ENDBRANCH  39  64
ENDBRANCH  13  14
ENDBRANCH   6   8
ENDBRANCH   3   4
ENDBRANCH   2   3
ENDBRANCH   1   2
BRANCH   1  76
ATOM     76  C   UNL A   1      35.977  22.240  23.980  1.00  0.00     0.002 C 
BRANCH  76  77
ATOM     77  C   UNL A   1      35.436  21.281  25.045  1.00  0.00     0.021 C 
BRANCH  77  78
ATOM     78  C   UNL A   1      33.913  21.217  25.149  1.00  0.00     0.116 C 
BRANCH  78  79
ATOM     79  N   UNL A   1      33.444  21.383  26.515  1.00  0.00    -0.351 N 
ATOM     80  C   UNL A   1      33.038  22.538  27.148  1.00  0.00     0.269 C 
ATOM     81  H   UNL A   1      33.413  20.563  27.059  1.00  0.00     0.163 HD
ATOM     82  O   UNL A   1      32.737  22.516  28.338  1.00  0.00    -0.268 OA
BRANCH  80  83
ATOM     83  C   UNL A   1      32.945  23.796  26.359  1.00  0.00     0.128 A 
ATOM     84  C   UNL A   1      31.712  24.195  25.854  1.00  0.00     0.038 A 
ATOM     85  N   UNL A   1      34.109  24.444  26.115  1.00  0.00    -0.247 NA
ATOM     86  C   UNL A   1      31.672  25.292  24.994  1.00  0.00     0.050 A 
ATOM     87  C   UNL A   1      34.027  25.510  25.286  1.00  0.00     0.158 A 
ATOM     88  C   UNL A   1      32.855  25.955  24.677  1.00  0.00     0.138 A 
BRANCH  88  89
ATOM     89  O   UNL A   1      33.006  26.974  23.783  1.00  0.00    -0.486 OA
BRANCH  89  90
ATOM     90  C   UNL A   1      33.859  28.076  24.120  1.00  0.00     0.277 C 
BRANCH  90  91
ATOM     91  C   UNL A   1      33.283  28.941  25.212  1.00  0.00     0.056 A 
ATOM     92  S   UNL A   1      34.162  29.330  26.641  1.00  0.00    -0.144 S 
ATOM     93  C   UNL A   1      32.020  29.494  25.272  1.00  0.00     0.035 A 
ATOM     94  C   UNL A   1      32.892  30.299  27.251  1.00  0.00     0.066 A 
ATOM     95  C   UNL A   1      31.790  30.282  26.427  1.00  0.00     0.028 A 
ATOM     96  Br  UNL A   1      30.663  29.275  23.973  1.00  0.00    -0.049 Br
ENDBRANCH  90  91
ENDBRANCH  89  90
ENDBRANCH  88  89
ENDBRANCH  80  83
ENDBRANCH  78  79
ENDBRANCH  77  78
ENDBRANCH  76  77
ENDBRANCH   1  76
TORSDOF 19
ENDMDL
MODEL 2
REMARK VINA RESULT:     -11.0      5.089     10.690
REMARK SMILES O=C(NCCCCCCNC(=O)c1ccc(OCc2sccc2Br)cn1)c1ccc(-c2c3nc(c(-c4c(F)cc(S(=O)(=O)[O-])cc4F)c4ccc([nH]4)c(-c4c(F)cc(S(=O)(=O)[O-])cc4F)c4nc(c(-c5c(F)cc(S(=O)(=O)[O-])cc5F)c5ccc2[nH]5)C=C4)C=C3)cc1
REMARK SMILES IDX 6 1 5 2 4 3 3 4 1 5 2 6 27 8 28 9 92 10 29 11 91 12 30 13
REMARK SMILES IDX 31 14 32 15 85 16 33 17 90 18 84 19 86 20 34 21 89 22 83 23
REMARK SMILES IDX 82 24 35 26 69 27 48 28 68 29 49 30 52 31 67 32 87 33 50 34
REMARK SMILES IDX 51 35 66 37 88 38 53 39 36 40 37 41 46 42 38 43 39 44 45 45
REMARK SMILES IDX 47 46 40 47 41 48 42 49 43 50 44 51 70 52 71 53 80 54 72 55
REMARK SMILES IDX 73 56 79 57 81 58 74 59 75 60 76 61 77 62 78 63 54 64 55 65
REMARK SMILES IDX 64 66 56 67 57 68 63 69 65 70 58 71 59 72 60 73 61 74 62 75
REMARK SMILES IDX 7 76 8 77 9 78 10 79 11 80 12 82 13 83 14 84 26 85 15 86
REMARK SMILES IDX 25 87 16 88 17 89 18 90 19 91 20 92 23 93 21 94 22 95 24 96
REMARK H PARENT 3 7 86 25 52 36 10 81
REMARK Flexibility Score: inf
ROOT
ATOM      1  C   UNL A   1      32.117  26.624  25.459  1.00  0.00     0.002 C 
ENDROOT
BRANCH   1   2
ATOM      2  C   UNL A   1      32.689  27.080  26.803  1.00  0.00     0.021 C 
BRANCH   2   3
ATOM      3  C   UNL A   1      33.888  28.016  26.713  1.00  0.00     0.116 C 
BRANCH   3   4
ATOM      4  N   UNL A   1      33.554  29.384  27.077  1.00  0.00    -0.352 N 
ATOM      5  O   UNL A   1      33.782  31.362  28.129  1.00  0.00    -0.269 OA
ATOM      6  C   UNL A   1      34.300  30.309  27.764  1.00  0.00     0.251 C 
ATOM      7  H   UNL A   1      32.665  29.690  26.789  1.00  0.00     0.163 HD
BRANCH   6   8
ATOM      8  C   UNL A   1      35.716  30.029  28.085  1.00  0.00     0.039 A 
ATOM      9  C   UNL A   1      36.722  30.232  27.134  1.00  0.00     0.014 A 
ATOM     10  C   UNL A   1      36.043  29.570  29.364  1.00  0.00     0.014 A 
ATOM     11  C   UNL A   1      38.031  29.857  27.420  1.00  0.00     0.010 A 
ATOM     12  C   UNL A   1      37.370  29.263  29.672  1.00  0.00     0.010 A 
ATOM     13  C   UNL A   1      38.372  29.377  28.694  1.00  0.00    -0.014 A 
BRANCH  13  14
ATOM     14  C   UNL A   1      39.783  29.040  29.011  1.00  0.00     0.031 A 
ATOM     15  C   UNL A   1      40.696  30.057  29.638  1.00  0.00     0.074 A 
ATOM     16  C   UNL A   1      40.242  27.809  28.716  1.00  0.00     0.049 A 
ATOM     17  N   UNL A   1      41.968  29.954  29.930  1.00  0.00    -0.248 NA
ATOM     18  C   UNL A   1      40.108  31.363  29.972  1.00  0.00     0.031 C 
ATOM     19  C   UNL A   1      39.451  26.740  28.103  1.00  0.00     0.029 A 
ATOM     20  N   UNL A   1      41.484  27.248  28.884  1.00  0.00    -0.354 N 
ATOM     21  C   UNL A   1      42.339  31.184  30.461  1.00  0.00     0.074 A 
ATOM     22  C   UNL A   1      41.162  32.026  30.429  1.00  0.00     0.031 C 
ATOM     23  C   UNL A   1      40.218  25.649  27.963  1.00  0.00     0.029 A 
ATOM     24  C   UNL A   1      41.569  25.958  28.418  1.00  0.00     0.049 A 
ATOM     25  H   UNL A   1      42.239  27.725  29.298  1.00  0.00     0.167 HD
ATOM     26  C   UNL A   1      43.549  31.571  30.937  1.00  0.00     0.037 A 
ATOM     27  C   UNL A   1      42.623  25.124  28.335  1.00  0.00     0.037 A 
ATOM     28  C   UNL A   1      44.713  30.721  30.966  1.00  0.00     0.049 A 
ATOM     29  C   UNL A   1      43.961  25.584  28.838  1.00  0.00     0.074 A 
ATOM     30  C   UNL A   1      45.976  31.009  31.454  1.00  0.00     0.029 A 
ATOM     31  N   UNL A   1      44.761  29.422  30.479  1.00  0.00    -0.354 N 
ATOM     32  N   UNL A   1      44.287  26.741  29.365  1.00  0.00    -0.248 NA
ATOM     33  C   UNL A   1      45.073  24.631  28.738  1.00  0.00     0.031 C 
ATOM     34  C   UNL A   1      46.799  29.902  31.218  1.00  0.00     0.029 A 
ATOM     35  C   UNL A   1      46.036  28.903  30.636  1.00  0.00     0.049 A 
ATOM     36  H   UNL A   1      44.000  28.940  30.080  1.00  0.00     0.167 HD
ATOM     37  C   UNL A   1      45.638  26.645  29.682  1.00  0.00     0.074 A 
ATOM     38  C   UNL A   1      46.064  25.315  29.293  1.00  0.00     0.031 C 
ATOM     39  C   UNL A   1      46.446  27.573  30.250  1.00  0.00     0.037 A 
BRANCH  26  40
ATOM     40  C   UNL A   1      43.681  32.985  31.436  1.00  0.00     0.058 A 
ATOM     41  C   UNL A   1      43.445  33.323  32.779  1.00  0.00     0.135 A 
ATOM     42  C   UNL A   1      44.066  34.016  30.562  1.00  0.00     0.135 A 
ATOM     43  F   UNL A   1      43.062  32.381  33.656  1.00  0.00    -0.206 F 
ATOM     44  C   UNL A   1      43.546  34.636  33.227  1.00  0.00     0.059 A 
ATOM     45  C   UNL A   1      44.201  35.333  30.996  1.00  0.00     0.059 A 
ATOM     46  F   UNL A   1      44.310  33.750  29.269  1.00  0.00    -0.206 F 
ATOM     47  C   UNL A   1      43.917  35.636  32.326  1.00  0.00     0.060 A 
BRANCH  47  48
ATOM     48  S   UNL A   1      44.013  37.338  32.918  1.00  0.00     0.124 S 
ATOM     49  O   UNL A   1      42.887  37.385  33.847  1.00  0.00    -0.237 OA
ATOM     50  O   UNL A   1      45.338  37.383  33.529  1.00  0.00    -0.237 OA
ATOM     51  O   UNL A   1      43.858  38.131  31.703  1.00  0.00    -0.744 OA
ENDBRANCH  47  48
ENDBRANCH  26  40
BRANCH  27  52
ATOM     52  C   UNL A   1      42.436  23.772  27.750  1.00  0.00     0.058 A 
ATOM     53  C   UNL A   1      42.381  23.587  26.361  1.00  0.00     0.135 A 
ATOM     54  C   UNL A   1      42.374  22.631  28.567  1.00  0.00     0.135 A 
ATOM     55  F   UNL A   1      42.432  24.647  25.541  1.00  0.00    -0.206 F 
ATOM     56  C   UNL A   1      42.271  22.319  25.801  1.00  0.00     0.059 A 
ATOM     57  C   UNL A   1      42.290  21.351  28.029  1.00  0.00     0.059 A 
ATOM     58  F   UNL A   1      42.441  22.756  29.901  1.00  0.00    -0.206 F 
ATOM     59  C   UNL A   1      42.235  21.206  26.644  1.00  0.00     0.060 A 
BRANCH  59  60
ATOM     60  S   UNL A   1      42.174  19.561  25.903  1.00  0.00     0.124 S 
ATOM     61  O   UNL A   1      42.491  18.712  27.046  1.00  0.00    -0.237 OA
ATOM     62  O   UNL A   1      40.798  19.495  25.420  1.00  0.00    -0.237 OA
ATOM     63  O   UNL A   1      43.193  19.624  24.860  1.00  0.00    -0.744 OA
ENDBRANCH  59  60
ENDBRANCH  27  52
BRANCH  39  64
ATOM     64  C   UNL A   1      47.869  27.175  30.530  1.00  0.00     0.058 A 
ATOM     65  C   UNL A   1      48.913  27.485  29.645  1.00  0.00     0.135 A 
ATOM     66  C   UNL A   1      48.197  26.530  31.733  1.00  0.00     0.135 A 
ATOM     67  F   UNL A   1      48.651  28.092  28.476  1.00  0.00    -0.206 F 
ATOM     68  C   UNL A   1      50.233  27.156  29.937  1.00  0.00     0.059 A 
ATOM     69  C   UNL A   1      49.513  26.216  32.057  1.00  0.00     0.059 A 
ATOM     70  F   UNL A   1      47.237  26.218  32.618  1.00  0.00    -0.206 F 
ATOM     71  C   UNL A   1      50.524  26.526  31.148  1.00  0.00     0.060 A 
BRANCH  71  72
ATOM     72  S   UNL A   1      52.246  26.150  31.539  1.00  0.00     0.124 S 
ATOM     73  O   UNL A   1      52.559  27.188  32.516  1.00  0.00    -0.237 OA
ATOM     74  O   UNL A   1      52.159  24.791  32.061  1.00  0.00    -0.237 OA
ATOM     75  O   UNL A   1      52.922  26.278  30.250  1.00  0.00    -0.744 OA
ENDBRANCH  71  72
ENDBRANCH  39  64
ENDBRANCH  13  14
ENDBRANCH   6   8
ENDBRANCH   3   4
ENDBRANCH   2   3
ENDBRANCH   1   2
BRANCH   1  76
ATOM     76  C   UNL A   1      31.238  27.649  24.735  1.00  0.00     0.002 C 
BRANCH  76  77
ATOM     77  C   UNL A   1      31.873  28.323  23.516  1.00  0.00     0.021 C 
BRANCH  77  78
ATOM     78  C   UNL A   1      33.192  27.711  23.047  1.00  0.00     0.116 C 
BRANCH  78  79
ATOM     79  N   UNL A   1      33.110  27.191  21.692  1.00  0.00    -0.351 N 
ATOM     80  C   UNL A   1      32.966  25.882  21.283  1.00  0.00     0.269 C 
ATOM     81  H   UNL A   1      33.163  27.861  20.973  1.00  0.00     0.163 HD
ATOM     82  O   UNL A   1      32.987  25.605  20.087  1.00  0.00    -0.268 OA
BRANCH  80  83
ATOM     83  C   UNL A   1      32.759  24.827  22.310  1.00  0.00     0.128 A 
ATOM     84  C   UNL A   1      33.858  24.137  22.813  1.00  0.00     0.038 A 
ATOM     85  N   UNL A   1      31.475  24.549  22.641  1.00  0.00    -0.247 NA
ATOM     86  C   UNL A   1      33.629  23.054  23.660  1.00  0.00     0.050 A 
ATOM     87  C   UNL A   1      31.295  23.498  23.474  1.00  0.00     0.158 A 
ATOM     88  C   UNL A   1      32.321  22.704  23.983  1.00  0.00     0.138 A 
BRANCH  88  89
ATOM     89  O   UNL A   1      31.921  21.621  24.711  1.00  0.00    -0.486 OA
BRANCH  89  90
ATOM     90  C   UNL A   1      32.837  21.032  25.643  1.00  0.00     0.277 C 
BRANCH  90  91
ATOM     91  C   UNL A   1      33.424  19.738  25.141  1.00  0.00     0.056 A 
ATOM     92  S   UNL A   1      32.470  18.326  24.895  1.00  0.00    -0.144 S 
ATOM     93  C   UNL A   1      34.746  19.467  24.855  1.00  0.00     0.035 A 
ATOM     94  C   UNL A   1      33.807  17.427  24.323  1.00  0.00     0.066 A 
ATOM     95  C   UNL A   1      34.975  18.153  24.376  1.00  0.00     0.028 A 
ATOM     96  Br  UNL A   1      36.184  20.680  25.052  1.00  0.00    -0.049 Br
ENDBRANCH  90  91
ENDBRANCH  89  90
ENDBRANCH  88  89
ENDBRANCH  80  83
ENDBRANCH  78  79
ENDBRANCH  77  78
ENDBRANCH  76  77
ENDBRANCH   1  76
TORSDOF 19
ENDMDL
MODEL 3
REMARK VINA RESULT:     -10.9      6.753     12.281
REMARK SMILES O=C(NCCCCCCNC(=O)c1ccc(OCc2sccc2Br)cn1)c1ccc(-c2c3nc(c(-c4c(F)cc(S(=O)(=O)[O-])cc4F)c4ccc([nH]4)c(-c4c(F)cc(S(=O)(=O)[O-])cc4F)c4nc(c(-c5c(F)cc(S(=O)(=O)[O-])cc5F)c5ccc2[nH]5)C=C4)C=C3)cc1
REMARK SMILES IDX 6 1 5 2 4 3 3 4 1 5 2 6 27 8 28 9 92 10 29 11 91 12 30 13
REMARK SMILES IDX 31 14 32 15 85 16 33 17 90 18 84 19 86 20 34 21 89 22 83 23
REMARK SMILES IDX 82 24 35 26 69 27 48 28 68 29 49 30 52 31 67 32 87 33 50 34
REMARK SMILES IDX 51 35 66 37 88 38 53 39 36 40 37 41 46 42 38 43 39 44 45 45
REMARK SMILES IDX 47 46 40 47 41 48 42 49 43 50 44 51 70 52 71 53 80 54 72 55
REMARK SMILES IDX 73 56 79 57 81 58 74 59 75 60 76 61 77 62 78 63 54 64 55 65
REMARK SMILES IDX 64 66 56 67 57 68 63 69 65 70 58 71 59 72 60 73 61 74 62 75
REMARK SMILES IDX 7 76 8 77 9 78 10 79 11 80 12 82 13 83 14 84 26 85 15 86
REMARK SMILES IDX 25 87 16 88 17 89 18 90 19 91 20 92 23 93 21 94 22 95 24 96
REMARK H PARENT 3 7 86 25 52 36 10 81
REMARK Flexibility Score: inf
ROOT
ATOM      1  C   UNL A   1      33.970  29.668  27.174  1.00  0.00     0.002 C 
ENDROOT
BRANCH   1   2
ATOM      2  C   UNL A   1      34.390  31.103  27.501  1.00  0.00     0.021 C 
BRANCH   2   3
ATOM      3  C   UNL A   1      35.714  31.236  28.245  1.00  0.00     0.116 C 
BRANCH   3   4
ATOM      4  N   UNL A   1      35.565  31.062  29.681  1.00  0.00    -0.352 N 
ATOM      5  O   UNL A   1      36.032  30.248  31.729  1.00  0.00    -0.269 OA
ATOM      6  C   UNL A   1      36.408  30.452  30.576  1.00  0.00     0.251 C 
ATOM      7  H   UNL A   1      34.741  31.435  30.066  1.00  0.00     0.163 HD
BRANCH   6   8
ATOM      8  C   UNL A   1      37.756  30.019  30.149  1.00  0.00     0.039 A 
ATOM      9  C   UNL A   1      38.724  29.652  31.088  1.00  0.00     0.014 A 
ATOM     10  C   UNL A   1      38.048  29.965  28.783  1.00  0.00     0.014 A 
ATOM     11  C   UNL A   1      40.018  29.355  30.670  1.00  0.00     0.010 A 
ATOM     12  C   UNL A   1      39.328  29.596  28.362  1.00  0.00     0.010 A 
ATOM     13  C   UNL A   1      40.332  29.315  29.302  1.00  0.00    -0.014 A 
BRANCH  13  14
ATOM     14  C   UNL A   1      41.699  28.935  28.862  1.00  0.00     0.031 A 
ATOM     15  C   UNL A   1      42.803  29.954  28.811  1.00  0.00     0.074 A 
ATOM     16  C   UNL A   1      41.936  27.662  28.493  1.00  0.00     0.049 A 
ATOM     17  N   UNL A   1      44.038  29.813  28.400  1.00  0.00    -0.248 NA
ATOM     18  C   UNL A   1      42.478  31.312  29.274  1.00  0.00     0.031 C 
ATOM     19  C   UNL A   1      40.942  26.586  28.496  1.00  0.00     0.029 A 
ATOM     20  N   UNL A   1      43.080  27.056  28.038  1.00  0.00    -0.354 N 
ATOM     21  C   UNL A   1      44.631  31.062  28.533  1.00  0.00     0.074 A 
ATOM     22  C   UNL A   1      43.612  31.957  29.041  1.00  0.00     0.031 C 
ATOM     23  C   UNL A   1      41.522  25.450  28.082  1.00  0.00     0.029 A 
ATOM     24  C   UNL A   1      42.909  25.728  27.727  1.00  0.00     0.049 A 
ATOM     25  H   UNL A   1      43.939  27.527  27.945  1.00  0.00     0.167 HD
ATOM     26  C   UNL A   1      45.908  31.427  28.261  1.00  0.00     0.037 A 
ATOM     27  C   UNL A   1      43.762  24.838  27.186  1.00  0.00     0.037 A 
ATOM     28  C   UNL A   1      46.915  30.525  27.758  1.00  0.00     0.049 A 
ATOM     29  C   UNL A   1      45.162  25.271  26.862  1.00  0.00     0.074 A 
ATOM     30  C   UNL A   1      48.244  30.789  27.478  1.00  0.00     0.029 A 
ATOM     31  N   UNL A   1      46.701  29.188  27.449  1.00  0.00    -0.354 N 
ATOM     32  N   UNL A   1      45.716  26.450  27.022  1.00  0.00    -0.248 NA
ATOM     33  C   UNL A   1      46.056  24.257  26.287  1.00  0.00     0.031 C 
ATOM     34  C   UNL A   1      48.822  29.626  26.956  1.00  0.00     0.029 A 
ATOM     35  C   UNL A   1      47.867  28.621  26.964  1.00  0.00     0.049 A 
ATOM     36  H   UNL A   1      45.845  28.713  27.560  1.00  0.00     0.167 HD
ATOM     37  C   UNL A   1      47.030  26.313  26.590  1.00  0.00     0.074 A 
ATOM     38  C   UNL A   1      47.190  24.935  26.168  1.00  0.00     0.031 C 
ATOM     39  C   UNL A   1      48.015  27.245  26.553  1.00  0.00     0.037 A 
BRANCH  26  40
ATOM     40  C   UNL A   1      46.282  32.870  28.474  1.00  0.00     0.058 A 
ATOM     41  C   UNL A   1      46.160  33.826  27.453  1.00  0.00     0.135 A 
ATOM     42  C   UNL A   1      46.753  33.307  29.724  1.00  0.00     0.135 A 
ATOM     43  F   UNL A   1      45.727  33.463  26.234  1.00  0.00    -0.206 F 
ATOM     44  C   UNL A   1      46.530  35.153  27.650  1.00  0.00     0.059 A 
ATOM     45  C   UNL A   1      47.102  34.636  29.952  1.00  0.00     0.059 A 
ATOM     46  F   UNL A   1      46.884  32.438  30.738  1.00  0.00    -0.206 F 
ATOM     47  C   UNL A   1      47.007  35.547  28.901  1.00  0.00     0.060 A 
BRANCH  47  48
ATOM     48  S   UNL A   1      47.511  37.265  29.131  1.00  0.00     0.124 S 
ATOM     49  O   UNL A   1      47.445  37.393  30.584  1.00  0.00    -0.237 OA
ATOM     50  O   UNL A   1      48.853  37.277  28.557  1.00  0.00    -0.237 OA
ATOM     51  O   UNL A   1      46.507  38.017  28.388  1.00  0.00    -0.744 OA
ENDBRANCH  47  48
ENDBRANCH  26  40
BRANCH  27  52
ATOM     52  C   UNL A   1      43.297  23.452  26.923  1.00  0.00     0.058 A 
ATOM     53  C   UNL A   1      43.070  23.002  25.615  1.00  0.00     0.135 A 
ATOM     54  C   UNL A   1      43.133  22.532  27.971  1.00  0.00     0.135 A 
ATOM     55  F   UNL A   1      43.210  23.846  24.582  1.00  0.00    -0.206 F 
ATOM     56  C   UNL A   1      42.698  21.688  25.353  1.00  0.00     0.059 A 
ATOM     57  C   UNL A   1      42.786  21.206  27.732  1.00  0.00     0.059 A 
ATOM     58  F   UNL A   1      43.355  22.911  29.239  1.00  0.00    -0.206 F 
ATOM     59  C   UNL A   1      42.566  20.795  26.419  1.00  0.00     0.060 A 
BRANCH  59  60
ATOM     60  S   UNL A   1      42.160  19.073  26.060  1.00  0.00     0.124 S 
ATOM     61  O   UNL A   1      40.720  19.149  25.841  1.00  0.00    -0.237 OA
ATOM     62  O   UNL A   1      42.973  18.808  24.877  1.00  0.00    -0.237 OA
ATOM     63  O   UNL A   1      42.580  18.370  27.268  1.00  0.00    -0.744 OA
ENDBRANCH  59  60
ENDBRANCH  27  52
BRANCH  39  64
ATOM     64  C   UNL A   1      49.372  26.800  26.082  1.00  0.00     0.058 A 
ATOM     65  C   UNL A   1      49.786  26.969  24.752  1.00  0.00     0.135 A 
ATOM     66  C   UNL A   1      50.292  26.256  26.992  1.00  0.00     0.135 A 
ATOM     67  F   UNL A   1      48.941  27.475  23.839  1.00  0.00    -0.206 F 
ATOM     68  C   UNL A   1      51.062  26.600  24.336  1.00  0.00     0.059 A 
ATOM     69  C   UNL A   1      51.581  25.905  26.605  1.00  0.00     0.059 A 
ATOM     70  F   UNL A   1      49.949  26.081  28.278  1.00  0.00    -0.206 F 
ATOM     71  C   UNL A   1      51.954  26.073  25.272  1.00  0.00     0.060 A 
BRANCH  71  72
ATOM     72  S   UNL A   1      53.624  25.646  24.733  1.00  0.00     0.124 S 
ATOM     73  O   UNL A   1      53.616  24.194  24.875  1.00  0.00    -0.237 OA
ATOM     74  O   UNL A   1      53.649  26.151  23.364  1.00  0.00    -0.237 OA
ATOM     75  O   UNL A   1      54.478  26.365  25.675  1.00  0.00    -0.744 OA
ENDBRANCH  71  72
ENDBRANCH  39  64
ENDBRANCH  13  14
ENDBRANCH   6   8
ENDBRANCH   3   4
ENDBRANCH   2   3
ENDBRANCH   1   2
BRANCH   1  76
ATOM     76  C   UNL A   1      32.472  29.376  27.296  1.00  0.00     0.002 C 
BRANCH  76  77
ATOM     77  C   UNL A   1      31.808  28.786  26.047  1.00  0.00     0.021 C 
BRANCH  77  78
ATOM     78  C   UNL A   1      32.218  29.433  24.725  1.00  0.00     0.116 C 
BRANCH  78  79
ATOM     79  N   UNL A   1      31.103  29.554  23.800  1.00  0.00    -0.351 N 
ATOM     80  C   UNL A   1      30.746  28.707  22.772  1.00  0.00     0.269 C 
ATOM     81  H   UNL A   1      30.529  30.343  23.923  1.00  0.00     0.163 HD
ATOM     82  O   UNL A   1      29.810  28.996  22.033  1.00  0.00    -0.268 OA
BRANCH  80  83
ATOM     83  C   UNL A   1      31.493  27.432  22.598  1.00  0.00     0.128 A 
ATOM     84  C   UNL A   1      30.908  26.236  23.001  1.00  0.00     0.038 A 
ATOM     85  N   UNL A   1      32.755  27.532  22.116  1.00  0.00    -0.247 NA
ATOM     86  C   UNL A   1      31.680  25.076  22.968  1.00  0.00     0.050 A 
ATOM     87  C   UNL A   1      33.469  26.383  22.090  1.00  0.00     0.158 A 
ATOM     88  C   UNL A   1      32.999  25.146  22.528  1.00  0.00     0.138 A 
BRANCH  88  89
ATOM     89  O   UNL A   1      33.915  24.135  22.528  1.00  0.00    -0.486 OA
BRANCH  89  90
ATOM     90  C   UNL A   1      33.458  22.781  22.649  1.00  0.00     0.277 C 
BRANCH  90  91
ATOM     91  C   UNL A   1      33.808  22.169  23.981  1.00  0.00     0.056 A 
ATOM     92  S   UNL A   1      32.610  21.609  25.083  1.00  0.00    -0.144 S 
ATOM     93  C   UNL A   1      35.064  22.006  24.530  1.00  0.00     0.035 A 
ATOM     94  C   UNL A   1      33.781  21.075  26.207  1.00  0.00     0.066 A 
ATOM     95  C   UNL A   1      35.061  21.371  25.797  1.00  0.00     0.028 A 
ATOM     96  Br  UNL A   1      36.691  22.547  23.731  1.00  0.00    -0.049 Br
ENDBRANCH  90  91
ENDBRANCH  89  90
ENDBRANCH  88  89
ENDBRANCH  80  83
ENDBRANCH  78  79
ENDBRANCH  77  78
ENDBRANCH  76  77
ENDBRANCH   1  76
TORSDOF 19
ENDMDL
