MODEL 1
REMARK VINA RESULT:     -11.0      0.000      0.000
REMARK SMILES CCNC(=O)c1cccc(-c2ccc(Cl)c(C(=O)NCCCCCCNC(=O)c3ccc(-c4c5nc(c(-c6c(F)cc(S(=O)(=O)[O-])cc6F)c6ccc([nH]6)c(-c6c(F)cc(S(=O)(=O)[O-])cc6F)c6nc(c(-c7c(F)cc(S(=O)(=O)[O-])cc7F)c7ccc4[nH]7)C=C6)C=C5)cc3)c2)c1
REMARK SMILES IDX 22 1 21 2 20 3 19 4 17 5 18 6 16 8 11 9 12 10 95 11 13 12
REMARK SMILES IDX 14 13 15 14 10 15 6 16 7 17 96 18 8 19 9 20 4 21 3 22 5 24
REMARK SMILES IDX 2 25 1 26 23 27 24 28 25 29 26 30 27 31 28 33 29 34 30 35
REMARK SMILES IDX 94 36 31 37 93 38 32 39 33 40 34 41 87 42 35 43 92 44 86 45
REMARK SMILES IDX 88 46 36 47 91 48 85 49 84 50 37 52 71 53 50 54 70 55 51 56
REMARK SMILES IDX 54 57 69 58 89 59 52 60 53 61 68 63 90 64 55 65 38 66 39 67
REMARK SMILES IDX 48 68 40 69 41 70 47 71 49 72 42 73 43 74 44 75 45 76 46 77
REMARK SMILES IDX 72 78 73 79 82 80 74 81 75 82 81 83 83 84 76 85 77 86 78 87
REMARK SMILES IDX 79 88 80 89 56 90 57 91 66 92 58 93 59 94 65 95 67 96 60 97
REMARK SMILES IDX 61 98 62 99 63 100 64 101
REMARK H PARENT 19 7 3 23 26 32 88 51 54 62
REMARK Flexibility Score: inf
ROOT
ATOM      1  C   UNL A   1      34.309  28.685  26.875  1.00  0.00     0.002 C 
ENDROOT
BRANCH   1   2
ATOM      2  C   UNL A   1      33.058  29.526  27.110  1.00  0.00     0.021 C 
BRANCH   2   3
ATOM      3  C   UNL A   1      32.381  30.116  25.880  1.00  0.00     0.116 C 
BRANCH   3   4
ATOM      4  N   UNL A   1      32.995  29.766  24.603  1.00  0.00    -0.352 N 
ATOM      5  C   UNL A   1      32.726  28.777  23.672  1.00  0.00     0.252 C 
ATOM      6  O   UNL A   1      33.357  28.816  22.617  1.00  0.00    -0.269 OA
ATOM      7  H   UNL A   1      33.749  30.348  24.355  1.00  0.00     0.163 HD
BRANCH   5   8
ATOM      8  C   UNL A   1      31.734  27.683  23.919  1.00  0.00     0.059 A 
ATOM      9  C   UNL A   1      31.398  25.281  24.321  1.00  0.00    -0.017 A 
ATOM     10  C   UNL A   1      30.032  25.447  24.075  1.00  0.00     0.010 A 
ATOM     11  C   UNL A   1      32.184  26.443  24.384  1.00  0.00     0.024 A 
ATOM     12  C   UNL A   1      29.513  26.714  23.792  1.00  0.00     0.022 A 
ATOM     13  C   UNL A   1      30.363  27.822  23.664  1.00  0.00     0.053 A 
ATOM     14  Cl  UNL A   1      29.614  29.291  23.144  1.00  0.00    -0.083 Cl
BRANCH   9  15
ATOM     15  C   UNL A   1      32.043  23.951  24.373  1.00  0.00    -0.018 A 
ATOM     16  C   UNL A   1      33.569  22.366  25.443  1.00  0.00     0.040 A 
ATOM     17  C   UNL A   1      33.492  21.516  24.339  1.00  0.00     0.014 A 
ATOM     18  C   UNL A   1      32.883  23.585  25.437  1.00  0.00     0.022 A 
ATOM     19  C   UNL A   1      32.681  21.862  23.261  1.00  0.00     0.001 A 
ATOM     20  C   UNL A   1      31.959  23.060  23.285  1.00  0.00     0.009 A 
BRANCH  16  21
ATOM     21  C   UNL A   1      34.474  22.008  26.557  1.00  0.00     0.251 C 
ATOM     22  N   UNL A   1      35.822  22.246  26.474  1.00  0.00    -0.352 N 
ATOM     23  H   UNL A   1      36.349  21.881  27.220  1.00  0.00     0.163 HD
ATOM     24  O   UNL A   1      33.996  21.482  27.556  1.00  0.00    -0.269 OA
BRANCH  22  25
ATOM     25  C   UNL A   1      36.602  22.948  25.467  1.00  0.00     0.112 C 
ATOM     26  C   UNL A   1      37.246  21.989  24.488  1.00  0.00     0.027 C 
ENDBRANCH  22  25
ENDBRANCH  16  21
ENDBRANCH   9  15
ENDBRANCH   5   8
ENDBRANCH   3   4
ENDBRANCH   2   3
ENDBRANCH   1   2
BRANCH   1  27
ATOM     27  C   UNL A   1      35.648  29.330  27.236  1.00  0.00     0.002 C 
BRANCH  27  28
ATOM     28  C   UNL A   1      35.675  30.201  28.495  1.00  0.00     0.021 C 
BRANCH  28  29
ATOM     29  C   UNL A   1      36.132  29.511  29.779  1.00  0.00     0.116 C 
BRANCH  29  30
ATOM     30  N   UNL A   1      36.112  30.395  30.934  1.00  0.00    -0.352 N 
ATOM     31  C   UNL A   1      37.154  30.901  31.673  1.00  0.00     0.251 C 
ATOM     32  H   UNL A   1      35.215  30.672  31.231  1.00  0.00     0.163 HD
ATOM     33  O   UNL A   1      36.925  31.512  32.713  1.00  0.00    -0.269 OA
BRANCH  31  34
ATOM     34  C   UNL A   1      38.552  30.684  31.237  1.00  0.00     0.039 A 
ATOM     35  C   UNL A   1      39.443  30.066  32.118  1.00  0.00     0.014 A 
ATOM     36  C   UNL A   1      38.981  31.073  29.965  1.00  0.00     0.014 A 
ATOM     37  C   UNL A   1      40.737  29.755  31.690  1.00  0.00     0.010 A 
ATOM     38  C   UNL A   1      40.250  30.705  29.518  1.00  0.00     0.010 A 
ATOM     39  C   UNL A   1      41.133  30.022  30.370  1.00  0.00    -0.014 A 
BRANCH  39  40
ATOM     40  C   UNL A   1      42.434  29.530  29.843  1.00  0.00     0.031 A 
ATOM     41  C   UNL A   1      43.623  30.446  29.748  1.00  0.00     0.074 A 
ATOM     42  C   UNL A   1      42.515  28.265  29.379  1.00  0.00     0.049 A 
ATOM     43  N   UNL A   1      44.806  30.210  29.243  1.00  0.00    -0.248 NA
ATOM     44  C   UNL A   1      43.457  31.808  30.277  1.00  0.00     0.031 C 
ATOM     45  C   UNL A   1      41.417  27.295  29.376  1.00  0.00     0.029 A 
ATOM     46  N   UNL A   1      43.559  27.582  28.805  1.00  0.00    -0.354 N 
ATOM     47  C   UNL A   1      45.525  31.390  29.388  1.00  0.00     0.074 A 
ATOM     48  C   UNL A   1      44.630  32.356  29.989  1.00  0.00     0.031 C 
ATOM     49  C   UNL A   1      41.848  26.142  28.842  1.00  0.00     0.029 A 
ATOM     50  C   UNL A   1      43.234  26.301  28.419  1.00  0.00     0.049 A 
ATOM     51  H   UNL A   1      44.455  27.970  28.683  1.00  0.00     0.167 HD
ATOM     52  C   UNL A   1      46.817  31.637  29.066  1.00  0.00     0.037 A 
ATOM     53  C   UNL A   1      43.962  25.368  27.774  1.00  0.00     0.037 A 
ATOM     54  C   UNL A   1      47.703  30.667  28.474  1.00  0.00     0.049 A 
ATOM     55  C   UNL A   1      45.382  25.685  27.389  1.00  0.00     0.074 A 
ATOM     56  C   UNL A   1      49.044  30.806  28.160  1.00  0.00     0.029 A 
ATOM     57  N   UNL A   1      47.338  29.383  28.094  1.00  0.00    -0.354 N 
ATOM     58  N   UNL A   1      46.068  26.783  27.602  1.00  0.00    -0.248 NA
ATOM     59  C   UNL A   1      46.127  24.641  26.673  1.00  0.00     0.031 C 
ATOM     60  C   UNL A   1      49.475  29.628  27.544  1.00  0.00     0.029 A 
ATOM     61  C   UNL A   1      48.419  28.733  27.520  1.00  0.00     0.049 A 
ATOM     62  H   UNL A   1      46.442  28.992  28.214  1.00  0.00     0.167 HD
ATOM     63  C   UNL A   1      47.329  26.554  27.062  1.00  0.00     0.074 A 
ATOM     64  C   UNL A   1      47.319  25.204  26.536  1.00  0.00     0.031 C 
ATOM     65  C   UNL A   1      48.396  27.387  27.001  1.00  0.00     0.037 A 
BRANCH  52  66
ATOM     66  C   UNL A   1      47.366  33.009  29.353  1.00  0.00     0.058 A 
ATOM     67  C   UNL A   1      48.039  33.295  30.552  1.00  0.00     0.135 A 
ATOM     68  C   UNL A   1      47.286  34.028  28.390  1.00  0.00     0.135 A 
ATOM     69  F   UNL A   1      48.134  32.362  31.513  1.00  0.00    -0.206 F 
ATOM     70  C   UNL A   1      48.600  34.545  30.792  1.00  0.00     0.059 A 
ATOM     71  C   UNL A   1      47.863  35.279  28.598  1.00  0.00     0.059 A 
ATOM     72  F   UNL A   1      46.654  33.811  27.225  1.00  0.00    -0.206 F 
ATOM     73  C   UNL A   1      48.510  35.529  29.806  1.00  0.00     0.060 A 
BRANCH  73  74
ATOM     74  S   UNL A   1      49.273  37.135  30.124  1.00  0.00     0.124 S 
ATOM     75  O   UNL A   1      48.313  37.737  31.046  1.00  0.00    -0.237 OA
ATOM     76  O   UNL A   1      50.558  36.760  30.705  1.00  0.00    -0.237 OA
ATOM     77  O   UNL A   1      49.340  37.750  28.801  1.00  0.00    -0.744 OA
ENDBRANCH  73  74
ENDBRANCH  52  66
BRANCH  53  78
ATOM     78  C   UNL A   1      43.360  24.047  27.439  1.00  0.00     0.058 A 
ATOM     79  C   UNL A   1      43.239  23.040  28.407  1.00  0.00     0.135 A 
ATOM     80  C   UNL A   1      42.906  23.762  26.141  1.00  0.00     0.135 A 
ATOM     81  F   UNL A   1      43.667  23.259  29.660  1.00  0.00    -0.206 F 
ATOM     82  C   UNL A   1      42.713  21.789  28.097  1.00  0.00     0.059 A 
ATOM     83  C   UNL A   1      42.349  22.530  25.815  1.00  0.00     0.059 A 
ATOM     84  F   UNL A   1      42.982  24.695  25.179  1.00  0.00    -0.206 F 
ATOM     85  C   UNL A   1      42.271  21.544  26.796  1.00  0.00     0.060 A 
BRANCH  85  86
ATOM     86  S   UNL A   1      41.566  19.928  26.408  1.00  0.00     0.124 S 
ATOM     87  O   UNL A   1      41.848  19.183  27.629  1.00  0.00    -0.237 OA
ATOM     88  O   UNL A   1      40.164  20.254  26.167  1.00  0.00    -0.237 OA
ATOM     89  O   UNL A   1      42.317  19.511  25.226  1.00  0.00    -0.744 OA
ENDBRANCH  85  86
ENDBRANCH  53  78
BRANCH  65  90
ATOM     90  C   UNL A   1      49.648  26.863  26.353  1.00  0.00     0.058 A 
ATOM     91  C   UNL A   1      49.911  27.068  24.989  1.00  0.00     0.135 A 
ATOM     92  C   UNL A   1      50.621  26.195  27.114  1.00  0.00     0.135 A 
ATOM     93  F   UNL A   1      49.010  27.691  24.214  1.00  0.00    -0.206 F 
ATOM     94  C   UNL A   1      51.085  26.613  24.399  1.00  0.00     0.059 A 
ATOM     95  C   UNL A   1      51.816  25.758  26.551  1.00  0.00     0.059 A 
ATOM     96  F   UNL A   1      50.424  25.979  28.424  1.00  0.00    -0.206 F 
ATOM     97  C   UNL A   1      52.035  25.964  25.190  1.00  0.00     0.060 A 
BRANCH  97  98
ATOM     98  S   UNL A   1      53.573  25.419  24.417  1.00  0.00     0.124 S 
ATOM     99  O   UNL A   1      53.576  23.996  24.738  1.00  0.00    -0.237 OA
ATOM    100  O   UNL A   1      53.351  25.752  23.014  1.00  0.00    -0.237 OA
ATOM    101  O   UNL A   1      54.593  26.216  25.091  1.00  0.00    -0.744 OA
ENDBRANCH  97  98
ENDBRANCH  65  90
ENDBRANCH  39  40
ENDBRANCH  31  34
ENDBRANCH  29  30
ENDBRANCH  28  29
ENDBRANCH  27  28
ENDBRANCH   1  27
TORSDOF 19
ENDMDL
MODEL 2
REMARK VINA RESULT:     -10.9      0.444      8.141
REMARK SMILES CCNC(=O)c1cccc(-c2ccc(Cl)c(C(=O)NCCCCCCNC(=O)c3ccc(-c4c5nc(c(-c6c(F)cc(S(=O)(=O)[O-])cc6F)c6ccc([nH]6)c(-c6c(F)cc(S(=O)(=O)[O-])cc6F)c6nc(c(-c7c(F)cc(S(=O)(=O)[O-])cc7F)c7ccc4[nH]7)C=C6)C=C5)cc3)c2)c1
REMARK SMILES IDX 22 1 21 2 20 3 19 4 17 5 18 6 16 8 11 9 12 10 95 11 13 12
REMARK SMILES IDX 14 13 15 14 10 15 6 16 7 17 96 18 8 19 9 20 4 21 3 22 5 24
REMARK SMILES IDX 2 25 1 26 23 27 24 28 25 29 26 30 27 31 28 33 29 34 30 35
REMARK SMILES IDX 94 36 31 37 93 38 32 39 33 40 34 41 87 42 35 43 92 44 86 45
REMARK SMILES IDX 88 46 36 47 91 48 85 49 84 50 37 52 71 53 50 54 70 55 51 56
REMARK SMILES IDX 54 57 69 58 89 59 52 60 53 61 68 63 90 64 55 65 38 66 39 67
REMARK SMILES IDX 48 68 40 69 41 70 47 71 49 72 42 73 43 74 44 75 45 76 46 77
REMARK SMILES IDX 72 78 73 79 82 80 74 81 75 82 81 83 83 84 76 85 77 86 78 87
REMARK SMILES IDX 79 88 80 89 56 90 57 91 66 92 58 93 59 94 65 95 67 96 60 97
REMARK SMILES IDX 61 98 62 99 63 100 64 101
REMARK H PARENT 19 7 3 23 26 32 88 51 54 62
REMARK Flexibility Score: inf
ROOT
ATOM      1  C   UNL A   1      34.365  28.699  26.867  1.00  0.00     0.002 C 
ENDROOT
BRANCH   1   2
ATOM      2  C   UNL A   1      33.115  29.539  27.110  1.00  0.00     0.021 C 
BRANCH   2   3
ATOM      3  C   UNL A   1      32.424  30.120  25.884  1.00  0.00     0.116 C 
BRANCH   3   4
ATOM      4  N   UNL A   1      33.022  29.760  24.602  1.00  0.00    -0.352 N 
ATOM      5  C   UNL A   1      32.732  28.771  23.676  1.00  0.00     0.252 C 
ATOM      6  O   UNL A   1      33.353  28.801  22.615  1.00  0.00    -0.269 OA
ATOM      7  H   UNL A   1      33.781  30.331  24.345  1.00  0.00     0.163 HD
BRANCH   5   8
ATOM      8  C   UNL A   1      31.728  27.691  23.935  1.00  0.00     0.059 A 
ATOM      9  C   UNL A   1      31.365  25.292  24.333  1.00  0.00    -0.017 A 
ATOM     10  C   UNL A   1      29.998  25.479  24.109  1.00  0.00     0.010 A 
ATOM     11  C   UNL A   1      32.168  26.443  24.387  1.00  0.00     0.024 A 
ATOM     12  C   UNL A   1      29.492  26.754  23.840  1.00  0.00     0.022 A 
ATOM     13  C   UNL A   1      30.356  27.851  23.702  1.00  0.00     0.053 A 
ATOM     14  Cl  UNL A   1      29.619  29.332  23.201  1.00  0.00    -0.083 Cl
BRANCH   9  15
ATOM     15  C   UNL A   1      31.992  23.953  24.369  1.00  0.00    -0.018 A 
ATOM     16  C   UNL A   1      33.508  22.340  25.411  1.00  0.00     0.040 A 
ATOM     17  C   UNL A   1      33.405  21.498  24.302  1.00  0.00     0.014 A 
ATOM     18  C   UNL A   1      32.839  23.569  25.420  1.00  0.00     0.022 A 
ATOM     19  C   UNL A   1      32.586  21.862  23.237  1.00  0.00     0.001 A 
ATOM     20  C   UNL A   1      31.881  23.070  23.277  1.00  0.00     0.009 A 
BRANCH  16  21
ATOM     21  C   UNL A   1      34.421  21.963  26.511  1.00  0.00     0.251 C 
ATOM     22  N   UNL A   1      35.767  22.214  26.428  1.00  0.00    -0.352 N 
ATOM     23  H   UNL A   1      36.301  21.835  27.162  1.00  0.00     0.163 HD
ATOM     24  O   UNL A   1      33.952  21.408  27.499  1.00  0.00    -0.269 OA
BRANCH  22  25
ATOM     25  C   UNL A   1      36.535  22.947  25.435  1.00  0.00     0.112 C 
ATOM     26  C   UNL A   1      37.201  22.016  24.441  1.00  0.00     0.027 C 
ENDBRANCH  22  25
ENDBRANCH  16  21
ENDBRANCH   9  15
ENDBRANCH   5   8
ENDBRANCH   3   4
ENDBRANCH   2   3
ENDBRANCH   1   2
BRANCH   1  27
ATOM     27  C   UNL A   1      35.701  29.319  27.280  1.00  0.00     0.002 C 
BRANCH  27  28
ATOM     28  C   UNL A   1      35.711  30.124  28.583  1.00  0.00     0.021 C 
BRANCH  28  29
ATOM     29  C   UNL A   1      36.201  29.384  29.826  1.00  0.00     0.116 C 
BRANCH  29  30
ATOM     30  N   UNL A   1      36.223  30.224  31.012  1.00  0.00    -0.352 N 
ATOM     31  C   UNL A   1      37.292  30.712  31.726  1.00  0.00     0.251 C 
ATOM     32  H   UNL A   1      35.338  30.483  31.357  1.00  0.00     0.163 HD
ATOM     33  O   UNL A   1      37.103  31.282  32.796  1.00  0.00    -0.269 OA
BRANCH  31  34
ATOM     34  C   UNL A   1      38.672  30.524  31.223  1.00  0.00     0.039 A 
ATOM     35  C   UNL A   1      39.592  29.842  32.024  1.00  0.00     0.014 A 
ATOM     36  C   UNL A   1      39.056  31.002  29.967  1.00  0.00     0.014 A 
ATOM     37  C   UNL A   1      40.867  29.559  31.527  1.00  0.00     0.010 A 
ATOM     38  C   UNL A   1      40.305  30.664  29.448  1.00  0.00     0.010 A 
ATOM     39  C   UNL A   1      41.215  29.919  30.215  1.00  0.00    -0.014 A 
BRANCH  39  40
ATOM     40  C   UNL A   1      42.493  29.463  29.606  1.00  0.00     0.031 A 
ATOM     41  C   UNL A   1      42.631  28.072  29.054  1.00  0.00     0.074 A 
ATOM     42  C   UNL A   1      43.557  30.294  29.621  1.00  0.00     0.049 A 
ATOM     43  N   UNL A   1      43.689  27.482  28.561  1.00  0.00    -0.248 NA
ATOM     44  C   UNL A   1      41.426  27.227  29.070  1.00  0.00     0.031 C 
ATOM     45  C   UNL A   1      43.560  31.653  30.169  1.00  0.00     0.029 A 
ATOM     46  N   UNL A   1      44.846  30.115  29.180  1.00  0.00    -0.354 N 
ATOM     47  C   UNL A   1      43.283  26.199  28.212  1.00  0.00     0.074 A 
ATOM     48  C   UNL A   1      41.890  26.082  28.591  1.00  0.00     0.031 C 
ATOM     49  C   UNL A   1      44.782  32.187  30.019  1.00  0.00     0.029 A 
ATOM     50  C   UNL A   1      45.664  31.197  29.412  1.00  0.00     0.049 A 
ATOM     51  H   UNL A   1      45.155  29.291  28.739  1.00  0.00     0.167 HD
ATOM     52  C   UNL A   1      44.002  25.218  27.615  1.00  0.00     0.037 A 
ATOM     53  C   UNL A   1      46.982  31.366  29.184  1.00  0.00     0.037 A 
ATOM     54  C   UNL A   1      45.387  25.347  27.236  1.00  0.00     0.049 A 
ATOM     55  C   UNL A   1      47.765  30.243  28.559  1.00  0.00     0.074 A 
ATOM     56  C   UNL A   1      46.186  24.429  26.577  1.00  0.00     0.029 A 
ATOM     57  N   UNL A   1      46.182  26.455  27.490  1.00  0.00    -0.354 N 
ATOM     58  N   UNL A   1      47.346  29.063  28.167  1.00  0.00    -0.248 NA
ATOM     59  C   UNL A   1      49.201  30.471  28.347  1.00  0.00     0.031 C 
ATOM     60  C   UNL A   1      47.475  24.959  26.480  1.00  0.00     0.029 A 
ATOM     61  C   UNL A   1      47.470  26.230  27.031  1.00  0.00     0.049 A 
ATOM     62  H   UNL A   1      45.876  27.280  27.932  1.00  0.00     0.167 HD
ATOM     63  C   UNL A   1      48.462  28.416  27.649  1.00  0.00     0.074 A 
ATOM     64  C   UNL A   1      49.568  29.345  27.752  1.00  0.00     0.031 C 
ATOM     65  C   UNL A   1      48.563  27.164  27.139  1.00  0.00     0.037 A 
BRANCH  52  66
ATOM     66  C   UNL A   1      43.309  23.916  27.320  1.00  0.00     0.058 A 
ATOM     67  C   UNL A   1      42.900  23.579  26.020  1.00  0.00     0.135 A 
ATOM     68  C   UNL A   1      43.119  22.961  28.332  1.00  0.00     0.135 A 
ATOM     69  F   UNL A   1      43.045  24.459  25.016  1.00  0.00    -0.206 F 
ATOM     70  C   UNL A   1      42.314  22.349  25.736  1.00  0.00     0.059 A 
ATOM     71  C   UNL A   1      42.559  21.713  28.066  1.00  0.00     0.059 A 
ATOM     72  F   UNL A   1      43.490  23.228  29.594  1.00  0.00    -0.206 F 
ATOM     73  C   UNL A   1      42.153  21.421  26.766  1.00  0.00     0.060 A 
BRANCH  73  74
ATOM     74  S   UNL A   1      41.420  19.818  26.370  1.00  0.00     0.124 S 
ATOM     75  O   UNL A   1      42.230  19.402  25.228  1.00  0.00    -0.237 OA
ATOM     76  O   UNL A   1      41.632  19.066  27.602  1.00  0.00    -0.237 OA
ATOM     77  O   UNL A   1      40.030  20.144  26.066  1.00  0.00    -0.744 OA
ENDBRANCH  73  74
ENDBRANCH  52  66
BRANCH  53  78
ATOM     78  C   UNL A   1      47.650  32.642  29.559  1.00  0.00     0.058 A 
ATOM     79  C   UNL A   1      47.746  33.704  28.649  1.00  0.00     0.135 A 
ATOM     80  C   UNL A   1      48.217  32.821  30.831  1.00  0.00     0.135 A 
ATOM     81  F   UNL A   1      47.228  33.581  27.417  1.00  0.00    -0.206 F 
ATOM     82  C   UNL A   1      48.401  34.889  28.974  1.00  0.00     0.059 A 
ATOM     83  C   UNL A   1      48.850  34.006  31.191  1.00  0.00     0.059 A 
ATOM     84  F   UNL A   1      48.140  31.844  31.748  1.00  0.00    -0.206 F 
ATOM     85  C   UNL A   1      48.950  35.030  30.250  1.00  0.00     0.060 A 
BRANCH  85  86
ATOM     86  S   UNL A   1      49.776  36.579  30.674  1.00  0.00     0.124 S 
ATOM     87  O   UNL A   1      49.580  36.629  32.118  1.00  0.00    -0.237 OA
ATOM     88  O   UNL A   1      51.141  36.333  30.222  1.00  0.00    -0.237 OA
ATOM     89  O   UNL A   1      49.036  37.574  29.902  1.00  0.00    -0.744 OA
ENDBRANCH  85  86
ENDBRANCH  53  78
BRANCH  65  90
ATOM     90  C   UNL A   1      49.913  26.726  26.641  1.00  0.00     0.058 A 
ATOM     91  C   UNL A   1      50.850  26.121  27.495  1.00  0.00     0.135 A 
ATOM     92  C   UNL A   1      50.256  26.863  25.286  1.00  0.00     0.135 A 
ATOM     93  F   UNL A   1      50.578  25.976  28.801  1.00  0.00    -0.206 F 
ATOM     94  C   UNL A   1      52.084  25.685  27.026  1.00  0.00     0.059 A 
ATOM     95  C   UNL A   1      51.472  26.406  24.790  1.00  0.00     0.059 A 
ATOM     96  F   UNL A   1      49.394  27.427  24.425  1.00  0.00    -0.206 F 
ATOM     97  C   UNL A   1      52.384  25.826  25.670  1.00  0.00     0.060 A 
BRANCH  97  98
ATOM     98  S   UNL A   1      53.973  25.214  25.070  1.00  0.00     0.124 S 
ATOM     99  O   UNL A   1      54.843  25.483  26.211  1.00  0.00    -0.237 OA
ATOM    100  O   UNL A   1      53.687  23.807  24.810  1.00  0.00    -0.237 OA
ATOM    101  O   UNL A   1      54.226  26.027  23.884  1.00  0.00    -0.744 OA
ENDBRANCH  97  98
ENDBRANCH  65  90
ENDBRANCH  39  40
ENDBRANCH  31  34
ENDBRANCH  29  30
ENDBRANCH  28  29
ENDBRANCH  27  28
ENDBRANCH   1  27
TORSDOF 19
ENDMDL
MODEL 3
REMARK VINA RESULT:     -10.7      5.971     11.607
REMARK SMILES CCNC(=O)c1cccc(-c2ccc(Cl)c(C(=O)NCCCCCCNC(=O)c3ccc(-c4c5nc(c(-c6c(F)cc(S(=O)(=O)[O-])cc6F)c6ccc([nH]6)c(-c6c(F)cc(S(=O)(=O)[O-])cc6F)c6nc(c(-c7c(F)cc(S(=O)(=O)[O-])cc7F)c7ccc4[nH]7)C=C6)C=C5)cc3)c2)c1
REMARK SMILES IDX 22 1 21 2 20 3 19 4 17 5 18 6 16 8 11 9 12 10 95 11 13 12
REMARK SMILES IDX 14 13 15 14 10 15 6 16 7 17 96 18 8 19 9 20 4 21 3 22 5 24
REMARK SMILES IDX 2 25 1 26 23 27 24 28 25 29 26 30 27 31 28 33 29 34 30 35
REMARK SMILES IDX 94 36 31 37 93 38 32 39 33 40 34 41 87 42 35 43 92 44 86 45
REMARK SMILES IDX 88 46 36 47 91 48 85 49 84 50 37 52 71 53 50 54 70 55 51 56
REMARK SMILES IDX 54 57 69 58 89 59 52 60 53 61 68 63 90 64 55 65 38 66 39 67
REMARK SMILES IDX 48 68 40 69 41 70 47 71 49 72 42 73 43 74 44 75 45 76 46 77
REMARK SMILES IDX 72 78 73 79 82 80 74 81 75 82 81 83 83 84 76 85 77 86 78 87
REMARK SMILES IDX 79 88 80 89 56 90 57 91 66 92 58 93 59 94 65 95 67 96 60 97
REMARK SMILES IDX 61 98 62 99 63 100 64 101
REMARK H PARENT 19 7 3 23 26 32 88 51 54 62
REMARK Flexibility Score: inf
ROOT
ATOM      1  C   UNL A   1      37.849  33.458  29.245  1.00  0.00     0.002 C 
ENDROOT
BRANCH   1   2
ATOM      2  C   UNL A   1      38.556  34.651  29.882  1.00  0.00     0.021 C 
BRANCH   2   3
ATOM      3  C   UNL A   1      39.979  34.937  29.420  1.00  0.00     0.116 C 
BRANCH   3   4
ATOM      4  N   UNL A   1      41.002  34.052  29.966  1.00  0.00    -0.352 N 
ATOM      5  C   UNL A   1      41.255  33.586  31.246  1.00  0.00     0.252 C 
ATOM      6  O   UNL A   1      42.138  32.739  31.368  1.00  0.00    -0.269 OA
ATOM      7  H   UNL A   1      41.638  33.719  29.292  1.00  0.00     0.163 HD
BRANCH   5   8
ATOM      8  C   UNL A   1      40.518  34.089  32.448  1.00  0.00     0.059 A 
ATOM      9  C   UNL A   1      38.327  34.408  33.517  1.00  0.00    -0.017 A 
ATOM     10  C   UNL A   1      38.925  35.254  34.455  1.00  0.00     0.010 A 
ATOM     11  C   UNL A   1      39.179  33.730  32.630  1.00  0.00     0.024 A 
ATOM     12  C   UNL A   1      40.302  35.488  34.420  1.00  0.00     0.022 A 
ATOM     13  C   UNL A   1      41.093  34.951  33.392  1.00  0.00     0.053 A 
ATOM     14  Cl  UNL A   1      42.745  35.458  33.369  1.00  0.00    -0.083 Cl
BRANCH   9  15
ATOM     15  C   UNL A   1      36.861  34.320  33.342  1.00  0.00    -0.018 A 
ATOM     16  C   UNL A   1      34.695  35.392  32.960  1.00  0.00     0.040 A 
ATOM     17  C   UNL A   1      34.030  34.206  33.275  1.00  0.00     0.014 A 
ATOM     18  C   UNL A   1      36.091  35.453  33.034  1.00  0.00     0.022 A 
ATOM     19  C   UNL A   1      34.767  33.071  33.602  1.00  0.00     0.001 A 
ATOM     20  C   UNL A   1      36.165  33.128  33.624  1.00  0.00     0.009 A 
BRANCH  16  21
ATOM     21  C   UNL A   1      33.896  36.601  32.664  1.00  0.00     0.251 C 
ATOM     22  N   UNL A   1      33.166  36.698  31.506  1.00  0.00    -0.352 N 
ATOM     23  H   UNL A   1      32.753  37.578  31.355  1.00  0.00     0.163 HD
ATOM     24  O   UNL A   1      33.908  37.524  33.470  1.00  0.00    -0.269 OA
BRANCH  22  25
ATOM     25  C   UNL A   1      32.902  35.717  30.467  1.00  0.00     0.112 C 
ATOM     26  C   UNL A   1      33.288  36.233  29.096  1.00  0.00     0.027 C 
ENDBRANCH  22  25
ENDBRANCH  16  21
ENDBRANCH   9  15
ENDBRANCH   5   8
ENDBRANCH   3   4
ENDBRANCH   2   3
ENDBRANCH   1   2
BRANCH   1  27
ATOM     27  C   UNL A   1      36.731  32.807  30.062  1.00  0.00     0.002 C 
BRANCH  27  28
ATOM     28  C   UNL A   1      35.307  32.955  29.518  1.00  0.00     0.021 C 
BRANCH  28  29
ATOM     29  C   UNL A   1      35.176  33.057  28.000  1.00  0.00     0.116 C 
BRANCH  29  30
ATOM     30  N   UNL A   1      34.333  32.015  27.434  1.00  0.00    -0.352 N 
ATOM     31  C   UNL A   1      34.573  30.669  27.294  1.00  0.00     0.251 C 
ATOM     32  H   UNL A   1      33.459  32.321  27.100  1.00  0.00     0.163 HD
ATOM     33  O   UNL A   1      33.795  29.974  26.647  1.00  0.00    -0.269 OA
BRANCH  31  34
ATOM     34  C   UNL A   1      35.782  30.061  27.894  1.00  0.00     0.039 A 
ATOM     35  C   UNL A   1      37.005  30.202  27.232  1.00  0.00     0.014 A 
ATOM     36  C   UNL A   1      35.718  29.368  29.106  1.00  0.00     0.014 A 
ATOM     37  C   UNL A   1      38.175  29.730  27.831  1.00  0.00     0.010 A 
ATOM     38  C   UNL A   1      36.893  28.955  29.732  1.00  0.00     0.010 A 
ATOM     39  C   UNL A   1      38.137  29.152  29.110  1.00  0.00    -0.014 A 
BRANCH  39  40
ATOM     40  C   UNL A   1      39.388  28.816  29.841  1.00  0.00     0.031 A 
ATOM     41  C   UNL A   1      40.313  27.745  29.333  1.00  0.00     0.074 A 
ATOM     42  C   UNL A   1      39.648  29.437  31.011  1.00  0.00     0.049 A 
ATOM     43  N   UNL A   1      41.401  27.269  29.881  1.00  0.00    -0.248 NA
ATOM     44  C   UNL A   1      39.963  27.117  28.050  1.00  0.00     0.031 C 
ATOM     45  C   UNL A   1      38.804  30.463  31.629  1.00  0.00     0.029 A 
ATOM     46  N   UNL A   1      40.686  29.288  31.898  1.00  0.00    -0.354 N 
ATOM     47  C   UNL A   1      41.865  26.285  29.016  1.00  0.00     0.074 A 
ATOM     48  C   UNL A   1      40.915  26.201  27.927  1.00  0.00     0.031 C 
ATOM     49  C   UNL A   1      39.362  30.858  32.783  1.00  0.00     0.029 A 
ATOM     50  C   UNL A   1      40.575  30.083  33.015  1.00  0.00     0.049 A 
ATOM     51  H   UNL A   1      41.438  28.670  31.749  1.00  0.00     0.167 HD
ATOM     52  C   UNL A   1      42.989  25.535  29.114  1.00  0.00     0.037 A 
ATOM     53  C   UNL A   1      41.350  30.164  34.115  1.00  0.00     0.037 A 
ATOM     54  C   UNL A   1      43.933  25.630  30.199  1.00  0.00     0.049 A 
ATOM     55  C   UNL A   1      42.569  29.287  34.217  1.00  0.00     0.074 A 
ATOM     56  C   UNL A   1      45.128  24.951  30.360  1.00  0.00     0.029 A 
ATOM     57  N   UNL A   1      43.785  26.444  31.313  1.00  0.00    -0.354 N 
ATOM     58  N   UNL A   1      43.032  28.416  33.353  1.00  0.00    -0.248 NA
ATOM     59  C   UNL A   1      43.370  29.402  35.443  1.00  0.00     0.031 C 
ATOM     60  C   UNL A   1      45.676  25.314  31.594  1.00  0.00     0.029 A 
ATOM     61  C   UNL A   1      44.851  26.259  32.180  1.00  0.00     0.049 A 
ATOM     62  H   UNL A   1      43.034  27.062  31.466  1.00  0.00     0.167 HD
ATOM     63  C   UNL A   1      44.186  27.891  33.924  1.00  0.00     0.074 A 
ATOM     64  C   UNL A   1      44.365  28.562  35.195  1.00  0.00     0.031 C 
ATOM     65  C   UNL A   1      45.018  26.935  33.443  1.00  0.00     0.037 A 
BRANCH  52  66
ATOM     66  C   UNL A   1      43.275  24.547  28.016  1.00  0.00     0.058 A 
ATOM     67  C   UNL A   1      44.071  24.887  26.910  1.00  0.00     0.135 A 
ATOM     68  C   UNL A   1      42.814  23.223  28.105  1.00  0.00     0.135 A 
ATOM     69  F   UNL A   1      44.529  26.142  26.767  1.00  0.00    -0.206 F 
ATOM     70  C   UNL A   1      44.387  23.957  25.926  1.00  0.00     0.059 A 
ATOM     71  C   UNL A   1      43.139  22.268  27.145  1.00  0.00     0.059 A 
ATOM     72  F   UNL A   1      42.049  22.842  29.140  1.00  0.00    -0.206 F 
ATOM     73  C   UNL A   1      43.920  22.648  26.055  1.00  0.00     0.060 A 
BRANCH  73  74
ATOM     74  S   UNL A   1      44.368  21.446  24.783  1.00  0.00     0.124 S 
ATOM     75  O   UNL A   1      44.150  22.219  23.563  1.00  0.00    -0.237 OA
ATOM     76  O   UNL A   1      45.760  21.155  25.107  1.00  0.00    -0.237 OA
ATOM     77  O   UNL A   1      43.431  20.349  25.004  1.00  0.00    -0.744 OA
ENDBRANCH  73  74
ENDBRANCH  52  66
BRANCH  53  78
ATOM     78  C   UNL A   1      40.993  31.100  35.217  1.00  0.00     0.058 A 
ATOM     79  C   UNL A   1      39.846  30.896  35.998  1.00  0.00     0.135 A 
ATOM     80  C   UNL A   1      41.784  32.225  35.503  1.00  0.00     0.135 A 
ATOM     81  F   UNL A   1      39.052  29.841  35.760  1.00  0.00    -0.206 F 
ATOM     82  C   UNL A   1      39.481  31.784  37.006  1.00  0.00     0.059 A 
ATOM     83  C   UNL A   1      41.456  33.110  36.524  1.00  0.00     0.059 A 
ATOM     84  F   UNL A   1      42.902  32.460  34.798  1.00  0.00    -0.206 F 
ATOM     85  C   UNL A   1      40.294  32.889  37.261  1.00  0.00     0.060 A 
BRANCH  85  86
ATOM     86  S   UNL A   1      39.828  34.023  38.587  1.00  0.00     0.124 S 
ATOM     87  O   UNL A   1      38.735  33.298  39.224  1.00  0.00    -0.237 OA
ATOM     88  O   UNL A   1      41.065  34.121  39.356  1.00  0.00    -0.237 OA
ATOM     89  O   UNL A   1      39.447  35.238  37.870  1.00  0.00    -0.744 OA
ENDBRANCH  85  86
ENDBRANCH  53  78
BRANCH  65  90
ATOM     90  C   UNL A   1      46.208  26.563  34.286  1.00  0.00     0.058 A 
ATOM     91  C   UNL A   1      46.152  25.507  35.209  1.00  0.00     0.135 A 
ATOM     92  C   UNL A   1      47.431  27.235  34.133  1.00  0.00     0.135 A 
ATOM     93  F   UNL A   1      45.004  24.839  35.404  1.00  0.00    -0.206 F 
ATOM     94  C   UNL A   1      47.261  25.142  35.963  1.00  0.00     0.059 A 
ATOM     95  C   UNL A   1      48.562  26.867  34.854  1.00  0.00     0.059 A 
ATOM     96  F   UNL A   1      47.542  28.247  33.258  1.00  0.00    -0.206 F 
ATOM     97  C   UNL A   1      48.465  25.824  35.775  1.00  0.00     0.060 A 
BRANCH  97  98
ATOM     98  S   UNL A   1      49.907  25.308  36.729  1.00  0.00     0.124 S 
ATOM     99  O   UNL A   1      49.287  24.582  37.833  1.00  0.00    -0.237 OA
ATOM    100  O   UNL A   1      50.642  24.491  35.768  1.00  0.00    -0.237 OA
ATOM    101  O   UNL A   1      50.547  26.570  37.090  1.00  0.00    -0.744 OA
ENDBRANCH  97  98
ENDBRANCH  65  90
ENDBRANCH  39  40
ENDBRANCH  31  34
ENDBRANCH  29  30
ENDBRANCH  28  29
ENDBRANCH  27  28
ENDBRANCH   1  27
TORSDOF 19
ENDMDL
