MODEL 1
REMARK VINA RESULT:     -11.8      0.000      0.000
REMARK SMILES CC(C)c1ccc([C@]2(C(=O)NCCCCCCNC(=O)c3ccc(-c4c5nc(c(-c6c(F)cc(S(=O)(=O)[O-])cc6F)c6ccc([nH]6)c(-c6c(F)cc(S(=O)(=O)[O-])cc6F)c6nc(c(-c7c(F)cc(S(=O)(=O)[O-])cc7F)c7ccc4[nH]7)C=C6)C=C5)cc3)CCC[C@@H]2C)cc1
REMARK SMILES IDX 15 1 14 2 13 3 12 4 11 5 9 6 10 7 8 9 87 10 90 11 88 12
REMARK SMILES IDX 89 13 91 14 7 15 4 16 5 17 93 18 6 19 92 20 2 21 1 22 3 23
REMARK SMILES IDX 16 24 17 25 18 26 19 27 20 29 21 30 22 31 86 32 23 33 85 34
REMARK SMILES IDX 24 35 25 36 26 37 79 38 27 39 84 40 78 41 80 42 28 43 83 44
REMARK SMILES IDX 77 45 76 46 29 48 63 49 42 50 62 51 43 52 46 53 61 54 81 55
REMARK SMILES IDX 44 56 45 57 60 59 82 60 47 61 30 62 31 63 40 64 32 65 33 66
REMARK SMILES IDX 39 67 41 68 34 69 35 70 36 71 37 72 38 73 64 74 65 75 74 76
REMARK SMILES IDX 66 77 67 78 73 79 75 80 68 81 69 82 70 83 71 84 72 85 48 86
REMARK SMILES IDX 49 87 58 88 50 89 51 90 57 91 59 92 52 93 53 94 54 95 55 96
REMARK SMILES IDX 56 97
REMARK H PARENT 11 8 18 28 80 47 46 58
REMARK Flexibility Score: inf
ROOT
ATOM      1  C   UNL A   1      38.729  23.472  26.557  1.00  0.00     0.002 C 
ENDROOT
BRANCH   1   2
ATOM      2  C   UNL A   1      37.412  22.866  26.054  1.00  0.00     0.002 C 
BRANCH   2   3
ATOM      3  C   UNL A   1      36.985  23.284  24.650  1.00  0.00     0.021 C 
BRANCH   3   4
ATOM      4  C   UNL A   1      35.825  24.264  24.592  1.00  0.00     0.116 C 
BRANCH   4   5
ATOM      5  N   UNL A   1      34.875  24.157  25.666  1.00  0.00    -0.355 N 
ATOM      6  C   UNL A   1      33.746  23.411  25.811  1.00  0.00     0.230 C 
ATOM      7  O   UNL A   1      33.436  23.245  27.002  1.00  0.00    -0.274 OA
ATOM      8  H   UNL A   1      35.078  24.729  26.440  1.00  0.00     0.163 HD
BRANCH   6   9
ATOM      9  C   UNL A   1      32.836  22.810  24.636  1.00  0.00     0.077 C 
ATOM     10  C   UNL A   1      31.316  23.000  24.896  1.00  0.00     0.022 C 
ATOM     11  C   UNL A   1      33.030  23.528  23.240  1.00  0.00     0.006 C 
ATOM     12  C   UNL A   1      30.805  24.126  23.986  1.00  0.00     0.002 C 
ATOM     13  C   UNL A   1      32.007  24.672  23.219  1.00  0.00     0.005 C 
ATOM     14  C   UNL A   1      32.718  22.740  21.945  1.00  0.00     0.009 C 
BRANCH   9  15
ATOM     15  C   UNL A   1      33.202  21.294  24.618  1.00  0.00    -0.032 A 
ATOM     16  C   UNL A   1      33.881  18.512  24.599  1.00  0.00    -0.045 A 
ATOM     17  C   UNL A   1      34.861  19.504  24.733  1.00  0.00     0.004 A 
ATOM     18  C   UNL A   1      32.547  18.934  24.544  1.00  0.00     0.004 A 
ATOM     19  C   UNL A   1      34.520  20.857  24.809  1.00  0.00     0.005 A 
ATOM     20  C   UNL A   1      32.213  20.299  24.547  1.00  0.00     0.005 A 
BRANCH  16  21
ATOM     21  C   UNL A   1      34.313  17.055  24.499  1.00  0.00     0.013 C 
ATOM     22  C   UNL A   1      33.494  16.153  25.434  1.00  0.00     0.012 C 
ATOM     23  C   UNL A   1      34.282  16.459  23.087  1.00  0.00     0.012 C 
ENDBRANCH  16  21
ENDBRANCH   9  15
ENDBRANCH   6   9
ENDBRANCH   4   5
ENDBRANCH   3   4
ENDBRANCH   2   3
ENDBRANCH   1   2
BRANCH   1  24
ATOM     24  C   UNL A   1      39.889  22.490  26.760  1.00  0.00     0.021 C 
BRANCH  24  25
ATOM     25  C   UNL A   1      41.234  23.133  27.088  1.00  0.00     0.116 C 
BRANCH  25  26
ATOM     26  N   UNL A   1      41.706  23.987  26.010  1.00  0.00    -0.352 N 
ATOM     27  C   UNL A   1      41.827  25.354  25.961  1.00  0.00     0.251 C 
ATOM     28  H   UNL A   1      41.979  23.514  25.191  1.00  0.00     0.163 HD
ATOM     29  O   UNL A   1      42.025  25.912  24.887  1.00  0.00    -0.269 OA
BRANCH  27  30
ATOM     30  C   UNL A   1      41.708  26.149  27.201  1.00  0.00     0.039 A 
ATOM     31  C   UNL A   1      42.788  26.938  27.606  1.00  0.00     0.014 A 
ATOM     32  C   UNL A   1      40.539  26.109  27.966  1.00  0.00     0.014 A 
ATOM     33  C   UNL A   1      42.668  27.745  28.739  1.00  0.00     0.010 A 
ATOM     34  C   UNL A   1      40.398  26.962  29.058  1.00  0.00     0.010 A 
ATOM     35  C   UNL A   1      41.457  27.796  29.448  1.00  0.00    -0.014 A 
BRANCH  35  36
ATOM     36  C   UNL A   1      41.259  28.753  30.568  1.00  0.00     0.031 A 
ATOM     37  C   UNL A   1      42.062  28.619  31.833  1.00  0.00     0.074 A 
ATOM     38  C   UNL A   1      40.286  29.683  30.473  1.00  0.00     0.049 A 
ATOM     39  N   UNL A   1      41.957  29.293  32.949  1.00  0.00    -0.248 NA
ATOM     40  C   UNL A   1      43.104  27.579  31.857  1.00  0.00     0.031 C 
ATOM     41  C   UNL A   1      39.408  29.870  29.315  1.00  0.00     0.029 A 
ATOM     42  N   UNL A   1      39.853  30.626  31.371  1.00  0.00    -0.354 N 
ATOM     43  C   UNL A   1      42.897  28.746  33.814  1.00  0.00     0.074 A 
ATOM     44  C   UNL A   1      43.545  27.665  33.105  1.00  0.00     0.031 C 
ATOM     45  C   UNL A   1      38.546  30.868  29.572  1.00  0.00     0.029 A 
ATOM     46  C   UNL A   1      38.775  31.359  30.927  1.00  0.00     0.049 A 
ATOM     47  H   UNL A   1      40.273  30.766  32.250  1.00  0.00     0.167 HD
ATOM     48  C   UNL A   1      43.195  29.124  35.080  1.00  0.00     0.037 A 
ATOM     49  C   UNL A   1      38.036  32.298  31.548  1.00  0.00     0.037 A 
ATOM     50  C   UNL A   1      42.568  30.226  35.760  1.00  0.00     0.049 A 
ATOM     51  C   UNL A   1      38.389  32.690  32.960  1.00  0.00     0.074 A 
ATOM     52  C   UNL A   1      42.876  30.753  37.003  1.00  0.00     0.029 A 
ATOM     53  N   UNL A   1      41.498  30.959  35.269  1.00  0.00    -0.354 N 
ATOM     54  N   UNL A   1      39.355  32.237  33.722  1.00  0.00    -0.248 NA
ATOM     55  C   UNL A   1      37.552  33.716  33.597  1.00  0.00     0.031 C 
ATOM     56  C   UNL A   1      41.952  31.761  37.291  1.00  0.00     0.029 A 
ATOM     57  C   UNL A   1      41.103  31.902  36.204  1.00  0.00     0.049 A 
ATOM     58  H   UNL A   1      41.081  30.829  34.387  1.00  0.00     0.167 HD
ATOM     59  C   UNL A   1      39.253  32.935  34.919  1.00  0.00     0.074 A 
ATOM     60  C   UNL A   1      38.147  33.857  34.774  1.00  0.00     0.031 C 
ATOM     61  C   UNL A   1      40.003  32.817  36.043  1.00  0.00     0.037 A 
BRANCH  48  62
ATOM     62  C   UNL A   1      44.243  28.348  35.830  1.00  0.00     0.058 A 
ATOM     63  C   UNL A   1      45.604  28.679  35.755  1.00  0.00     0.135 A 
ATOM     64  C   UNL A   1      43.865  27.324  36.715  1.00  0.00     0.135 A 
ATOM     65  F   UNL A   1      46.023  29.639  34.915  1.00  0.00    -0.206 F 
ATOM     66  C   UNL A   1      46.556  28.020  36.528  1.00  0.00     0.059 A 
ATOM     67  C   UNL A   1      44.795  26.670  37.517  1.00  0.00     0.059 A 
ATOM     68  F   UNL A   1      42.576  26.967  36.822  1.00  0.00    -0.206 F 
ATOM     69  C   UNL A   1      46.139  27.023  37.413  1.00  0.00     0.060 A 
BRANCH  69  70
ATOM     70  S   UNL A   1      47.381  26.216  38.446  1.00  0.00     0.124 S 
ATOM     71  O   UNL A   1      48.430  25.931  37.473  1.00  0.00    -0.237 OA
ATOM     72  O   UNL A   1      47.690  27.253  39.426  1.00  0.00    -0.237 OA
ATOM     73  O   UNL A   1      46.681  25.048  38.972  1.00  0.00    -0.744 OA
ENDBRANCH  69  70
ENDBRANCH  48  62
BRANCH  49  74
ATOM     74  C   UNL A   1      36.869  32.915  30.859  1.00  0.00     0.058 A 
ATOM     75  C   UNL A   1      37.038  33.960  29.938  1.00  0.00     0.135 A 
ATOM     76  C   UNL A   1      35.558  32.488  31.127  1.00  0.00     0.135 A 
ATOM     77  F   UNL A   1      38.270  34.407  29.651  1.00  0.00    -0.206 F 
ATOM     78  C   UNL A   1      35.950  34.582  29.334  1.00  0.00     0.059 A 
ATOM     79  C   UNL A   1      34.456  33.074  30.512  1.00  0.00     0.059 A 
ATOM     80  F   UNL A   1      35.340  31.480  31.986  1.00  0.00    -0.206 F 
ATOM     81  C   UNL A   1      34.662  34.134  29.631  1.00  0.00     0.060 A 
BRANCH  81  82
ATOM     82  S   UNL A   1      33.256  34.942  28.837  1.00  0.00     0.124 S 
ATOM     83  O   UNL A   1      32.382  35.194  29.975  1.00  0.00    -0.237 OA
ATOM     84  O   UNL A   1      33.879  36.118  28.235  1.00  0.00    -0.237 OA
ATOM     85  O   UNL A   1      32.786  33.937  27.887  1.00  0.00    -0.744 OA
ENDBRANCH  81  82
ENDBRANCH  49  74
BRANCH  61  86
ATOM     86  C   UNL A   1      39.668  33.713  37.202  1.00  0.00     0.058 A 
ATOM     87  C   UNL A   1      38.855  33.273  38.258  1.00  0.00     0.135 A 
ATOM     88  C   UNL A   1      40.228  34.998  37.297  1.00  0.00     0.135 A 
ATOM     89  F   UNL A   1      38.287  32.058  38.211  1.00  0.00    -0.206 F 
ATOM     90  C   UNL A   1      38.604  34.077  39.365  1.00  0.00     0.059 A 
ATOM     91  C   UNL A   1      40.014  35.807  38.408  1.00  0.00     0.059 A 
ATOM     92  F   UNL A   1      41.018  35.466  36.316  1.00  0.00    -0.206 F 
ATOM     93  C   UNL A   1      39.196  35.339  39.435  1.00  0.00     0.060 A 
BRANCH  93  94
ATOM     94  S   UNL A   1      38.912  36.344  40.907  1.00  0.00     0.124 S 
ATOM     95  O   UNL A   1      38.540  37.628  40.321  1.00  0.00    -0.237 OA
ATOM     96  O   UNL A   1      37.838  35.617  41.577  1.00  0.00    -0.237 OA
ATOM     97  O   UNL A   1      40.201  36.318  41.591  1.00  0.00    -0.744 OA
ENDBRANCH  93  94
ENDBRANCH  61  86
ENDBRANCH  35  36
ENDBRANCH  27  30
ENDBRANCH  25  26
ENDBRANCH  24  25
ENDBRANCH   1  24
TORSDOF 18
ENDMDL
MODEL 2
REMARK VINA RESULT:     -11.8      5.571     12.447
REMARK SMILES CC(C)c1ccc([C@]2(C(=O)NCCCCCCNC(=O)c3ccc(-c4c5nc(c(-c6c(F)cc(S(=O)(=O)[O-])cc6F)c6ccc([nH]6)c(-c6c(F)cc(S(=O)(=O)[O-])cc6F)c6nc(c(-c7c(F)cc(S(=O)(=O)[O-])cc7F)c7ccc4[nH]7)C=C6)C=C5)cc3)CCC[C@@H]2C)cc1
REMARK SMILES IDX 15 1 14 2 13 3 12 4 11 5 9 6 10 7 8 9 87 10 90 11 88 12
REMARK SMILES IDX 89 13 91 14 7 15 4 16 5 17 93 18 6 19 92 20 2 21 1 22 3 23
REMARK SMILES IDX 16 24 17 25 18 26 19 27 20 29 21 30 22 31 86 32 23 33 85 34
REMARK SMILES IDX 24 35 25 36 26 37 79 38 27 39 84 40 78 41 80 42 28 43 83 44
REMARK SMILES IDX 77 45 76 46 29 48 63 49 42 50 62 51 43 52 46 53 61 54 81 55
REMARK SMILES IDX 44 56 45 57 60 59 82 60 47 61 30 62 31 63 40 64 32 65 33 66
REMARK SMILES IDX 39 67 41 68 34 69 35 70 36 71 37 72 38 73 64 74 65 75 74 76
REMARK SMILES IDX 66 77 67 78 73 79 75 80 68 81 69 82 70 83 71 84 72 85 48 86
REMARK SMILES IDX 49 87 58 88 50 89 51 90 57 91 59 92 52 93 53 94 54 95 55 96
REMARK SMILES IDX 56 97
REMARK H PARENT 11 8 18 28 80 47 46 58
REMARK Flexibility Score: inf
ROOT
ATOM      1  C   UNL A   1      36.050  33.376  31.231  1.00  0.00     0.002 C 
ENDROOT
BRANCH   1   2
ATOM      2  C   UNL A   1      37.109  32.373  31.707  1.00  0.00     0.002 C 
BRANCH   2   3
ATOM      3  C   UNL A   1      36.634  31.343  32.728  1.00  0.00     0.021 C 
BRANCH   3   4
ATOM      4  C   UNL A   1      37.681  30.329  33.158  1.00  0.00     0.116 C 
BRANCH   4   5
ATOM      5  N   UNL A   1      37.825  30.158  34.579  1.00  0.00    -0.355 N 
ATOM      6  C   UNL A   1      38.679  30.714  35.480  1.00  0.00     0.230 C 
ATOM      7  O   UNL A   1      38.238  30.673  36.640  1.00  0.00    -0.274 OA
ATOM      8  H   UNL A   1      37.187  29.520  34.972  1.00  0.00     0.163 HD
BRANCH   6   9
ATOM      9  C   UNL A   1      40.125  31.336  35.174  1.00  0.00     0.077 C 
ATOM     10  C   UNL A   1      40.126  32.275  33.935  1.00  0.00     0.022 C 
ATOM     11  C   UNL A   1      40.671  32.286  36.314  1.00  0.00     0.006 C 
ATOM     12  C   UNL A   1      40.198  33.728  34.427  1.00  0.00     0.002 C 
ATOM     13  C   UNL A   1      40.174  33.692  35.953  1.00  0.00     0.005 C 
ATOM     14  C   UNL A   1      42.200  32.469  36.465  1.00  0.00     0.009 C 
BRANCH   9  15
ATOM     15  C   UNL A   1      41.021  30.088  34.914  1.00  0.00    -0.032 A 
ATOM     16  C   UNL A   1      42.656  27.785  34.440  1.00  0.00    -0.045 A 
ATOM     17  C   UNL A   1      42.033  27.998  35.676  1.00  0.00     0.004 A 
ATOM     18  C   UNL A   1      42.390  28.708  33.421  1.00  0.00     0.004 A 
ATOM     19  C   UNL A   1      41.182  29.087  35.882  1.00  0.00     0.005 A 
ATOM     20  C   UNL A   1      41.594  29.842  33.655  1.00  0.00     0.005 A 
BRANCH  16  21
ATOM     21  C   UNL A   1      43.590  26.593  34.279  1.00  0.00     0.013 C 
ATOM     22  C   UNL A   1      42.976  25.307  34.853  1.00  0.00     0.012 C 
ATOM     23  C   UNL A   1      44.060  26.318  32.846  1.00  0.00     0.012 C 
ENDBRANCH  16  21
ENDBRANCH   9  15
ENDBRANCH   6   9
ENDBRANCH   4   5
ENDBRANCH   3   4
ENDBRANCH   2   3
ENDBRANCH   1   2
BRANCH   1  24
ATOM     24  C   UNL A   1      34.809  32.779  30.558  1.00  0.00     0.021 C 
BRANCH  24  25
ATOM     25  C   UNL A   1      34.855  32.736  29.033  1.00  0.00     0.116 C 
BRANCH  25  26
ATOM     26  N   UNL A   1      34.056  31.647  28.494  1.00  0.00    -0.352 N 
ATOM     27  C   UNL A   1      34.447  30.411  28.041  1.00  0.00     0.251 C 
ATOM     28  H   UNL A   1      33.089  31.823  28.447  1.00  0.00     0.163 HD
ATOM     29  O   UNL A   1      33.661  29.715  27.409  1.00  0.00    -0.269 OA
BRANCH  27  30
ATOM     30  C   UNL A   1      35.819  29.930  28.306  1.00  0.00     0.039 A 
ATOM     31  C   UNL A   1      36.781  30.037  27.298  1.00  0.00     0.014 A 
ATOM     32  C   UNL A   1      36.153  29.369  29.542  1.00  0.00     0.014 A 
ATOM     33  C   UNL A   1      38.097  29.648  27.555  1.00  0.00     0.010 A 
ATOM     34  C   UNL A   1      37.479  29.041  29.817  1.00  0.00     0.010 A 
ATOM     35  C   UNL A   1      38.465  29.189  28.831  1.00  0.00    -0.014 A 
BRANCH  35  36
ATOM     36  C   UNL A   1      39.885  28.906  29.168  1.00  0.00     0.031 A 
ATOM     37  C   UNL A   1      40.762  29.988  29.734  1.00  0.00     0.074 A 
ATOM     38  C   UNL A   1      40.400  27.695  28.872  1.00  0.00     0.049 A 
ATOM     39  N   UNL A   1      42.043  29.957  29.992  1.00  0.00    -0.248 NA
ATOM     40  C   UNL A   1      40.124  31.282  30.028  1.00  0.00     0.031 C 
ATOM     41  C   UNL A   1      39.657  26.584  28.271  1.00  0.00     0.029 A 
ATOM     42  N   UNL A   1      41.673  27.201  29.011  1.00  0.00    -0.354 N 
ATOM     43  C   UNL A   1      42.371  31.226  30.455  1.00  0.00     0.074 A 
ATOM     44  C   UNL A   1      41.160  32.015  30.415  1.00  0.00     0.031 C 
ATOM     45  C   UNL A   1      40.485  25.542  28.097  1.00  0.00     0.029 A 
ATOM     46  C   UNL A   1      41.826  25.921  28.527  1.00  0.00     0.049 A 
ATOM     47  H   UNL A   1      42.409  27.713  29.418  1.00  0.00     0.167 HD
ATOM     48  C   UNL A   1      43.572  31.682  30.882  1.00  0.00     0.037 A 
ATOM     49  C   UNL A   1      42.925  25.150  28.415  1.00  0.00     0.037 A 
ATOM     50  C   UNL A   1      44.761  30.874  30.952  1.00  0.00     0.049 A 
ATOM     51  C   UNL A   1      44.248  25.690  28.893  1.00  0.00     0.074 A 
ATOM     52  C   UNL A   1      45.998  31.215  31.471  1.00  0.00     0.029 A 
ATOM     53  N   UNL A   1      44.871  29.577  30.476  1.00  0.00    -0.354 N 
ATOM     54  N   UNL A   1      44.515  26.856  29.430  1.00  0.00    -0.248 NA
ATOM     55  C   UNL A   1      45.419  24.815  28.747  1.00  0.00     0.031 C 
ATOM     56  C   UNL A   1      46.873  30.148  31.250  1.00  0.00     0.029 A 
ATOM     57  C   UNL A   1      46.168  29.120  30.645  1.00  0.00     0.049 A 
ATOM     58  H   UNL A   1      44.136  29.057  30.077  1.00  0.00     0.167 HD
ATOM     59  C   UNL A   1      45.878  26.846  29.703  1.00  0.00     0.074 A 
ATOM     60  C   UNL A   1      46.377  25.551  29.293  1.00  0.00     0.031 C 
ATOM     61  C   UNL A   1      46.649  27.825  30.237  1.00  0.00     0.037 A 
BRANCH  48  62
ATOM     62  C   UNL A   1      43.680  33.119  31.311  1.00  0.00     0.058 A 
ATOM     63  C   UNL A   1      43.638  33.495  32.662  1.00  0.00     0.135 A 
ATOM     64  C   UNL A   1      43.932  34.123  30.359  1.00  0.00     0.135 A 
ATOM     65  F   UNL A   1      43.387  32.580  33.612  1.00  0.00    -0.206 F 
ATOM     66  C   UNL A   1      43.838  34.815  33.055  1.00  0.00     0.059 A 
ATOM     67  C   UNL A   1      44.161  35.443  30.731  1.00  0.00     0.059 A 
ATOM     68  F   UNL A   1      43.978  33.817  29.053  1.00  0.00    -0.206 F 
ATOM     69  C   UNL A   1      44.108  35.780  32.083  1.00  0.00     0.060 A 
BRANCH  69  70
ATOM     70  S   UNL A   1      44.418  37.477  32.617  1.00  0.00     0.124 S 
ATOM     71  O   UNL A   1      45.638  37.318  33.402  1.00  0.00    -0.237 OA
ATOM     72  O   UNL A   1      44.569  38.179  31.347  1.00  0.00    -0.237 OA
ATOM     73  O   UNL A   1      43.221  37.817  33.381  1.00  0.00    -0.744 OA
ENDBRANCH  69  70
ENDBRANCH  48  62
BRANCH  49  74
ATOM     74  C   UNL A   1      42.836  23.798  27.799  1.00  0.00     0.058 A 
ATOM     75  C   UNL A   1      42.960  23.621  26.412  1.00  0.00     0.135 A 
ATOM     76  C   UNL A   1      42.598  22.657  28.582  1.00  0.00     0.135 A 
ATOM     77  F   UNL A   1      43.183  24.679  25.619  1.00  0.00    -0.206 F 
ATOM     78  C   UNL A   1      42.820  22.369  25.822  1.00  0.00     0.059 A 
ATOM     79  C   UNL A   1      42.485  21.390  28.018  1.00  0.00     0.059 A 
ATOM     80  F   UNL A   1      42.489  22.766  29.916  1.00  0.00    -0.206 F 
ATOM     81  C   UNL A   1      42.577  21.260  26.634  1.00  0.00     0.060 A 
BRANCH  81  82
ATOM     82  S   UNL A   1      42.403  19.638  25.860  1.00  0.00     0.124 S 
ATOM     83  O   UNL A   1      42.768  18.750  26.957  1.00  0.00    -0.237 OA
ATOM     84  O   UNL A   1      40.996  19.632  25.472  1.00  0.00    -0.237 OA
ATOM     85  O   UNL A   1      43.350  19.694  24.750  1.00  0.00    -0.744 OA
ENDBRANCH  81  82
ENDBRANCH  49  74
BRANCH  61  86
ATOM     86  C   UNL A   1      48.112  27.535  30.426  1.00  0.00     0.058 A 
ATOM     87  C   UNL A   1      48.600  26.966  31.611  1.00  0.00     0.135 A 
ATOM     88  C   UNL A   1      49.025  27.757  29.381  1.00  0.00     0.135 A 
ATOM     89  F   UNL A   1      47.771  26.744  32.645  1.00  0.00    -0.206 F 
ATOM     90  C   UNL A   1      49.942  26.632  31.759  1.00  0.00     0.059 A 
ATOM     91  C   UNL A   1      50.365  27.404  29.495  1.00  0.00     0.059 A 
ATOM     92  F   UNL A   1      48.608  28.294  28.222  1.00  0.00    -0.206 F 
ATOM     93  C   UNL A   1      50.815  26.846  30.690  1.00  0.00     0.060 A 
BRANCH  93  94
ATOM     94  S   UNL A   1      52.540  26.348  30.875  1.00  0.00     0.124 S 
ATOM     95  O   UNL A   1      52.407  25.091  31.604  1.00  0.00    -0.237 OA
ATOM     96  O   UNL A   1      52.981  26.234  29.488  1.00  0.00    -0.237 OA
ATOM     97  O   UNL A   1      53.134  27.449  31.626  1.00  0.00    -0.744 OA
ENDBRANCH  93  94
ENDBRANCH  61  86
ENDBRANCH  35  36
ENDBRANCH  27  30
ENDBRANCH  25  26
ENDBRANCH  24  25
ENDBRANCH   1  24
TORSDOF 18
ENDMDL
MODEL 3
REMARK VINA RESULT:     -11.7      5.438     12.051
REMARK SMILES CC(C)c1ccc([C@]2(C(=O)NCCCCCCNC(=O)c3ccc(-c4c5nc(c(-c6c(F)cc(S(=O)(=O)[O-])cc6F)c6ccc([nH]6)c(-c6c(F)cc(S(=O)(=O)[O-])cc6F)c6nc(c(-c7c(F)cc(S(=O)(=O)[O-])cc7F)c7ccc4[nH]7)C=C6)C=C5)cc3)CCC[C@@H]2C)cc1
REMARK SMILES IDX 15 1 14 2 13 3 12 4 11 5 9 6 10 7 8 9 87 10 90 11 88 12
REMARK SMILES IDX 89 13 91 14 7 15 4 16 5 17 93 18 6 19 92 20 2 21 1 22 3 23
REMARK SMILES IDX 16 24 17 25 18 26 19 27 20 29 21 30 22 31 86 32 23 33 85 34
REMARK SMILES IDX 24 35 25 36 26 37 79 38 27 39 84 40 78 41 80 42 28 43 83 44
REMARK SMILES IDX 77 45 76 46 29 48 63 49 42 50 62 51 43 52 46 53 61 54 81 55
REMARK SMILES IDX 44 56 45 57 60 59 82 60 47 61 30 62 31 63 40 64 32 65 33 66
REMARK SMILES IDX 39 67 41 68 34 69 35 70 36 71 37 72 38 73 64 74 65 75 74 76
REMARK SMILES IDX 66 77 67 78 73 79 75 80 68 81 69 82 70 83 71 84 72 85 48 86
REMARK SMILES IDX 49 87 58 88 50 89 51 90 57 91 59 92 52 93 53 94 54 95 55 96
REMARK SMILES IDX 56 97
REMARK H PARENT 11 8 18 28 80 47 46 58
REMARK Flexibility Score: inf
ROOT
ATOM      1  C   UNL A   1      36.456  33.495  31.097  1.00  0.00     0.002 C 
ENDROOT
BRANCH   1   2
ATOM      2  C   UNL A   1      37.419  32.732  32.016  1.00  0.00     0.002 C 
BRANCH   2   3
ATOM      3  C   UNL A   1      36.816  31.553  32.774  1.00  0.00     0.021 C 
BRANCH   3   4
ATOM      4  C   UNL A   1      37.776  30.411  33.062  1.00  0.00     0.116 C 
BRANCH   4   5
ATOM      5  N   UNL A   1      37.891  30.039  34.447  1.00  0.00    -0.355 N 
ATOM      6  C   UNL A   1      38.756  30.426  35.423  1.00  0.00     0.230 C 
ATOM      7  O   UNL A   1      38.296  30.246  36.564  1.00  0.00    -0.274 OA
ATOM      8  H   UNL A   1      37.221  29.383  34.743  1.00  0.00     0.163 HD
BRANCH   6   9
ATOM      9  C   UNL A   1      40.232  31.018  35.219  1.00  0.00     0.077 C 
ATOM     10  C   UNL A   1      40.318  32.024  34.038  1.00  0.00     0.022 C 
ATOM     11  C   UNL A   1      40.753  31.883  36.436  1.00  0.00     0.006 C 
ATOM     12  C   UNL A   1      40.411  33.444  34.616  1.00  0.00     0.002 C 
ATOM     13  C   UNL A   1      40.316  33.323  36.135  1.00  0.00     0.005 C 
ATOM     14  C   UNL A   1      42.278  32.008  36.665  1.00  0.00     0.009 C 
BRANCH   9  15
ATOM     15  C   UNL A   1      41.102  29.757  34.927  1.00  0.00    -0.032 A 
ATOM     16  C   UNL A   1      42.690  27.433  34.397  1.00  0.00    -0.045 A 
ATOM     17  C   UNL A   1      42.241  27.734  35.689  1.00  0.00     0.004 A 
ATOM     18  C   UNL A   1      42.271  28.278  33.362  1.00  0.00     0.004 A 
ATOM     19  C   UNL A   1      41.411  28.831  35.933  1.00  0.00     0.005 A 
ATOM     20  C   UNL A   1      41.498  29.422  33.622  1.00  0.00     0.005 A 
BRANCH  16  21
ATOM     21  C   UNL A   1      43.610  26.237  34.194  1.00  0.00     0.013 C 
ATOM     22  C   UNL A   1      44.076  26.118  32.736  1.00  0.00     0.012 C 
ATOM     23  C   UNL A   1      44.839  26.194  35.109  1.00  0.00     0.012 C 
ENDBRANCH  16  21
ENDBRANCH   9  15
ENDBRANCH   6   9
ENDBRANCH   4   5
ENDBRANCH   3   4
ENDBRANCH   2   3
ENDBRANCH   1   2
BRANCH   1  24
ATOM     24  C   UNL A   1      35.233  32.714  30.603  1.00  0.00     0.021 C 
BRANCH  24  25
ATOM     25  C   UNL A   1      35.013  32.739  29.093  1.00  0.00     0.116 C 
BRANCH  25  26
ATOM     26  N   UNL A   1      34.176  31.637  28.647  1.00  0.00    -0.352 N 
ATOM     27  C   UNL A   1      34.532  30.398  28.176  1.00  0.00     0.251 C 
ATOM     28  H   UNL A   1      33.207  31.806  28.686  1.00  0.00     0.163 HD
ATOM     29  O   UNL A   1      33.696  29.687  27.630  1.00  0.00    -0.269 OA
BRANCH  27  30
ATOM     30  C   UNL A   1      35.926  29.929  28.321  1.00  0.00     0.039 A 
ATOM     31  C   UNL A   1      36.796  30.046  27.233  1.00  0.00     0.014 A 
ATOM     32  C   UNL A   1      36.372  29.369  29.521  1.00  0.00     0.014 A 
ATOM     33  C   UNL A   1      38.133  29.670  27.374  1.00  0.00     0.010 A 
ATOM     34  C   UNL A   1      37.719  29.054  29.679  1.00  0.00     0.010 A 
ATOM     35  C   UNL A   1      38.615  29.212  28.611  1.00  0.00    -0.014 A 
BRANCH  35  36
ATOM     36  C   UNL A   1      40.061  28.942  28.823  1.00  0.00     0.031 A 
ATOM     37  C   UNL A   1      40.649  27.611  28.445  1.00  0.00     0.074 A 
ATOM     38  C   UNL A   1      40.817  29.870  29.444  1.00  0.00     0.049 A 
ATOM     39  N   UNL A   1      41.860  27.159  28.648  1.00  0.00    -0.248 NA
ATOM     40  C   UNL A   1      39.758  26.651  27.772  1.00  0.00     0.031 C 
ATOM     41  C   UNL A   1      40.341  31.178  29.904  1.00  0.00     0.029 A 
ATOM     42  N   UNL A   1      42.137  29.851  29.820  1.00  0.00    -0.354 N 
ATOM     43  C   UNL A   1      41.871  25.861  28.153  1.00  0.00     0.074 A 
ATOM     44  C   UNL A   1      40.538  25.584  27.665  1.00  0.00     0.031 C 
ATOM     45  C   UNL A   1      41.352  31.833  30.496  1.00  0.00     0.029 A 
ATOM     46  C   UNL A   1      42.535  30.979  30.502  1.00  0.00     0.049 A 
ATOM     47  H   UNL A   1      42.743  29.100  29.622  1.00  0.00     0.167 HD
ATOM     48  C   UNL A   1      42.905  24.988  28.103  1.00  0.00     0.037 A 
ATOM     49  C   UNL A   1      43.708  31.281  31.090  1.00  0.00     0.037 A 
ATOM     50  C   UNL A   1      44.236  25.291  28.559  1.00  0.00     0.049 A 
ATOM     51  C   UNL A   1      44.837  30.285  31.023  1.00  0.00     0.074 A 
ATOM     52  C   UNL A   1      45.376  24.511  28.452  1.00  0.00     0.029 A 
ATOM     53  N   UNL A   1      44.606  26.451  29.220  1.00  0.00    -0.354 N 
ATOM     54  N   UNL A   1      44.860  29.105  30.452  1.00  0.00    -0.248 NA
ATOM     55  C   UNL A   1      46.097  30.657  31.682  1.00  0.00     0.031 C 
ATOM     56  C   UNL A   1      46.419  25.172  29.107  1.00  0.00     0.029 A 
ATOM     57  C   UNL A   1      45.945  26.388  29.571  1.00  0.00     0.049 A 
ATOM     58  H   UNL A   1      44.007  27.208  29.413  1.00  0.00     0.167 HD
ATOM     59  C   UNL A   1      46.138  28.603  30.666  1.00  0.00     0.074 A 
ATOM     60  C   UNL A   1      46.867  29.616  31.400  1.00  0.00     0.031 C 
ATOM     61  C   UNL A   1      46.659  27.407  30.297  1.00  0.00     0.037 A 
BRANCH  48  62
ATOM     62  C   UNL A   1      42.657  23.616  27.540  1.00  0.00     0.058 A 
ATOM     63  C   UNL A   1      42.846  23.327  26.181  1.00  0.00     0.135 A 
ATOM     64  C   UNL A   1      42.323  22.552  28.396  1.00  0.00     0.135 A 
ATOM     65  F   UNL A   1      43.151  24.308  25.316  1.00  0.00    -0.206 F 
ATOM     66  C   UNL A   1      42.709  22.033  25.687  1.00  0.00     0.059 A 
ATOM     67  C   UNL A   1      42.207  21.247  27.929  1.00  0.00     0.059 A 
ATOM     68  F   UNL A   1      42.127  22.775  29.705  1.00  0.00    -0.206 F 
ATOM     69  C   UNL A   1      42.399  20.998  26.571  1.00  0.00     0.060 A 
BRANCH  69  70
ATOM     70  S   UNL A   1      42.278  19.318  25.921  1.00  0.00     0.124 S 
ATOM     71  O   UNL A   1      40.844  19.201  25.678  1.00  0.00    -0.237 OA
ATOM     72  O   UNL A   1      43.119  19.385  24.730  1.00  0.00    -0.237 OA
ATOM     73  O   UNL A   1      42.799  18.493  27.008  1.00  0.00    -0.744 OA
ENDBRANCH  69  70
ENDBRANCH  48  62
BRANCH  49  74
ATOM     74  C   UNL A   1      43.874  32.567  31.822  1.00  0.00     0.058 A 
ATOM     75  C   UNL A   1      44.055  33.776  31.134  1.00  0.00     0.135 A 
ATOM     76  C   UNL A   1      43.881  32.608  33.226  1.00  0.00     0.135 A 
ATOM     77  F   UNL A   1      44.062  33.790  29.793  1.00  0.00    -0.206 F 
ATOM     78  C   UNL A   1      44.270  34.974  31.809  1.00  0.00     0.059 A 
ATOM     79  C   UNL A   1      44.063  33.798  33.923  1.00  0.00     0.059 A 
ATOM     80  F   UNL A   1      43.694  31.483  33.934  1.00  0.00    -0.206 F 
ATOM     81  C   UNL A   1      44.277  34.973  33.206  1.00  0.00     0.060 A 
BRANCH  81  82
ATOM     82  S   UNL A   1      44.549  36.533  34.073  1.00  0.00     0.124 S 
ATOM     83  O   UNL A   1      43.640  36.400  35.205  1.00  0.00    -0.237 OA
ATOM     84  O   UNL A   1      45.973  36.466  34.385  1.00  0.00    -0.237 OA
ATOM     85  O   UNL A   1      44.179  37.537  33.080  1.00  0.00    -0.744 OA
ENDBRANCH  81  82
ENDBRANCH  49  74
BRANCH  61  86
ATOM     86  C   UNL A   1      48.090  27.127  30.663  1.00  0.00     0.058 A 
ATOM     87  C   UNL A   1      48.424  26.439  31.839  1.00  0.00     0.135 A 
ATOM     88  C   UNL A   1      49.133  27.480  29.790  1.00  0.00     0.135 A 
ATOM     89  F   UNL A   1      47.466  26.089  32.712  1.00  0.00    -0.206 F 
ATOM     90  C   UNL A   1      49.743  26.117  32.143  1.00  0.00     0.059 A 
ATOM     91  C   UNL A   1      50.455  27.142  30.059  1.00  0.00     0.059 A 
ATOM     92  F   UNL A   1      48.867  28.134  28.647  1.00  0.00    -0.206 F 
ATOM     93  C   UNL A   1      50.751  26.464  31.241  1.00  0.00     0.060 A 
BRANCH  93  94
ATOM     94  S   UNL A   1      52.448  25.982  31.618  1.00  0.00     0.124 S 
ATOM     95  O   UNL A   1      52.267  24.613  32.093  1.00  0.00    -0.237 OA
ATOM     96  O   UNL A   1      53.107  26.123  30.324  1.00  0.00    -0.237 OA
ATOM     97  O   UNL A   1      52.859  26.948  32.633  1.00  0.00    -0.744 OA
ENDBRANCH  93  94
ENDBRANCH  61  86
ENDBRANCH  35  36
ENDBRANCH  27  30
ENDBRANCH  25  26
ENDBRANCH  24  25
ENDBRANCH   1  24
TORSDOF 18
ENDMDL
