MODEL 1
REMARK VINA RESULT:     -13.2      0.000      0.000
REMARK SMILES O=C(NCCCCCCNC(=O)c1nnn(-c2cccc(C(F)(F)F)c2)c1[C@@H]1COc2ccccc2O1)c1ccc(-c2c3nc(c(-c4c(F)cc(S(=O)(=O)[O-])cc4F)c4ccc([nH]4)c(-c4c(F)cc(S(=O)(=O)[O-])cc4F)c4nc(c(-c5c(F)cc(S(=O)(=O)[O-])cc5F)c5ccc2[nH]5)C=C4)C=C3)cc1
REMARK SMILES IDX 6 1 5 2 4 3 3 4 1 5 2 6 38 8 39 9 103 10 40 11 102 12 41 13
REMARK SMILES IDX 42 14 43 15 96 16 44 17 101 18 95 19 97 20 45 21 100 22
REMARK SMILES IDX 94 23 93 24 46 26 80 27 59 28 79 29 60 30 63 31 78 32 98 33
REMARK SMILES IDX 61 34 62 35 77 37 99 38 64 39 47 40 48 41 57 42 49 43 50 44
REMARK SMILES IDX 56 45 58 46 51 47 52 48 53 49 54 50 55 51 81 52 82 53 91 54
REMARK SMILES IDX 83 55 84 56 90 57 92 58 85 59 86 60 87 61 88 62 89 63 65 64
REMARK SMILES IDX 66 65 75 66 67 67 68 68 74 69 76 70 69 71 70 72 71 73 72 74
REMARK SMILES IDX 73 75 7 76 8 77 9 78 10 79 11 80 12 82 13 83 14 84 27 85
REMARK SMILES IDX 15 86 16 87 28 88 29 89 37 90 30 91 36 92 31 93 35 94 32 95
REMARK SMILES IDX 34 96 33 97 17 98 18 99 26 100 19 101 21 102 20 103 22 104
REMARK SMILES IDX 23 105 24 106 25 107
REMARK H PARENT 3 7 97 25 63 36 10 81
REMARK Flexibility Score: inf
ROOT
ATOM      1  C   UNL A   1      38.123  21.537  25.401  1.00  0.00     0.002 C 
ENDROOT
BRANCH   1   2
ATOM      2  C   UNL A   1      39.283  22.201  26.165  1.00  0.00     0.021 C 
BRANCH   2   3
ATOM      3  C   UNL A   1      40.577  21.391  26.246  1.00  0.00     0.116 C 
BRANCH   3   4
ATOM      4  N   UNL A   1      41.640  21.894  25.402  1.00  0.00    -0.352 N 
ATOM      5  O   UNL A   1      43.297  22.998  24.480  1.00  0.00    -0.269 OA
ATOM      6  C   UNL A   1      42.414  23.018  25.346  1.00  0.00     0.251 C 
ATOM      7  H   UNL A   1      41.864  21.260  24.682  1.00  0.00     0.163 HD
BRANCH   6   8
ATOM      8  C   UNL A   1      42.262  24.247  26.177  1.00  0.00     0.039 A 
ATOM      9  C   UNL A   1      42.818  24.475  27.435  1.00  0.00     0.014 A 
ATOM     10  C   UNL A   1      41.461  25.262  25.610  1.00  0.00     0.014 A 
ATOM     11  C   UNL A   1      42.526  25.656  28.130  1.00  0.00     0.010 A 
ATOM     12  C   UNL A   1      41.172  26.438  26.296  1.00  0.00     0.010 A 
ATOM     13  C   UNL A   1      41.676  26.625  27.577  1.00  0.00    -0.014 A 
BRANCH  13  14
ATOM     14  C   UNL A   1      41.474  27.893  28.291  1.00  0.00     0.031 A 
ATOM     15  C   UNL A   1      42.581  28.882  28.105  1.00  0.00     0.074 A 
ATOM     16  C   UNL A   1      40.340  28.248  28.938  1.00  0.00     0.049 A 
ATOM     17  N   UNL A   1      43.391  29.355  28.996  1.00  0.00    -0.248 NA
ATOM     18  C   UNL A   1      42.899  29.306  26.731  1.00  0.00     0.031 C 
ATOM     19  C   UNL A   1      39.053  27.548  28.969  1.00  0.00     0.029 A 
ATOM     20  N   UNL A   1      40.078  29.379  29.658  1.00  0.00    -0.354 N 
ATOM     21  C   UNL A   1      44.193  30.287  28.337  1.00  0.00     0.074 A 
ATOM     22  C   UNL A   1      43.948  30.105  26.930  1.00  0.00     0.031 C 
ATOM     23  C   UNL A   1      38.102  28.368  29.481  1.00  0.00     0.029 A 
ATOM     24  C   UNL A   1      38.732  29.592  29.949  1.00  0.00     0.049 A 
ATOM     25  H   UNL A   1      40.787  29.997  29.949  1.00  0.00     0.167 HD
ATOM     26  C   UNL A   1      44.858  31.271  29.007  1.00  0.00     0.037 A 
ATOM     27  C   UNL A   1      38.174  30.702  30.505  1.00  0.00     0.037 A 
ATOM     28  C   UNL A   1      44.963  30.969  30.410  1.00  0.00     0.049 A 
ATOM     29  C   UNL A   1      39.261  31.434  31.203  1.00  0.00     0.074 A 
ATOM     30  C   UNL A   1      45.541  29.949  31.140  1.00  0.00     0.029 A 
ATOM     31  N   UNL A   1      44.094  31.592  31.271  1.00  0.00    -0.354 N 
ATOM     32  N   UNL A   1      39.887  30.980  32.254  1.00  0.00    -0.248 NA
ATOM     33  C   UNL A   1      39.959  32.466  30.454  1.00  0.00     0.031 C 
ATOM     34  C   UNL A   1      44.622  29.693  32.200  1.00  0.00     0.029 A 
ATOM     35  C   UNL A   1      43.586  30.622  32.097  1.00  0.00     0.049 A 
ATOM     36  H   UNL A   1      43.876  32.553  31.291  1.00  0.00     0.167 HD
ATOM     37  C   UNL A   1      41.211  31.340  32.056  1.00  0.00     0.074 A 
ATOM     38  C   UNL A   1      41.182  32.312  30.965  1.00  0.00     0.031 C 
ATOM     39  C   UNL A   1      42.233  30.622  32.606  1.00  0.00     0.037 A 
BRANCH  26  40
ATOM     40  C   UNL A   1      45.126  32.653  28.458  1.00  0.00     0.058 A 
ATOM     41  C   UNL A   1      46.454  33.102  28.302  1.00  0.00     0.135 A 
ATOM     42  C   UNL A   1      44.132  33.649  28.340  1.00  0.00     0.135 A 
ATOM     43  F   UNL A   1      47.483  32.245  28.408  1.00  0.00    -0.206 F 
ATOM     44  C   UNL A   1      46.773  34.447  28.107  1.00  0.00     0.059 A 
ATOM     45  C   UNL A   1      44.424  34.987  28.095  1.00  0.00     0.059 A 
ATOM     46  F   UNL A   1      42.836  33.389  28.553  1.00  0.00    -0.206 F 
ATOM     47  C   UNL A   1      45.748  35.385  28.017  1.00  0.00     0.060 A 
BRANCH  47  48
ATOM     48  S   UNL A   1      46.160  37.132  27.858  1.00  0.00     0.124 S 
ATOM     49  O   UNL A   1      47.557  37.070  27.460  1.00  0.00    -0.237 OA
ATOM     50  O   UNL A   1      45.217  37.572  26.835  1.00  0.00    -0.237 OA
ATOM     51  O   UNL A   1      45.906  37.658  29.201  1.00  0.00    -0.744 OA
ENDBRANCH  47  48
ENDBRANCH  26  40
BRANCH  27  52
ATOM     52  C   UNL A   1      36.874  31.363  30.179  1.00  0.00     0.058 A 
ATOM     53  C   UNL A   1      36.094  31.992  31.170  1.00  0.00     0.135 A 
ATOM     54  C   UNL A   1      36.530  31.660  28.846  1.00  0.00     0.135 A 
ATOM     55  F   UNL A   1      36.364  31.791  32.469  1.00  0.00    -0.206 F 
ATOM     56  C   UNL A   1      35.068  32.896  30.858  1.00  0.00     0.059 A 
ATOM     57  C   UNL A   1      35.510  32.554  28.512  1.00  0.00     0.059 A 
ATOM     58  F   UNL A   1      37.242  31.161  27.825  1.00  0.00    -0.206 F 
ATOM     59  C   UNL A   1      34.797  33.188  29.522  1.00  0.00     0.060 A 
BRANCH  59  60
ATOM     60  S   UNL A   1      33.597  34.482  29.112  1.00  0.00     0.124 S 
ATOM     61  O   UNL A   1      34.444  35.494  28.490  1.00  0.00    -0.237 OA
ATOM     62  O   UNL A   1      32.679  33.783  28.219  1.00  0.00    -0.237 OA
ATOM     63  O   UNL A   1      33.038  34.848  30.412  1.00  0.00    -0.744 OA
ENDBRANCH  59  60
ENDBRANCH  27  52
BRANCH  39  64
ATOM     64  C   UNL A   1      41.913  29.598  33.664  1.00  0.00     0.058 A 
ATOM     65  C   UNL A   1      41.475  28.286  33.405  1.00  0.00     0.135 A 
ATOM     66  C   UNL A   1      42.240  29.911  34.992  1.00  0.00     0.135 A 
ATOM     67  F   UNL A   1      41.231  27.873  32.152  1.00  0.00    -0.206 F 
ATOM     68  C   UNL A   1      41.351  27.338  34.425  1.00  0.00     0.059 A 
ATOM     69  C   UNL A   1      42.153  28.976  36.017  1.00  0.00     0.059 A 
ATOM     70  F   UNL A   1      42.715  31.131  35.296  1.00  0.00    -0.206 F 
ATOM     71  C   UNL A   1      41.703  27.691  35.728  1.00  0.00     0.060 A 
BRANCH  71  72
ATOM     72  S   UNL A   1      41.647  26.438  37.028  1.00  0.00     0.124 S 
ATOM     73  O   UNL A   1      42.856  26.731  37.790  1.00  0.00    -0.237 OA
ATOM     74  O   UNL A   1      40.385  26.735  37.701  1.00  0.00    -0.237 OA
ATOM     75  O   UNL A   1      41.665  25.177  36.289  1.00  0.00    -0.744 OA
ENDBRANCH  71  72
ENDBRANCH  39  64
ENDBRANCH  13  14
ENDBRANCH   6   8
ENDBRANCH   3   4
ENDBRANCH   2   3
ENDBRANCH   1   2
BRANCH   1  76
ATOM     76  C   UNL A   1      37.356  22.392  24.380  1.00  0.00     0.002 C 
BRANCH  76  77
ATOM     77  C   UNL A   1      35.833  22.302  24.418  1.00  0.00     0.021 C 
BRANCH  77  78
ATOM     78  C   UNL A   1      35.222  21.740  25.700  1.00  0.00     0.116 C 
BRANCH  78  79
ATOM     79  N   UNL A   1      33.883  21.198  25.591  1.00  0.00    -0.351 N 
ATOM     80  C   UNL A   1      32.662  21.610  25.087  1.00  0.00     0.273 C 
ATOM     81  H   UNL A   1      33.828  20.295  25.978  1.00  0.00     0.163 HD
ATOM     82  O   UNL A   1      31.785  20.747  25.210  1.00  0.00    -0.267 OA
BRANCH  80  83
ATOM     83  C   UNL A   1      32.307  22.912  24.466  1.00  0.00     0.178 A 
ATOM     84  N   UNL A   1      31.449  22.870  23.370  1.00  0.00    -0.124 NA
ATOM     85  C   UNL A   1      32.554  24.264  24.724  1.00  0.00     0.122 A 
ATOM     86  N   UNL A   1      31.149  24.100  22.987  1.00  0.00    -0.061 NA
ATOM     87  N   UNL A   1      31.910  24.945  23.701  1.00  0.00    -0.213 N 
BRANCH  85  88
ATOM     88  C   UNL A   1      33.090  24.932  25.942  1.00  0.00     0.262 C 
ATOM     89  C   UNL A   1      31.926  25.115  26.946  1.00  0.00     0.281 C 
ATOM     90  O   UNL A   1      33.852  26.111  25.690  1.00  0.00    -0.477 OA
ATOM     91  O   UNL A   1      31.184  26.307  26.681  1.00  0.00    -0.485 OA
ATOM     92  C   UNL A   1      33.401  27.209  26.374  1.00  0.00     0.162 A 
ATOM     93  C   UNL A   1      32.068  27.350  26.767  1.00  0.00     0.161 A 
ATOM     94  C   UNL A   1      34.301  28.242  26.591  1.00  0.00     0.050 A 
ATOM     95  C   UNL A   1      31.593  28.559  27.251  1.00  0.00     0.050 A 
ATOM     96  C   UNL A   1      33.845  29.440  27.142  1.00  0.00     0.004 A 
ATOM     97  C   UNL A   1      32.488  29.610  27.436  1.00  0.00     0.004 A 
ENDBRANCH  85  88
BRANCH  87  98
ATOM     98  C   UNL A   1      31.935  26.321  23.406  1.00  0.00     0.067 A 
ATOM     99  C   UNL A   1      33.104  26.900  22.906  1.00  0.00     0.028 A 
ATOM    100  C   UNL A   1      30.731  27.034  23.438  1.00  0.00     0.041 A 
ATOM    101  C   UNL A   1      33.032  28.168  22.325  1.00  0.00     0.003 A 
ATOM    102  C   UNL A   1      30.665  28.321  22.886  1.00  0.00     0.058 A 
ATOM    103  C   UNL A   1      31.819  28.865  22.298  1.00  0.00     0.013 A 
BRANCH 102 104
ATOM    104  C   UNL A   1      29.358  29.073  22.845  1.00  0.00     0.416 C 
ATOM    105  F   UNL A   1      29.263  30.002  23.837  1.00  0.00    -0.166 F 
ATOM    106  F   UNL A   1      29.177  29.748  21.679  1.00  0.00    -0.166 F 
ATOM    107  F   UNL A   1      28.270  28.265  22.989  1.00  0.00    -0.166 F 
ENDBRANCH 102 104
ENDBRANCH  87  98
ENDBRANCH  80  83
ENDBRANCH  78  79
ENDBRANCH  77  78
ENDBRANCH  76  77
ENDBRANCH   1  76
TORSDOF 19
ENDMDL
MODEL 2
REMARK VINA RESULT:     -13.0      1.529      2.814
REMARK SMILES O=C(NCCCCCCNC(=O)c1nnn(-c2cccc(C(F)(F)F)c2)c1[C@@H]1COc2ccccc2O1)c1ccc(-c2c3nc(c(-c4c(F)cc(S(=O)(=O)[O-])cc4F)c4ccc([nH]4)c(-c4c(F)cc(S(=O)(=O)[O-])cc4F)c4nc(c(-c5c(F)cc(S(=O)(=O)[O-])cc5F)c5ccc2[nH]5)C=C4)C=C3)cc1
REMARK SMILES IDX 6 1 5 2 4 3 3 4 1 5 2 6 38 8 39 9 103 10 40 11 102 12 41 13
REMARK SMILES IDX 42 14 43 15 96 16 44 17 101 18 95 19 97 20 45 21 100 22
REMARK SMILES IDX 94 23 93 24 46 26 80 27 59 28 79 29 60 30 63 31 78 32 98 33
REMARK SMILES IDX 61 34 62 35 77 37 99 38 64 39 47 40 48 41 57 42 49 43 50 44
REMARK SMILES IDX 56 45 58 46 51 47 52 48 53 49 54 50 55 51 81 52 82 53 91 54
REMARK SMILES IDX 83 55 84 56 90 57 92 58 85 59 86 60 87 61 88 62 89 63 65 64
REMARK SMILES IDX 66 65 75 66 67 67 68 68 74 69 76 70 69 71 70 72 71 73 72 74
REMARK SMILES IDX 73 75 7 76 8 77 9 78 10 79 11 80 12 82 13 83 14 84 27 85
REMARK SMILES IDX 15 86 16 87 28 88 29 89 37 90 30 91 36 92 31 93 35 94 32 95
REMARK SMILES IDX 34 96 33 97 17 98 18 99 26 100 19 101 21 102 20 103 22 104
REMARK SMILES IDX 23 105 24 106 25 107
REMARK H PARENT 3 7 97 25 63 36 10 81
REMARK Flexibility Score: inf
ROOT
ATOM      1  C   UNL A   1      39.070  22.178  26.143  1.00  0.00     0.002 C 
ENDROOT
BRANCH   1   2
ATOM      2  C   UNL A   1      40.166  22.087  27.220  1.00  0.00     0.021 C 
BRANCH   2   3
ATOM      3  C   UNL A   1      41.383  21.235  26.861  1.00  0.00     0.116 C 
BRANCH   3   4
ATOM      4  N   UNL A   1      42.182  21.774  25.781  1.00  0.00    -0.352 N 
ATOM      5  O   UNL A   1      43.409  22.995  24.433  1.00  0.00    -0.269 OA
ATOM      6  C   UNL A   1      42.671  22.999  25.425  1.00  0.00     0.251 C 
ATOM      7  H   UNL A   1      42.441  21.076  25.136  1.00  0.00     0.163 HD
BRANCH   6   8
ATOM      8  C   UNL A   1      42.363  24.305  26.077  1.00  0.00     0.039 A 
ATOM      9  C   UNL A   1      41.603  25.343  25.542  1.00  0.00     0.014 A 
ATOM     10  C   UNL A   1      42.917  24.480  27.364  1.00  0.00     0.014 A 
ATOM     11  C   UNL A   1      41.460  26.546  26.247  1.00  0.00     0.010 A 
ATOM     12  C   UNL A   1      42.774  25.673  28.069  1.00  0.00     0.010 A 
ATOM     13  C   UNL A   1      42.072  26.725  27.496  1.00  0.00    -0.014 A 
BRANCH  13  14
ATOM     14  C   UNL A   1      41.816  27.961  28.249  1.00  0.00     0.031 A 
ATOM     15  C   UNL A   1      42.901  28.984  28.130  1.00  0.00     0.074 A 
ATOM     16  C   UNL A   1      40.655  28.263  28.874  1.00  0.00     0.049 A 
ATOM     17  N   UNL A   1      43.673  29.446  29.059  1.00  0.00    -0.248 NA
ATOM     18  C   UNL A   1      43.247  29.465  26.781  1.00  0.00     0.031 C 
ATOM     19  C   UNL A   1      39.387  27.530  28.843  1.00  0.00     0.029 A 
ATOM     20  N   UNL A   1      40.343  29.361  29.625  1.00  0.00    -0.354 N 
ATOM     21  C   UNL A   1      44.468  30.421  28.457  1.00  0.00     0.074 A 
ATOM     22  C   UNL A   1      44.267  30.283  27.037  1.00  0.00     0.031 C 
ATOM     23  C   UNL A   1      38.401  28.307  29.355  1.00  0.00     0.029 A 
ATOM     24  C   UNL A   1      38.984  29.529  29.884  1.00  0.00     0.049 A 
ATOM     25  H   UNL A   1      41.027  29.987  29.958  1.00  0.00     0.167 HD
ATOM     26  C   UNL A   1      45.087  31.398  29.180  1.00  0.00     0.037 A 
ATOM     27  C   UNL A   1      38.381  30.604  30.461  1.00  0.00     0.037 A 
ATOM     28  C   UNL A   1      45.161  31.049  30.574  1.00  0.00     0.049 A 
ATOM     29  C   UNL A   1      39.428  31.338  31.216  1.00  0.00     0.074 A 
ATOM     30  C   UNL A   1      45.744  30.018  31.284  1.00  0.00     0.029 A 
ATOM     31  N   UNL A   1      44.251  31.619  31.430  1.00  0.00    -0.354 N 
ATOM     32  N   UNL A   1      40.036  30.864  32.268  1.00  0.00    -0.248 NA
ATOM     33  C   UNL A   1      40.119  32.414  30.523  1.00  0.00     0.031 C 
ATOM     34  C   UNL A   1      44.804  29.702  32.307  1.00  0.00     0.029 A 
ATOM     35  C   UNL A   1      43.747  30.607  32.207  1.00  0.00     0.049 A 
ATOM     36  H   UNL A   1      44.007  32.572  31.477  1.00  0.00     0.167 HD
ATOM     37  C   UNL A   1      41.355  31.265  32.122  1.00  0.00     0.074 A 
ATOM     38  C   UNL A   1      41.331  32.273  31.064  1.00  0.00     0.031 C 
ATOM     39  C   UNL A   1      42.380  30.554  32.675  1.00  0.00     0.037 A 
BRANCH  26  40
ATOM     40  C   UNL A   1      45.333  32.805  28.687  1.00  0.00     0.058 A 
ATOM     41  C   UNL A   1      46.644  33.326  28.676  1.00  0.00     0.135 A 
ATOM     42  C   UNL A   1      44.303  33.750  28.487  1.00  0.00     0.135 A 
ATOM     43  F   UNL A   1      47.702  32.522  28.871  1.00  0.00    -0.206 F 
ATOM     44  C   UNL A   1      46.907  34.691  28.540  1.00  0.00     0.059 A 
ATOM     45  C   UNL A   1      44.545  35.107  28.298  1.00  0.00     0.059 A 
ATOM     46  F   UNL A   1      43.009  33.417  28.561  1.00  0.00    -0.206 F 
ATOM     47  C   UNL A   1      45.847  35.575  28.364  1.00  0.00     0.060 A 
BRANCH  47  48
ATOM     48  S   UNL A   1      46.177  37.345  28.280  1.00  0.00     0.124 S 
ATOM     49  O   UNL A   1      47.622  37.368  28.130  1.00  0.00    -0.237 OA
ATOM     50  O   UNL A   1      45.400  37.742  27.109  1.00  0.00    -0.237 OA
ATOM     51  O   UNL A   1      45.663  37.841  29.559  1.00  0.00    -0.744 OA
ENDBRANCH  47  48
ENDBRANCH  26  40
BRANCH  27  52
ATOM     52  C   UNL A   1      37.074  31.242  30.121  1.00  0.00     0.058 A 
ATOM     53  C   UNL A   1      36.260  31.836  31.107  1.00  0.00     0.135 A 
ATOM     54  C   UNL A   1      36.750  31.556  28.786  1.00  0.00     0.135 A 
ATOM     55  F   UNL A   1      36.508  31.616  32.407  1.00  0.00    -0.206 F 
ATOM     56  C   UNL A   1      35.221  32.723  30.790  1.00  0.00     0.059 A 
ATOM     57  C   UNL A   1      35.717  32.434  28.448  1.00  0.00     0.059 A 
ATOM     58  F   UNL A   1      37.493  31.093  27.772  1.00  0.00    -0.206 F 
ATOM     59  C   UNL A   1      34.971  33.033  29.454  1.00  0.00     0.060 A 
BRANCH  59  60
ATOM     60  S   UNL A   1      33.750  34.309  29.044  1.00  0.00     0.124 S 
ATOM     61  O   UNL A   1      32.886  33.607  28.101  1.00  0.00    -0.237 OA
ATOM     62  O   UNL A   1      33.164  34.608  30.346  1.00  0.00    -0.237 OA
ATOM     63  O   UNL A   1      34.561  35.380  28.469  1.00  0.00    -0.744 OA
ENDBRANCH  59  60
ENDBRANCH  27  52
BRANCH  39  64
ATOM     64  C   UNL A   1      42.058  29.485  33.688  1.00  0.00     0.058 A 
ATOM     65  C   UNL A   1      41.695  28.163  33.371  1.00  0.00     0.135 A 
ATOM     66  C   UNL A   1      42.306  29.773  35.039  1.00  0.00     0.135 A 
ATOM     67  F   UNL A   1      41.530  27.778  32.097  1.00  0.00    -0.206 F 
ATOM     68  C   UNL A   1      41.566  27.180  34.357  1.00  0.00     0.059 A 
ATOM     69  C   UNL A   1      42.214  28.804  36.032  1.00  0.00     0.059 A 
ATOM     70  F   UNL A   1      42.708  31.003  35.400  1.00  0.00    -0.206 F 
ATOM     71  C   UNL A   1      41.838  27.509  35.685  1.00  0.00     0.060 A 
BRANCH  71  72
ATOM     72  S   UNL A   1      41.779  26.216  36.946  1.00  0.00     0.124 S 
ATOM     73  O   UNL A   1      42.841  26.627  37.857  1.00  0.00    -0.237 OA
ATOM     74  O   UNL A   1      40.417  26.339  37.460  1.00  0.00    -0.237 OA
ATOM     75  O   UNL A   1      42.042  24.992  36.192  1.00  0.00    -0.744 OA
ENDBRANCH  71  72
ENDBRANCH  39  64
ENDBRANCH  13  14
ENDBRANCH   6   8
ENDBRANCH   3   4
ENDBRANCH   2   3
ENDBRANCH   1   2
BRANCH   1  76
ATOM     76  C   UNL A   1      38.507  23.569  25.810  1.00  0.00     0.002 C 
BRANCH  76  77
ATOM     77  C   UNL A   1      37.268  24.010  26.583  1.00  0.00     0.021 C 
BRANCH  77  78
ATOM     78  C   UNL A   1      35.926  23.798  25.885  1.00  0.00     0.116 C 
BRANCH  78  79
ATOM     79  N   UNL A   1      35.980  23.350  24.509  1.00  0.00    -0.351 N 
ATOM     80  C   UNL A   1      35.299  23.609  23.333  1.00  0.00     0.273 C 
ATOM     81  H   UNL A   1      36.691  22.683  24.375  1.00  0.00     0.163 HD
ATOM     82  O   UNL A   1      35.751  22.970  22.375  1.00  0.00    -0.267 OA
BRANCH  80  83
ATOM     83  C   UNL A   1      34.137  24.508  23.113  1.00  0.00     0.178 A 
ATOM     84  N   UNL A   1      34.398  25.729  22.497  1.00  0.00    -0.124 NA
ATOM     85  C   UNL A   1      32.753  24.447  23.302  1.00  0.00     0.122 A 
ATOM     86  N   UNL A   1      33.264  26.375  22.282  1.00  0.00    -0.061 NA
ATOM     87  N   UNL A   1      32.282  25.683  22.880  1.00  0.00    -0.213 N 
BRANCH  85  88
ATOM     88  C   UNL A   1      31.866  23.283  23.577  1.00  0.00     0.262 C 
ATOM     89  C   UNL A   1      31.875  23.017  25.102  1.00  0.00     0.281 C 
ATOM     90  O   UNL A   1      32.120  22.136  22.770  1.00  0.00    -0.477 OA
ATOM     91  O   UNL A   1      32.981  22.201  25.488  1.00  0.00    -0.485 OA
ATOM     92  C   UNL A   1      32.346  20.997  23.496  1.00  0.00     0.162 A 
ATOM     93  C   UNL A   1      32.868  21.027  24.792  1.00  0.00     0.161 A 
ATOM     94  C   UNL A   1      32.126  19.780  22.865  1.00  0.00     0.050 A 
ATOM     95  C   UNL A   1      33.297  19.864  25.412  1.00  0.00     0.050 A 
ATOM     96  C   UNL A   1      32.492  18.600  23.512  1.00  0.00     0.004 A 
ATOM     97  C   UNL A   1      33.110  18.645  24.766  1.00  0.00     0.004 A 
ENDBRANCH  85  88
BRANCH  87  98
ATOM     98  C   UNL A   1      30.977  26.204  22.965  1.00  0.00     0.067 A 
ATOM     99  C   UNL A   1      30.015  25.540  23.730  1.00  0.00     0.028 A 
ATOM    100  C   UNL A   1      30.729  27.477  22.440  1.00  0.00     0.041 A 
ATOM    101  C   UNL A   1      28.839  26.213  24.067  1.00  0.00     0.003 A 
ATOM    102  C   UNL A   1      29.534  28.141  22.749  1.00  0.00     0.058 A 
ATOM    103  C   UNL A   1      28.609  27.510  23.596  1.00  0.00     0.013 A 
BRANCH 102 104
ATOM    104  C   UNL A   1      29.285  29.544  22.252  1.00  0.00     0.416 C 
ATOM    105  F   UNL A   1      29.162  30.441  23.270  1.00  0.00    -0.166 F 
ATOM    106  F   UNL A   1      30.291  30.007  21.462  1.00  0.00    -0.166 F 
ATOM    107  F   UNL A   1      28.143  29.658  21.518  1.00  0.00    -0.166 F 
ENDBRANCH 102 104
ENDBRANCH  87  98
ENDBRANCH  80  83
ENDBRANCH  78  79
ENDBRANCH  77  78
ENDBRANCH  76  77
ENDBRANCH   1  76
TORSDOF 19
ENDMDL
MODEL 3
REMARK VINA RESULT:     -12.6      3.072      9.217
REMARK SMILES O=C(NCCCCCCNC(=O)c1nnn(-c2cccc(C(F)(F)F)c2)c1[C@@H]1COc2ccccc2O1)c1ccc(-c2c3nc(c(-c4c(F)cc(S(=O)(=O)[O-])cc4F)c4ccc([nH]4)c(-c4c(F)cc(S(=O)(=O)[O-])cc4F)c4nc(c(-c5c(F)cc(S(=O)(=O)[O-])cc5F)c5ccc2[nH]5)C=C4)C=C3)cc1
REMARK SMILES IDX 6 1 5 2 4 3 3 4 1 5 2 6 38 8 39 9 103 10 40 11 102 12 41 13
REMARK SMILES IDX 42 14 43 15 96 16 44 17 101 18 95 19 97 20 45 21 100 22
REMARK SMILES IDX 94 23 93 24 46 26 80 27 59 28 79 29 60 30 63 31 78 32 98 33
REMARK SMILES IDX 61 34 62 35 77 37 99 38 64 39 47 40 48 41 57 42 49 43 50 44
REMARK SMILES IDX 56 45 58 46 51 47 52 48 53 49 54 50 55 51 81 52 82 53 91 54
REMARK SMILES IDX 83 55 84 56 90 57 92 58 85 59 86 60 87 61 88 62 89 63 65 64
REMARK SMILES IDX 66 65 75 66 67 67 68 68 74 69 76 70 69 71 70 72 71 73 72 74
REMARK SMILES IDX 73 75 7 76 8 77 9 78 10 79 11 80 12 82 13 83 14 84 27 85
REMARK SMILES IDX 15 86 16 87 28 88 29 89 37 90 30 91 36 92 31 93 35 94 32 95
REMARK SMILES IDX 34 96 33 97 17 98 18 99 26 100 19 101 21 102 20 103 22 104
REMARK SMILES IDX 23 105 24 106 25 107
REMARK H PARENT 3 7 97 25 63 36 10 81
REMARK Flexibility Score: inf
ROOT
ATOM      1  C   UNL A   1      34.786  32.523  27.992  1.00  0.00     0.002 C 
ENDROOT
BRANCH   1   2
ATOM      2  C   UNL A   1      33.674  33.580  28.120  1.00  0.00     0.021 C 
BRANCH   2   3
ATOM      3  C   UNL A   1      33.983  34.765  29.033  1.00  0.00     0.116 C 
BRANCH   3   4
ATOM      4  N   UNL A   1      33.766  34.498  30.440  1.00  0.00    -0.352 N 
ATOM      5  O   UNL A   1      33.921  33.970  32.563  1.00  0.00    -0.269 OA
ATOM      6  C   UNL A   1      34.460  33.900  31.453  1.00  0.00     0.251 C 
ATOM      7  H   UNL A   1      32.893  34.837  30.744  1.00  0.00     0.163 HD
BRANCH   6   8
ATOM      8  C   UNL A   1      35.744  33.151  31.333  1.00  0.00     0.039 A 
ATOM      9  C   UNL A   1      37.014  33.699  31.159  1.00  0.00     0.014 A 
ATOM     10  C   UNL A   1      35.630  31.746  31.400  1.00  0.00     0.014 A 
ATOM     11  C   UNL A   1      38.124  32.861  30.989  1.00  0.00     0.010 A 
ATOM     12  C   UNL A   1      36.732  30.910  31.236  1.00  0.00     0.010 A 
ATOM     13  C   UNL A   1      37.981  31.466  30.994  1.00  0.00    -0.014 A 
BRANCH  13  14
ATOM     14  C   UNL A   1      39.182  30.622  30.914  1.00  0.00     0.031 A 
ATOM     15  C   UNL A   1      39.853  30.389  32.230  1.00  0.00     0.074 A 
ATOM     16  C   UNL A   1      39.593  29.961  29.808  1.00  0.00     0.049 A 
ATOM     17  N   UNL A   1      41.034  30.762  32.605  1.00  0.00    -0.248 NA
ATOM     18  C   UNL A   1      39.062  29.765  33.304  1.00  0.00     0.031 C 
ATOM     19  C   UNL A   1      38.905  29.821  28.522  1.00  0.00     0.029 A 
ATOM     20  N   UNL A   1      40.708  29.192  29.631  1.00  0.00    -0.354 N 
ATOM     21  C   UNL A   1      41.216  30.249  33.889  1.00  0.00     0.074 A 
ATOM     22  C   UNL A   1      39.925  29.777  34.320  1.00  0.00     0.031 C 
ATOM     23  C   UNL A   1      39.505  28.852  27.788  1.00  0.00     0.029 A 
ATOM     24  C   UNL A   1      40.702  28.404  28.481  1.00  0.00     0.049 A 
ATOM     25  H   UNL A   1      41.460  29.194  30.268  1.00  0.00     0.167 HD
ATOM     26  C   UNL A   1      42.456  30.073  34.429  1.00  0.00     0.037 A 
ATOM     27  C   UNL A   1      41.597  27.437  28.139  1.00  0.00     0.037 A 
ATOM     28  C   UNL A   1      43.447  30.841  33.723  1.00  0.00     0.049 A 
ATOM     29  C   UNL A   1      42.835  27.693  28.918  1.00  0.00     0.074 A 
ATOM     30  C   UNL A   1      43.636  32.188  33.480  1.00  0.00     0.029 A 
ATOM     31  N   UNL A   1      44.243  30.187  32.815  1.00  0.00    -0.354 N 
ATOM     32  N   UNL A   1      43.599  28.738  28.750  1.00  0.00    -0.248 NA
ATOM     33  C   UNL A   1      42.971  27.016  30.197  1.00  0.00     0.031 C 
ATOM     34  C   UNL A   1      44.108  32.253  32.136  1.00  0.00     0.029 A 
ATOM     35  C   UNL A   1      44.253  30.945  31.672  1.00  0.00     0.049 A 
ATOM     36  H   UNL A   1      44.717  29.335  32.958  1.00  0.00     0.167 HD
ATOM     37  C   UNL A   1      43.981  29.103  30.032  1.00  0.00     0.074 A 
ATOM     38  C   UNL A   1      43.619  27.965  30.876  1.00  0.00     0.031 C 
ATOM     39  C   UNL A   1      44.305  30.392  30.338  1.00  0.00     0.037 A 
BRANCH  26  40
ATOM     40  C   UNL A   1      42.826  28.963  35.384  1.00  0.00     0.058 A 
ATOM     41  C   UNL A   1      43.566  29.257  36.549  1.00  0.00     0.135 A 
ATOM     42  C   UNL A   1      42.724  27.592  35.060  1.00  0.00     0.135 A 
ATOM     43  F   UNL A   1      43.743  30.528  36.946  1.00  0.00    -0.206 F 
ATOM     44  C   UNL A   1      44.206  28.268  37.300  1.00  0.00     0.059 A 
ATOM     45  C   UNL A   1      43.310  26.587  35.823  1.00  0.00     0.059 A 
ATOM     46  F   UNL A   1      42.131  27.170  33.938  1.00  0.00    -0.206 F 
ATOM     47  C   UNL A   1      44.081  26.935  36.919  1.00  0.00     0.060 A 
BRANCH  47  48
ATOM     48  S   UNL A   1      44.981  25.668  37.831  1.00  0.00     0.124 S 
ATOM     49  O   UNL A   1      44.576  25.947  39.199  1.00  0.00    -0.237 OA
ATOM     50  O   UNL A   1      44.456  24.441  37.240  1.00  0.00    -0.237 OA
ATOM     51  O   UNL A   1      46.381  25.958  37.512  1.00  0.00    -0.744 OA
ENDBRANCH  47  48
ENDBRANCH  26  40
BRANCH  27  52
ATOM     52  C   UNL A   1      41.349  26.119  27.482  1.00  0.00     0.058 A 
ATOM     53  C   UNL A   1      42.273  25.555  26.579  1.00  0.00     0.135 A 
ATOM     54  C   UNL A   1      40.353  25.247  27.965  1.00  0.00     0.135 A 
ATOM     55  F   UNL A   1      43.274  26.301  26.086  1.00  0.00    -0.206 F 
ATOM     56  C   UNL A   1      42.241  24.201  26.216  1.00  0.00     0.059 A 
ATOM     57  C   UNL A   1      40.299  23.896  27.614  1.00  0.00     0.059 A 
ATOM     58  F   UNL A   1      39.458  25.663  28.872  1.00  0.00    -0.206 F 
ATOM     59  C   UNL A   1      41.259  23.372  26.758  1.00  0.00     0.060 A 
BRANCH  59  60
ATOM     60  S   UNL A   1      41.313  21.590  26.436  1.00  0.00     0.124 S 
ATOM     61  O   UNL A   1      39.932  21.309  26.060  1.00  0.00    -0.237 OA
ATOM     62  O   UNL A   1      42.296  21.498  25.361  1.00  0.00    -0.237 OA
ATOM     63  O   UNL A   1      41.739  21.027  27.715  1.00  0.00    -0.744 OA
ENDBRANCH  59  60
ENDBRANCH  27  52
BRANCH  39  64
ATOM     64  C   UNL A   1      44.521  31.372  29.213  1.00  0.00     0.058 A 
ATOM     65  C   UNL A   1      43.553  32.279  28.742  1.00  0.00     0.135 A 
ATOM     66  C   UNL A   1      45.825  31.515  28.716  1.00  0.00     0.135 A 
ATOM     67  F   UNL A   1      42.305  32.274  29.232  1.00  0.00    -0.206 F 
ATOM     68  C   UNL A   1      43.868  33.269  27.806  1.00  0.00     0.059 A 
ATOM     69  C   UNL A   1      46.168  32.511  27.808  1.00  0.00     0.059 A 
ATOM     70  F   UNL A   1      46.806  30.715  29.166  1.00  0.00    -0.206 F 
ATOM     71  C   UNL A   1      45.182  33.383  27.353  1.00  0.00     0.060 A 
BRANCH  71  72
ATOM     72  S   UNL A   1      45.615  34.728  26.227  1.00  0.00     0.124 S 
ATOM     73  O   UNL A   1      46.702  34.142  25.451  1.00  0.00    -0.237 OA
ATOM     74  O   UNL A   1      44.366  34.949  25.503  1.00  0.00    -0.237 OA
ATOM     75  O   UNL A   1      46.004  35.813  27.125  1.00  0.00    -0.744 OA
ENDBRANCH  71  72
ENDBRANCH  39  64
ENDBRANCH  13  14
ENDBRANCH   6   8
ENDBRANCH   3   4
ENDBRANCH   2   3
ENDBRANCH   1   2
BRANCH   1  76
ATOM     76  C   UNL A   1      34.363  31.061  27.778  1.00  0.00     0.002 C 
BRANCH  76  77
ATOM     77  C   UNL A   1      33.030  30.830  27.073  1.00  0.00     0.021 C 
BRANCH  77  78
ATOM     78  C   UNL A   1      33.028  29.781  25.963  1.00  0.00     0.116 C 
BRANCH  78  79
ATOM     79  N   UNL A   1      31.961  29.878  24.987  1.00  0.00    -0.351 N 
ATOM     80  C   UNL A   1      31.104  29.010  24.335  1.00  0.00     0.273 C 
ATOM     81  H   UNL A   1      31.805  30.812  24.717  1.00  0.00     0.163 HD
ATOM     82  O   UNL A   1      30.318  29.599  23.583  1.00  0.00    -0.267 OA
BRANCH  80  83
ATOM     83  C   UNL A   1      31.041  27.528  24.422  1.00  0.00     0.178 A 
ATOM     84  N   UNL A   1      29.793  26.942  24.235  1.00  0.00    -0.124 NA
ATOM     85  C   UNL A   1      31.951  26.480  24.586  1.00  0.00     0.122 A 
ATOM     86  N   UNL A   1      29.909  25.625  24.244  1.00  0.00    -0.061 NA
ATOM     87  N   UNL A   1      31.172  25.331  24.589  1.00  0.00    -0.213 N 
BRANCH  85  88
ATOM     88  C   UNL A   1      33.436  26.462  24.472  1.00  0.00     0.262 C 
ATOM     89  C   UNL A   1      33.805  26.292  22.978  1.00  0.00     0.281 C 
ATOM     90  O   UNL A   1      34.091  25.555  25.355  1.00  0.00    -0.477 OA
ATOM     91  O   UNL A   1      33.810  24.918  22.590  1.00  0.00    -0.485 OA
ATOM     92  C   UNL A   1      34.925  24.677  24.716  1.00  0.00     0.162 A 
ATOM     93  C   UNL A   1      34.723  24.284  23.390  1.00  0.00     0.161 A 
ATOM     94  C   UNL A   1      35.944  24.101  25.462  1.00  0.00     0.050 A 
ATOM     95  C   UNL A   1      35.439  23.230  22.844  1.00  0.00     0.050 A 
ATOM     96  C   UNL A   1      36.714  23.086  24.895  1.00  0.00     0.004 A 
ATOM     97  C   UNL A   1      36.438  22.627  23.603  1.00  0.00     0.004 A 
ENDBRANCH  85  88
BRANCH  87  98
ATOM     98  C   UNL A   1      31.563  24.003  24.843  1.00  0.00     0.067 A 
ATOM     99  C   UNL A   1      31.579  23.075  23.799  1.00  0.00     0.028 A 
ATOM    100  C   UNL A   1      32.113  23.693  26.092  1.00  0.00     0.041 A 
ATOM    101  C   UNL A   1      32.258  21.868  23.979  1.00  0.00     0.003 A 
ATOM    102  C   UNL A   1      32.765  22.468  26.286  1.00  0.00     0.058 A 
ATOM    103  C   UNL A   1      32.862  21.575  25.206  1.00  0.00     0.013 A 
BRANCH 102 104
ATOM    104  C   UNL A   1      33.428  22.151  27.604  1.00  0.00     0.416 C 
ATOM    105  F   UNL A   1      33.968  20.901  27.626  1.00  0.00    -0.166 F 
ATOM    106  F   UNL A   1      34.444  23.005  27.899  1.00  0.00    -0.166 F 
ATOM    107  F   UNL A   1      32.570  22.201  28.661  1.00  0.00    -0.166 F 
ENDBRANCH 102 104
ENDBRANCH  87  98
ENDBRANCH  80  83
ENDBRANCH  78  79
ENDBRANCH  77  78
ENDBRANCH  76  77
ENDBRANCH   1  76
TORSDOF 19
ENDMDL
