MODEL 1
REMARK VINA RESULT:     -11.2      0.000      0.000
REMARK SMILES COc1ccc(CCN2C(=O)C[C@@H](C(=O)NCCCCCCNC(=O)c3ccc(-c4c5nc(c(-c6c(F)cc(S(=O)(=O)[O-])cc6F)c6ccc([nH]6)c(-c6c(F)cc(S(=O)(=O)[O-])cc6F)c6nc(c(-c7c(F)cc(S(=O)(=O)[O-])cc7F)c7ccc4[nH]7)C=C6)C=C5)cc3)S/C2=[NH+]\c2ccc(F)cc2)cc1OC
REMARK SMILES IDX 19 1 18 2 17 3 16 4 14 5 15 6 13 8 9 9 10 10 93 11 11 12
REMARK SMILES IDX 12 13 92 14 94 15 8 17 7 18 6 19 3 20 4 21 103 22 5 23
REMARK SMILES IDX 102 24 2 25 1 26 104 27 105 28 95 29 96 30 101 31 97 32
REMARK SMILES IDX 100 33 98 34 99 35 20 36 21 37 22 38 23 39 24 40 25 42 26 43
REMARK SMILES IDX 27 44 91 45 28 46 90 47 29 48 30 49 31 50 84 51 32 52 89 53
REMARK SMILES IDX 83 54 85 55 33 56 88 57 82 58 81 59 34 61 68 62 47 63 67 64
REMARK SMILES IDX 48 65 51 66 66 67 86 68 49 69 50 70 65 72 87 73 52 74 35 75
REMARK SMILES IDX 36 76 45 77 37 78 38 79 44 80 46 81 39 82 40 83 41 84 42 85
REMARK SMILES IDX 43 86 69 87 70 88 79 89 71 90 72 91 78 92 80 93 73 94 74 95
REMARK SMILES IDX 75 96 76 97 77 98 53 99 54 100 63 101 55 102 56 103 62 104
REMARK SMILES IDX 64 105 57 106 58 107 59 108 60 109 61 110
REMARK H PARENT 16 7 94 16 23 41 85 60 51 71
REMARK Flexibility Score: inf
ROOT
ATOM      1  C   UNL A   1      37.131  21.333  24.858  1.00  0.00     0.002 C 
ENDROOT
BRANCH   1   2
ATOM      2  C   UNL A   1      36.742  22.385  23.812  1.00  0.00     0.021 C 
BRANCH   2   3
ATOM      3  C   UNL A   1      35.262  22.453  23.432  1.00  0.00     0.116 C 
BRANCH   3   4
ATOM      4  N   UNL A   1      34.867  23.558  22.578  1.00  0.00    -0.355 N 
ATOM      5  C   UNL A   1      34.050  24.632  22.841  1.00  0.00     0.234 C 
ATOM      6  O   UNL A   1      34.035  25.544  22.008  1.00  0.00    -0.274 OA
ATOM      7  H   UNL A   1      35.244  23.535  21.667  1.00  0.00     0.163 HD
BRANCH   5   8
ATOM      8  C   UNL A   1      33.173  24.736  24.109  1.00  0.00     0.160 C 
ATOM      9  N   UNL A   1      30.532  25.595  25.217  1.00  0.00    -0.191 N 
ATOM     10  C   UNL A   1      30.826  24.254  25.002  1.00  0.00     0.311 C 
ATOM     11  C   UNL A   1      31.508  26.560  25.437  1.00  0.00     0.319 C 
ATOM     12  O   UNL A   1      30.178  23.344  25.523  1.00  0.00    -0.247 OA
ATOM     13  C   UNL A   1      31.924  23.901  24.030  1.00  0.00     0.153 C 
ATOM     14  S   UNL A   1      32.960  26.471  24.479  1.00  0.00    -0.024 SA
ATOM     15  N   UNL A   1      31.284  27.535  26.271  1.00  0.00    -0.235 N 
ATOM     16  H   UNL A   1      30.419  27.603  26.734  1.00  0.00     0.313 HD
BRANCH   9  17
ATOM     17  C   UNL A   1      29.130  25.920  25.558  1.00  0.00     0.251 C 
BRANCH  17  18
ATOM     18  C   UNL A   1      28.210  26.146  24.319  1.00  0.00     0.082 C 
BRANCH  18  19
ATOM     19  C   UNL A   1      28.270  27.512  23.649  1.00  0.00    -0.040 A 
ATOM     20  C   UNL A   1      28.354  30.107  22.494  1.00  0.00     0.160 A 
ATOM     21  C   UNL A   1      27.136  29.497  22.764  1.00  0.00     0.051 A 
ATOM     22  C   UNL A   1      29.535  29.393  22.719  1.00  0.00     0.160 A 
ATOM     23  C   UNL A   1      27.114  28.208  23.306  1.00  0.00     0.008 A 
ATOM     24  C   UNL A   1      29.487  28.114  23.310  1.00  0.00     0.054 A 
BRANCH  20  25
ATOM     25  O   UNL A   1      28.394  31.446  22.211  1.00  0.00    -0.493 OA
ATOM     26  C   UNL A   1      28.022  32.279  23.302  1.00  0.00     0.278 C 
ENDBRANCH  20  25
BRANCH  22  27
ATOM     27  O   UNL A   1      30.797  29.860  22.467  1.00  0.00    -0.493 OA
ATOM     28  C   UNL A   1      31.734  28.864  22.062  1.00  0.00     0.278 C 
ENDBRANCH  22  27
ENDBRANCH  18  19
ENDBRANCH  17  18
ENDBRANCH   9  17
BRANCH  15  29
ATOM     29  C   UNL A   1      32.291  28.491  26.500  1.00  0.00     0.125 A 
ATOM     30  C   UNL A   1      32.010  29.858  26.372  1.00  0.00     0.055 A 
ATOM     31  C   UNL A   1      33.558  28.087  26.939  1.00  0.00     0.055 A 
ATOM     32  C   UNL A   1      32.957  30.811  26.757  1.00  0.00     0.043 A 
ATOM     33  C   UNL A   1      34.502  29.039  27.330  1.00  0.00     0.043 A 
ATOM     34  C   UNL A   1      34.187  30.391  27.248  1.00  0.00     0.123 A 
ATOM     35  F   UNL A   1      35.079  31.301  27.659  1.00  0.00    -0.207 F 
ENDBRANCH  15  29
ENDBRANCH   5   8
ENDBRANCH   3   4
ENDBRANCH   2   3
ENDBRANCH   1   2
BRANCH   1  36
ATOM     36  C   UNL A   1      37.781  21.843  26.151  1.00  0.00     0.002 C 
BRANCH  36  37
ATOM     37  C   UNL A   1      39.309  21.934  26.163  1.00  0.00     0.021 C 
BRANCH  37  38
ATOM     38  C   UNL A   1      39.926  23.175  26.812  1.00  0.00     0.116 C 
BRANCH  38  39
ATOM     39  N   UNL A   1      41.066  23.663  26.049  1.00  0.00    -0.352 N 
ATOM     40  C   UNL A   1      41.793  24.829  26.100  1.00  0.00     0.251 C 
ATOM     41  H   UNL A   1      41.377  23.034  25.359  1.00  0.00     0.163 HD
ATOM     42  O   UNL A   1      42.547  25.062  25.153  1.00  0.00    -0.269 OA
BRANCH  40  43
ATOM     43  C   UNL A   1      41.721  25.812  27.220  1.00  0.00     0.039 A 
ATOM     44  C   UNL A   1      40.649  25.700  28.119  1.00  0.00     0.014 A 
ATOM     45  C   UNL A   1      42.586  26.901  27.355  1.00  0.00     0.014 A 
ATOM     46  C   UNL A   1      40.461  26.641  29.143  1.00  0.00     0.010 A 
ATOM     47  C   UNL A   1      42.438  27.802  28.422  1.00  0.00     0.010 A 
ATOM     48  C   UNL A   1      41.367  27.695  29.325  1.00  0.00    -0.014 A 
BRANCH  48  49
ATOM     49  C   UNL A   1      41.198  28.682  30.436  1.00  0.00     0.031 A 
ATOM     50  C   UNL A   1      42.049  28.598  31.683  1.00  0.00     0.074 A 
ATOM     51  C   UNL A   1      40.245  29.636  30.357  1.00  0.00     0.049 A 
ATOM     52  N   UNL A   1      41.988  29.317  32.777  1.00  0.00    -0.248 NA
ATOM     53  C   UNL A   1      43.097  27.566  31.708  1.00  0.00     0.031 C 
ATOM     54  C   UNL A   1      39.338  29.835  29.224  1.00  0.00     0.029 A 
ATOM     55  N   UNL A   1      39.861  30.604  31.256  1.00  0.00    -0.354 N 
ATOM     56  C   UNL A   1      42.969  28.812  33.626  1.00  0.00     0.074 A 
ATOM     57  C   UNL A   1      43.590  27.704  32.932  1.00  0.00     0.031 C 
ATOM     58  C   UNL A   1      38.497  30.845  29.501  1.00  0.00     0.029 A 
ATOM     59  C   UNL A   1      38.781  31.352  30.840  1.00  0.00     0.049 A 
ATOM     60  H   UNL A   1      40.315  30.749  32.117  1.00  0.00     0.167 HD
ATOM     61  C   UNL A   1      43.331  29.239  34.861  1.00  0.00     0.037 A 
ATOM     62  C   UNL A   1      38.082  32.321  31.464  1.00  0.00     0.037 A 
ATOM     63  C   UNL A   1      42.743  30.369  35.538  1.00  0.00     0.049 A 
ATOM     64  C   UNL A   1      38.496  32.768  32.842  1.00  0.00     0.074 A 
ATOM     65  C   UNL A   1      43.109  30.925  36.754  1.00  0.00     0.029 A 
ATOM     66  N   UNL A   1      41.667  31.107  35.072  1.00  0.00    -0.354 N 
ATOM     67  N   UNL A   1      39.477  32.327  33.591  1.00  0.00    -0.248 NA
ATOM     68  C   UNL A   1      37.713  33.851  33.457  1.00  0.00     0.031 C 
ATOM     69  C   UNL A   1      42.217  31.960  37.050  1.00  0.00     0.029 A 
ATOM     70  C   UNL A   1      41.335  32.091  35.992  1.00  0.00     0.049 A 
ATOM     71  H   UNL A   1      41.208  30.957  34.214  1.00  0.00     0.167 HD
ATOM     72  C   UNL A   1      39.452  33.103  34.746  1.00  0.00     0.074 A 
ATOM     73  C   UNL A   1      38.366  34.047  34.593  1.00  0.00     0.031 C 
ATOM     74  C   UNL A   1      40.261  33.039  35.832  1.00  0.00     0.037 A 
BRANCH  61  75
ATOM     75  C   UNL A   1      44.418  28.488  35.585  1.00  0.00     0.058 A 
ATOM     76  C   UNL A   1      44.139  27.389  36.411  1.00  0.00     0.135 A 
ATOM     77  C   UNL A   1      45.768  28.822  35.376  1.00  0.00     0.135 A 
ATOM     78  F   UNL A   1      42.868  27.031  36.655  1.00  0.00    -0.206 F 
ATOM     79  C   UNL A   1      45.157  26.658  37.018  1.00  0.00     0.059 A 
ATOM     80  C   UNL A   1      46.802  28.087  35.949  1.00  0.00     0.059 A 
ATOM     81  F   UNL A   1      46.093  29.862  34.592  1.00  0.00    -0.206 F 
ATOM     82  C   UNL A   1      46.485  27.011  36.777  1.00  0.00     0.060 A 
BRANCH  82  83
ATOM     83  S   UNL A   1      47.793  26.035  37.549  1.00  0.00     0.124 S 
ATOM     84  O   UNL A   1      47.017  25.068  38.321  1.00  0.00    -0.237 OA
ATOM     85  O   UNL A   1      48.503  25.496  36.391  1.00  0.00    -0.237 OA
ATOM     86  O   UNL A   1      48.533  27.015  38.336  1.00  0.00    -0.744 OA
ENDBRANCH  82  83
ENDBRANCH  61  75
BRANCH  62  87
ATOM     87  C   UNL A   1      36.906  32.944  30.794  1.00  0.00     0.058 A 
ATOM     88  C   UNL A   1      37.063  33.996  29.880  1.00  0.00     0.135 A 
ATOM     89  C   UNL A   1      35.600  32.512  31.073  1.00  0.00     0.135 A 
ATOM     90  F   UNL A   1      38.291  34.452  29.586  1.00  0.00    -0.206 F 
ATOM     91  C   UNL A   1      35.968  34.619  29.289  1.00  0.00     0.059 A 
ATOM     92  C   UNL A   1      34.491  33.098  30.471  1.00  0.00     0.059 A 
ATOM     93  F   UNL A   1      35.395  31.498  31.929  1.00  0.00    -0.206 F 
ATOM     94  C   UNL A   1      34.684  34.163  29.593  1.00  0.00     0.060 A 
BRANCH  94  95
ATOM     95  S   UNL A   1      33.271  34.965  28.804  1.00  0.00     0.124 S 
ATOM     96  O   UNL A   1      33.903  36.117  28.171  1.00  0.00    -0.237 OA
ATOM     97  O   UNL A   1      32.794  33.922  27.900  1.00  0.00    -0.237 OA
ATOM     98  O   UNL A   1      32.386  35.266  29.924  1.00  0.00    -0.744 OA
ENDBRANCH  94  95
ENDBRANCH  62  87
BRANCH  74  99
ATOM     99  C   UNL A   1      40.039  34.045  36.930  1.00  0.00     0.058 A 
ATOM    100  C   UNL A   1      40.666  35.302  36.926  1.00  0.00     0.135 A 
ATOM    101  C   UNL A   1      39.146  33.767  37.979  1.00  0.00     0.135 A 
ATOM    102  F   UNL A   1      41.534  35.619  35.952  1.00  0.00    -0.206 F 
ATOM    103  C   UNL A   1      40.434  36.235  37.932  1.00  0.00     0.059 A 
ATOM    104  C   UNL A   1      38.876  34.696  38.979  1.00  0.00     0.059 A 
ATOM    105  F   UNL A   1      38.510  32.584  38.029  1.00  0.00    -0.206 F 
ATOM    106  C   UNL A   1      39.535  35.924  38.953  1.00  0.00     0.060 A 
BRANCH 106 107
ATOM    107  S   UNL A   1      39.217  37.156  40.234  1.00  0.00     0.124 S 
ATOM    108  O   UNL A   1      40.572  37.521  40.634  1.00  0.00    -0.237 OA
ATOM    109  O   UNL A   1      38.475  38.180  39.505  1.00  0.00    -0.237 OA
ATOM    110  O   UNL A   1      38.444  36.420  41.231  1.00  0.00    -0.744 OA
ENDBRANCH 106 107
ENDBRANCH  74  99
ENDBRANCH  48  49
ENDBRANCH  40  43
ENDBRANCH  38  39
ENDBRANCH  37  38
ENDBRANCH  36  37
ENDBRANCH   1  36
TORSDOF 22
ENDMDL
MODEL 2
REMARK VINA RESULT:     -10.3      6.144     11.845
REMARK SMILES COc1ccc(CCN2C(=O)C[C@@H](C(=O)NCCCCCCNC(=O)c3ccc(-c4c5nc(c(-c6c(F)cc(S(=O)(=O)[O-])cc6F)c6ccc([nH]6)c(-c6c(F)cc(S(=O)(=O)[O-])cc6F)c6nc(c(-c7c(F)cc(S(=O)(=O)[O-])cc7F)c7ccc4[nH]7)C=C6)C=C5)cc3)S/C2=[NH+]\c2ccc(F)cc2)cc1OC
REMARK SMILES IDX 19 1 18 2 17 3 16 4 14 5 15 6 13 8 9 9 10 10 93 11 11 12
REMARK SMILES IDX 12 13 92 14 94 15 8 17 7 18 6 19 3 20 4 21 103 22 5 23
REMARK SMILES IDX 102 24 2 25 1 26 104 27 105 28 95 29 96 30 101 31 97 32
REMARK SMILES IDX 100 33 98 34 99 35 20 36 21 37 22 38 23 39 24 40 25 42 26 43
REMARK SMILES IDX 27 44 91 45 28 46 90 47 29 48 30 49 31 50 84 51 32 52 89 53
REMARK SMILES IDX 83 54 85 55 33 56 88 57 82 58 81 59 34 61 68 62 47 63 67 64
REMARK SMILES IDX 48 65 51 66 66 67 86 68 49 69 50 70 65 72 87 73 52 74 35 75
REMARK SMILES IDX 36 76 45 77 37 78 38 79 44 80 46 81 39 82 40 83 41 84 42 85
REMARK SMILES IDX 43 86 69 87 70 88 79 89 71 90 72 91 78 92 80 93 73 94 74 95
REMARK SMILES IDX 75 96 76 97 77 98 53 99 54 100 63 101 55 102 56 103 62 104
REMARK SMILES IDX 64 105 57 106 58 107 59 108 60 109 61 110
REMARK H PARENT 16 7 94 16 23 41 85 60 51 71
REMARK Flexibility Score: inf
ROOT
ATOM      1  C   UNL A   1      32.610  28.570  27.223  1.00  0.00     0.002 C 
ENDROOT
BRANCH   1   2
ATOM      2  C   UNL A   1      32.509  27.127  26.711  1.00  0.00     0.021 C 
BRANCH   2   3
ATOM      3  C   UNL A   1      32.110  26.951  25.245  1.00  0.00     0.116 C 
BRANCH   3   4
ATOM      4  N   UNL A   1      32.446  28.044  24.351  1.00  0.00    -0.355 N 
ATOM      5  C   UNL A   1      32.961  28.019  23.077  1.00  0.00     0.234 C 
ATOM      6  O   UNL A   1      32.968  29.084  22.452  1.00  0.00    -0.274 OA
ATOM      7  H   UNL A   1      32.279  28.944  24.715  1.00  0.00     0.163 HD
BRANCH   5   8
ATOM      8  C   UNL A   1      33.517  26.737  22.415  1.00  0.00     0.160 C 
ATOM      9  N   UNL A   1      33.140  23.796  22.035  1.00  0.00    -0.191 N 
ATOM     10  C   UNL A   1      32.828  24.703  21.029  1.00  0.00     0.311 C 
ATOM     11  C   UNL A   1      34.073  24.058  23.030  1.00  0.00     0.319 C 
ATOM     12  O   UNL A   1      32.682  24.361  19.852  1.00  0.00    -0.247 OA
ATOM     13  C   UNL A   1      32.575  26.141  21.405  1.00  0.00     0.153 C 
ATOM     14  S   UNL A   1      34.088  25.658  23.719  1.00  0.00    -0.024 SA
ATOM     15  N   UNL A   1      34.838  23.103  23.474  1.00  0.00    -0.235 N 
ATOM     16  H   UNL A   1      34.748  22.189  23.121  1.00  0.00     0.313 HD
BRANCH   9  17
ATOM     17  C   UNL A   1      32.712  22.396  21.821  1.00  0.00     0.251 C 
BRANCH  17  18
ATOM     18  C   UNL A   1      31.818  21.823  22.964  1.00  0.00     0.082 C 
BRANCH  18  19
ATOM     19  C   UNL A   1      32.304  20.558  23.658  1.00  0.00    -0.040 A 
ATOM     20  C   UNL A   1      33.110  18.184  24.996  1.00  0.00     0.160 A 
ATOM     21  C   UNL A   1      32.924  19.363  25.707  1.00  0.00     0.051 A 
ATOM     22  C   UNL A   1      32.977  18.203  23.604  1.00  0.00     0.160 A 
ATOM     23  C   UNL A   1      32.556  20.528  25.027  1.00  0.00     0.008 A 
ATOM     24  C   UNL A   1      32.559  19.379  22.949  1.00  0.00     0.054 A 
BRANCH  20  25
ATOM     25  O   UNL A   1      33.215  16.996  25.668  1.00  0.00    -0.493 OA
ATOM     26  C   UNL A   1      31.978  16.499  26.161  1.00  0.00     0.278 C 
ENDBRANCH  20  25
BRANCH  22  27
ATOM     27  O   UNL A   1      33.164  17.125  22.780  1.00  0.00    -0.493 OA
ATOM     28  C   UNL A   1      34.512  16.673  22.683  1.00  0.00     0.278 C 
ENDBRANCH  22  27
ENDBRANCH  18  19
ENDBRANCH  17  18
ENDBRANCH   9  17
BRANCH  15  29
ATOM     29  C   UNL A   1      35.795  23.391  24.466  1.00  0.00     0.125 A 
ATOM     30  C   UNL A   1      35.407  23.513  25.808  1.00  0.00     0.055 A 
ATOM     31  C   UNL A   1      37.152  23.474  24.132  1.00  0.00     0.055 A 
ATOM     32  C   UNL A   1      36.371  23.634  26.811  1.00  0.00     0.043 A 
ATOM     33  C   UNL A   1      38.116  23.589  25.135  1.00  0.00     0.043 A 
ATOM     34  C   UNL A   1      37.717  23.654  26.465  1.00  0.00     0.123 A 
ATOM     35  F   UNL A   1      38.644  23.726  27.429  1.00  0.00    -0.207 F 
ENDBRANCH  15  29
ENDBRANCH   5   8
ENDBRANCH   3   4
ENDBRANCH   2   3
ENDBRANCH   1   2
BRANCH   1  36
ATOM     36  C   UNL A   1      34.017  29.172  27.335  1.00  0.00     0.002 C 
BRANCH  36  37
ATOM     37  C   UNL A   1      34.101  30.665  27.665  1.00  0.00     0.021 C 
BRANCH  37  38
ATOM     38  C   UNL A   1      35.423  31.176  28.243  1.00  0.00     0.116 C 
BRANCH  38  39
ATOM     39  N   UNL A   1      35.441  31.079  29.695  1.00  0.00    -0.352 N 
ATOM     40  C   UNL A   1      36.357  30.570  30.585  1.00  0.00     0.251 C 
ATOM     41  H   UNL A   1      34.638  31.450  30.125  1.00  0.00     0.163 HD
ATOM     42  O   UNL A   1      35.979  30.401  31.746  1.00  0.00    -0.269 OA
BRANCH  40  43
ATOM     43  C   UNL A   1      37.763  30.216  30.230  1.00  0.00     0.039 A 
ATOM     44  C   UNL A   1      38.097  30.161  28.867  1.00  0.00     0.014 A 
ATOM     45  C   UNL A   1      38.725  29.825  31.163  1.00  0.00     0.014 A 
ATOM     46  C   UNL A   1      39.372  29.746  28.450  1.00  0.00     0.010 A 
ATOM     47  C   UNL A   1      40.022  29.478  30.748  1.00  0.00     0.010 A 
ATOM     48  C   UNL A   1      40.362  29.420  29.387  1.00  0.00    -0.014 A 
BRANCH  48  49
ATOM     49  C   UNL A   1      41.736  29.014  28.955  1.00  0.00     0.031 A 
ATOM     50  C   UNL A   1      42.840  30.038  28.822  1.00  0.00     0.074 A 
ATOM     51  C   UNL A   1      41.993  27.728  28.632  1.00  0.00     0.049 A 
ATOM     52  N   UNL A   1      44.066  29.882  28.387  1.00  0.00    -0.248 NA
ATOM     53  C   UNL A   1      42.523  31.419  29.219  1.00  0.00     0.031 C 
ATOM     54  C   UNL A   1      41.027  26.629  28.698  1.00  0.00     0.029 A 
ATOM     55  N   UNL A   1      43.137  27.128  28.160  1.00  0.00    -0.354 N 
ATOM     56  C   UNL A   1      44.658  31.141  28.435  1.00  0.00     0.074 A 
ATOM     57  C   UNL A   1      43.645  32.058  28.912  1.00  0.00     0.031 C 
ATOM     58  C   UNL A   1      41.611  25.499  28.269  1.00  0.00     0.029 A 
ATOM     59  C   UNL A   1      42.984  25.790  27.870  1.00  0.00     0.049 A 
ATOM     60  H   UNL A   1      43.987  27.610  28.040  1.00  0.00     0.167 HD
ATOM     61  C   UNL A   1      45.928  31.500  28.127  1.00  0.00     0.037 A 
ATOM     62  C   UNL A   1      43.838  24.898  27.328  1.00  0.00     0.037 A 
ATOM     63  C   UNL A   1      46.952  30.582  27.691  1.00  0.00     0.049 A 
ATOM     64  C   UNL A   1      45.240  25.326  26.981  1.00  0.00     0.074 A 
ATOM     65  C   UNL A   1      48.289  30.846  27.441  1.00  0.00     0.029 A 
ATOM     66  N   UNL A   1      46.758  29.235  27.429  1.00  0.00    -0.354 N 
ATOM     67  N   UNL A   1      45.798  26.505  27.111  1.00  0.00    -0.248 NA
ATOM     68  C   UNL A   1      46.133  24.299  26.423  1.00  0.00     0.031 C 
ATOM     69  C   UNL A   1      48.889  29.673  26.972  1.00  0.00     0.029 A 
ATOM     70  C   UNL A   1      47.942  28.663  26.989  1.00  0.00     0.049 A 
ATOM     71  H   UNL A   1      45.906  28.755  27.542  1.00  0.00     0.167 HD
ATOM     72  C   UNL A   1      47.115  26.352  26.686  1.00  0.00     0.074 A 
ATOM     73  C   UNL A   1      47.273  24.964  26.305  1.00  0.00     0.031 C 
ATOM     74  C   UNL A   1      48.102  27.279  26.622  1.00  0.00     0.037 A 
BRANCH  61  75
ATOM     75  C   UNL A   1      46.306  32.953  28.241  1.00  0.00     0.058 A 
ATOM     76  C   UNL A   1      46.876  33.484  29.409  1.00  0.00     0.135 A 
ATOM     77  C   UNL A   1      46.178  33.807  27.131  1.00  0.00     0.135 A 
ATOM     78  F   UNL A   1      47.014  32.718  30.502  1.00  0.00    -0.206 F 
ATOM     79  C   UNL A   1      47.289  34.812  29.478  1.00  0.00     0.059 A 
ATOM     80  C   UNL A   1      46.610  35.130  27.169  1.00  0.00     0.059 A 
ATOM     81  F   UNL A   1      45.643  33.352  25.987  1.00  0.00    -0.206 F 
ATOM     82  C   UNL A   1      47.157  35.626  28.352  1.00  0.00     0.060 A 
BRANCH  82  83
ATOM     83  S   UNL A   1      47.723  37.337  28.451  1.00  0.00     0.124 S 
ATOM     84  O   UNL A   1      49.153  37.157  28.689  1.00  0.00    -0.237 OA
ATOM     85  O   UNL A   1      47.361  37.861  27.136  1.00  0.00    -0.237 OA
ATOM     86  O   UNL A   1      46.966  37.884  29.572  1.00  0.00    -0.744 OA
ENDBRANCH  82  83
ENDBRANCH  61  75
BRANCH  62  87
ATOM     87  C   UNL A   1      43.394  23.499  27.072  1.00  0.00     0.058 A 
ATOM     88  C   UNL A   1      43.059  23.068  25.780  1.00  0.00     0.135 A 
ATOM     89  C   UNL A   1      43.275  22.573  28.120  1.00  0.00     0.135 A 
ATOM     90  F   UNL A   1      43.147  23.918  24.745  1.00  0.00    -0.206 F 
ATOM     91  C   UNL A   1      42.593  21.780  25.539  1.00  0.00     0.059 A 
ATOM     92  C   UNL A   1      42.841  21.269  27.899  1.00  0.00     0.059 A 
ATOM     93  F   UNL A   1      43.598  22.930  29.373  1.00  0.00    -0.206 F 
ATOM     94  C   UNL A   1      42.487  20.887  26.606  1.00  0.00     0.060 A 
BRANCH  94  95
ATOM     95  S   UNL A   1      41.901  19.210  26.278  1.00  0.00     0.124 S 
ATOM     96  O   UNL A   1      42.024  18.593  27.593  1.00  0.00    -0.237 OA
ATOM     97  O   UNL A   1      40.538  19.449  25.810  1.00  0.00    -0.237 OA
ATOM     98  O   UNL A   1      42.828  18.723  25.262  1.00  0.00    -0.744 OA
ENDBRANCH  94  95
ENDBRANCH  62  87
BRANCH  74  99
ATOM     99  C   UNL A   1      49.462  26.822  26.166  1.00  0.00     0.058 A 
ATOM    100  C   UNL A   1      49.893  26.979  24.839  1.00  0.00     0.135 A 
ATOM    101  C   UNL A   1      50.368  26.263  27.085  1.00  0.00     0.135 A 
ATOM    102  F   UNL A   1      49.067  27.501  23.919  1.00  0.00    -0.206 F 
ATOM    103  C   UNL A   1      51.163  26.577  24.434  1.00  0.00     0.059 A 
ATOM    104  C   UNL A   1      51.653  25.882  26.708  1.00  0.00     0.059 A 
ATOM    105  F   UNL A   1      50.013  26.098  28.369  1.00  0.00    -0.206 F 
ATOM    106  C   UNL A   1      52.036  26.032  25.377  1.00  0.00     0.060 A 
BRANCH 106 107
ATOM    107  S   UNL A   1      53.692  25.546  24.845  1.00  0.00     0.124 S 
ATOM    108  O   UNL A   1      54.532  26.330  25.744  1.00  0.00    -0.237 OA
ATOM    109  O   UNL A   1      53.685  24.105  25.081  1.00  0.00    -0.237 OA
ATOM    110  O   UNL A   1      53.730  25.945  23.441  1.00  0.00    -0.744 OA
ENDBRANCH 106 107
ENDBRANCH  74  99
ENDBRANCH  48  49
ENDBRANCH  40  43
ENDBRANCH  38  39
ENDBRANCH  37  38
ENDBRANCH  36  37
ENDBRANCH   1  36
TORSDOF 22
ENDMDL
MODEL 3
REMARK VINA RESULT:     -10.2      6.346     13.408
REMARK SMILES COc1ccc(CCN2C(=O)C[C@@H](C(=O)NCCCCCCNC(=O)c3ccc(-c4c5nc(c(-c6c(F)cc(S(=O)(=O)[O-])cc6F)c6ccc([nH]6)c(-c6c(F)cc(S(=O)(=O)[O-])cc6F)c6nc(c(-c7c(F)cc(S(=O)(=O)[O-])cc7F)c7ccc4[nH]7)C=C6)C=C5)cc3)S/C2=[NH+]\c2ccc(F)cc2)cc1OC
REMARK SMILES IDX 19 1 18 2 17 3 16 4 14 5 15 6 13 8 9 9 10 10 93 11 11 12
REMARK SMILES IDX 12 13 92 14 94 15 8 17 7 18 6 19 3 20 4 21 103 22 5 23
REMARK SMILES IDX 102 24 2 25 1 26 104 27 105 28 95 29 96 30 101 31 97 32
REMARK SMILES IDX 100 33 98 34 99 35 20 36 21 37 22 38 23 39 24 40 25 42 26 43
REMARK SMILES IDX 27 44 91 45 28 46 90 47 29 48 30 49 31 50 84 51 32 52 89 53
REMARK SMILES IDX 83 54 85 55 33 56 88 57 82 58 81 59 34 61 68 62 47 63 67 64
REMARK SMILES IDX 48 65 51 66 66 67 86 68 49 69 50 70 65 72 87 73 52 74 35 75
REMARK SMILES IDX 36 76 45 77 37 78 38 79 44 80 46 81 39 82 40 83 41 84 42 85
REMARK SMILES IDX 43 86 69 87 70 88 79 89 71 90 72 91 78 92 80 93 73 94 74 95
REMARK SMILES IDX 75 96 76 97 77 98 53 99 54 100 63 101 55 102 56 103 62 104
REMARK SMILES IDX 64 105 57 106 58 107 59 108 60 109 61 110
REMARK H PARENT 16 7 94 16 23 41 85 60 51 71
REMARK Flexibility Score: inf
ROOT
ATOM      1  C   UNL A   1      40.308  33.485  29.965  1.00  0.00     0.002 C 
ENDROOT
BRANCH   1   2
ATOM      2  C   UNL A   1      41.454  34.186  30.705  1.00  0.00     0.021 C 
BRANCH   2   3
ATOM      3  C   UNL A   1      41.337  34.261  32.228  1.00  0.00     0.116 C 
BRANCH   3   4
ATOM      4  N   UNL A   1      42.470  33.761  32.985  1.00  0.00    -0.355 N 
ATOM      5  C   UNL A   1      42.511  32.880  34.040  1.00  0.00     0.234 C 
ATOM      6  O   UNL A   1      43.621  32.459  34.379  1.00  0.00    -0.274 OA
ATOM      7  H   UNL A   1      43.347  34.107  32.698  1.00  0.00     0.163 HD
BRANCH   5   8
ATOM      8  C   UNL A   1      41.248  32.409  34.797  1.00  0.00     0.160 C 
ATOM      9  N   UNL A   1      38.300  32.773  35.141  1.00  0.00    -0.191 N 
ATOM     10  C   UNL A   1      38.821  31.686  34.447  1.00  0.00     0.311 C 
ATOM     11  C   UNL A   1      39.008  33.458  36.120  1.00  0.00     0.319 C 
ATOM     12  O   UNL A   1      38.156  30.674  34.210  1.00  0.00    -0.247 OA
ATOM     13  C   UNL A   1      40.220  31.785  33.893  1.00  0.00     0.153 C 
ATOM     14  S   UNL A   1      40.699  33.761  35.829  1.00  0.00    -0.024 SA
ATOM     15  N   UNL A   1      38.390  33.922  37.168  1.00  0.00    -0.235 N 
ATOM     16  H   UNL A   1      37.418  33.805  37.262  1.00  0.00     0.313 HD
BRANCH   9  17
ATOM     17  C   UNL A   1      36.836  32.969  35.063  1.00  0.00     0.251 C 
BRANCH  17  18
ATOM     18  C   UNL A   1      36.278  33.012  33.606  1.00  0.00     0.082 C 
BRANCH  18  19
ATOM     19  C   UNL A   1      35.252  34.092  33.287  1.00  0.00    -0.040 A 
ATOM     20  C   UNL A   1      33.422  36.175  32.667  1.00  0.00     0.160 A 
ATOM     21  C   UNL A   1      34.138  36.199  33.857  1.00  0.00     0.051 A 
ATOM     22  C   UNL A   1      33.551  35.069  31.819  1.00  0.00     0.160 A 
ATOM     23  C   UNL A   1      35.013  35.151  34.158  1.00  0.00     0.008 A 
ATOM     24  C   UNL A   1      34.475  34.049  32.124  1.00  0.00     0.054 A 
BRANCH  20  25
ATOM     25  O   UNL A   1      32.769  37.301  32.244  1.00  0.00    -0.493 OA
ATOM     26  C   UNL A   1      33.615  38.431  32.075  1.00  0.00     0.278 C 
ENDBRANCH  20  25
BRANCH  22  27
ATOM     27  O   UNL A   1      32.882  34.901  30.637  1.00  0.00    -0.493 OA
ATOM     28  C   UNL A   1      33.618  35.277  29.475  1.00  0.00     0.278 C 
ENDBRANCH  22  27
ENDBRANCH  18  19
ENDBRANCH  17  18
ENDBRANCH   9  17
BRANCH  15  29
ATOM     29  C   UNL A   1      39.126  34.592  38.162  1.00  0.00     0.125 A 
ATOM     30  C   UNL A   1      39.453  35.947  38.007  1.00  0.00     0.055 A 
ATOM     31  C   UNL A   1      39.465  33.936  39.351  1.00  0.00     0.055 A 
ATOM     32  C   UNL A   1      40.038  36.656  39.059  1.00  0.00     0.043 A 
ATOM     33  C   UNL A   1      40.043  34.645  40.405  1.00  0.00     0.043 A 
ATOM     34  C   UNL A   1      40.311  36.001  40.254  1.00  0.00     0.123 A 
ATOM     35  F   UNL A   1      40.830  36.689  41.279  1.00  0.00    -0.207 F 
ENDBRANCH  15  29
ENDBRANCH   5   8
ENDBRANCH   3   4
ENDBRANCH   2   3
ENDBRANCH   1   2
BRANCH   1  36
ATOM     36  C   UNL A   1      38.988  34.256  29.835  1.00  0.00     0.002 C 
BRANCH  36  37
ATOM     37  C   UNL A   1      37.731  33.561  30.365  1.00  0.00     0.021 C 
BRANCH  37  38
ATOM     38  C   UNL A   1      36.730  33.048  29.326  1.00  0.00     0.116 C 
BRANCH  38  39
ATOM     39  N   UNL A   1      36.117  31.798  29.750  1.00  0.00    -0.352 N 
ATOM     40  C   UNL A   1      36.483  30.481  29.602  1.00  0.00     0.251 C 
ATOM     41  H   UNL A   1      35.272  31.919  30.241  1.00  0.00     0.163 HD
ATOM     42  O   UNL A   1      35.629  29.629  29.851  1.00  0.00    -0.269 OA
BRANCH  40  43
ATOM     43  C   UNL A   1      37.837  30.033  29.161  1.00  0.00     0.039 A 
ATOM     44  C   UNL A   1      38.863  30.018  30.120  1.00  0.00     0.014 A 
ATOM     45  C   UNL A   1      38.166  29.742  27.835  1.00  0.00     0.014 A 
ATOM     46  C   UNL A   1      40.182  29.697  29.763  1.00  0.00     0.010 A 
ATOM     47  C   UNL A   1      39.471  29.353  27.493  1.00  0.00     0.010 A 
ATOM     48  C   UNL A   1      40.502  29.336  28.446  1.00  0.00    -0.014 A 
BRANCH  48  49
ATOM     49  C   UNL A   1      41.897  28.955  28.063  1.00  0.00     0.031 A 
ATOM     50  C   UNL A   1      42.238  27.528  27.699  1.00  0.00     0.074 A 
ATOM     51  C   UNL A   1      42.883  29.879  28.084  1.00  0.00     0.049 A 
ATOM     52  N   UNL A   1      43.404  27.001  27.419  1.00  0.00    -0.248 NA
ATOM     53  C   UNL A   1      41.126  26.566  27.656  1.00  0.00     0.031 C 
ATOM     54  C   UNL A   1      42.711  31.292  28.426  1.00  0.00     0.029 A 
ATOM     55  N   UNL A   1      44.231  29.765  27.835  1.00  0.00    -0.354 N 
ATOM     56  C   UNL A   1      43.173  25.648  27.189  1.00  0.00     0.074 A 
ATOM     57  C   UNL A   1      41.757  25.428  27.394  1.00  0.00     0.031 C 
ATOM     58  C   UNL A   1      43.904  31.908  28.382  1.00  0.00     0.029 A 
ATOM     59  C   UNL A   1      44.934  30.933  28.035  1.00  0.00     0.049 A 
ATOM     60  H   UNL A   1      44.655  28.927  27.541  1.00  0.00     0.167 HD
ATOM     61  C   UNL A   1      44.051  24.681  26.825  1.00  0.00     0.037 A 
ATOM     62  C   UNL A   1      46.255  31.195  27.970  1.00  0.00     0.037 A 
ATOM     63  C   UNL A   1      45.454  24.905  26.579  1.00  0.00     0.049 A 
ATOM     64  C   UNL A   1      47.211  30.099  27.578  1.00  0.00     0.074 A 
ATOM     65  C   UNL A   1      46.399  23.999  26.122  1.00  0.00     0.029 A 
ATOM     66  N   UNL A   1      46.118  26.105  26.775  1.00  0.00    -0.354 N 
ATOM     67  N   UNL A   1      46.956  28.846  27.288  1.00  0.00    -0.248 NA
ATOM     68  C   UNL A   1      48.636  30.454  27.493  1.00  0.00     0.031 C 
ATOM     69  C   UNL A   1      47.644  24.636  26.100  1.00  0.00     0.029 A 
ATOM     70  C   UNL A   1      47.465  25.954  26.482  1.00  0.00     0.049 A 
ATOM     71  H   UNL A   1      45.695  26.942  27.077  1.00  0.00     0.167 HD
ATOM     72  C   UNL A   1      48.180  28.276  26.952  1.00  0.00     0.074 A 
ATOM     73  C   UNL A   1      49.174  29.322  27.063  1.00  0.00     0.031 C 
ATOM     74  C   UNL A   1      48.452  27.000  26.581  1.00  0.00     0.037 A 
BRANCH  61  75
ATOM     75  C   UNL A   1      43.537  23.274  26.668  1.00  0.00     0.058 A 
ATOM     76  C   UNL A   1      43.423  22.659  25.411  1.00  0.00     0.135 A 
ATOM     77  C   UNL A   1      43.240  22.498  27.803  1.00  0.00     0.135 A 
ATOM     78  F   UNL A   1      43.683  23.355  24.292  1.00  0.00    -0.206 F 
ATOM     79  C   UNL A   1      43.016  21.334  25.283  1.00  0.00     0.059 A 
ATOM     80  C   UNL A   1      42.859  21.163  27.699  1.00  0.00     0.059 A 
ATOM     81  F   UNL A   1      43.336  23.033  29.030  1.00  0.00    -0.206 F 
ATOM     82  C   UNL A   1      42.741  20.593  26.433  1.00  0.00     0.060 A 
BRANCH  82  83
ATOM     83  S   UNL A   1      42.242  18.867  26.249  1.00  0.00     0.124 S 
ATOM     84  O   UNL A   1      40.854  19.010  25.822  1.00  0.00    -0.237 OA
ATOM     85  O   UNL A   1      43.171  18.382  25.232  1.00  0.00    -0.237 OA
ATOM     86  O   UNL A   1      42.432  18.312  27.585  1.00  0.00    -0.744 OA
ENDBRANCH  82  83
ENDBRANCH  61  75
BRANCH  62  87
ATOM     87  C   UNL A   1      46.763  32.558  28.286  1.00  0.00     0.058 A 
ATOM     88  C   UNL A   1      46.851  33.549  27.298  1.00  0.00     0.135 A 
ATOM     89  C   UNL A   1      47.194  32.890  29.581  1.00  0.00     0.135 A 
ATOM     90  F   UNL A   1      46.460  33.280  26.042  1.00  0.00    -0.206 F 
ATOM     91  C   UNL A   1      47.373  34.809  27.571  1.00  0.00     0.059 A 
ATOM     92  C   UNL A   1      47.691  34.152  29.887  1.00  0.00     0.059 A 
ATOM     93  F   UNL A   1      47.117  31.983  30.567  1.00  0.00    -0.206 F 
ATOM     94  C   UNL A   1      47.793  35.101  28.870  1.00  0.00     0.060 A 
BRANCH  94  95
ATOM     95  S   UNL A   1      48.450  36.747  29.219  1.00  0.00     0.124 S 
ATOM     96  O   UNL A   1      48.820  36.623  30.624  1.00  0.00    -0.237 OA
ATOM     97  O   UNL A   1      49.558  36.840  28.272  1.00  0.00    -0.237 OA
ATOM     98  O   UNL A   1      47.320  37.627  28.938  1.00  0.00    -0.744 OA
ENDBRANCH  94  95
ENDBRANCH  62  87
BRANCH  74  99
ATOM     99  C   UNL A   1      49.875  26.664  26.220  1.00  0.00     0.058 A 
ATOM    100  C   UNL A   1      50.391  26.898  24.936  1.00  0.00     0.135 A 
ATOM    101  C   UNL A   1      50.750  26.147  27.190  1.00  0.00     0.135 A 
ATOM    102  F   UNL A   1      49.598  27.386  23.968  1.00  0.00    -0.206 F 
ATOM    103  C   UNL A   1      51.715  26.609  24.619  1.00  0.00     0.059 A 
ATOM    104  C   UNL A   1      52.085  25.878  26.905  1.00  0.00     0.059 A 
ATOM    105  F   UNL A   1      50.313  25.912  28.439  1.00  0.00    -0.206 F 
ATOM    106  C   UNL A   1      52.555  26.101  25.612  1.00  0.00     0.060 A 
BRANCH 106 107
ATOM    107  S   UNL A   1      54.279  25.761  25.198  1.00  0.00     0.124 S 
ATOM    108  O   UNL A   1      54.985  26.586  26.173  1.00  0.00    -0.237 OA
ATOM    109  O   UNL A   1      54.372  24.319  25.405  1.00  0.00    -0.237 OA
ATOM    110  O   UNL A   1      54.389  26.197  23.809  1.00  0.00    -0.744 OA
ENDBRANCH 106 107
ENDBRANCH  74  99
ENDBRANCH  48  49
ENDBRANCH  40  43
ENDBRANCH  38  39
ENDBRANCH  37  38
ENDBRANCH  36  37
ENDBRANCH   1  36
TORSDOF 22
ENDMDL
