MODEL 1
REMARK VINA RESULT:     -11.0      0.000      0.000
REMARK SMILES C#CCNC(=O)[C@H](C)S(=O)(=O)c1ccc(C(=O)NCCCCCCNC(=O)c2ccc(-c3c4nc(c(-c5c(F)cc(S(=O)(=O)[O-])cc5F)c5ccc([nH]5)c(-c5c(F)cc(S(=O)(=O)[O-])cc5F)c5nc(c(-c6c(F)cc(S(=O)(=O)[O-])cc6F)c6ccc3[nH]6)C=C5)C=C4)cc2)cc1F
REMARK SMILES IDX 20 1 19 2 18 3 16 4 17 5 15 7 12 8 13 9 95 10 14 11 94 12
REMARK SMILES IDX 96 13 9 14 10 15 11 16 7 17 8 18 5 19 4 20 6 22 3 23 2 24
REMARK SMILES IDX 1 25 21 26 22 27 23 28 24 29 25 30 26 31 27 33 28 34 29 35
REMARK SMILES IDX 93 36 30 37 92 38 31 39 32 40 33 41 86 42 34 43 91 44 85 45
REMARK SMILES IDX 87 46 35 47 90 48 84 49 83 50 36 52 70 53 49 54 69 55 50 56
REMARK SMILES IDX 53 57 68 58 88 59 51 60 52 61 67 63 89 64 54 65 37 66 38 67
REMARK SMILES IDX 47 68 39 69 40 70 46 71 48 72 41 73 42 74 43 75 44 76 45 77
REMARK SMILES IDX 71 78 72 79 81 80 73 81 74 82 80 83 82 84 75 85 76 86 77 87
REMARK SMILES IDX 78 88 79 89 55 90 56 91 65 92 57 93 58 94 64 95 66 96 59 97
REMARK SMILES IDX 60 98 61 99 62 100 63 101
REMARK H PARENT 18 6 4 21 25 32 87 51 53 62
REMARK Flexibility Score: inf
ROOT
ATOM      1  C   UNL A   1      35.522  21.476  26.115  1.00  0.00     0.021 C 
ENDROOT
BRANCH   1   2
ATOM      2  C   UNL A   1      35.509  20.421  25.004  1.00  0.00     0.116 C 
BRANCH   2   3
ATOM      3  N   UNL A   1      34.332  19.578  25.144  1.00  0.00    -0.352 N 
ATOM      4  C   UNL A   1      32.987  19.835  25.159  1.00  0.00     0.251 C 
ATOM      5  O   UNL A   1      32.220  18.886  25.325  1.00  0.00    -0.269 OA
ATOM      6  H   UNL A   1      34.548  18.623  25.251  1.00  0.00     0.163 HD
BRANCH   4   7
ATOM      7  C   UNL A   1      32.413  21.182  24.911  1.00  0.00     0.042 A 
ATOM      8  C   UNL A   1      31.631  23.810  24.358  1.00  0.00     0.103 A 
ATOM      9  C   UNL A   1      32.005  22.975  23.306  1.00  0.00     0.024 A 
ATOM     10  C   UNL A   1      31.618  23.319  25.650  1.00  0.00     0.142 A 
ATOM     11  C   UNL A   1      32.416  21.668  23.591  1.00  0.00     0.015 A 
ATOM     12  C   UNL A   1      31.913  21.996  25.917  1.00  0.00     0.054 A 
ATOM     13  F   UNL A   1      31.370  24.101  26.700  1.00  0.00    -0.206 F 
BRANCH   8  14
ATOM     14  S   UNL A   1      31.290  25.513  24.088  1.00  0.00     0.192 S 
ATOM     15  O   UNL A   1      30.072  25.807  24.832  1.00  0.00    -0.223 OA
ATOM     16  O   UNL A   1      31.260  25.701  22.652  1.00  0.00    -0.223 OA
BRANCH  14  17
ATOM     17  C   UNL A   1      32.597  26.482  24.824  1.00  0.00     0.199 C 
ATOM     18  C   UNL A   1      33.949  26.010  24.263  1.00  0.00     0.036 C 
BRANCH  17  19
ATOM     19  C   UNL A   1      32.473  27.982  24.630  1.00  0.00     0.239 C 
ATOM     20  N   UNL A   1      33.179  28.879  25.381  1.00  0.00    -0.344 N 
ATOM     21  H   UNL A   1      33.397  29.735  24.947  1.00  0.00     0.164 HD
ATOM     22  O   UNL A   1      31.787  28.443  23.710  1.00  0.00    -0.274 OA
BRANCH  20  23
ATOM     23  C   UNL A   1      33.645  28.715  26.743  1.00  0.00     0.206 C 
BRANCH  23  24
ATOM     24  C   UNL A   1      34.342  29.885  27.263  1.00  0.00    -0.085 C 
ATOM     25  C   UNL A   1      34.793  30.860  27.809  1.00  0.00     0.006 C 
ENDBRANCH  23  24
ENDBRANCH  20  23
ENDBRANCH  17  19
ENDBRANCH  14  17
ENDBRANCH   8  14
ENDBRANCH   4   7
ENDBRANCH   2   3
ENDBRANCH   1   2
BRANCH   1  26
ATOM     26  C   UNL A   1      35.885  22.869  25.584  1.00  0.00     0.002 C 
BRANCH  26  27
ATOM     27  C   UNL A   1      37.371  23.044  25.252  1.00  0.00     0.002 C 
BRANCH  27  28
ATOM     28  C   UNL A   1      38.093  24.072  26.124  1.00  0.00     0.021 C 
BRANCH  28  29
ATOM     29  C   UNL A   1      39.230  23.477  26.944  1.00  0.00     0.116 C 
BRANCH  29  30
ATOM     30  N   UNL A   1      40.516  23.706  26.299  1.00  0.00    -0.352 N 
ATOM     31  C   UNL A   1      41.307  24.825  26.334  1.00  0.00     0.251 C 
ATOM     32  H   UNL A   1      40.865  22.955  25.767  1.00  0.00     0.163 HD
ATOM     33  O   UNL A   1      42.213  24.970  25.520  1.00  0.00    -0.269 OA
BRANCH  31  34
ATOM     34  C   UNL A   1      41.047  25.851  27.362  1.00  0.00     0.039 A 
ATOM     35  C   UNL A   1      40.124  25.588  28.375  1.00  0.00     0.014 A 
ATOM     36  C   UNL A   1      41.735  27.068  27.326  1.00  0.00     0.014 A 
ATOM     37  C   UNL A   1      39.933  26.529  29.387  1.00  0.00     0.010 A 
ATOM     38  C   UNL A   1      41.608  27.962  28.379  1.00  0.00     0.010 A 
ATOM     39  C   UNL A   1      40.699  27.707  29.416  1.00  0.00    -0.014 A 
BRANCH  39  40
ATOM     40  C   UNL A   1      40.569  28.696  30.514  1.00  0.00     0.031 A 
ATOM     41  C   UNL A   1      41.428  28.566  31.740  1.00  0.00     0.074 A 
ATOM     42  C   UNL A   1      39.632  29.662  30.436  1.00  0.00     0.049 A 
ATOM     43  N   UNL A   1      41.391  29.256  32.850  1.00  0.00    -0.248 NA
ATOM     44  C   UNL A   1      42.448  27.502  31.731  1.00  0.00     0.031 C 
ATOM     45  C   UNL A   1      38.724  29.870  29.306  1.00  0.00     0.029 A 
ATOM     46  N   UNL A   1      39.278  30.644  31.328  1.00  0.00    -0.354 N 
ATOM     47  C   UNL A   1      42.370  28.708  33.669  1.00  0.00     0.074 A 
ATOM     48  C   UNL A   1      42.944  27.589  32.957  1.00  0.00     0.031 C 
ATOM     49  C   UNL A   1      37.939  30.928  29.560  1.00  0.00     0.029 A 
ATOM     50  C   UNL A   1      38.244  31.440  30.893  1.00  0.00     0.049 A 
ATOM     51  H   UNL A   1      39.723  30.766  32.198  1.00  0.00     0.167 HD
ATOM     52  C   UNL A   1      42.772  29.122  34.893  1.00  0.00     0.037 A 
ATOM     53  C   UNL A   1      37.603  32.456  31.504  1.00  0.00     0.037 A 
ATOM     54  C   UNL A   1      42.205  30.250  35.583  1.00  0.00     0.049 A 
ATOM     55  C   UNL A   1      38.034  32.865  32.888  1.00  0.00     0.074 A 
ATOM     56  C   UNL A   1      42.572  30.775  36.809  1.00  0.00     0.029 A 
ATOM     57  N   UNL A   1      41.155  31.025  35.113  1.00  0.00    -0.354 N 
ATOM     58  N   UNL A   1      38.995  32.367  33.630  1.00  0.00    -0.248 NA
ATOM     59  C   UNL A   1      37.296  33.966  33.521  1.00  0.00     0.031 C 
ATOM     60  C   UNL A   1      41.701  31.823  37.111  1.00  0.00     0.029 A 
ATOM     61  C   UNL A   1      40.838  32.002  36.041  1.00  0.00     0.049 A 
ATOM     62  H   UNL A   1      40.701  30.899  34.248  1.00  0.00     0.167 HD
ATOM     63  C   UNL A   1      38.996  33.114  34.803  1.00  0.00     0.074 A 
ATOM     64  C   UNL A   1      37.947  34.102  34.670  1.00  0.00     0.031 C 
ATOM     65  C   UNL A   1      39.797  32.990  35.891  1.00  0.00     0.037 A 
BRANCH  52  66
ATOM     66  C   UNL A   1      43.884  28.365  35.568  1.00  0.00     0.058 A 
ATOM     67  C   UNL A   1      45.223  28.738  35.373  1.00  0.00     0.135 A 
ATOM     68  C   UNL A   1      43.631  27.222  36.346  1.00  0.00     0.135 A 
ATOM     69  F   UNL A   1      45.524  29.825  34.645  1.00  0.00    -0.206 F 
ATOM     70  C   UNL A   1      46.272  27.994  35.903  1.00  0.00     0.059 A 
ATOM     71  C   UNL A   1      44.663  26.483  36.915  1.00  0.00     0.059 A 
ATOM     72  F   UNL A   1      42.368  26.832  36.584  1.00  0.00    -0.206 F 
ATOM     73  C   UNL A   1      45.981  26.867  36.673  1.00  0.00     0.060 A 
BRANCH  73  74
ATOM     74  S   UNL A   1      47.355  25.926  37.370  1.00  0.00     0.124 S 
ATOM     75  O   UNL A   1      46.890  24.553  37.213  1.00  0.00    -0.237 OA
ATOM     76  O   UNL A   1      48.464  26.327  36.510  1.00  0.00    -0.237 OA
ATOM     77  O   UNL A   1      47.432  26.411  38.746  1.00  0.00    -0.744 OA
ENDBRANCH  73  74
ENDBRANCH  52  66
BRANCH  53  78
ATOM     78  C   UNL A   1      36.501  33.164  30.798  1.00  0.00     0.058 A 
ATOM     79  C   UNL A   1      36.762  34.088  29.774  1.00  0.00     0.135 A 
ATOM     80  C   UNL A   1      35.162  32.960  31.165  1.00  0.00     0.135 A 
ATOM     81  F   UNL A   1      38.025  34.331  29.389  1.00  0.00    -0.206 F 
ATOM     82  C   UNL A   1      35.740  34.807  29.161  1.00  0.00     0.059 A 
ATOM     83  C   UNL A   1      34.119  33.643  30.545  1.00  0.00     0.059 A 
ATOM     84  F   UNL A   1      34.860  32.078  32.130  1.00  0.00    -0.206 F 
ATOM     85  C   UNL A   1      34.422  34.578  29.556  1.00  0.00     0.060 A 
BRANCH  85  86
ATOM     86  S   UNL A   1      33.113  35.533  28.757  1.00  0.00     0.124 S 
ATOM     87  O   UNL A   1      33.888  36.509  27.997  1.00  0.00    -0.237 OA
ATOM     88  O   UNL A   1      32.432  34.511  27.970  1.00  0.00    -0.237 OA
ATOM     89  O   UNL A   1      32.353  36.072  29.880  1.00  0.00    -0.744 OA
ENDBRANCH  85  86
ENDBRANCH  53  78
BRANCH  65  90
ATOM     90  C   UNL A   1      39.604  33.954  37.030  1.00  0.00     0.058 A 
ATOM     91  C   UNL A   1      40.322  35.162  37.064  1.00  0.00     0.135 A 
ATOM     92  C   UNL A   1      38.818  33.627  38.146  1.00  0.00     0.135 A 
ATOM     93  F   UNL A   1      41.094  35.521  36.025  1.00  0.00    -0.206 F 
ATOM     94  C   UNL A   1      40.299  35.991  38.178  1.00  0.00     0.059 A 
ATOM     95  C   UNL A   1      38.754  34.459  39.260  1.00  0.00     0.059 A 
ATOM     96  F   UNL A   1      38.106  32.490  38.160  1.00  0.00    -0.206 F 
ATOM     97  C   UNL A   1      39.517  35.627  39.276  1.00  0.00     0.060 A 
BRANCH  97  98
ATOM     98  S   UNL A   1      39.526  36.700  40.726  1.00  0.00     0.124 S 
ATOM     99  O   UNL A   1      38.532  37.705  40.364  1.00  0.00    -0.237 OA
ATOM    100  O   UNL A   1      39.139  35.779  41.790  1.00  0.00    -0.237 OA
ATOM    101  O   UNL A   1      40.905  37.177  40.789  1.00  0.00    -0.744 OA
ENDBRANCH  97  98
ENDBRANCH  65  90
ENDBRANCH  39  40
ENDBRANCH  31  34
ENDBRANCH  29  30
ENDBRANCH  28  29
ENDBRANCH  27  28
ENDBRANCH  26  27
ENDBRANCH   1  26
TORSDOF 21
ENDMDL
MODEL 2
REMARK VINA RESULT:     -10.9      1.296      2.092
REMARK SMILES C#CCNC(=O)[C@H](C)S(=O)(=O)c1ccc(C(=O)NCCCCCCNC(=O)c2ccc(-c3c4nc(c(-c5c(F)cc(S(=O)(=O)[O-])cc5F)c5ccc([nH]5)c(-c5c(F)cc(S(=O)(=O)[O-])cc5F)c5nc(c(-c6c(F)cc(S(=O)(=O)[O-])cc6F)c6ccc3[nH]6)C=C5)C=C4)cc2)cc1F
REMARK SMILES IDX 20 1 19 2 18 3 16 4 17 5 15 7 12 8 13 9 95 10 14 11 94 12
REMARK SMILES IDX 96 13 9 14 10 15 11 16 7 17 8 18 5 19 4 20 6 22 3 23 2 24
REMARK SMILES IDX 1 25 21 26 22 27 23 28 24 29 25 30 26 31 27 33 28 34 29 35
REMARK SMILES IDX 93 36 30 37 92 38 31 39 32 40 33 41 86 42 34 43 91 44 85 45
REMARK SMILES IDX 87 46 35 47 90 48 84 49 83 50 36 52 70 53 49 54 69 55 50 56
REMARK SMILES IDX 53 57 68 58 88 59 51 60 52 61 67 63 89 64 54 65 37 66 38 67
REMARK SMILES IDX 47 68 39 69 40 70 46 71 48 72 41 73 42 74 43 75 44 76 45 77
REMARK SMILES IDX 71 78 72 79 81 80 73 81 74 82 80 83 82 84 75 85 76 86 77 87
REMARK SMILES IDX 78 88 79 89 55 90 56 91 65 92 57 93 58 94 64 95 66 96 59 97
REMARK SMILES IDX 60 98 61 99 62 100 63 101
REMARK H PARENT 18 6 4 21 25 32 87 51 53 62
REMARK Flexibility Score: inf
ROOT
ATOM      1  C   UNL A   1      37.338  21.632  25.153  1.00  0.00     0.021 C 
ENDROOT
BRANCH   1   2
ATOM      2  C   UNL A   1      35.915  21.130  24.893  1.00  0.00     0.116 C 
BRANCH   2   3
ATOM      3  N   UNL A   1      35.155  21.151  26.133  1.00  0.00    -0.352 N 
ATOM      4  C   UNL A   1      34.153  21.954  26.610  1.00  0.00     0.251 C 
ATOM      5  O   UNL A   1      33.719  21.728  27.740  1.00  0.00    -0.269 OA
ATOM      6  H   UNL A   1      35.415  20.439  26.762  1.00  0.00     0.163 HD
BRANCH   4   7
ATOM      7  C   UNL A   1      33.519  23.028  25.804  1.00  0.00     0.042 A 
ATOM      8  C   UNL A   1      32.295  25.216  24.563  1.00  0.00     0.103 A 
ATOM      9  C   UNL A   1      33.583  25.358  25.076  1.00  0.00     0.024 A 
ATOM     10  C   UNL A   1      31.657  23.994  24.643  1.00  0.00     0.142 A 
ATOM     11  C   UNL A   1      34.182  24.266  25.715  1.00  0.00     0.015 A 
ATOM     12  C   UNL A   1      32.293  22.886  25.170  1.00  0.00     0.054 A 
ATOM     13  F   UNL A   1      30.390  23.832  24.263  1.00  0.00    -0.206 F 
BRANCH   8  14
ATOM     14  S   UNL A   1      31.417  26.597  23.922  1.00  0.00     0.192 S 
ATOM     15  O   UNL A   1      30.216  26.730  24.736  1.00  0.00    -0.223 OA
ATOM     16  O   UNL A   1      31.243  26.349  22.505  1.00  0.00    -0.223 OA
BRANCH  14  17
ATOM     17  C   UNL A   1      32.392  28.070  24.189  1.00  0.00     0.199 C 
ATOM     18  C   UNL A   1      33.274  28.319  22.953  1.00  0.00     0.036 C 
BRANCH  17  19
ATOM     19  C   UNL A   1      31.594  29.324  24.493  1.00  0.00     0.239 C 
ATOM     20  N   UNL A   1      30.513  29.704  23.748  1.00  0.00    -0.344 N 
ATOM     21  H   UNL A   1      29.817  30.216  24.219  1.00  0.00     0.164 HD
ATOM     22  O   UNL A   1      31.846  30.002  25.496  1.00  0.00    -0.274 OA
BRANCH  20  23
ATOM     23  C   UNL A   1      30.273  29.439  22.344  1.00  0.00     0.206 C 
BRANCH  23  24
ATOM     24  C   UNL A   1      29.061  30.067  21.833  1.00  0.00    -0.085 C 
ATOM     25  C   UNL A   1      28.163  30.679  21.314  1.00  0.00     0.006 C 
ENDBRANCH  23  24
ENDBRANCH  20  23
ENDBRANCH  17  19
ENDBRANCH  14  17
ENDBRANCH   8  14
ENDBRANCH   4   7
ENDBRANCH   2   3
ENDBRANCH   1   2
BRANCH   1  26
ATOM     26  C   UNL A   1      37.403  23.161  25.247  1.00  0.00     0.002 C 
BRANCH  26  27
ATOM     27  C   UNL A   1      38.358  23.681  26.328  1.00  0.00     0.002 C 
BRANCH  27  28
ATOM     28  C   UNL A   1      39.499  22.723  26.673  1.00  0.00     0.021 C 
BRANCH  28  29
ATOM     29  C   UNL A   1      40.721  23.423  27.251  1.00  0.00     0.116 C 
BRANCH  29  30
ATOM     30  N   UNL A   1      41.499  24.068  26.202  1.00  0.00    -0.352 N 
ATOM     31  C   UNL A   1      41.705  25.406  25.984  1.00  0.00     0.251 C 
ATOM     32  H   UNL A   1      41.938  23.461  25.563  1.00  0.00     0.163 HD
ATOM     33  O   UNL A   1      42.143  25.799  24.908  1.00  0.00    -0.269 OA
BRANCH  31  34
ATOM     34  C   UNL A   1      41.387  26.362  27.063  1.00  0.00     0.039 A 
ATOM     35  C   UNL A   1      40.426  26.024  28.017  1.00  0.00     0.014 A 
ATOM     36  C   UNL A   1      42.059  27.586  27.132  1.00  0.00     0.014 A 
ATOM     37  C   UNL A   1      40.178  26.897  29.077  1.00  0.00     0.010 A 
ATOM     38  C   UNL A   1      41.874  28.410  28.233  1.00  0.00     0.010 A 
ATOM     39  C   UNL A   1      40.926  28.080  29.212  1.00  0.00    -0.014 A 
BRANCH  39  40
ATOM     40  C   UNL A   1      40.735  28.997  30.363  1.00  0.00     0.031 A 
ATOM     41  C   UNL A   1      41.584  28.834  31.593  1.00  0.00     0.074 A 
ATOM     42  C   UNL A   1      39.755  29.921  30.326  1.00  0.00     0.049 A 
ATOM     43  N   UNL A   1      41.500  29.456  32.740  1.00  0.00    -0.248 NA
ATOM     44  C   UNL A   1      42.653  27.821  31.538  1.00  0.00     0.031 C 
ATOM     45  C   UNL A   1      38.853  30.152  29.197  1.00  0.00     0.029 A 
ATOM     46  N   UNL A   1      39.344  30.831  31.268  1.00  0.00    -0.354 N 
ATOM     47  C   UNL A   1      42.494  28.908  33.541  1.00  0.00     0.074 A 
ATOM     48  C   UNL A   1      43.129  27.860  32.774  1.00  0.00     0.031 C 
ATOM     49  C   UNL A   1      38.015  31.156  29.500  1.00  0.00     0.029 A 
ATOM     50  C   UNL A   1      38.279  31.602  30.864  1.00  0.00     0.049 A 
ATOM     51  H   UNL A   1      39.771  30.923  32.150  1.00  0.00     0.167 HD
ATOM     52  C   UNL A   1      42.860  29.267  34.793  1.00  0.00     0.037 A 
ATOM     53  C   UNL A   1      37.583  32.550  31.523  1.00  0.00     0.037 A 
ATOM     54  C   UNL A   1      42.232  30.326  35.538  1.00  0.00     0.049 A 
ATOM     55  C   UNL A   1      37.976  32.897  32.935  1.00  0.00     0.074 A 
ATOM     56  C   UNL A   1      42.558  30.795  36.798  1.00  0.00     0.029 A 
ATOM     57  N   UNL A   1      41.152  31.077  35.097  1.00  0.00    -0.354 N 
ATOM     58  N   UNL A   1      38.951  32.402  33.661  1.00  0.00    -0.248 NA
ATOM     59  C   UNL A   1      37.180  33.924  33.619  1.00  0.00     0.031 C 
ATOM     60  C   UNL A   1      41.635  31.782  37.147  1.00  0.00     0.029 A 
ATOM     61  C   UNL A   1      40.778  31.982  36.075  1.00  0.00     0.049 A 
ATOM     62  H   UNL A   1      40.716  30.981  34.220  1.00  0.00     0.167 HD
ATOM     63  C   UNL A   1      38.902  33.078  34.875  1.00  0.00     0.074 A 
ATOM     64  C   UNL A   1      37.809  34.022  34.784  1.00  0.00     0.031 C 
ATOM     65  C   UNL A   1      39.693  32.928  35.966  1.00  0.00     0.037 A 
BRANCH  52  66
ATOM     66  C   UNL A   1      43.998  28.525  35.440  1.00  0.00     0.058 A 
ATOM     67  C   UNL A   1      43.749  27.425  36.277  1.00  0.00     0.135 A 
ATOM     68  C   UNL A   1      45.330  28.948  35.298  1.00  0.00     0.135 A 
ATOM     69  F   UNL A   1      42.497  26.972  36.444  1.00  0.00    -0.206 F 
ATOM     70  C   UNL A   1      44.774  26.787  36.966  1.00  0.00     0.059 A 
ATOM     71  C   UNL A   1      46.376  28.303  35.952  1.00  0.00     0.059 A 
ATOM     72  F   UNL A   1      45.629  29.982  34.494  1.00  0.00    -0.206 F 
ATOM     73  C   UNL A   1      46.085  27.235  36.798  1.00  0.00     0.060 A 
BRANCH  73  74
ATOM     74  S   UNL A   1      47.405  26.380  37.685  1.00  0.00     0.124 S 
ATOM     75  O   UNL A   1      48.445  27.402  37.733  1.00  0.00    -0.237 OA
ATOM     76  O   UNL A   1      46.760  26.065  38.956  1.00  0.00    -0.237 OA
ATOM     77  O   UNL A   1      47.692  25.228  36.835  1.00  0.00    -0.744 OA
ENDBRANCH  73  74
ENDBRANCH  52  66
BRANCH  53  78
ATOM     78  C   UNL A   1      36.458  33.247  30.842  1.00  0.00     0.058 A 
ATOM     79  C   UNL A   1      36.686  34.185  29.824  1.00  0.00     0.135 A 
ATOM     80  C   UNL A   1      35.128  33.016  31.229  1.00  0.00     0.135 A 
ATOM     81  F   UNL A   1      37.938  34.454  29.421  1.00  0.00    -0.206 F 
ATOM     82  C   UNL A   1      35.643  34.892  29.235  1.00  0.00     0.059 A 
ATOM     83  C   UNL A   1      34.064  33.687  30.633  1.00  0.00     0.059 A 
ATOM     84  F   UNL A   1      34.857  32.119  32.189  1.00  0.00    -0.206 F 
ATOM     85  C   UNL A   1      34.335  34.637  29.648  1.00  0.00     0.060 A 
BRANCH  85  86
ATOM     86  S   UNL A   1      32.997  35.578  28.881  1.00  0.00     0.124 S 
ATOM     87  O   UNL A   1      33.742  36.598  28.149  1.00  0.00    -0.237 OA
ATOM     88  O   UNL A   1      32.343  34.560  28.065  1.00  0.00    -0.237 OA
ATOM     89  O   UNL A   1      32.225  36.061  30.021  1.00  0.00    -0.744 OA
ENDBRANCH  85  86
ENDBRANCH  53  78
BRANCH  65  90
ATOM     90  C   UNL A   1      39.441  33.814  37.156  1.00  0.00     0.058 A 
ATOM     91  C   UNL A   1      40.072  35.066  37.253  1.00  0.00     0.135 A 
ATOM     92  C   UNL A   1      38.687  33.374  38.255  1.00  0.00     0.135 A 
ATOM     93  F   UNL A   1      40.810  35.533  36.233  1.00  0.00    -0.206 F 
ATOM     94  C   UNL A   1      39.998  35.831  38.411  1.00  0.00     0.059 A 
ATOM     95  C   UNL A   1      38.572  34.138  39.413  1.00  0.00     0.059 A 
ATOM     96  F   UNL A   1      38.056  32.190  38.210  1.00  0.00    -0.206 F 
ATOM     97  C   UNL A   1      39.251  35.354  39.489  1.00  0.00     0.060 A 
BRANCH  97  98
ATOM     98  S   UNL A   1      39.194  36.347  40.995  1.00  0.00     0.124 S 
ATOM     99  O   UNL A   1      40.582  36.298  41.442  1.00  0.00    -0.237 OA
ATOM    100  O   UNL A   1      38.733  37.637  40.492  1.00  0.00    -0.237 OA
ATOM    101  O   UNL A   1      38.239  35.632  41.838  1.00  0.00    -0.744 OA
ENDBRANCH  97  98
ENDBRANCH  65  90
ENDBRANCH  39  40
ENDBRANCH  31  34
ENDBRANCH  29  30
ENDBRANCH  28  29
ENDBRANCH  27  28
ENDBRANCH  26  27
ENDBRANCH   1  26
TORSDOF 21
ENDMDL
MODEL 3
REMARK VINA RESULT:     -10.8      6.431     11.710
REMARK SMILES C#CCNC(=O)[C@H](C)S(=O)(=O)c1ccc(C(=O)NCCCCCCNC(=O)c2ccc(-c3c4nc(c(-c5c(F)cc(S(=O)(=O)[O-])cc5F)c5ccc([nH]5)c(-c5c(F)cc(S(=O)(=O)[O-])cc5F)c5nc(c(-c6c(F)cc(S(=O)(=O)[O-])cc6F)c6ccc3[nH]6)C=C5)C=C4)cc2)cc1F
REMARK SMILES IDX 20 1 19 2 18 3 16 4 17 5 15 7 12 8 13 9 95 10 14 11 94 12
REMARK SMILES IDX 96 13 9 14 10 15 11 16 7 17 8 18 5 19 4 20 6 22 3 23 2 24
REMARK SMILES IDX 1 25 21 26 22 27 23 28 24 29 25 30 26 31 27 33 28 34 29 35
REMARK SMILES IDX 93 36 30 37 92 38 31 39 32 40 33 41 86 42 34 43 91 44 85 45
REMARK SMILES IDX 87 46 35 47 90 48 84 49 83 50 36 52 70 53 49 54 69 55 50 56
REMARK SMILES IDX 53 57 68 58 88 59 51 60 52 61 67 63 89 64 54 65 37 66 38 67
REMARK SMILES IDX 47 68 39 69 40 70 46 71 48 72 41 73 42 74 43 75 44 76 45 77
REMARK SMILES IDX 71 78 72 79 81 80 73 81 74 82 80 83 82 84 75 85 76 86 77 87
REMARK SMILES IDX 78 88 79 89 55 90 56 91 65 92 57 93 58 94 64 95 66 96 59 97
REMARK SMILES IDX 60 98 61 99 62 100 63 101
REMARK H PARENT 18 6 4 21 25 32 87 51 53 62
REMARK Flexibility Score: inf
ROOT
ATOM      1  C   UNL A   1      33.350  33.366  27.898  1.00  0.00     0.021 C 
ENDROOT
BRANCH   1   2
ATOM      2  C   UNL A   1      33.128  31.901  27.510  1.00  0.00     0.116 C 
BRANCH   2   3
ATOM      3  N   UNL A   1      34.313  31.124  27.835  1.00  0.00    -0.352 N 
ATOM      4  C   UNL A   1      34.627  29.795  27.727  1.00  0.00     0.251 C 
ATOM      5  O   UNL A   1      35.733  29.428  28.123  1.00  0.00    -0.269 OA
ATOM      6  H   UNL A   1      35.043  31.666  28.213  1.00  0.00     0.163 HD
BRANCH   4   7
ATOM      7  C   UNL A   1      33.730  28.797  27.090  1.00  0.00     0.042 A 
ATOM      8  C   UNL A   1      32.081  26.739  26.157  1.00  0.00     0.103 A 
ATOM      9  C   UNL A   1      31.652  27.523  27.227  1.00  0.00     0.024 A 
ATOM     10  C   UNL A   1      33.294  27.009  25.553  1.00  0.00     0.142 A 
ATOM     11  C   UNL A   1      32.490  28.538  27.703  1.00  0.00     0.015 A 
ATOM     12  C   UNL A   1      34.068  28.083  25.949  1.00  0.00     0.054 A 
ATOM     13  F   UNL A   1      33.798  26.228  24.599  1.00  0.00    -0.206 F 
BRANCH   8  14
ATOM     14  S   UNL A   1      31.164  25.332  25.637  1.00  0.00     0.192 S 
ATOM     15  O   UNL A   1      29.925  25.349  26.402  1.00  0.00    -0.223 OA
ATOM     16  O   UNL A   1      32.039  24.190  25.803  1.00  0.00    -0.223 OA
BRANCH  14  17
ATOM     17  C   UNL A   1      30.720  25.542  23.920  1.00  0.00     0.199 C 
ATOM     18  C   UNL A   1      30.357  24.171  23.324  1.00  0.00     0.036 C 
BRANCH  17  19
ATOM     19  C   UNL A   1      29.583  26.514  23.664  1.00  0.00     0.239 C 
ATOM     20  N   UNL A   1      29.757  27.680  22.972  1.00  0.00    -0.344 N 
ATOM     21  H   UNL A   1      28.974  28.014  22.477  1.00  0.00     0.164 HD
ATOM     22  O   UNL A   1      28.426  26.232  24.000  1.00  0.00    -0.274 OA
BRANCH  20  23
ATOM     23  C   UNL A   1      30.960  28.480  22.882  1.00  0.00     0.206 C 
BRANCH  23  24
ATOM     24  C   UNL A   1      31.072  29.481  23.935  1.00  0.00    -0.085 C 
ATOM     25  C   UNL A   1      31.028  30.234  24.875  1.00  0.00     0.006 C 
ENDBRANCH  23  24
ENDBRANCH  20  23
ENDBRANCH  17  19
ENDBRANCH  14  17
ENDBRANCH   8  14
ENDBRANCH   4   7
ENDBRANCH   2   3
ENDBRANCH   1   2
BRANCH   1  26
ATOM     26  C   UNL A   1      34.152  33.505  29.198  1.00  0.00     0.002 C 
BRANCH  26  27
ATOM     27  C   UNL A   1      35.428  34.342  29.060  1.00  0.00     0.002 C 
BRANCH  27  28
ATOM     28  C   UNL A   1      36.719  33.522  29.034  1.00  0.00     0.021 C 
BRANCH  28  29
ATOM     29  C   UNL A   1      37.362  33.365  30.405  1.00  0.00     0.116 C 
BRANCH  29  30
ATOM     30  N   UNL A   1      36.708  32.313  31.172  1.00  0.00    -0.352 N 
ATOM     31  C   UNL A   1      36.964  30.966  31.174  1.00  0.00     0.251 C 
ATOM     32  H   UNL A   1      35.986  32.610  31.771  1.00  0.00     0.163 HD
ATOM     33  O   UNL A   1      36.151  30.181  31.653  1.00  0.00    -0.269 OA
BRANCH  31  34
ATOM     34  C   UNL A   1      38.228  30.478  30.589  1.00  0.00     0.039 A 
ATOM     35  C   UNL A   1      38.342  30.363  29.203  1.00  0.00     0.014 A 
ATOM     36  C   UNL A   1      39.303  30.151  31.421  1.00  0.00     0.014 A 
ATOM     37  C   UNL A   1      39.560  29.971  28.647  1.00  0.00     0.010 A 
ATOM     38  C   UNL A   1      40.536  29.847  30.862  1.00  0.00     0.010 A 
ATOM     39  C   UNL A   1      40.676  29.745  29.472  1.00  0.00    -0.014 A 
BRANCH  39  40
ATOM     40  C   UNL A   1      42.003  29.392  28.909  1.00  0.00     0.031 A 
ATOM     41  C   UNL A   1      42.265  27.988  28.442  1.00  0.00     0.074 A 
ATOM     42  C   UNL A   1      42.986  30.314  28.888  1.00  0.00     0.049 A 
ATOM     43  N   UNL A   1      43.383  27.453  28.025  1.00  0.00    -0.248 NA
ATOM     44  C   UNL A   1      41.127  27.051  28.471  1.00  0.00     0.031 C 
ATOM     45  C   UNL A   1      42.855  31.700  29.339  1.00  0.00     0.029 A 
ATOM     46  N   UNL A   1      44.295  30.222  28.480  1.00  0.00    -0.354 N 
ATOM     47  C   UNL A   1      43.086  26.123  27.751  1.00  0.00     0.074 A 
ATOM     48  C   UNL A   1      41.701  25.914  28.106  1.00  0.00     0.031 C 
ATOM     49  C   UNL A   1      44.024  32.335  29.158  1.00  0.00     0.029 A 
ATOM     50  C   UNL A   1      45.005  31.389  28.633  1.00  0.00     0.049 A 
ATOM     51  H   UNL A   1      44.687  29.397  28.114  1.00  0.00     0.167 HD
ATOM     52  C   UNL A   1      43.891  25.173  27.223  1.00  0.00     0.037 A 
ATOM     53  C   UNL A   1      46.302  31.664  28.394  1.00  0.00     0.037 A 
ATOM     54  C   UNL A   1      45.263  25.400  26.854  1.00  0.00     0.049 A 
ATOM     55  C   UNL A   1      47.193  30.575  27.855  1.00  0.00     0.074 A 
ATOM     56  C   UNL A   1      46.151  24.513  26.273  1.00  0.00     0.029 A 
ATOM     57  N   UNL A   1      45.948  26.594  27.033  1.00  0.00    -0.354 N 
ATOM     58  N   UNL A   1      46.884  29.335  27.555  1.00  0.00    -0.248 NA
ATOM     59  C   UNL A   1      48.603  30.915  27.625  1.00  0.00     0.031 C 
ATOM     60  C   UNL A   1      47.390  25.147  26.161  1.00  0.00     0.029 A 
ATOM     61  C   UNL A   1      47.257  26.454  26.605  1.00  0.00     0.049 A 
ATOM     62  H   UNL A   1      45.561  27.418  27.409  1.00  0.00     0.167 HD
ATOM     63  C   UNL A   1      48.054  28.758  27.074  1.00  0.00     0.074 A 
ATOM     64  C   UNL A   1      49.073  29.784  27.114  1.00  0.00     0.031 C 
ATOM     65  C   UNL A   1      48.261  27.490  26.637  1.00  0.00     0.037 A 
BRANCH  52  66
ATOM     66  C   UNL A   1      43.316  23.801  26.997  1.00  0.00     0.058 A 
ATOM     67  C   UNL A   1      43.237  22.877  28.051  1.00  0.00     0.135 A 
ATOM     68  C   UNL A   1      42.917  23.370  25.720  1.00  0.00     0.135 A 
ATOM     69  F   UNL A   1      43.598  23.235  29.293  1.00  0.00    -0.206 F 
ATOM     70  C   UNL A   1      42.804  21.571  27.845  1.00  0.00     0.059 A 
ATOM     71  C   UNL A   1      42.449  22.079  25.497  1.00  0.00     0.059 A 
ATOM     72  F   UNL A   1      42.952  24.218  24.678  1.00  0.00    -0.206 F 
ATOM     73  C   UNL A   1      42.413  21.182  26.563  1.00  0.00     0.060 A 
BRANCH  73  74
ATOM     74  S   UNL A   1      41.835  19.489  26.320  1.00  0.00     0.124 S 
ATOM     75  O   UNL A   1      42.608  19.072  25.155  1.00  0.00    -0.237 OA
ATOM     76  O   UNL A   1      42.198  18.860  27.586  1.00  0.00    -0.237 OA
ATOM     77  O   UNL A   1      40.400  19.650  26.099  1.00  0.00    -0.744 OA
ENDBRANCH  73  74
ENDBRANCH  52  66
BRANCH  53  78
ATOM     78  C   UNL A   1      46.825  33.034  28.646  1.00  0.00     0.058 A 
ATOM     79  C   UNL A   1      46.855  34.005  27.632  1.00  0.00     0.135 A 
ATOM     80  C   UNL A   1      47.347  33.387  29.901  1.00  0.00     0.135 A 
ATOM     81  F   UNL A   1      46.380  33.719  26.410  1.00  0.00    -0.206 F 
ATOM     82  C   UNL A   1      47.410  35.263  27.843  1.00  0.00     0.059 A 
ATOM     83  C   UNL A   1      47.879  34.650  30.145  1.00  0.00     0.059 A 
ATOM     84  F   UNL A   1      47.330  32.498  30.905  1.00  0.00    -0.206 F 
ATOM     85  C   UNL A   1      47.921  35.575  29.103  1.00  0.00     0.060 A 
BRANCH  85  86
ATOM     86  S   UNL A   1      48.650  37.209  29.348  1.00  0.00     0.124 S 
ATOM     87  O   UNL A   1      49.441  36.996  30.557  1.00  0.00    -0.237 OA
ATOM     88  O   UNL A   1      49.410  37.388  28.115  1.00  0.00    -0.237 OA
ATOM     89  O   UNL A   1      47.489  38.079  29.503  1.00  0.00    -0.744 OA
ENDBRANCH  85  86
ENDBRANCH  53  78
BRANCH  65  90
ATOM     90  C   UNL A   1      49.633  27.125  26.139  1.00  0.00     0.058 A 
ATOM     91  C   UNL A   1      49.925  27.183  24.765  1.00  0.00     0.135 A 
ATOM     92  C   UNL A   1      50.610  26.592  26.994  1.00  0.00     0.135 A 
ATOM     93  F   UNL A   1      49.024  27.678  23.901  1.00  0.00    -0.206 F 
ATOM     94  C   UNL A   1      51.120  26.691  24.254  1.00  0.00     0.059 A 
ATOM     95  C   UNL A   1      51.827  26.124  26.508  1.00  0.00     0.059 A 
ATOM     96  F   UNL A   1      50.384  26.523  28.315  1.00  0.00    -0.206 F 
ATOM     97  C   UNL A   1      52.063  26.156  25.133  1.00  0.00     0.060 A 
BRANCH  97  98
ATOM     98  S   UNL A   1      53.593  25.492  24.446  1.00  0.00     0.124 S 
ATOM     99  O   UNL A   1      54.605  26.212  25.212  1.00  0.00    -0.237 OA
ATOM    100  O   UNL A   1      53.467  24.068  24.740  1.00  0.00    -0.237 OA
ATOM    101  O   UNL A   1      53.512  25.844  23.031  1.00  0.00    -0.744 OA
ENDBRANCH  97  98
ENDBRANCH  65  90
ENDBRANCH  39  40
ENDBRANCH  31  34
ENDBRANCH  29  30
ENDBRANCH  28  29
ENDBRANCH  27  28
ENDBRANCH  26  27
ENDBRANCH   1  26
TORSDOF 21
ENDMDL
