MODEL 1
REMARK VINA RESULT:     -11.6      0.000      0.000
REMARK SMILES COC(=O)c1c(NC(=O)[C@@H]2C[C@@H]2C(=O)NCCCCCCNC(=O)c2ccc(-c3c4nc(c(-c5c(F)cc(S(=O)(=O)[O-])cc5F)c5ccc([nH]5)c(-c5c(F)cc(S(=O)(=O)[O-])cc5F)c5nc(c(-c6c(F)cc(S(=O)(=O)[O-])cc6F)c6ccc3[nH]6)C=C5)C=C4)cc2)sc2c1CC[N@@H+](Cc1ccccc1)C2
REMARK SMILES IDX 18 1 17 2 16 3 15 4 13 5 14 6 12 8 10 9 11 10 8 11 7 12 9 14
REMARK SMILES IDX 6 15 5 16 93 17 91 18 92 19 94 20 104 21 95 22 96 23 3 25
REMARK SMILES IDX 4 26 2 27 1 28 97 29 98 30 99 31 103 32 100 33 102 34 101 35
REMARK SMILES IDX 19 36 20 37 21 38 22 39 23 40 24 42 25 43 26 44 90 45 27 46
REMARK SMILES IDX 89 47 28 48 29 49 30 50 83 51 31 52 88 53 82 54 84 55 32 56
REMARK SMILES IDX 87 57 81 58 80 59 33 61 67 62 46 63 66 64 47 65 50 66 65 67
REMARK SMILES IDX 85 68 48 69 49 70 64 72 86 73 51 74 34 75 35 76 44 77 36 78
REMARK SMILES IDX 37 79 43 80 45 81 38 82 39 83 40 84 41 85 42 86 68 87 69 88
REMARK SMILES IDX 78 89 70 90 71 91 77 92 79 93 72 94 73 95 74 96 75 97 76 98
REMARK SMILES IDX 52 99 53 100 62 101 54 102 55 103 61 104 63 105 56 106
REMARK SMILES IDX 57 107 58 108 59 109 60 110
REMARK H PARENT 15 7 7 13 96 24 22 41 84 60 50 71
REMARK Flexibility Score: inf
ROOT
ATOM      1  C   UNL A   1      35.888  33.104  27.954  1.00  0.00     0.002 C 
ENDROOT
BRANCH   1   2
ATOM      2  C   UNL A   1      36.379  31.695  28.308  1.00  0.00     0.021 C 
BRANCH   2   3
ATOM      3  C   UNL A   1      35.290  30.627  28.255  1.00  0.00     0.116 C 
BRANCH   3   4
ATOM      4  N   UNL A   1      34.055  31.218  27.796  1.00  0.00    -0.356 N 
ATOM      5  C   UNL A   1      33.015  30.599  27.187  1.00  0.00     0.223 C 
ATOM      6  O   UNL A   1      32.128  31.252  26.646  1.00  0.00    -0.275 OA
ATOM      7  H   UNL A   1      33.956  32.186  27.945  1.00  0.00     0.163 HD
BRANCH   5   8
ATOM      8  C   UNL A   1      32.846  29.162  27.419  1.00  0.00     0.091 C 
ATOM      9  C   UNL A   1      33.032  27.964  26.525  1.00  0.00     0.092 C 
ATOM     10  C   UNL A   1      31.657  28.532  26.774  1.00  0.00     0.028 C 
BRANCH   9  11
ATOM     11  C   UNL A   1      33.407  27.837  25.110  1.00  0.00     0.228 C 
ATOM     12  N   UNL A   1      33.643  26.582  24.596  1.00  0.00    -0.317 N 
ATOM     13  H   UNL A   1      33.882  26.564  23.641  1.00  0.00     0.170 HD
ATOM     14  O   UNL A   1      33.473  28.840  24.408  1.00  0.00    -0.274 OA
BRANCH  12  15
ATOM     15  C   UNL A   1      33.596  25.340  25.207  1.00  0.00     0.110 A 
ATOM     16  C   UNL A   1      32.642  24.447  25.689  1.00  0.00     0.098 A 
ATOM     17  C   UNL A   1      33.261  23.179  26.019  1.00  0.00    -0.006 A 
ATOM     18  S   UNL A   1      35.189  24.726  25.366  1.00  0.00    -0.116 S 
ATOM     19  C   UNL A   1      34.623  23.191  25.799  1.00  0.00     0.065 A 
ATOM     20  C   UNL A   1      32.585  21.929  26.504  1.00  0.00     0.099 C 
ATOM     21  C   UNL A   1      35.537  22.013  25.953  1.00  0.00     0.310 C 
ATOM     22  C   UNL A   1      33.596  20.791  26.798  1.00  0.00     0.267 C 
ATOM     23  N   UNL A   1      34.804  20.733  25.956  1.00  0.00    -0.326 N 
ATOM     24  H   UNL A   1      35.414  20.061  26.421  1.00  0.00     0.348 HD
BRANCH  16  25
ATOM     25  C   UNL A   1      31.224  24.720  25.862  1.00  0.00     0.341 C 
ATOM     26  O   UNL A   1      30.658  24.704  26.958  1.00  0.00    -0.246 OA
BRANCH  25  27
ATOM     27  O   UNL A   1      30.611  25.077  24.695  1.00  0.00    -0.465 OA
ATOM     28  C   UNL A   1      29.737  26.215  24.747  1.00  0.00     0.282 C 
ENDBRANCH  25  27
ENDBRANCH  16  25
BRANCH  23  29
ATOM     29  C   UNL A   1      34.649  20.092  24.645  1.00  0.00     0.299 C 
BRANCH  29  30
ATOM     30  C   UNL A   1      34.135  18.671  24.596  1.00  0.00     0.006 A 
ATOM     31  C   UNL A   1      35.028  17.587  24.582  1.00  0.00     0.009 A 
ATOM     32  C   UNL A   1      32.759  18.407  24.568  1.00  0.00     0.009 A 
ATOM     33  C   UNL A   1      34.555  16.273  24.601  1.00  0.00     0.001 A 
ATOM     34  C   UNL A   1      32.289  17.095  24.569  1.00  0.00     0.001 A 
ATOM     35  C   UNL A   1      33.185  16.029  24.597  1.00  0.00     0.000 A 
ENDBRANCH  29  30
ENDBRANCH  23  29
ENDBRANCH  12  15
ENDBRANCH   9  11
ENDBRANCH   5   8
ENDBRANCH   3   4
ENDBRANCH   2   3
ENDBRANCH   1   2
BRANCH   1  36
ATOM     36  C   UNL A   1      36.108  34.172  29.032  1.00  0.00     0.002 C 
BRANCH  36  37
ATOM     37  C   UNL A   1      34.845  34.685  29.735  1.00  0.00     0.021 C 
BRANCH  37  38
ATOM     38  C   UNL A   1      34.128  33.625  30.554  1.00  0.00     0.116 C 
BRANCH  38  39
ATOM     39  N   UNL A   1      34.267  33.864  31.987  1.00  0.00    -0.352 N 
ATOM     40  C   UNL A   1      35.084  33.219  32.891  1.00  0.00     0.251 C 
ATOM     41  H   UNL A   1      33.703  34.580  32.357  1.00  0.00     0.163 HD
ATOM     42  O   UNL A   1      34.816  33.240  34.087  1.00  0.00    -0.269 OA
BRANCH  40  43
ATOM     43  C   UNL A   1      36.282  32.513  32.402  1.00  0.00     0.039 A 
ATOM     44  C   UNL A   1      37.501  33.181  32.256  1.00  0.00     0.014 A 
ATOM     45  C   UNL A   1      36.173  31.163  32.080  1.00  0.00     0.014 A 
ATOM     46  C   UNL A   1      38.617  32.458  31.844  1.00  0.00     0.010 A 
ATOM     47  C   UNL A   1      37.297  30.420  31.822  1.00  0.00     0.010 A 
ATOM     48  C   UNL A   1      38.509  31.072  31.642  1.00  0.00    -0.014 A 
BRANCH  48  49
ATOM     49  C   UNL A   1      39.692  30.258  31.381  1.00  0.00     0.031 A 
ATOM     50  C   UNL A   1      40.493  29.979  32.604  1.00  0.00     0.074 A 
ATOM     51  C   UNL A   1      39.910  29.623  30.208  1.00  0.00     0.049 A 
ATOM     52  N   UNL A   1      41.650  30.459  32.918  1.00  0.00    -0.248 NA
ATOM     53  C   UNL A   1      39.846  29.234  33.699  1.00  0.00     0.031 C 
ATOM     54  C   UNL A   1      39.024  29.542  29.041  1.00  0.00     0.029 A 
ATOM     55  N   UNL A   1      40.943  28.816  29.843  1.00  0.00    -0.354 N 
ATOM     56  C   UNL A   1      41.991  29.857  34.126  1.00  0.00     0.074 A 
ATOM     57  C   UNL A   1      40.767  29.329  34.662  1.00  0.00     0.031 C 
ATOM     58  C   UNL A   1      39.446  28.560  28.214  1.00  0.00     0.029 A 
ATOM     59  C   UNL A   1      40.717  28.052  28.698  1.00  0.00     0.049 A 
ATOM     60  H   UNL A   1      41.787  28.774  30.349  1.00  0.00     0.167 HD
ATOM     61  C   UNL A   1      43.294  29.598  34.433  1.00  0.00     0.037 A 
ATOM     62  C   UNL A   1      41.509  27.062  28.209  1.00  0.00     0.037 A 
ATOM     63  C   UNL A   1      44.174  30.352  33.568  1.00  0.00     0.049 A 
ATOM     64  C   UNL A   1      42.851  27.250  28.821  1.00  0.00     0.074 A 
ATOM     65  C   UNL A   1      44.350  31.694  33.288  1.00  0.00     0.029 A 
ATOM     66  N   UNL A   1      44.772  29.674  32.533  1.00  0.00    -0.354 N 
ATOM     67  N   UNL A   1      43.630  28.264  28.567  1.00  0.00    -0.248 NA
ATOM     68  C   UNL A   1      43.125  26.551  30.066  1.00  0.00     0.031 C 
ATOM     69  C   UNL A   1      44.603  31.749  31.884  1.00  0.00     0.029 A 
ATOM     70  C   UNL A   1      44.655  30.441  31.402  1.00  0.00     0.049 A 
ATOM     71  H   UNL A   1      45.207  28.793  32.592  1.00  0.00     0.167 HD
ATOM     72  C   UNL A   1      44.179  28.603  29.794  1.00  0.00     0.074 A 
ATOM     73  C   UNL A   1      43.901  27.460  30.661  1.00  0.00     0.031 C 
ATOM     74  C   UNL A   1      44.543  29.892  30.068  1.00  0.00     0.037 A 
BRANCH  61  75
ATOM     75  C   UNL A   1      43.777  28.386  35.210  1.00  0.00     0.058 A 
ATOM     76  C   UNL A   1      44.738  28.570  36.229  1.00  0.00     0.135 A 
ATOM     77  C   UNL A   1      43.561  27.041  34.829  1.00  0.00     0.135 A 
ATOM     78  F   UNL A   1      45.024  29.800  36.686  1.00  0.00    -0.206 F 
ATOM     79  C   UNL A   1      45.489  27.518  36.755  1.00  0.00     0.059 A 
ATOM     80  C   UNL A   1      44.263  25.973  35.378  1.00  0.00     0.059 A 
ATOM     81  F   UNL A   1      42.727  26.689  33.846  1.00  0.00    -0.206 F 
ATOM     82  C   UNL A   1      45.254  26.224  36.309  1.00  0.00     0.060 A 
BRANCH  82  83
ATOM     83  S   UNL A   1      46.278  24.876  36.921  1.00  0.00     0.124 S 
ATOM     84  O   UNL A   1      47.592  25.259  36.421  1.00  0.00    -0.237 OA
ATOM     85  O   UNL A   1      46.083  24.983  38.363  1.00  0.00    -0.237 OA
ATOM     86  O   UNL A   1      45.683  23.695  36.300  1.00  0.00    -0.744 OA
ENDBRANCH  82  83
ENDBRANCH  61  75
BRANCH  62  87
ATOM     87  C   UNL A   1      41.142  25.793  27.517  1.00  0.00     0.058 A 
ATOM     88  C   UNL A   1      42.032  25.181  26.613  1.00  0.00     0.135 A 
ATOM     89  C   UNL A   1      40.069  24.995  27.959  1.00  0.00     0.135 A 
ATOM     90  F   UNL A   1      43.085  25.865  26.136  1.00  0.00    -0.206 F 
ATOM     91  C   UNL A   1      41.920  23.837  26.239  1.00  0.00     0.059 A 
ATOM     92  C   UNL A   1      39.930  23.654  27.593  1.00  0.00     0.059 A 
ATOM     93  F   UNL A   1      39.176  25.462  28.843  1.00  0.00    -0.206 F 
ATOM     94  C   UNL A   1      40.880  23.070  26.762  1.00  0.00     0.060 A 
BRANCH  94  95
ATOM     95  S   UNL A   1      40.857  21.284  26.468  1.00  0.00     0.124 S 
ATOM     96  O   UNL A   1      40.854  20.752  27.825  1.00  0.00    -0.237 OA
ATOM     97  O   UNL A   1      39.620  21.111  25.712  1.00  0.00    -0.237 OA
ATOM     98  O   UNL A   1      42.084  21.050  25.709  1.00  0.00    -0.744 OA
ENDBRANCH  94  95
ENDBRANCH  62  87
BRANCH  74  99
ATOM     99  C   UNL A   1      44.652  30.862  28.917  1.00  0.00     0.058 A 
ATOM    100  C   UNL A   1      43.637  31.745  28.498  1.00  0.00     0.135 A 
ATOM    101  C   UNL A   1      45.897  30.980  28.281  1.00  0.00     0.135 A 
ATOM    102  F   UNL A   1      42.451  31.781  29.120  1.00  0.00    -0.206 F 
ATOM    103  C   UNL A   1      43.837  32.658  27.459  1.00  0.00     0.059 A 
ATOM    104  C   UNL A   1      46.130  31.906  27.269  1.00  0.00     0.059 A 
ATOM    105  F   UNL A   1      46.927  30.210  28.671  1.00  0.00    -0.206 F 
ATOM    106  C   UNL A   1      45.088  32.727  26.847  1.00  0.00     0.060 A 
BRANCH 106 107
ATOM    107  S   UNL A   1      45.365  33.928  25.526  1.00  0.00     0.124 S 
ATOM    108  O   UNL A   1      44.688  35.112  26.041  1.00  0.00    -0.237 OA
ATOM    109  O   UNL A   1      46.821  34.004  25.465  1.00  0.00    -0.237 OA
ATOM    110  O   UNL A   1      44.734  33.308  24.363  1.00  0.00    -0.744 OA
ENDBRANCH 106 107
ENDBRANCH  74  99
ENDBRANCH  48  49
ENDBRANCH  40  43
ENDBRANCH  38  39
ENDBRANCH  37  38
ENDBRANCH  36  37
ENDBRANCH   1  36
TORSDOF 22
ENDMDL
MODEL 2
REMARK VINA RESULT:     -10.3      2.955     10.032
REMARK SMILES COC(=O)c1c(NC(=O)[C@@H]2C[C@@H]2C(=O)NCCCCCCNC(=O)c2ccc(-c3c4nc(c(-c5c(F)cc(S(=O)(=O)[O-])cc5F)c5ccc([nH]5)c(-c5c(F)cc(S(=O)(=O)[O-])cc5F)c5nc(c(-c6c(F)cc(S(=O)(=O)[O-])cc6F)c6ccc3[nH]6)C=C5)C=C4)cc2)sc2c1CC[N@@H+](Cc1ccccc1)C2
REMARK SMILES IDX 18 1 17 2 16 3 15 4 13 5 14 6 12 8 10 9 11 10 8 11 7 12 9 14
REMARK SMILES IDX 6 15 5 16 93 17 91 18 92 19 94 20 104 21 95 22 96 23 3 25
REMARK SMILES IDX 4 26 2 27 1 28 97 29 98 30 99 31 103 32 100 33 102 34 101 35
REMARK SMILES IDX 19 36 20 37 21 38 22 39 23 40 24 42 25 43 26 44 90 45 27 46
REMARK SMILES IDX 89 47 28 48 29 49 30 50 83 51 31 52 88 53 82 54 84 55 32 56
REMARK SMILES IDX 87 57 81 58 80 59 33 61 67 62 46 63 66 64 47 65 50 66 65 67
REMARK SMILES IDX 85 68 48 69 49 70 64 72 86 73 51 74 34 75 35 76 44 77 36 78
REMARK SMILES IDX 37 79 43 80 45 81 38 82 39 83 40 84 41 85 42 86 68 87 69 88
REMARK SMILES IDX 78 89 70 90 71 91 77 92 79 93 72 94 73 95 74 96 75 97 76 98
REMARK SMILES IDX 52 99 53 100 62 101 54 102 55 103 61 104 63 105 56 106
REMARK SMILES IDX 57 107 58 108 59 109 60 110
REMARK H PARENT 15 7 7 13 96 24 22 41 84 60 50 71
REMARK Flexibility Score: inf
ROOT
ATOM      1  C   UNL A   1      38.875  21.655  26.010  1.00  0.00     0.002 C 
ENDROOT
BRANCH   1   2
ATOM      2  C   UNL A   1      38.073  20.496  25.404  1.00  0.00     0.021 C 
BRANCH   2   3
ATOM      3  C   UNL A   1      36.786  20.928  24.709  1.00  0.00     0.116 C 
BRANCH   3   4
ATOM      4  N   UNL A   1      35.742  19.967  24.983  1.00  0.00    -0.356 N 
ATOM      5  C   UNL A   1      34.405  20.180  25.009  1.00  0.00     0.223 C 
ATOM      6  O   UNL A   1      33.646  19.337  25.477  1.00  0.00    -0.275 OA
ATOM      7  H   UNL A   1      36.039  19.049  25.173  1.00  0.00     0.163 HD
BRANCH   5   8
ATOM      8  C   UNL A   1      33.879  21.309  24.236  1.00  0.00     0.091 C 
ATOM      9  C   UNL A   1      32.719  22.241  24.467  1.00  0.00     0.092 C 
ATOM     10  C   UNL A   1      32.588  21.068  23.527  1.00  0.00     0.028 C 
BRANCH   9  11
ATOM     11  C   UNL A   1      31.701  22.305  25.526  1.00  0.00     0.228 C 
ATOM     12  N   UNL A   1      31.370  23.534  26.052  1.00  0.00    -0.317 N 
ATOM     13  H   UNL A   1      30.677  23.510  26.752  1.00  0.00     0.170 HD
ATOM     14  O   UNL A   1      31.147  21.278  25.899  1.00  0.00    -0.274 OA
BRANCH  12  15
ATOM     15  C   UNL A   1      31.853  24.797  25.755  1.00  0.00     0.110 A 
ATOM     16  C   UNL A   1      32.965  25.375  25.147  1.00  0.00     0.098 A 
ATOM     17  C   UNL A   1      32.750  26.794  24.949  1.00  0.00    -0.006 A 
ATOM     18  S   UNL A   1      30.710  25.973  26.255  1.00  0.00    -0.116 S 
ATOM     19  C   UNL A   1      31.525  27.208  25.432  1.00  0.00     0.065 A 
ATOM     20  C   UNL A   1      33.664  27.773  24.271  1.00  0.00     0.099 C 
ATOM     21  C   UNL A   1      30.963  28.590  25.299  1.00  0.00     0.310 C 
ATOM     22  C   UNL A   1      33.104  29.218  24.302  1.00  0.00     0.267 C 
ATOM     23  N   UNL A   1      31.640  29.371  24.246  1.00  0.00    -0.326 N 
ATOM     24  H   UNL A   1      31.471  30.351  24.471  1.00  0.00     0.348 HD
BRANCH  16  25
ATOM     25  C   UNL A   1      34.188  24.685  24.766  1.00  0.00     0.341 C 
ATOM     26  O   UNL A   1      34.588  24.606  23.602  1.00  0.00    -0.246 OA
BRANCH  25  27
ATOM     27  O   UNL A   1      34.882  24.212  25.842  1.00  0.00    -0.465 OA
ATOM     28  C   UNL A   1      36.304  24.092  25.691  1.00  0.00     0.282 C 
ENDBRANCH  25  27
ENDBRANCH  16  25
BRANCH  23  29
ATOM     29  C   UNL A   1      31.031  29.293  22.914  1.00  0.00     0.299 C 
BRANCH  29  30
ATOM     30  C   UNL A   1      29.866  30.204  22.601  1.00  0.00     0.006 A 
ATOM     31  C   UNL A   1      29.515  30.488  21.271  1.00  0.00     0.009 A 
ATOM     32  C   UNL A   1      29.110  30.780  23.631  1.00  0.00     0.009 A 
ATOM     33  C   UNL A   1      28.401  31.278  20.980  1.00  0.00     0.001 A 
ATOM     34  C   UNL A   1      28.009  31.583  23.339  1.00  0.00     0.001 A 
ATOM     35  C   UNL A   1      27.648  31.822  22.016  1.00  0.00     0.000 A 
ENDBRANCH  29  30
ENDBRANCH  23  29
ENDBRANCH  12  15
ENDBRANCH   9  11
ENDBRANCH   5   8
ENDBRANCH   3   4
ENDBRANCH   2   3
ENDBRANCH   1   2
BRANCH   1  36
ATOM     36  C   UNL A   1      40.223  21.273  26.634  1.00  0.00     0.002 C 
BRANCH  36  37
ATOM     37  C   UNL A   1      41.031  20.209  25.883  1.00  0.00     0.021 C 
BRANCH  37  38
ATOM     38  C   UNL A   1      42.473  20.095  26.349  1.00  0.00     0.116 C 
BRANCH  38  39
ATOM     39  N   UNL A   1      43.412  20.521  25.317  1.00  0.00    -0.352 N 
ATOM     40  C   UNL A   1      43.727  21.802  24.918  1.00  0.00     0.251 C 
ATOM     41  H   UNL A   1      43.882  19.798  24.843  1.00  0.00     0.163 HD
ATOM     42  O   UNL A   1      44.207  21.999  23.806  1.00  0.00    -0.269 OA
BRANCH  40  43
ATOM     43  C   UNL A   1      43.486  22.924  25.842  1.00  0.00     0.039 A 
ATOM     44  C   UNL A   1      44.282  23.105  26.976  1.00  0.00     0.014 A 
ATOM     45  C   UNL A   1      42.439  23.801  25.565  1.00  0.00     0.014 A 
ATOM     46  C   UNL A   1      44.049  24.211  27.789  1.00  0.00     0.010 A 
ATOM     47  C   UNL A   1      42.308  24.967  26.275  1.00  0.00     0.010 A 
ATOM     48  C   UNL A   1      43.068  25.147  27.423  1.00  0.00    -0.014 A 
BRANCH  48  49
ATOM     49  C   UNL A   1      42.919  26.401  28.153  1.00  0.00     0.031 A 
ATOM     50  C   UNL A   1      44.015  27.371  27.882  1.00  0.00     0.074 A 
ATOM     51  C   UNL A   1      41.790  26.745  28.812  1.00  0.00     0.049 A 
ATOM     52  N   UNL A   1      44.963  27.735  28.678  1.00  0.00    -0.248 NA
ATOM     53  C   UNL A   1      44.193  27.844  26.497  1.00  0.00     0.031 C 
ATOM     54  C   UNL A   1      40.515  26.021  28.867  1.00  0.00     0.029 A 
ATOM     55  N   UNL A   1      41.506  27.884  29.501  1.00  0.00    -0.354 N 
ATOM     56  C   UNL A   1      45.696  28.690  27.979  1.00  0.00     0.074 A 
ATOM     57  C   UNL A   1      45.335  28.528  26.598  1.00  0.00     0.031 C 
ATOM     58  C   UNL A   1      39.547  26.836  29.343  1.00  0.00     0.029 A 
ATOM     59  C   UNL A   1      40.153  28.079  29.783  1.00  0.00     0.049 A 
ATOM     60  H   UNL A   1      42.202  28.521  29.781  1.00  0.00     0.167 HD
ATOM     61  C   UNL A   1      46.312  29.714  28.635  1.00  0.00     0.037 A 
ATOM     62  C   UNL A   1      39.584  29.193  30.315  1.00  0.00     0.037 A 
ATOM     63  C   UNL A   1      46.405  29.424  30.048  1.00  0.00     0.049 A 
ATOM     64  C   UNL A   1      40.680  29.963  30.962  1.00  0.00     0.074 A 
ATOM     65  C   UNL A   1      46.965  28.408  30.799  1.00  0.00     0.029 A 
ATOM     66  N   UNL A   1      45.509  30.051  30.880  1.00  0.00    -0.354 N 
ATOM     67  N   UNL A   1      41.328  29.555  32.017  1.00  0.00    -0.248 NA
ATOM     68  C   UNL A   1      41.363  30.964  30.159  1.00  0.00     0.031 C 
ATOM     69  C   UNL A   1      46.036  28.175  31.857  1.00  0.00     0.029 A 
ATOM     70  C   UNL A   1      45.011  29.115  31.749  1.00  0.00     0.049 A 
ATOM     71  H   UNL A   1      45.267  31.006  30.857  1.00  0.00     0.167 HD
ATOM     72  C   UNL A   1      42.650  29.897  31.772  1.00  0.00     0.074 A 
ATOM     73  C   UNL A   1      42.595  30.840  30.656  1.00  0.00     0.031 C 
ATOM     74  C   UNL A   1      43.674  29.162  32.300  1.00  0.00     0.037 A 
BRANCH  61  75
ATOM     75  C   UNL A   1      46.458  31.126  28.094  1.00  0.00     0.058 A 
ATOM     76  C   UNL A   1      45.315  31.776  27.574  1.00  0.00     0.135 A 
ATOM     77  C   UNL A   1      47.688  31.760  27.805  1.00  0.00     0.135 A 
ATOM     78  F   UNL A   1      44.087  31.278  27.789  1.00  0.00    -0.206 F 
ATOM     79  C   UNL A   1      45.397  32.903  26.756  1.00  0.00     0.059 A 
ATOM     80  C   UNL A   1      47.786  32.914  27.034  1.00  0.00     0.059 A 
ATOM     81  F   UNL A   1      48.869  31.257  28.173  1.00  0.00    -0.206 F 
ATOM     82  C   UNL A   1      46.641  33.455  26.479  1.00  0.00     0.060 A 
BRANCH  82  83
ATOM     83  S   UNL A   1      46.759  34.857  25.356  1.00  0.00     0.124 S 
ATOM     84  O   UNL A   1      45.725  34.536  24.380  1.00  0.00    -0.237 OA
ATOM     85  O   UNL A   1      46.476  35.978  26.247  1.00  0.00    -0.237 OA
ATOM     86  O   UNL A   1      48.135  34.783  24.871  1.00  0.00    -0.744 OA
ENDBRANCH  82  83
ENDBRANCH  61  75
BRANCH  62  87
ATOM     87  C   UNL A   1      38.254  29.811  30.046  1.00  0.00     0.058 A 
ATOM     88  C   UNL A   1      37.442  30.262  31.107  1.00  0.00     0.135 A 
ATOM     89  C   UNL A   1      37.893  30.260  28.762  1.00  0.00     0.135 A 
ATOM     90  F   UNL A   1      37.709  29.885  32.368  1.00  0.00    -0.206 F 
ATOM     91  C   UNL A   1      36.395  31.172  30.918  1.00  0.00     0.059 A 
ATOM     92  C   UNL A   1      36.847  31.161  28.547  1.00  0.00     0.059 A 
ATOM     93  F   UNL A   1      38.610  29.919  27.682  1.00  0.00    -0.206 F 
ATOM     94  C   UNL A   1      36.126  31.642  29.634  1.00  0.00     0.060 A 
BRANCH  94  95
ATOM     95  S   UNL A   1      34.930  32.983  29.411  1.00  0.00     0.124 S 
ATOM     96  O   UNL A   1      35.800  34.133  29.190  1.00  0.00    -0.237 OA
ATOM     97  O   UNL A   1      34.168  32.529  28.253  1.00  0.00    -0.237 OA
ATOM     98  O   UNL A   1      34.193  32.993  30.673  1.00  0.00    -0.744 OA
ENDBRANCH  94  95
ENDBRANCH  62  87
BRANCH  74  99
ATOM     99  C   UNL A   1      43.356  28.190  33.411  1.00  0.00     0.058 A 
ATOM    100  C   UNL A   1      43.202  26.799  33.255  1.00  0.00     0.135 A 
ATOM    101  C   UNL A   1      43.321  28.690  34.722  1.00  0.00     0.135 A 
ATOM    102  F   UNL A   1      43.329  26.219  32.054  1.00  0.00    -0.206 F 
ATOM    103  C   UNL A   1      42.968  25.957  34.346  1.00  0.00     0.059 A 
ATOM    104  C   UNL A   1      43.126  27.866  35.826  1.00  0.00     0.059 A 
ATOM    105  F   UNL A   1      43.521  29.999  34.948  1.00  0.00    -0.206 F 
ATOM    106  C   UNL A   1      42.927  26.502  35.629  1.00  0.00     0.060 A 
BRANCH 106 107
ATOM    107  S   UNL A   1      42.658  25.416  37.046  1.00  0.00     0.124 S 
ATOM    108  O   UNL A   1      42.677  26.356  38.161  1.00  0.00    -0.237 OA
ATOM    109  O   UNL A   1      41.363  24.814  36.745  1.00  0.00    -0.237 OA
ATOM    110  O   UNL A   1      43.791  24.495  36.990  1.00  0.00    -0.744 OA
ENDBRANCH 106 107
ENDBRANCH  74  99
ENDBRANCH  48  49
ENDBRANCH  40  43
ENDBRANCH  38  39
ENDBRANCH  37  38
ENDBRANCH  36  37
ENDBRANCH   1  36
TORSDOF 22
ENDMDL
MODEL 3
REMARK VINA RESULT:     -10.3      3.088      9.671
REMARK SMILES COC(=O)c1c(NC(=O)[C@@H]2C[C@@H]2C(=O)NCCCCCCNC(=O)c2ccc(-c3c4nc(c(-c5c(F)cc(S(=O)(=O)[O-])cc5F)c5ccc([nH]5)c(-c5c(F)cc(S(=O)(=O)[O-])cc5F)c5nc(c(-c6c(F)cc(S(=O)(=O)[O-])cc6F)c6ccc3[nH]6)C=C5)C=C4)cc2)sc2c1CC[N@@H+](Cc1ccccc1)C2
REMARK SMILES IDX 18 1 17 2 16 3 15 4 13 5 14 6 12 8 10 9 11 10 8 11 7 12 9 14
REMARK SMILES IDX 6 15 5 16 93 17 91 18 92 19 94 20 104 21 95 22 96 23 3 25
REMARK SMILES IDX 4 26 2 27 1 28 97 29 98 30 99 31 103 32 100 33 102 34 101 35
REMARK SMILES IDX 19 36 20 37 21 38 22 39 23 40 24 42 25 43 26 44 90 45 27 46
REMARK SMILES IDX 89 47 28 48 29 49 30 50 83 51 31 52 88 53 82 54 84 55 32 56
REMARK SMILES IDX 87 57 81 58 80 59 33 61 67 62 46 63 66 64 47 65 50 66 65 67
REMARK SMILES IDX 85 68 48 69 49 70 64 72 86 73 51 74 34 75 35 76 44 77 36 78
REMARK SMILES IDX 37 79 43 80 45 81 38 82 39 83 40 84 41 85 42 86 68 87 69 88
REMARK SMILES IDX 78 89 70 90 71 91 77 92 79 93 72 94 73 95 74 96 75 97 76 98
REMARK SMILES IDX 52 99 53 100 62 101 54 102 55 103 61 104 63 105 56 106
REMARK SMILES IDX 57 107 58 108 59 109 60 110
REMARK H PARENT 15 7 7 13 96 24 22 41 84 60 50 71
REMARK Flexibility Score: inf
ROOT
ATOM      1  C   UNL A   1      40.667  22.926  27.176  1.00  0.00     0.002 C 
ENDROOT
BRANCH   1   2
ATOM      2  C   UNL A   1      39.870  21.703  26.705  1.00  0.00     0.021 C 
BRANCH   2   3
ATOM      3  C   UNL A   1      38.877  22.003  25.585  1.00  0.00     0.116 C 
BRANCH   3   4
ATOM      4  N   UNL A   1      38.039  20.848  25.360  1.00  0.00    -0.356 N 
ATOM      5  C   UNL A   1      36.762  20.825  24.909  1.00  0.00     0.223 C 
ATOM      6  O   UNL A   1      36.092  19.800  24.979  1.00  0.00    -0.275 OA
ATOM      7  H   UNL A   1      38.445  19.974  25.556  1.00  0.00     0.163 HD
BRANCH   5   8
ATOM      8  C   UNL A   1      36.301  21.963  24.109  1.00  0.00     0.091 C 
ATOM      9  C   UNL A   1      35.994  23.394  24.466  1.00  0.00     0.092 C 
ATOM     10  C   UNL A   1      34.884  22.381  24.324  1.00  0.00     0.028 C 
BRANCH   9  11
ATOM     11  C   UNL A   1      36.016  24.117  25.745  1.00  0.00     0.228 C 
ATOM     12  N   UNL A   1      34.914  24.861  26.105  1.00  0.00    -0.317 N 
ATOM     13  H   UNL A   1      34.989  25.316  26.976  1.00  0.00     0.170 HD
ATOM     14  O   UNL A   1      36.993  24.023  26.480  1.00  0.00    -0.274 OA
BRANCH  12  15
ATOM     15  C   UNL A   1      33.719  25.073  25.439  1.00  0.00     0.110 A 
ATOM     16  C   UNL A   1      32.368  24.769  25.593  1.00  0.00     0.098 A 
ATOM     17  C   UNL A   1      31.574  25.500  24.627  1.00  0.00    -0.006 A 
ATOM     18  S   UNL A   1      34.007  26.026  24.044  1.00  0.00    -0.116 S 
ATOM     19  C   UNL A   1      32.352  26.280  23.796  1.00  0.00     0.065 A 
ATOM     20  C   UNL A   1      30.079  25.513  24.493  1.00  0.00     0.099 C 
ATOM     21  C   UNL A   1      31.832  27.224  22.755  1.00  0.00     0.310 C 
ATOM     22  C   UNL A   1      29.604  26.383  23.301  1.00  0.00     0.267 C 
ATOM     23  N   UNL A   1      30.413  27.567  22.970  1.00  0.00    -0.326 N 
ATOM     24  H   UNL A   1      30.061  27.882  22.066  1.00  0.00     0.348 HD
BRANCH  16  25
ATOM     25  C   UNL A   1      31.804  23.843  26.564  1.00  0.00     0.341 C 
ATOM     26  O   UNL A   1      30.760  24.062  27.183  1.00  0.00    -0.246 OA
BRANCH  25  27
ATOM     27  O   UNL A   1      32.508  22.676  26.649  1.00  0.00    -0.465 OA
ATOM     28  C   UNL A   1      33.051  22.341  27.934  1.00  0.00     0.282 C 
ENDBRANCH  25  27
ENDBRANCH  16  25
BRANCH  23  29
ATOM     29  C   UNL A   1      30.171  28.765  23.782  1.00  0.00     0.299 C 
BRANCH  29  30
ATOM     30  C   UNL A   1      29.407  29.913  23.161  1.00  0.00     0.006 A 
ATOM     31  C   UNL A   1      29.277  31.136  23.838  1.00  0.00     0.009 A 
ATOM     32  C   UNL A   1      28.819  29.780  21.896  1.00  0.00     0.009 A 
ATOM     33  C   UNL A   1      28.627  32.217  23.239  1.00  0.00     0.001 A 
ATOM     34  C   UNL A   1      28.155  30.854  21.307  1.00  0.00     0.001 A 
ATOM     35  C   UNL A   1      28.069  32.075  21.972  1.00  0.00     0.000 A 
ENDBRANCH  29  30
ENDBRANCH  23  29
ENDBRANCH  12  15
ENDBRANCH   9  11
ENDBRANCH   5   8
ENDBRANCH   3   4
ENDBRANCH   2   3
ENDBRANCH   1   2
BRANCH   1  36
ATOM     36  C   UNL A   1      41.835  23.343  26.275  1.00  0.00     0.002 C 
BRANCH  36  37
ATOM     37  C   UNL A   1      42.573  22.202  25.565  1.00  0.00     0.021 C 
BRANCH  37  38
ATOM     38  C   UNL A   1      43.676  21.573  26.401  1.00  0.00     0.116 C 
BRANCH  38  39
ATOM     39  N   UNL A   1      44.987  21.745  25.784  1.00  0.00    -0.352 N 
ATOM     40  C   UNL A   1      45.632  22.915  25.447  1.00  0.00     0.251 C 
ATOM     41  H   UNL A   1      45.476  20.915  25.583  1.00  0.00     0.163 HD
ATOM     42  O   UNL A   1      46.516  22.907  24.596  1.00  0.00    -0.269 OA
BRANCH  40  43
ATOM     43  C   UNL A   1      45.250  24.168  26.122  1.00  0.00     0.039 A 
ATOM     44  C   UNL A   1      44.651  25.213  25.414  1.00  0.00     0.014 A 
ATOM     45  C   UNL A   1      45.508  24.294  27.486  1.00  0.00     0.014 A 
ATOM     46  C   UNL A   1      44.259  26.355  26.108  1.00  0.00     0.010 A 
ATOM     47  C   UNL A   1      44.987  25.348  28.193  1.00  0.00     0.010 A 
ATOM     48  C   UNL A   1      44.418  26.409  27.502  1.00  0.00    -0.014 A 
BRANCH  48  49
ATOM     49  C   UNL A   1      43.861  27.511  28.278  1.00  0.00     0.031 A 
ATOM     50  C   UNL A   1      44.715  28.730  28.264  1.00  0.00     0.074 A 
ATOM     51  C   UNL A   1      42.597  27.514  28.758  1.00  0.00     0.049 A 
ATOM     52  N   UNL A   1      45.416  29.215  29.233  1.00  0.00    -0.248 NA
ATOM     53  C   UNL A   1      44.977  29.375  26.965  1.00  0.00     0.031 C 
ATOM     54  C   UNL A   1      41.543  26.515  28.546  1.00  0.00     0.029 A 
ATOM     55  N   UNL A   1      41.944  28.477  29.463  1.00  0.00    -0.354 N 
ATOM     56  C   UNL A   1      45.989  30.382  28.734  1.00  0.00     0.074 A 
ATOM     57  C   UNL A   1      45.890  30.288  27.304  1.00  0.00     0.031 C 
ATOM     58  C   UNL A   1      40.346  27.030  28.904  1.00  0.00     0.029 A 
ATOM     59  C   UNL A   1      40.558  28.325  29.524  1.00  0.00     0.049 A 
ATOM     60  H   UNL A   1      42.414  29.225  29.900  1.00  0.00     0.167 HD
ATOM     61  C   UNL A   1      46.232  31.445  29.553  1.00  0.00     0.037 A 
ATOM     62  C   UNL A   1      39.662  29.216  30.024  1.00  0.00     0.037 A 
ATOM     63  C   UNL A   1      46.182  31.035  30.939  1.00  0.00     0.049 A 
ATOM     64  C   UNL A   1      40.427  30.144  30.899  1.00  0.00     0.074 A 
ATOM     65  C   UNL A   1      46.853  30.101  31.704  1.00  0.00     0.029 A 
ATOM     66  N   UNL A   1      45.046  31.348  31.647  1.00  0.00    -0.354 N 
ATOM     67  N   UNL A   1      40.991  29.787  32.019  1.00  0.00    -0.248 NA
ATOM     68  C   UNL A   1      40.957  31.355  30.293  1.00  0.00     0.031 C 
ATOM     69  C   UNL A   1      45.863  29.550  32.571  1.00  0.00     0.029 A 
ATOM     70  C   UNL A   1      44.667  30.235  32.352  1.00  0.00     0.049 A 
ATOM     71  H   UNL A   1      44.584  32.218  31.647  1.00  0.00     0.167 HD
ATOM     72  C   UNL A   1      42.210  30.447  32.027  1.00  0.00     0.074 A 
ATOM     73  C   UNL A   1      42.095  31.465  30.983  1.00  0.00     0.031 C 
ATOM     74  C   UNL A   1      43.292  29.915  32.670  1.00  0.00     0.037 A 
BRANCH  61  75
ATOM     75  C   UNL A   1      46.108  32.901  29.141  1.00  0.00     0.058 A 
ATOM     76  C   UNL A   1      47.165  33.787  29.448  1.00  0.00     0.135 A 
ATOM     77  C   UNL A   1      44.911  33.524  28.719  1.00  0.00     0.135 A 
ATOM     78  F   UNL A   1      48.357  33.318  29.851  1.00  0.00    -0.206 F 
ATOM     79  C   UNL A   1      47.014  35.174  29.432  1.00  0.00     0.059 A 
ATOM     80  C   UNL A   1      44.756  34.905  28.645  1.00  0.00     0.059 A 
ATOM     81  F   UNL A   1      43.796  32.842  28.439  1.00  0.00    -0.206 F 
ATOM     82  C   UNL A   1      45.798  35.723  29.043  1.00  0.00     0.060 A 
BRANCH  82  83
ATOM     83  S   UNL A   1      45.571  37.507  29.101  1.00  0.00     0.124 S 
ATOM     84  O   UNL A   1      45.023  37.688  30.440  1.00  0.00    -0.237 OA
ATOM     85  O   UNL A   1      46.933  37.988  28.894  1.00  0.00    -0.237 OA
ATOM     86  O   UNL A   1      44.649  37.764  27.998  1.00  0.00    -0.744 OA
ENDBRANCH  82  83
ENDBRANCH  61  75
BRANCH  62  87
ATOM     87  C   UNL A   1      38.276  29.536  29.576  1.00  0.00     0.058 A 
ATOM     88  C   UNL A   1      37.288  29.916  30.506  1.00  0.00     0.135 A 
ATOM     89  C   UNL A   1      37.977  29.788  28.223  1.00  0.00     0.135 A 
ATOM     90  F   UNL A   1      37.484  29.715  31.819  1.00  0.00    -0.206 F 
ATOM     91  C   UNL A   1      36.117  30.584  30.128  1.00  0.00     0.059 A 
ATOM     92  C   UNL A   1      36.811  30.445  27.821  1.00  0.00     0.059 A 
ATOM     93  F   UNL A   1      38.855  29.495  27.254  1.00  0.00    -0.206 F 
ATOM     94  C   UNL A   1      35.903  30.874  28.782  1.00  0.00     0.060 A 
BRANCH  94  95
ATOM     95  S   UNL A   1      34.511  31.931  28.310  1.00  0.00     0.124 S 
ATOM     96  O   UNL A   1      33.609  30.979  27.672  1.00  0.00    -0.237 OA
ATOM     97  O   UNL A   1      34.073  32.459  29.598  1.00  0.00    -0.237 OA
ATOM     98  O   UNL A   1      35.119  32.911  27.413  1.00  0.00    -0.744 OA
ENDBRANCH  94  95
ENDBRANCH  62  87
BRANCH  74  99
ATOM     99  C   UNL A   1      43.059  28.784  33.642  1.00  0.00     0.058 A 
ATOM    100  C   UNL A   1      42.626  28.933  34.974  1.00  0.00     0.135 A 
ATOM    101  C   UNL A   1      43.174  27.473  33.155  1.00  0.00     0.135 A 
ATOM    102  F   UNL A   1      42.383  30.145  35.492  1.00  0.00    -0.206 F 
ATOM    103  C   UNL A   1      42.375  27.830  35.795  1.00  0.00     0.059 A 
ATOM    104  C   UNL A   1      42.894  26.361  33.943  1.00  0.00     0.059 A 
ATOM    105  F   UNL A   1      43.525  27.260  31.876  1.00  0.00    -0.206 F 
ATOM    106  C   UNL A   1      42.516  26.546  35.270  1.00  0.00     0.060 A 
BRANCH 106 107
ATOM    107  S   UNL A   1      42.161  25.116  36.315  1.00  0.00     0.124 S 
ATOM    108  O   UNL A   1      43.199  25.216  37.334  1.00  0.00    -0.237 OA
ATOM    109  O   UNL A   1      40.799  25.383  36.767  1.00  0.00    -0.237 OA
ATOM    110  O   UNL A   1      42.294  23.984  35.400  1.00  0.00    -0.744 OA
ENDBRANCH 106 107
ENDBRANCH  74  99
ENDBRANCH  48  49
ENDBRANCH  40  43
ENDBRANCH  38  39
ENDBRANCH  37  38
ENDBRANCH  36  37
ENDBRANCH   1  36
TORSDOF 22
ENDMDL
