MODEL 1
REMARK VINA RESULT:     -11.7      0.000      0.000
REMARK SMILES O=C(NCCCCCCNC(=O)c1cc(S(=O)(=O)Nc2cccc(Cl)c2)ccc1O)c1ccc(-c2c3nc(c(-c4c(F)cc(S(=O)(=O)[O-])cc4F)c4ccc([nH]4)c(-c4c(F)cc(S(=O)(=O)[O-])cc4F)c4nc(c(-c5c(F)cc(S(=O)(=O)[O-])cc5F)c5ccc2[nH]5)C=C4)C=C3)cc1
REMARK SMILES IDX 6 1 5 2 4 3 3 4 1 5 2 6 31 8 32 9 96 10 33 11 95 12 34 13
REMARK SMILES IDX 35 14 36 15 89 16 37 17 94 18 88 19 90 20 38 21 93 22 87 23
REMARK SMILES IDX 86 24 39 26 73 27 52 28 72 29 53 30 56 31 71 32 91 33 54 34
REMARK SMILES IDX 55 35 70 37 92 38 57 39 40 40 41 41 50 42 42 43 43 44 49 45
REMARK SMILES IDX 51 46 44 47 45 48 46 49 47 50 48 51 74 52 75 53 84 54 76 55
REMARK SMILES IDX 77 56 83 57 85 58 78 59 79 60 80 61 81 62 82 63 58 64 59 65
REMARK SMILES IDX 68 66 60 67 61 68 67 69 69 70 62 71 63 72 64 73 65 74 66 75
REMARK SMILES IDX 7 76 8 77 9 78 10 79 11 80 12 82 13 83 14 84 29 85 15 86
REMARK SMILES IDX 28 87 27 88 30 89 16 91 17 92 18 93 19 94 20 96 21 97 26 98
REMARK SMILES IDX 22 99 24 100 23 101 25 102
REMARK H PARENT 3 7 90 25 56 36 10 81 30 90 19 95
REMARK Flexibility Score: inf
ROOT
ATOM      1  C   UNL A   1      35.754  32.754  27.971  1.00  0.00     0.002 C 
ENDROOT
BRANCH   1   2
ATOM      2  C   UNL A   1      35.784  33.709  29.164  1.00  0.00     0.021 C 
BRANCH   2   3
ATOM      3  C   UNL A   1      36.681  33.288  30.322  1.00  0.00     0.116 C 
BRANCH   3   4
ATOM      4  N   UNL A   1      36.181  32.123  31.036  1.00  0.00    -0.352 N 
ATOM      5  O   UNL A   1      36.108  29.971  31.706  1.00  0.00    -0.269 OA
ATOM      6  C   UNL A   1      36.741  30.873  31.167  1.00  0.00     0.251 C 
ATOM      7  H   UNL A   1      35.317  32.247  31.490  1.00  0.00     0.163 HD
BRANCH   6   8
ATOM      8  C   UNL A   1      38.096  30.613  30.628  1.00  0.00     0.039 A 
ATOM      9  C   UNL A   1      38.328  30.613  29.252  1.00  0.00     0.014 A 
ATOM     10  C   UNL A   1      39.145  30.350  31.514  1.00  0.00     0.014 A 
ATOM     11  C   UNL A   1      39.556  30.185  28.759  1.00  0.00     0.010 A 
ATOM     12  C   UNL A   1      40.408  30.013  31.016  1.00  0.00     0.010 A 
ATOM     13  C   UNL A   1      40.614  29.884  29.633  1.00  0.00    -0.014 A 
BRANCH  13  14
ATOM     14  C   UNL A   1      41.928  29.475  29.069  1.00  0.00     0.031 A 
ATOM     15  C   UNL A   1      43.095  30.425  29.036  1.00  0.00     0.074 A 
ATOM     16  C   UNL A   1      42.073  28.211  28.621  1.00  0.00     0.049 A 
ATOM     17  N   UNL A   1      44.321  30.207  28.630  1.00  0.00    -0.248 NA
ATOM     18  C   UNL A   1      42.859  31.798  29.508  1.00  0.00     0.031 C 
ATOM     19  C   UNL A   1      41.009  27.203  28.587  1.00  0.00     0.029 A 
ATOM     20  N   UNL A   1      43.170  27.547  28.137  1.00  0.00    -0.354 N 
ATOM     21  C   UNL A   1      44.995  31.416  28.773  1.00  0.00     0.074 A 
ATOM     22  C   UNL A   1      44.034  32.371  29.283  1.00  0.00     0.031 C 
ATOM     23  C   UNL A   1      41.519  26.037  28.167  1.00  0.00     0.029 A 
ATOM     24  C   UNL A   1      42.928  26.226  27.842  1.00  0.00     0.049 A 
ATOM     25  H   UNL A   1      44.049  27.976  28.013  1.00  0.00     0.167 HD
ATOM     26  C   UNL A   1      46.294  31.700  28.510  1.00  0.00     0.037 A 
ATOM     27  C   UNL A   1      43.744  25.272  27.356  1.00  0.00     0.037 A 
ATOM     28  C   UNL A   1      47.250  30.736  28.023  1.00  0.00     0.049 A 
ATOM     29  C   UNL A   1      45.177  25.615  27.070  1.00  0.00     0.074 A 
ATOM     30  C   UNL A   1      48.600  30.913  27.772  1.00  0.00     0.029 A 
ATOM     31  N   UNL A   1      46.958  29.416  27.707  1.00  0.00    -0.354 N 
ATOM     32  N   UNL A   1      45.804  26.753  27.250  1.00  0.00    -0.248 NA
ATOM     33  C   UNL A   1      46.013  24.547  26.509  1.00  0.00     0.031 C 
ATOM     34  C   UNL A   1      49.114  29.716  27.261  1.00  0.00     0.029 A 
ATOM     35  C   UNL A   1      48.096  28.775  27.242  1.00  0.00     0.049 A 
ATOM     36  H   UNL A   1      46.073  28.996  27.798  1.00  0.00     0.167 HD
ATOM     37  C   UNL A   1      47.116  26.531  26.848  1.00  0.00     0.074 A 
ATOM     38  C   UNL A   1      47.193  25.146  26.429  1.00  0.00     0.031 C 
ATOM     39  C   UNL A   1      48.160  27.395  26.829  1.00  0.00     0.037 A 
BRANCH  26  40
ATOM     40  C   UNL A   1      46.760  33.116  28.719  1.00  0.00     0.058 A 
ATOM     41  C   UNL A   1      47.279  33.555  29.948  1.00  0.00     0.135 A 
ATOM     42  C   UNL A   1      46.723  34.039  27.660  1.00  0.00     0.135 A 
ATOM     43  F   UNL A   1      47.327  32.721  30.998  1.00  0.00    -0.206 F 
ATOM     44  C   UNL A   1      47.715  34.864  30.128  1.00  0.00     0.059 A 
ATOM     45  C   UNL A   1      47.179  35.346  27.810  1.00  0.00     0.059 A 
ATOM     46  F   UNL A   1      46.243  33.674  26.461  1.00  0.00    -0.206 F 
ATOM     47  C   UNL A   1      47.658  35.754  29.054  1.00  0.00     0.060 A 
BRANCH  47  48
ATOM     48  S   UNL A   1      48.221  37.451  29.307  1.00  0.00     0.124 S 
ATOM     49  O   UNL A   1      49.216  37.271  30.360  1.00  0.00    -0.237 OA
ATOM     50  O   UNL A   1      48.749  37.804  27.993  1.00  0.00    -0.237 OA
ATOM     51  O   UNL A   1      47.007  38.158  29.703  1.00  0.00    -0.744 OA
ENDBRANCH  47  48
ENDBRANCH  26  40
BRANCH  27  52
ATOM     52  C   UNL A   1      43.220  23.901  27.126  1.00  0.00     0.058 A 
ATOM     53  C   UNL A   1      42.705  23.526  25.877  1.00  0.00     0.135 A 
ATOM     54  C   UNL A   1      43.250  22.931  28.139  1.00  0.00     0.135 A 
ATOM     55  F   UNL A   1      42.652  24.422  24.877  1.00  0.00    -0.206 F 
ATOM     56  C   UNL A   1      42.227  22.243  25.642  1.00  0.00     0.059 A 
ATOM     57  C   UNL A   1      42.805  21.632  27.920  1.00  0.00     0.059 A 
ATOM     58  F   UNL A   1      43.751  23.234  29.347  1.00  0.00    -0.206 F 
ATOM     59  C   UNL A   1      42.285  21.301  26.671  1.00  0.00     0.060 A 
BRANCH  59  60
ATOM     60  S   UNL A   1      41.712  19.620  26.340  1.00  0.00     0.124 S 
ATOM     61  O   UNL A   1      40.295  19.841  26.079  1.00  0.00    -0.237 OA
ATOM     62  O   UNL A   1      42.523  19.241  25.188  1.00  0.00    -0.237 OA
ATOM     63  O   UNL A   1      42.024  18.911  27.578  1.00  0.00    -0.744 OA
ENDBRANCH  59  60
ENDBRANCH  27  52
BRANCH  39  64
ATOM     64  C   UNL A   1      49.487  26.854  26.373  1.00  0.00     0.058 A 
ATOM     65  C   UNL A   1      49.929  26.998  25.048  1.00  0.00     0.135 A 
ATOM     66  C   UNL A   1      50.336  26.201  27.281  1.00  0.00     0.135 A 
ATOM     67  F   UNL A   1      49.152  27.607  24.139  1.00  0.00    -0.206 F 
ATOM     68  C   UNL A   1      51.152  26.482  24.631  1.00  0.00     0.059 A 
ATOM     69  C   UNL A   1      51.575  25.702  26.893  1.00  0.00     0.059 A 
ATOM     70  F   UNL A   1      49.965  26.046  28.562  1.00  0.00    -0.206 F 
ATOM     71  C   UNL A   1      51.967  25.834  25.562  1.00  0.00     0.060 A 
BRANCH  71  72
ATOM     72  S   UNL A   1      53.559  25.180  25.015  1.00  0.00     0.124 S 
ATOM     73  O   UNL A   1      54.477  25.827  25.946  1.00  0.00    -0.237 OA
ATOM     74  O   UNL A   1      53.386  23.742  25.192  1.00  0.00    -0.237 OA
ATOM     75  O   UNL A   1      53.650  25.628  23.628  1.00  0.00    -0.744 OA
ENDBRANCH  71  72
ENDBRANCH  39  64
ENDBRANCH  13  14
ENDBRANCH   6   8
ENDBRANCH   3   4
ENDBRANCH   2   3
ENDBRANCH   1   2
BRANCH   1  76
ATOM     76  C   UNL A   1      34.596  31.752  27.940  1.00  0.00     0.002 C 
BRANCH  76  77
ATOM     77  C   UNL A   1      34.990  30.275  27.908  1.00  0.00     0.021 C 
BRANCH  77  78
ATOM     78  C   UNL A   1      34.272  29.427  26.866  1.00  0.00     0.116 C 
BRANCH  78  79
ATOM     79  N   UNL A   1      33.148  28.666  27.395  1.00  0.00    -0.352 N 
ATOM     80  C   UNL A   1      32.178  27.984  26.690  1.00  0.00     0.255 C 
ATOM     81  H   UNL A   1      33.072  28.634  28.376  1.00  0.00     0.163 HD
ATOM     82  O   UNL A   1      31.273  27.395  27.273  1.00  0.00    -0.269 OA
BRANCH  80  83
ATOM     83  C   UNL A   1      32.171  28.073  25.212  1.00  0.00     0.082 A 
ATOM     84  C   UNL A   1      32.674  26.982  24.492  1.00  0.00     0.040 A 
ATOM     85  C   UNL A   1      31.572  29.138  24.535  1.00  0.00     0.128 A 
ATOM     86  C   UNL A   1      32.412  26.879  23.120  1.00  0.00     0.088 A 
ATOM     87  C   UNL A   1      31.234  28.995  23.196  1.00  0.00     0.048 A 
ATOM     88  C   UNL A   1      31.581  27.823  22.520  1.00  0.00     0.026 A 
BRANCH  85  89
ATOM     89  O   UNL A   1      31.256  30.291  25.195  1.00  0.00    -0.507 OA
ATOM     90  H   UNL A   1      31.934  30.808  25.584  1.00  0.00     0.293 HD
ENDBRANCH  85  89
BRANCH  86  91
ATOM     91  S   UNL A   1      33.119  25.501  22.246  1.00  0.00     0.261 S 
ATOM     92  O   UNL A   1      33.246  25.905  20.857  1.00  0.00    -0.201 OA
ATOM     93  O   UNL A   1      34.286  25.096  22.999  1.00  0.00    -0.201 OA
BRANCH  91  94
ATOM     94  N   UNL A   1      32.114  24.127  22.214  1.00  0.00    -0.280 N 
ATOM     95  H   UNL A   1      31.566  23.959  21.414  1.00  0.00     0.180 HD
BRANCH  94  96
ATOM     96  C   UNL A   1      32.037  23.212  23.303  1.00  0.00     0.050 A 
ATOM     97  C   UNL A   1      32.636  21.953  23.204  1.00  0.00     0.027 A 
ATOM     98  C   UNL A   1      31.299  23.555  24.440  1.00  0.00     0.047 A 
ATOM     99  C   UNL A   1      32.444  21.012  24.219  1.00  0.00     0.004 A 
ATOM    100  C   UNL A   1      31.122  22.613  25.452  1.00  0.00     0.043 A 
ATOM    101  C   UNL A   1      31.677  21.338  25.340  1.00  0.00     0.020 A 
ATOM    102  Cl  UNL A   1      30.175  23.013  26.831  1.00  0.00    -0.084 Cl
ENDBRANCH  94  96
ENDBRANCH  91  94
ENDBRANCH  86  91
ENDBRANCH  80  83
ENDBRANCH  78  79
ENDBRANCH  77  78
ENDBRANCH  76  77
ENDBRANCH   1  76
TORSDOF 20
ENDMDL
MODEL 2
REMARK VINA RESULT:     -11.7      2.943      8.998
REMARK SMILES O=C(NCCCCCCNC(=O)c1cc(S(=O)(=O)Nc2cccc(Cl)c2)ccc1O)c1ccc(-c2c3nc(c(-c4c(F)cc(S(=O)(=O)[O-])cc4F)c4ccc([nH]4)c(-c4c(F)cc(S(=O)(=O)[O-])cc4F)c4nc(c(-c5c(F)cc(S(=O)(=O)[O-])cc5F)c5ccc2[nH]5)C=C4)C=C3)cc1
REMARK SMILES IDX 6 1 5 2 4 3 3 4 1 5 2 6 31 8 32 9 96 10 33 11 95 12 34 13
REMARK SMILES IDX 35 14 36 15 89 16 37 17 94 18 88 19 90 20 38 21 93 22 87 23
REMARK SMILES IDX 86 24 39 26 73 27 52 28 72 29 53 30 56 31 71 32 91 33 54 34
REMARK SMILES IDX 55 35 70 37 92 38 57 39 40 40 41 41 50 42 42 43 43 44 49 45
REMARK SMILES IDX 51 46 44 47 45 48 46 49 47 50 48 51 74 52 75 53 84 54 76 55
REMARK SMILES IDX 77 56 83 57 85 58 78 59 79 60 80 61 81 62 82 63 58 64 59 65
REMARK SMILES IDX 68 66 60 67 61 68 67 69 69 70 62 71 63 72 64 73 65 74 66 75
REMARK SMILES IDX 7 76 8 77 9 78 10 79 11 80 12 82 13 83 14 84 29 85 15 86
REMARK SMILES IDX 28 87 27 88 30 89 16 91 17 92 18 93 19 94 20 96 21 97 26 98
REMARK SMILES IDX 22 99 24 100 23 101 25 102
REMARK H PARENT 3 7 90 25 56 36 10 81 30 90 19 95
REMARK Flexibility Score: inf
ROOT
ATOM      1  C   UNL A   1      31.715  28.964  25.538  1.00  0.00     0.002 C 
ENDROOT
BRANCH   1   2
ATOM      2  C   UNL A   1      32.796  27.922  25.826  1.00  0.00     0.021 C 
BRANCH   2   3
ATOM      3  C   UNL A   1      33.801  28.299  26.907  1.00  0.00     0.116 C 
BRANCH   3   4
ATOM      4  N   UNL A   1      33.601  29.642  27.429  1.00  0.00    -0.352 N 
ATOM      5  O   UNL A   1      34.083  31.509  28.600  1.00  0.00    -0.269 OA
ATOM      6  C   UNL A   1      34.473  30.446  28.127  1.00  0.00     0.251 C 
ATOM      7  H   UNL A   1      32.714  30.031  27.259  1.00  0.00     0.163 HD
BRANCH   6   8
ATOM      8  C   UNL A   1      35.873  30.009  28.332  1.00  0.00     0.039 A 
ATOM      9  C   UNL A   1      36.293  29.513  29.567  1.00  0.00     0.014 A 
ATOM     10  C   UNL A   1      36.783  30.113  27.275  1.00  0.00     0.014 A 
ATOM     11  C   UNL A   1      37.645  29.284  29.796  1.00  0.00     0.010 A 
ATOM     12  C   UNL A   1      38.129  29.790  27.481  1.00  0.00     0.010 A 
ATOM     13  C   UNL A   1      38.580  29.415  28.756  1.00  0.00    -0.014 A 
BRANCH  13  14
ATOM     14  C   UNL A   1      40.012  29.117  29.027  1.00  0.00     0.031 A 
ATOM     15  C   UNL A   1      40.621  27.794  28.646  1.00  0.00     0.074 A 
ATOM     16  C   UNL A   1      40.778  30.076  29.586  1.00  0.00     0.049 A 
ATOM     17  N   UNL A   1      41.865  27.398  28.760  1.00  0.00    -0.248 NA
ATOM     18  C   UNL A   1      39.724  26.780  28.071  1.00  0.00     0.031 C 
ATOM     19  C   UNL A   1      40.296  31.393  30.013  1.00  0.00     0.029 A 
ATOM     20  N   UNL A   1      42.119  30.109  29.866  1.00  0.00    -0.354 N 
ATOM     21  C   UNL A   1      41.895  26.086  28.299  1.00  0.00     0.074 A 
ATOM     22  C   UNL A   1      40.540  25.745  27.922  1.00  0.00     0.031 C 
ATOM     23  C   UNL A   1      41.334  32.124  30.443  1.00  0.00     0.029 A 
ATOM     24  C   UNL A   1      42.543  31.311  30.382  1.00  0.00     0.049 A 
ATOM     25  H   UNL A   1      42.722  29.345  29.712  1.00  0.00     0.167 HD
ATOM     26  C   UNL A   1      42.955  25.248  28.193  1.00  0.00     0.037 A 
ATOM     27  C   UNL A   1      43.767  31.716  30.771  1.00  0.00     0.037 A 
ATOM     28  C   UNL A   1      44.307  25.603  28.549  1.00  0.00     0.049 A 
ATOM     29  C   UNL A   1      44.923  30.766  30.647  1.00  0.00     0.074 A 
ATOM     30  C   UNL A   1      45.457  24.842  28.433  1.00  0.00     0.029 A 
ATOM     31  N   UNL A   1      44.690  26.820  29.098  1.00  0.00    -0.354 N 
ATOM     32  N   UNL A   1      44.937  29.544  30.170  1.00  0.00    -0.248 NA
ATOM     33  C   UNL A   1      46.227  31.246  31.118  1.00  0.00     0.031 C 
ATOM     34  C   UNL A   1      46.527  25.579  28.954  1.00  0.00     0.029 A 
ATOM     35  C   UNL A   1      46.054  26.820  29.346  1.00  0.00     0.049 A 
ATOM     36  H   UNL A   1      44.083  27.571  29.284  1.00  0.00     0.167 HD
ATOM     37  C   UNL A   1      46.257  29.117  30.260  1.00  0.00     0.074 A 
ATOM     38  C   UNL A   1      47.012  30.218  30.825  1.00  0.00     0.031 C 
ATOM     39  C   UNL A   1      46.794  27.924  29.907  1.00  0.00     0.037 A 
BRANCH  26  40
ATOM     40  C   UNL A   1      42.700  23.850  27.691  1.00  0.00     0.058 A 
ATOM     41  C   UNL A   1      42.508  22.770  28.567  1.00  0.00     0.135 A 
ATOM     42  C   UNL A   1      42.607  23.597  26.313  1.00  0.00     0.135 A 
ATOM     43  F   UNL A   1      42.598  22.950  29.894  1.00  0.00    -0.206 F 
ATOM     44  C   UNL A   1      42.264  21.484  28.094  1.00  0.00     0.059 A 
ATOM     45  C   UNL A   1      42.338  22.324  25.817  1.00  0.00     0.059 A 
ATOM     46  F   UNL A   1      42.777  24.594  25.429  1.00  0.00    -0.206 F 
ATOM     47  C   UNL A   1      42.184  21.270  26.716  1.00  0.00     0.060 A 
BRANCH  47  48
ATOM     48  S   UNL A   1      41.874  19.595  26.119  1.00  0.00     0.124 S 
ATOM     49  O   UNL A   1      42.308  18.795  27.260  1.00  0.00    -0.237 OA
ATOM     50  O   UNL A   1      40.435  19.613  25.870  1.00  0.00    -0.237 OA
ATOM     51  O   UNL A   1      42.711  19.497  24.928  1.00  0.00    -0.744 OA
ENDBRANCH  47  48
ENDBRANCH  26  40
BRANCH  27  52
ATOM     52  C   UNL A   1      43.955  33.091  31.301  1.00  0.00     0.058 A 
ATOM     53  C   UNL A   1      43.821  33.360  32.671  1.00  0.00     0.135 A 
ATOM     54  C   UNL A   1      44.301  34.156  30.455  1.00  0.00     0.135 A 
ATOM     55  F   UNL A   1      43.488  32.374  33.519  1.00  0.00    -0.206 F 
ATOM     56  C   UNL A   1      44.010  34.639  33.183  1.00  0.00     0.059 A 
ATOM     57  C   UNL A   1      44.524  35.437  30.947  1.00  0.00     0.059 A 
ATOM     58  F   UNL A   1      44.459  33.946  29.139  1.00  0.00    -0.206 F 
ATOM     59  C   UNL A   1      44.366  35.670  32.312  1.00  0.00     0.060 A 
BRANCH  59  60
ATOM     60  S   UNL A   1      44.663  37.316  32.994  1.00  0.00     0.124 S 
ATOM     61  O   UNL A   1      45.003  38.072  31.794  1.00  0.00    -0.237 OA
ATOM     62  O   UNL A   1      43.376  37.632  33.605  1.00  0.00    -0.237 OA
ATOM     63  O   UNL A   1      45.758  37.096  33.934  1.00  0.00    -0.744 OA
ENDBRANCH  59  60
ENDBRANCH  27  52
BRANCH  39  64
ATOM     64  C   UNL A   1      48.278  27.761  30.088  1.00  0.00     0.058 A 
ATOM     65  C   UNL A   1      48.828  27.259  31.278  1.00  0.00     0.135 A 
ATOM     66  C   UNL A   1      49.159  28.094  29.046  1.00  0.00     0.135 A 
ATOM     67  F   UNL A   1      48.030  26.933  32.307  1.00  0.00    -0.206 F 
ATOM     68  C   UNL A   1      50.204  27.125  31.441  1.00  0.00     0.059 A 
ATOM     69  C   UNL A   1      50.535  27.942  29.177  1.00  0.00     0.059 A 
ATOM     70  F   UNL A   1      48.683  28.570  27.884  1.00  0.00    -0.206 F 
ATOM     71  C   UNL A   1      51.049  27.472  30.384  1.00  0.00     0.060 A 
BRANCH  71  72
ATOM     72  S   UNL A   1      52.831  27.281  30.601  1.00  0.00     0.124 S 
ATOM     73  O   UNL A   1      53.318  28.595  30.193  1.00  0.00    -0.237 OA
ATOM     74  O   UNL A   1      52.944  26.979  32.024  1.00  0.00    -0.237 OA
ATOM     75  O   UNL A   1      53.165  26.180  29.704  1.00  0.00    -0.744 OA
ENDBRANCH  71  72
ENDBRANCH  39  64
ENDBRANCH  13  14
ENDBRANCH   6   8
ENDBRANCH   3   4
ENDBRANCH   2   3
ENDBRANCH   1   2
BRANCH   1  76
ATOM     76  C   UNL A   1      30.914  28.763  24.248  1.00  0.00     0.002 C 
BRANCH  76  77
ATOM     77  C   UNL A   1      30.244  27.399  24.082  1.00  0.00     0.021 C 
BRANCH  77  78
ATOM     78  C   UNL A   1      30.554  26.670  22.781  1.00  0.00     0.116 C 
BRANCH  78  79
ATOM     79  N   UNL A   1      31.818  27.058  22.172  1.00  0.00    -0.352 N 
ATOM     80  C   UNL A   1      32.954  26.292  22.013  1.00  0.00     0.255 C 
ATOM     81  H   UNL A   1      31.867  27.981  21.832  1.00  0.00     0.163 HD
ATOM     82  O   UNL A   1      33.961  26.760  21.492  1.00  0.00    -0.269 OA
BRANCH  80  83
ATOM     83  C   UNL A   1      32.986  24.930  22.592  1.00  0.00     0.082 A 
ATOM     84  C   UNL A   1      32.887  24.813  23.985  1.00  0.00     0.040 A 
ATOM     85  C   UNL A   1      32.982  23.783  21.794  1.00  0.00     0.128 A 
ATOM     86  C   UNL A   1      32.602  23.565  24.555  1.00  0.00     0.088 A 
ATOM     87  C   UNL A   1      32.612  22.565  22.349  1.00  0.00     0.048 A 
ATOM     88  C   UNL A   1      32.337  22.485  23.716  1.00  0.00     0.026 A 
BRANCH  85  89
ATOM     89  O   UNL A   1      33.273  23.862  20.463  1.00  0.00    -0.507 OA
ATOM     90  H   UNL A   1      33.308  24.698  20.040  1.00  0.00     0.293 HD
ENDBRANCH  85  89
BRANCH  86  91
ATOM     91  S   UNL A   1      32.541  23.465  26.329  1.00  0.00     0.261 S 
ATOM     92  O   UNL A   1      32.125  24.770  26.810  1.00  0.00    -0.201 OA
ATOM     93  O   UNL A   1      31.760  22.288  26.644  1.00  0.00    -0.201 OA
BRANCH  91  94
ATOM     94  N   UNL A   1      34.059  23.193  27.049  1.00  0.00    -0.280 N 
ATOM     95  H   UNL A   1      34.140  23.272  28.028  1.00  0.00     0.180 HD
BRANCH  94  96
ATOM     96  C   UNL A   1      35.216  22.858  26.290  1.00  0.00     0.050 A 
ATOM     97  C   UNL A   1      36.000  23.867  25.725  1.00  0.00     0.027 A 
ATOM     98  C   UNL A   1      35.521  21.514  26.057  1.00  0.00     0.047 A 
ATOM     99  C   UNL A   1      37.055  23.531  24.873  1.00  0.00     0.004 A 
ATOM    100  C   UNL A   1      36.583  21.188  25.213  1.00  0.00     0.043 A 
ATOM    101  C   UNL A   1      37.341  22.190  24.608  1.00  0.00     0.020 A 
ATOM    102  Cl  UNL A   1      36.932  19.536  24.885  1.00  0.00    -0.084 Cl
ENDBRANCH  94  96
ENDBRANCH  91  94
ENDBRANCH  86  91
ENDBRANCH  80  83
ENDBRANCH  78  79
ENDBRANCH  77  78
ENDBRANCH  76  77
ENDBRANCH   1  76
TORSDOF 20
ENDMDL
MODEL 3
REMARK VINA RESULT:     -11.6      1.735      3.287
REMARK SMILES O=C(NCCCCCCNC(=O)c1cc(S(=O)(=O)Nc2cccc(Cl)c2)ccc1O)c1ccc(-c2c3nc(c(-c4c(F)cc(S(=O)(=O)[O-])cc4F)c4ccc([nH]4)c(-c4c(F)cc(S(=O)(=O)[O-])cc4F)c4nc(c(-c5c(F)cc(S(=O)(=O)[O-])cc5F)c5ccc2[nH]5)C=C4)C=C3)cc1
REMARK SMILES IDX 6 1 5 2 4 3 3 4 1 5 2 6 31 8 32 9 96 10 33 11 95 12 34 13
REMARK SMILES IDX 35 14 36 15 89 16 37 17 94 18 88 19 90 20 38 21 93 22 87 23
REMARK SMILES IDX 86 24 39 26 73 27 52 28 72 29 53 30 56 31 71 32 91 33 54 34
REMARK SMILES IDX 55 35 70 37 92 38 57 39 40 40 41 41 50 42 42 43 43 44 49 45
REMARK SMILES IDX 51 46 44 47 45 48 46 49 47 50 48 51 74 52 75 53 84 54 76 55
REMARK SMILES IDX 77 56 83 57 85 58 78 59 79 60 80 61 81 62 82 63 58 64 59 65
REMARK SMILES IDX 68 66 60 67 61 68 67 69 69 70 62 71 63 72 64 73 65 74 66 75
REMARK SMILES IDX 7 76 8 77 9 78 10 79 11 80 12 82 13 83 14 84 29 85 15 86
REMARK SMILES IDX 28 87 27 88 30 89 16 91 17 92 18 93 19 94 20 96 21 97 26 98
REMARK SMILES IDX 22 99 24 100 23 101 25 102
REMARK H PARENT 3 7 90 25 56 36 10 81 30 90 19 95
REMARK Flexibility Score: inf
ROOT
ATOM      1  C   UNL A   1      33.479  27.972  26.822  1.00  0.00     0.002 C 
ENDROOT
BRANCH   1   2
ATOM      2  C   UNL A   1      33.770  29.411  27.247  1.00  0.00     0.021 C 
BRANCH   2   3
ATOM      3  C   UNL A   1      35.200  29.689  27.693  1.00  0.00     0.116 C 
BRANCH   3   4
ATOM      4  N   UNL A   1      35.280  30.268  29.025  1.00  0.00    -0.352 N 
ATOM      5  O   UNL A   1      36.189  30.736  31.036  1.00  0.00    -0.269 OA
ATOM      6  C   UNL A   1      36.346  30.315  29.893  1.00  0.00     0.251 C 
ATOM      7  H   UNL A   1      34.451  30.686  29.353  1.00  0.00     0.163 HD
BRANCH   6   8
ATOM      8  C   UNL A   1      37.674  29.826  29.457  1.00  0.00     0.039 A 
ATOM      9  C   UNL A   1      38.601  29.352  30.386  1.00  0.00     0.014 A 
ATOM     10  C   UNL A   1      38.000  29.856  28.098  1.00  0.00     0.014 A 
ATOM     11  C   UNL A   1      39.902  29.073  29.981  1.00  0.00     0.010 A 
ATOM     12  C   UNL A   1      39.282  29.483  27.681  1.00  0.00     0.010 A 
ATOM     13  C   UNL A   1      40.259  29.130  28.624  1.00  0.00    -0.014 A 
BRANCH  13  14
ATOM     14  C   UNL A   1      41.648  28.779  28.224  1.00  0.00     0.031 A 
ATOM     15  C   UNL A   1      42.754  29.801  28.261  1.00  0.00     0.074 A 
ATOM     16  C   UNL A   1      41.917  27.507  27.865  1.00  0.00     0.049 A 
ATOM     17  N   UNL A   1      44.028  29.644  27.999  1.00  0.00    -0.248 NA
ATOM     18  C   UNL A   1      42.387  31.177  28.630  1.00  0.00     0.031 C 
ATOM     19  C   UNL A   1      40.924  26.432  27.776  1.00  0.00     0.029 A 
ATOM     20  N   UNL A   1      43.097  26.894  27.537  1.00  0.00    -0.354 N 
ATOM     21  C   UNL A   1      44.609  30.899  28.145  1.00  0.00     0.074 A 
ATOM     22  C   UNL A   1      43.543  31.813  28.497  1.00  0.00     0.031 C 
ATOM     23  C   UNL A   1      41.545  25.283  27.477  1.00  0.00     0.029 A 
ATOM     24  C   UNL A   1      42.967  25.547  27.292  1.00  0.00     0.049 A 
ATOM     25  H   UNL A   1      43.957  27.372  27.481  1.00  0.00     0.167 HD
ATOM     26  C   UNL A   1      45.910  31.254  28.004  1.00  0.00     0.037 A 
ATOM     27  C   UNL A   1      43.886  24.626  26.948  1.00  0.00     0.037 A 
ATOM     28  C   UNL A   1      46.969  30.332  27.675  1.00  0.00     0.049 A 
ATOM     29  C   UNL A   1      45.319  25.047  26.795  1.00  0.00     0.074 A 
ATOM     30  C   UNL A   1      48.325  30.584  27.557  1.00  0.00     0.029 A 
ATOM     31  N   UNL A   1      46.792  28.982  27.403  1.00  0.00    -0.354 N 
ATOM     32  N   UNL A   1      45.854  26.231  26.977  1.00  0.00    -0.248 NA
ATOM     33  C   UNL A   1      46.273  24.009  26.385  1.00  0.00     0.031 C 
ATOM     34  C   UNL A   1      48.961  29.399  27.170  1.00  0.00     0.029 A 
ATOM     35  C   UNL A   1      48.009  28.395  27.097  1.00  0.00     0.049 A 
ATOM     36  H   UNL A   1      45.928  28.511  27.424  1.00  0.00     0.167 HD
ATOM     37  C   UNL A   1      47.213  26.075  26.727  1.00  0.00     0.074 A 
ATOM     38  C   UNL A   1      47.417  24.679  26.396  1.00  0.00     0.031 C 
ATOM     39  C   UNL A   1      48.200  27.003  26.770  1.00  0.00     0.037 A 
BRANCH  26  40
ATOM     40  C   UNL A   1      46.266  32.707  28.182  1.00  0.00     0.058 A 
ATOM     41  C   UNL A   1      46.217  33.620  27.117  1.00  0.00     0.135 A 
ATOM     42  C   UNL A   1      46.623  33.200  29.448  1.00  0.00     0.135 A 
ATOM     43  F   UNL A   1      45.895  33.203  25.882  1.00  0.00    -0.206 F 
ATOM     44  C   UNL A   1      46.540  34.962  27.293  1.00  0.00     0.059 A 
ATOM     45  C   UNL A   1      46.924  34.543  29.653  1.00  0.00     0.059 A 
ATOM     46  F   UNL A   1      46.681  32.373  30.504  1.00  0.00    -0.206 F 
ATOM     47  C   UNL A   1      46.896  35.414  28.565  1.00  0.00     0.060 A 
BRANCH  47  48
ATOM     48  S   UNL A   1      47.318  37.157  28.776  1.00  0.00     0.124 S 
ATOM     49  O   UNL A   1      48.760  37.081  28.988  1.00  0.00    -0.237 OA
ATOM     50  O   UNL A   1      46.896  37.737  27.505  1.00  0.00    -0.237 OA
ATOM     51  O   UNL A   1      46.533  37.560  29.938  1.00  0.00    -0.744 OA
ENDBRANCH  47  48
ENDBRANCH  26  40
BRANCH  27  52
ATOM     52  C   UNL A   1      43.473  23.214  26.740  1.00  0.00     0.058 A 
ATOM     53  C   UNL A   1      43.436  22.655  25.455  1.00  0.00     0.135 A 
ATOM     54  C   UNL A   1      43.135  22.387  27.823  1.00  0.00     0.135 A 
ATOM     55  F   UNL A   1      43.747  23.407  24.387  1.00  0.00    -0.206 F 
ATOM     56  C   UNL A   1      43.067  21.331  25.247  1.00  0.00     0.059 A 
ATOM     57  C   UNL A   1      42.791  21.052  27.644  1.00  0.00     0.059 A 
ATOM     58  F   UNL A   1      43.173  22.870  29.076  1.00  0.00    -0.206 F 
ATOM     59  C   UNL A   1      42.750  20.536  26.350  1.00  0.00     0.060 A 
BRANCH  59  60
ATOM     60  S   UNL A   1      42.325  18.803  26.076  1.00  0.00     0.124 S 
ATOM     61  O   UNL A   1      43.231  18.448  24.990  1.00  0.00    -0.237 OA
ATOM     62  O   UNL A   1      42.621  18.205  27.374  1.00  0.00    -0.237 OA
ATOM     63  O   UNL A   1      40.909  18.856  25.727  1.00  0.00    -0.744 OA
ENDBRANCH  59  60
ENDBRANCH  27  52
BRANCH  39  64
ATOM     64  C   UNL A   1      49.598  26.528  26.486  1.00  0.00     0.058 A 
ATOM     65  C   UNL A   1      50.397  25.943  27.481  1.00  0.00     0.135 A 
ATOM     66  C   UNL A   1      50.137  26.644  25.195  1.00  0.00     0.135 A 
ATOM     67  F   UNL A   1      49.932  25.817  28.734  1.00  0.00    -0.206 F 
ATOM     68  C   UNL A   1      51.695  25.520  27.213  1.00  0.00     0.059 A 
ATOM     69  C   UNL A   1      51.421  26.202  24.898  1.00  0.00     0.059 A 
ATOM     70  F   UNL A   1      49.410  27.187  24.205  1.00  0.00    -0.206 F 
ATOM     71  C   UNL A   1      52.199  25.656  25.917  1.00  0.00     0.060 A 
BRANCH  71  72
ATOM     72  S   UNL A   1      53.880  25.091  25.577  1.00  0.00     0.124 S 
ATOM     73  O   UNL A   1      54.148  25.729  24.291  1.00  0.00    -0.237 OA
ATOM     74  O   UNL A   1      54.626  25.620  26.714  1.00  0.00    -0.237 OA
ATOM     75  O   UNL A   1      53.747  23.638  25.542  1.00  0.00    -0.744 OA
ENDBRANCH  71  72
ENDBRANCH  39  64
ENDBRANCH  13  14
ENDBRANCH   6   8
ENDBRANCH   3   4
ENDBRANCH   2   3
ENDBRANCH   1   2
BRANCH   1  76
ATOM     76  C   UNL A   1      32.000  27.594  26.692  1.00  0.00     0.002 C 
BRANCH  76  77
ATOM     77  C   UNL A   1      31.707  26.110  26.470  1.00  0.00     0.021 C 
BRANCH  77  78
ATOM     78  C   UNL A   1      30.327  25.791  25.909  1.00  0.00     0.116 C 
BRANCH  78  79
ATOM     79  N   UNL A   1      29.644  24.706  26.600  1.00  0.00    -0.352 N 
ATOM     80  C   UNL A   1      30.103  23.426  26.832  1.00  0.00     0.255 C 
ATOM     81  H   UNL A   1      28.744  24.912  26.943  1.00  0.00     0.163 HD
ATOM     82  O   UNL A   1      29.405  22.603  27.417  1.00  0.00    -0.269 OA
BRANCH  80  83
ATOM     83  C   UNL A   1      31.403  23.016  26.255  1.00  0.00     0.082 A 
ATOM     84  C   UNL A   1      31.560  23.117  24.866  1.00  0.00     0.040 A 
ATOM     85  C   UNL A   1      32.493  22.663  27.055  1.00  0.00     0.128 A 
ATOM     86  C   UNL A   1      32.842  23.043  24.308  1.00  0.00     0.088 A 
ATOM     87  C   UNL A   1      33.772  22.679  26.515  1.00  0.00     0.048 A 
ATOM     88  C   UNL A   1      33.944  22.957  25.158  1.00  0.00     0.026 A 
BRANCH  85  89
ATOM     89  O   UNL A   1      32.317  22.368  28.376  1.00  0.00    -0.507 OA
ATOM     90  H   UNL A   1      32.608  21.544  28.715  1.00  0.00     0.293 HD
ENDBRANCH  85  89
BRANCH  86  91
ATOM     91  S   UNL A   1      32.977  23.124  22.537  1.00  0.00     0.261 S 
ATOM     92  O   UNL A   1      34.360  23.448  22.235  1.00  0.00    -0.201 OA
ATOM     93  O   UNL A   1      32.383  21.909  22.026  1.00  0.00    -0.201 OA
BRANCH  91  94
ATOM     94  N   UNL A   1      32.069  24.386  21.842  1.00  0.00    -0.280 N 
ATOM     95  H   UNL A   1      31.408  24.166  21.146  1.00  0.00     0.180 HD
BRANCH  94  96
ATOM     96  C   UNL A   1      32.231  25.747  22.230  1.00  0.00     0.050 A 
ATOM     97  C   UNL A   1      33.502  26.247  22.521  1.00  0.00     0.027 A 
ATOM     98  C   UNL A   1      31.102  26.558  22.382  1.00  0.00     0.047 A 
ATOM     99  C   UNL A   1      33.640  27.541  23.027  1.00  0.00     0.004 A 
ATOM    100  C   UNL A   1      31.250  27.852  22.878  1.00  0.00     0.043 A 
ATOM    101  C   UNL A   1      32.511  28.343  23.216  1.00  0.00     0.020 A 
ATOM    102  Cl  UNL A   1      29.860  28.837  23.114  1.00  0.00    -0.084 Cl
ENDBRANCH  94  96
ENDBRANCH  91  94
ENDBRANCH  86  91
ENDBRANCH  80  83
ENDBRANCH  78  79
ENDBRANCH  77  78
ENDBRANCH  76  77
ENDBRANCH   1  76
TORSDOF 20
ENDMDL
