MODEL 1
REMARK VINA RESULT:     -11.2      0.000      0.000
REMARK SMILES CC(C)n1cncc1[C@@H](O)[C@H](C)C(=O)NCCCCCCNC(=O)c1ccc(-c2c3nc(c(-c4c(F)cc(S(=O)(=O)[O-])cc4F)c4ccc([nH]4)c(-c4c(F)cc(S(=O)(=O)[O-])cc4F)c4nc(c(-c5c(F)cc(S(=O)(=O)[O-])cc5F)c5ccc2[nH]5)C=C4)C=C3)cc1
REMARK SMILES IDX 18 1 17 2 16 3 15 4 13 5 14 6 11 8 12 9 9 10 8 11 4 12 5 13
REMARK SMILES IDX 6 14 7 15 2 16 1 17 3 18 10 19 19 21 20 22 21 23 22 24 23 25
REMARK SMILES IDX 24 27 25 28 26 29 90 30 27 31 89 32 28 33 29 34 30 35 83 36
REMARK SMILES IDX 31 37 88 38 82 39 84 40 32 41 87 42 81 43 80 44 33 46 67 47
REMARK SMILES IDX 46 48 66 49 47 50 50 51 65 52 85 53 48 54 49 55 64 57 86 58
REMARK SMILES IDX 51 59 34 60 35 61 44 62 36 63 37 64 43 65 45 66 38 67 39 68
REMARK SMILES IDX 40 69 41 70 42 71 68 72 69 73 78 74 70 75 71 76 77 77 79 78
REMARK SMILES IDX 72 79 73 80 74 81 75 82 76 83 52 84 53 85 62 86 54 87 55 88
REMARK SMILES IDX 61 89 63 90 56 91 57 92 58 93 59 94 60 95
REMARK H PARENT 15 7 10 20 22 26 84 45 50 56
REMARK Flexibility Score: inf
ROOT
ATOM      1  C   UNL A   1      36.383  23.025  25.761  1.00  0.00     0.002 C 
ENDROOT
BRANCH   1   2
ATOM      2  C   UNL A   1      35.690  24.177  25.035  1.00  0.00     0.021 C 
BRANCH   2   3
ATOM      3  C   UNL A   1      34.267  23.872  24.596  1.00  0.00     0.116 C 
BRANCH   3   4
ATOM      4  N   UNL A   1      33.967  24.309  23.245  1.00  0.00    -0.356 N 
ATOM      5  C   UNL A   1      33.726  25.580  22.808  1.00  0.00     0.225 C 
ATOM      6  O   UNL A   1      33.725  25.788  21.591  1.00  0.00    -0.275 OA
ATOM      7  H   UNL A   1      33.931  23.602  22.561  1.00  0.00     0.163 HD
BRANCH   5   8
ATOM      8  C   UNL A   1      33.418  26.711  23.784  1.00  0.00     0.110 C 
ATOM      9  C   UNL A   1      34.097  28.011  23.323  1.00  0.00     0.021 C 
BRANCH   8  10
ATOM     10  C   UNL A   1      31.941  26.735  24.262  1.00  0.00     0.175 C 
BRANCH  10  11
ATOM     11  C   UNL A   1      31.278  28.071  24.215  1.00  0.00     0.067 A 
ATOM     12  N   UNL A   1      31.453  29.132  25.088  1.00  0.00    -0.330 N 
ATOM     13  C   UNL A   1      30.624  30.135  24.641  1.00  0.00     0.199 A 
ATOM     14  N   UNL A   1      29.926  29.784  23.592  1.00  0.00    -0.245 NA
ATOM     15  C   UNL A   1      30.323  28.517  23.314  1.00  0.00     0.137 A 
BRANCH  12  16
ATOM     16  C   UNL A   1      32.213  29.179  26.342  1.00  0.00     0.082 C 
ATOM     17  C   UNL A   1      32.500  30.592  26.869  1.00  0.00     0.031 C 
ATOM     18  C   UNL A   1      31.557  28.382  27.485  1.00  0.00     0.031 C 
ENDBRANCH  12  16
ENDBRANCH  10  11
BRANCH  10  19
ATOM     19  O   UNL A   1      31.066  25.861  23.559  1.00  0.00    -0.386 OA
ATOM     20  H   UNL A   1      31.284  24.941  23.778  1.00  0.00     0.211 HD
ENDBRANCH  10  19
ENDBRANCH   8  10
ENDBRANCH   5   8
ENDBRANCH   3   4
ENDBRANCH   2   3
ENDBRANCH   1   2
BRANCH   1  21
ATOM     21  C   UNL A   1      37.917  23.090  25.841  1.00  0.00     0.002 C 
BRANCH  21  22
ATOM     22  C   UNL A   1      38.691  21.773  25.688  1.00  0.00     0.021 C 
BRANCH  22  23
ATOM     23  C   UNL A   1      39.843  21.590  26.664  1.00  0.00     0.116 C 
BRANCH  23  24
ATOM     24  N   UNL A   1      41.150  21.728  26.028  1.00  0.00    -0.352 N 
ATOM     25  C   UNL A   1      41.863  22.890  25.782  1.00  0.00     0.251 C 
ATOM     26  H   UNL A   1      41.580  20.891  25.739  1.00  0.00     0.163 HD
ATOM     27  O   UNL A   1      42.738  22.916  24.935  1.00  0.00    -0.269 OA
BRANCH  25  28
ATOM     28  C   UNL A   1      41.526  24.097  26.562  1.00  0.00     0.039 A 
ATOM     29  C   UNL A   1      41.986  24.271  27.868  1.00  0.00     0.014 A 
ATOM     30  C   UNL A   1      40.778  25.089  25.938  1.00  0.00     0.014 A 
ATOM     31  C   UNL A   1      41.763  25.496  28.497  1.00  0.00     0.010 A 
ATOM     32  C   UNL A   1      40.714  26.345  26.488  1.00  0.00     0.010 A 
ATOM     33  C   UNL A   1      41.154  26.547  27.790  1.00  0.00    -0.014 A 
BRANCH  33  34
ATOM     34  C   UNL A   1      41.054  27.882  28.379  1.00  0.00     0.031 A 
ATOM     35  C   UNL A   1      42.151  28.820  28.003  1.00  0.00     0.074 A 
ATOM     36  C   UNL A   1      39.985  28.325  29.079  1.00  0.00     0.049 A 
ATOM     37  N   UNL A   1      43.106  29.255  28.756  1.00  0.00    -0.248 NA
ATOM     38  C   UNL A   1      42.286  29.211  26.591  1.00  0.00     0.031 C 
ATOM     39  C   UNL A   1      38.689  27.674  29.304  1.00  0.00     0.029 A 
ATOM     40  N   UNL A   1      39.812  29.533  29.682  1.00  0.00    -0.354 N 
ATOM     41  C   UNL A   1      43.842  30.146  27.979  1.00  0.00     0.074 A 
ATOM     42  C   UNL A   1      43.401  29.946  26.623  1.00  0.00     0.031 C 
ATOM     43  C   UNL A   1      37.799  28.574  29.777  1.00  0.00     0.029 A 
ATOM     44  C   UNL A   1      38.506  29.803  30.077  1.00  0.00     0.049 A 
ATOM     45  H   UNL A   1      40.552  30.166  29.827  1.00  0.00     0.167 HD
ATOM     46  C   UNL A   1      44.600  31.125  28.549  1.00  0.00     0.037 A 
ATOM     47  C   UNL A   1      38.037  30.952  30.620  1.00  0.00     0.037 A 
ATOM     48  C   UNL A   1      44.806  30.869  29.953  1.00  0.00     0.049 A 
ATOM     49  C   UNL A   1      39.207  31.654  31.205  1.00  0.00     0.074 A 
ATOM     50  C   UNL A   1      45.386  29.846  30.677  1.00  0.00     0.029 A 
ATOM     51  N   UNL A   1      44.030  31.566  30.847  1.00  0.00    -0.354 N 
ATOM     52  N   UNL A   1      39.897  31.199  32.217  1.00  0.00    -0.248 NA
ATOM     53  C   UNL A   1      39.886  32.637  30.377  1.00  0.00     0.031 C 
ATOM     54  C   UNL A   1      44.548  29.685  31.819  1.00  0.00     0.029 A 
ATOM     55  C   UNL A   1      43.554  30.665  31.764  1.00  0.00     0.049 A 
ATOM     56  H   UNL A   1      43.850  32.534  30.833  1.00  0.00     0.167 HD
ATOM     57  C   UNL A   1      41.216  31.504  31.912  1.00  0.00     0.074 A 
ATOM     58  C   UNL A   1      41.137  32.466  30.814  1.00  0.00     0.031 C 
ATOM     59  C   UNL A   1      42.249  30.751  32.389  1.00  0.00     0.037 A 
BRANCH  46  60
ATOM     60  C   UNL A   1      44.859  32.487  27.943  1.00  0.00     0.058 A 
ATOM     61  C   UNL A   1      46.147  32.793  27.452  1.00  0.00     0.135 A 
ATOM     62  C   UNL A   1      43.988  33.589  28.087  1.00  0.00     0.135 A 
ATOM     63  F   UNL A   1      47.061  31.825  27.276  1.00  0.00    -0.206 F 
ATOM     64  C   UNL A   1      46.564  34.102  27.207  1.00  0.00     0.059 A 
ATOM     65  C   UNL A   1      44.366  34.895  27.797  1.00  0.00     0.059 A 
ATOM     66  F   UNL A   1      42.762  33.468  28.608  1.00  0.00    -0.206 F 
ATOM     67  C   UNL A   1      45.668  35.149  27.401  1.00  0.00     0.060 A 
BRANCH  67  68
ATOM     68  S   UNL A   1      46.235  36.846  27.198  1.00  0.00     0.124 S 
ATOM     69  O   UNL A   1      44.970  37.569  27.127  1.00  0.00    -0.237 OA
ATOM     70  O   UNL A   1      47.022  37.050  28.410  1.00  0.00    -0.237 OA
ATOM     71  O   UNL A   1      47.005  36.795  25.959  1.00  0.00    -0.744 OA
ENDBRANCH  67  68
ENDBRANCH  46  60
BRANCH  47  72
ATOM     72  C   UNL A   1      36.737  31.624  30.359  1.00  0.00     0.058 A 
ATOM     73  C   UNL A   1      36.027  32.261  31.393  1.00  0.00     0.135 A 
ATOM     74  C   UNL A   1      36.312  31.912  29.046  1.00  0.00     0.135 A 
ATOM     75  F   UNL A   1      36.374  32.055  32.672  1.00  0.00    -0.206 F 
ATOM     76  C   UNL A   1      34.997  33.174  31.140  1.00  0.00     0.059 A 
ATOM     77  C   UNL A   1      35.284  32.813  28.768  1.00  0.00     0.059 A 
ATOM     78  F   UNL A   1      36.950  31.393  27.985  1.00  0.00    -0.206 F 
ATOM     79  C   UNL A   1      34.647  33.461  29.821  1.00  0.00     0.060 A 
BRANCH  79  80
ATOM     80  S   UNL A   1      33.446  34.773  29.487  1.00  0.00     0.124 S 
ATOM     81  O   UNL A   1      34.285  35.799  28.875  1.00  0.00    -0.237 OA
ATOM     82  O   UNL A   1      32.501  34.108  28.596  1.00  0.00    -0.237 OA
ATOM     83  O   UNL A   1      32.926  35.102  30.811  1.00  0.00    -0.744 OA
ENDBRANCH  79  80
ENDBRANCH  47  72
BRANCH  59  84
ATOM     84  C   UNL A   1      41.985  29.771  33.503  1.00  0.00     0.058 A 
ATOM     85  C   UNL A   1      41.422  28.493  33.330  1.00  0.00     0.135 A 
ATOM     86  C   UNL A   1      42.515  30.070  34.768  1.00  0.00     0.135 A 
ATOM     87  F   UNL A   1      40.970  28.093  32.134  1.00  0.00    -0.206 F 
ATOM     88  C   UNL A   1      41.383  27.561  34.372  1.00  0.00     0.059 A 
ATOM     89  C   UNL A   1      42.513  29.149  35.810  1.00  0.00     0.059 A 
ATOM     90  F   UNL A   1      43.112  31.255  34.981  1.00  0.00    -0.206 F 
ATOM     91  C   UNL A   1      41.941  27.895  35.607  1.00  0.00     0.060 A 
BRANCH  91  92
ATOM     92  S   UNL A   1      42.003  26.652  36.917  1.00  0.00     0.124 S 
ATOM     93  O   UNL A   1      42.275  25.430  36.169  1.00  0.00    -0.237 OA
ATOM     94  O   UNL A   1      43.092  27.133  37.763  1.00  0.00    -0.237 OA
ATOM     95  O   UNL A   1      40.676  26.731  37.525  1.00  0.00    -0.744 OA
ENDBRANCH  91  92
ENDBRANCH  59  84
ENDBRANCH  33  34
ENDBRANCH  25  28
ENDBRANCH  23  24
ENDBRANCH  22  23
ENDBRANCH  21  22
ENDBRANCH   1  21
TORSDOF 20
ENDMDL
MODEL 2
REMARK VINA RESULT:     -11.0      1.288      2.081
REMARK SMILES CC(C)n1cncc1[C@@H](O)[C@H](C)C(=O)NCCCCCCNC(=O)c1ccc(-c2c3nc(c(-c4c(F)cc(S(=O)(=O)[O-])cc4F)c4ccc([nH]4)c(-c4c(F)cc(S(=O)(=O)[O-])cc4F)c4nc(c(-c5c(F)cc(S(=O)(=O)[O-])cc5F)c5ccc2[nH]5)C=C4)C=C3)cc1
REMARK SMILES IDX 18 1 17 2 16 3 15 4 13 5 14 6 11 8 12 9 9 10 8 11 4 12 5 13
REMARK SMILES IDX 6 14 7 15 2 16 1 17 3 18 10 19 19 21 20 22 21 23 22 24 23 25
REMARK SMILES IDX 24 27 25 28 26 29 90 30 27 31 89 32 28 33 29 34 30 35 83 36
REMARK SMILES IDX 31 37 88 38 82 39 84 40 32 41 87 42 81 43 80 44 33 46 67 47
REMARK SMILES IDX 46 48 66 49 47 50 50 51 65 52 85 53 48 54 49 55 64 57 86 58
REMARK SMILES IDX 51 59 34 60 35 61 44 62 36 63 37 64 43 65 45 66 38 67 39 68
REMARK SMILES IDX 40 69 41 70 42 71 68 72 69 73 78 74 70 75 71 76 77 77 79 78
REMARK SMILES IDX 72 79 73 80 74 81 75 82 76 83 52 84 53 85 62 86 54 87 55 88
REMARK SMILES IDX 61 89 63 90 56 91 57 92 58 93 59 94 60 95
REMARK H PARENT 15 7 10 20 22 26 84 45 50 56
REMARK Flexibility Score: inf
ROOT
ATOM      1  C   UNL A   1      36.375  23.800  26.000  1.00  0.00     0.002 C 
ENDROOT
BRANCH   1   2
ATOM      2  C   UNL A   1      35.206  23.377  25.113  1.00  0.00     0.021 C 
BRANCH   2   3
ATOM      3  C   UNL A   1      34.913  21.886  25.135  1.00  0.00     0.116 C 
BRANCH   3   4
ATOM      4  N   UNL A   1      33.578  21.560  25.602  1.00  0.00    -0.356 N 
ATOM      5  C   UNL A   1      32.412  21.586  24.893  1.00  0.00     0.225 C 
ATOM      6  O   UNL A   1      31.416  21.051  25.388  1.00  0.00    -0.275 OA
ATOM      7  H   UNL A   1      33.506  21.287  26.545  1.00  0.00     0.163 HD
BRANCH   5   8
ATOM      8  C   UNL A   1      32.316  22.297  23.547  1.00  0.00     0.110 C 
ATOM      9  C   UNL A   1      31.928  21.299  22.444  1.00  0.00     0.021 C 
BRANCH   8  10
ATOM     10  C   UNL A   1      31.613  23.680  23.622  1.00  0.00     0.175 C 
BRANCH  10  11
ATOM     11  C   UNL A   1      32.316  24.790  22.916  1.00  0.00     0.067 A 
ATOM     12  N   UNL A   1      32.651  26.035  23.424  1.00  0.00    -0.330 N 
ATOM     13  C   UNL A   1      33.274  26.711  22.400  1.00  0.00     0.199 A 
ATOM     14  N   UNL A   1      33.327  26.014  21.294  1.00  0.00    -0.245 NA
ATOM     15  C   UNL A   1      32.747  24.827  21.599  1.00  0.00     0.137 A 
BRANCH  12  16
ATOM     16  C   UNL A   1      32.290  26.632  24.715  1.00  0.00     0.082 C 
ATOM     17  C   UNL A   1      33.409  26.617  25.766  1.00  0.00     0.031 C 
ATOM     18  C   UNL A   1      31.781  28.080  24.600  1.00  0.00     0.031 C 
ENDBRANCH  12  16
ENDBRANCH  10  11
BRANCH  10  19
ATOM     19  O   UNL A   1      30.282  23.706  23.120  1.00  0.00    -0.386 OA
ATOM     20  H   UNL A   1      29.721  24.220  23.722  1.00  0.00     0.211 HD
ENDBRANCH  10  19
ENDBRANCH   8  10
ENDBRANCH   5   8
ENDBRANCH   3   4
ENDBRANCH   2   3
ENDBRANCH   1   2
BRANCH   1  21
ATOM     21  C   UNL A   1      37.785  23.529  25.451  1.00  0.00     0.002 C 
BRANCH  21  22
ATOM     22  C   UNL A   1      38.513  22.274  25.955  1.00  0.00     0.021 C 
BRANCH  22  23
ATOM     23  C   UNL A   1      39.659  22.542  26.919  1.00  0.00     0.116 C 
BRANCH  23  24
ATOM     24  N   UNL A   1      40.959  22.169  26.369  1.00  0.00    -0.352 N 
ATOM     25  C   UNL A   1      41.977  23.003  25.938  1.00  0.00     0.251 C 
ATOM     26  H   UNL A   1      41.135  21.203  26.297  1.00  0.00     0.163 HD
ATOM     27  O   UNL A   1      42.834  22.596  25.174  1.00  0.00    -0.269 OA
BRANCH  25  28
ATOM     28  C   UNL A   1      41.989  24.399  26.417  1.00  0.00     0.039 A 
ATOM     29  C   UNL A   1      41.313  25.409  25.732  1.00  0.00     0.014 A 
ATOM     30  C   UNL A   1      42.651  24.674  27.609  1.00  0.00     0.014 A 
ATOM     31  C   UNL A   1      41.234  26.674  26.314  1.00  0.00     0.010 A 
ATOM     32  C   UNL A   1      42.424  25.862  28.258  1.00  0.00     0.010 A 
ATOM     33  C   UNL A   1      41.764  26.890  27.599  1.00  0.00    -0.014 A 
BRANCH  33  34
ATOM     34  C   UNL A   1      41.553  28.163  28.288  1.00  0.00     0.031 A 
ATOM     35  C   UNL A   1      42.640  29.167  28.101  1.00  0.00     0.074 A 
ATOM     36  C   UNL A   1      40.407  28.505  28.917  1.00  0.00     0.049 A 
ATOM     37  N   UNL A   1      43.502  29.565  28.977  1.00  0.00    -0.248 NA
ATOM     38  C   UNL A   1      42.889  29.687  26.747  1.00  0.00     0.031 C 
ATOM     39  C   UNL A   1      39.124  27.792  28.960  1.00  0.00     0.029 A 
ATOM     40  N   UNL A   1      40.127  29.647  29.602  1.00  0.00    -0.354 N 
ATOM     41  C   UNL A   1      44.268  30.548  28.353  1.00  0.00     0.074 A 
ATOM     42  C   UNL A   1      43.963  30.454  26.949  1.00  0.00     0.031 C 
ATOM     43  C   UNL A   1      38.157  28.615  29.421  1.00  0.00     0.029 A 
ATOM     44  C   UNL A   1      38.780  29.836  29.892  1.00  0.00     0.049 A 
ATOM     45  H   UNL A   1      40.823  30.289  29.872  1.00  0.00     0.167 HD
ATOM     46  C   UNL A   1      44.928  31.497  29.075  1.00  0.00     0.037 A 
ATOM     47  C   UNL A   1      38.214  30.915  30.483  1.00  0.00     0.037 A 
ATOM     48  C   UNL A   1      45.013  31.123  30.465  1.00  0.00     0.049 A 
ATOM     49  C   UNL A   1      39.294  31.601  31.237  1.00  0.00     0.074 A 
ATOM     50  C   UNL A   1      45.567  30.060  31.151  1.00  0.00     0.029 A 
ATOM     51  N   UNL A   1      44.129  31.710  31.337  1.00  0.00    -0.354 N 
ATOM     52  N   UNL A   1      39.906  31.082  32.268  1.00  0.00    -0.248 NA
ATOM     53  C   UNL A   1      40.005  32.677  30.565  1.00  0.00     0.031 C 
ATOM     54  C   UNL A   1      44.634  29.769  32.190  1.00  0.00     0.029 A 
ATOM     55  C   UNL A   1      43.609  30.715  32.123  1.00  0.00     0.049 A 
ATOM     56  H   UNL A   1      43.910  32.669  31.389  1.00  0.00     0.167 HD
ATOM     57  C   UNL A   1      41.233  31.457  32.118  1.00  0.00     0.074 A 
ATOM     58  C   UNL A   1      41.216  32.511  31.104  1.00  0.00     0.031 C 
ATOM     59  C   UNL A   1      42.249  30.701  32.625  1.00  0.00     0.037 A 
BRANCH  46  60
ATOM     60  C   UNL A   1      45.183  32.915  28.616  1.00  0.00     0.058 A 
ATOM     61  C   UNL A   1      46.502  33.420  28.630  1.00  0.00     0.135 A 
ATOM     62  C   UNL A   1      44.167  33.880  28.443  1.00  0.00     0.135 A 
ATOM     63  F   UNL A   1      47.550  32.596  28.790  1.00  0.00    -0.206 F 
ATOM     64  C   UNL A   1      46.782  34.786  28.564  1.00  0.00     0.059 A 
ATOM     65  C   UNL A   1      44.428  35.240  28.320  1.00  0.00     0.059 A 
ATOM     66  F   UNL A   1      42.868  33.564  28.481  1.00  0.00    -0.206 F 
ATOM     67  C   UNL A   1      45.733  35.690  28.427  1.00  0.00     0.060 A 
BRANCH  67  68
ATOM     68  S   UNL A   1      46.079  37.457  28.458  1.00  0.00     0.124 S 
ATOM     69  O   UNL A   1      45.216  37.903  29.546  1.00  0.00    -0.237 OA
ATOM     70  O   UNL A   1      47.513  37.480  28.728  1.00  0.00    -0.237 OA
ATOM     71  O   UNL A   1      45.691  37.897  27.122  1.00  0.00    -0.744 OA
ENDBRANCH  67  68
ENDBRANCH  46  60
BRANCH  47  72
ATOM     72  C   UNL A   1      36.917  31.563  30.158  1.00  0.00     0.058 A 
ATOM     73  C   UNL A   1      36.000  31.905  31.169  1.00  0.00     0.135 A 
ATOM     74  C   UNL A   1      36.678  32.126  28.887  1.00  0.00     0.135 A 
ATOM     75  F   UNL A   1      36.160  31.426  32.411  1.00  0.00    -0.206 F 
ATOM     76  C   UNL A   1      34.946  32.799  30.950  1.00  0.00     0.059 A 
ATOM     77  C   UNL A   1      35.630  33.015  28.643  1.00  0.00     0.059 A 
ATOM     78  F   UNL A   1      37.517  31.902  27.864  1.00  0.00    -0.206 F 
ATOM     79  C   UNL A   1      34.782  33.367  29.687  1.00  0.00     0.060 A 
BRANCH  79  80
ATOM     80  S   UNL A   1      33.537  34.658  29.449  1.00  0.00     0.124 S 
ATOM     81  O   UNL A   1      33.154  34.963  30.824  1.00  0.00    -0.237 OA
ATOM     82  O   UNL A   1      34.294  35.694  28.755  1.00  0.00    -0.237 OA
ATOM     83  O   UNL A   1      32.511  33.997  28.648  1.00  0.00    -0.744 OA
ENDBRANCH  79  80
ENDBRANCH  47  72
BRANCH  59  84
ATOM     84  C   UNL A   1      41.924  29.617  33.621  1.00  0.00     0.058 A 
ATOM     85  C   UNL A   1      41.572  28.297  33.283  1.00  0.00     0.135 A 
ATOM     86  C   UNL A   1      42.181  29.883  34.975  1.00  0.00     0.135 A 
ATOM     87  F   UNL A   1      41.392  27.935  32.005  1.00  0.00    -0.206 F 
ATOM     88  C   UNL A   1      41.473  27.293  34.251  1.00  0.00     0.059 A 
ATOM     89  C   UNL A   1      42.117  28.893  35.950  1.00  0.00     0.059 A 
ATOM     90  F   UNL A   1      42.572  31.111  35.354  1.00  0.00    -0.206 F 
ATOM     91  C   UNL A   1      41.759  27.599  35.582  1.00  0.00     0.060 A 
BRANCH  91  92
ATOM     92  S   UNL A   1      41.753  26.278  36.817  1.00  0.00     0.124 S 
ATOM     93  O   UNL A   1      42.032  25.099  36.006  1.00  0.00    -0.237 OA
ATOM     94  O   UNL A   1      42.818  26.688  37.728  1.00  0.00    -0.237 OA
ATOM     95  O   UNL A   1      40.406  26.345  37.380  1.00  0.00    -0.744 OA
ENDBRANCH  91  92
ENDBRANCH  59  84
ENDBRANCH  33  34
ENDBRANCH  25  28
ENDBRANCH  23  24
ENDBRANCH  22  23
ENDBRANCH  21  22
ENDBRANCH   1  21
TORSDOF 20
ENDMDL
MODEL 3
REMARK VINA RESULT:     -11.0      1.440      2.184
REMARK SMILES CC(C)n1cncc1[C@@H](O)[C@H](C)C(=O)NCCCCCCNC(=O)c1ccc(-c2c3nc(c(-c4c(F)cc(S(=O)(=O)[O-])cc4F)c4ccc([nH]4)c(-c4c(F)cc(S(=O)(=O)[O-])cc4F)c4nc(c(-c5c(F)cc(S(=O)(=O)[O-])cc5F)c5ccc2[nH]5)C=C4)C=C3)cc1
REMARK SMILES IDX 18 1 17 2 16 3 15 4 13 5 14 6 11 8 12 9 9 10 8 11 4 12 5 13
REMARK SMILES IDX 6 14 7 15 2 16 1 17 3 18 10 19 19 21 20 22 21 23 22 24 23 25
REMARK SMILES IDX 24 27 25 28 26 29 90 30 27 31 89 32 28 33 29 34 30 35 83 36
REMARK SMILES IDX 31 37 88 38 82 39 84 40 32 41 87 42 81 43 80 44 33 46 67 47
REMARK SMILES IDX 46 48 66 49 47 50 50 51 65 52 85 53 48 54 49 55 64 57 86 58
REMARK SMILES IDX 51 59 34 60 35 61 44 62 36 63 37 64 43 65 45 66 38 67 39 68
REMARK SMILES IDX 40 69 41 70 42 71 68 72 69 73 78 74 70 75 71 76 77 77 79 78
REMARK SMILES IDX 72 79 73 80 74 81 75 82 76 83 52 84 53 85 62 86 54 87 55 88
REMARK SMILES IDX 61 89 63 90 56 91 57 92 58 93 59 94 60 95
REMARK H PARENT 15 7 10 20 22 26 84 45 50 56
REMARK Flexibility Score: inf
ROOT
ATOM      1  C   UNL A   1      36.129  23.626  25.745  1.00  0.00     0.002 C 
ENDROOT
BRANCH   1   2
ATOM      2  C   UNL A   1      34.808  23.148  26.346  1.00  0.00     0.021 C 
BRANCH   2   3
ATOM      3  C   UNL A   1      33.694  24.181  26.305  1.00  0.00     0.116 C 
BRANCH   3   4
ATOM      4  N   UNL A   1      32.398  23.658  26.698  1.00  0.00    -0.356 N 
ATOM      5  C   UNL A   1      31.228  23.704  25.995  1.00  0.00     0.225 C 
ATOM      6  O   UNL A   1      30.289  23.001  26.381  1.00  0.00    -0.275 OA
ATOM      7  H   UNL A   1      32.359  23.218  27.577  1.00  0.00     0.163 HD
BRANCH   5   8
ATOM      8  C   UNL A   1      31.056  24.629  24.796  1.00  0.00     0.110 C 
ATOM      9  C   UNL A   1      30.757  23.810  23.530  1.00  0.00     0.021 C 
BRANCH   8  10
ATOM     10  C   UNL A   1      30.228  25.905  25.106  1.00  0.00     0.175 C 
BRANCH  10  11
ATOM     11  C   UNL A   1      30.282  26.969  24.063  1.00  0.00     0.067 A 
ATOM     12  N   UNL A   1      31.372  27.745  23.702  1.00  0.00    -0.330 N 
ATOM     13  C   UNL A   1      30.931  28.587  22.708  1.00  0.00     0.199 A 
ATOM     14  N   UNL A   1      29.660  28.430  22.440  1.00  0.00    -0.245 NA
ATOM     15  C   UNL A   1      29.249  27.432  23.263  1.00  0.00     0.137 A 
BRANCH  12  16
ATOM     16  C   UNL A   1      32.696  27.822  24.330  1.00  0.00     0.082 C 
ATOM     17  C   UNL A   1      33.765  26.924  23.690  1.00  0.00     0.031 C 
ATOM     18  C   UNL A   1      33.265  29.251  24.386  1.00  0.00     0.031 C 
ENDBRANCH  12  16
ENDBRANCH  10  11
BRANCH  10  19
ATOM     19  O   UNL A   1      28.842  25.681  25.336  1.00  0.00    -0.386 OA
ATOM     20  H   UNL A   1      28.537  26.254  26.057  1.00  0.00     0.211 HD
ENDBRANCH  10  19
ENDBRANCH   8  10
ENDBRANCH   5   8
ENDBRANCH   3   4
ENDBRANCH   2   3
ENDBRANCH   1   2
BRANCH   1  21
ATOM     21  C   UNL A   1      36.716  22.768  24.612  1.00  0.00     0.002 C 
BRANCH  21  22
ATOM     22  C   UNL A   1      37.797  21.744  24.987  1.00  0.00     0.021 C 
BRANCH  22  23
ATOM     23  C   UNL A   1      38.721  22.171  26.117  1.00  0.00     0.116 C 
BRANCH  23  24
ATOM     24  N   UNL A   1      40.123  21.862  25.850  1.00  0.00    -0.352 N 
ATOM     25  C   UNL A   1      41.225  22.687  26.003  1.00  0.00     0.251 C 
ATOM     26  H   UNL A   1      40.309  20.953  25.520  1.00  0.00     0.163 HD
ATOM     27  O   UNL A   1      42.264  22.455  25.410  1.00  0.00    -0.269 OA
BRANCH  25  28
ATOM     28  C   UNL A   1      41.104  23.859  26.892  1.00  0.00     0.039 A 
ATOM     29  C   UNL A   1      41.899  23.993  28.031  1.00  0.00     0.014 A 
ATOM     30  C   UNL A   1      40.209  24.861  26.533  1.00  0.00     0.014 A 
ATOM     31  C   UNL A   1      41.848  25.191  28.744  1.00  0.00     0.010 A 
ATOM     32  C   UNL A   1      40.289  26.094  27.129  1.00  0.00     0.010 A 
ATOM     33  C   UNL A   1      41.063  26.257  28.270  1.00  0.00    -0.014 A 
BRANCH  33  34
ATOM     34  C   UNL A   1      41.118  27.568  28.917  1.00  0.00     0.031 A 
ATOM     35  C   UNL A   1      42.168  28.487  28.389  1.00  0.00     0.074 A 
ATOM     36  C   UNL A   1      40.206  28.014  29.809  1.00  0.00     0.049 A 
ATOM     37  N   UNL A   1      43.256  28.858  28.978  1.00  0.00    -0.248 NA
ATOM     38  C   UNL A   1      42.070  28.933  26.990  1.00  0.00     0.031 C 
ATOM     39  C   UNL A   1      38.945  27.394  30.235  1.00  0.00     0.029 A 
ATOM     40  N   UNL A   1      40.186  29.199  30.478  1.00  0.00    -0.354 N 
ATOM     41  C   UNL A   1      43.879  29.759  28.117  1.00  0.00     0.074 A 
ATOM     42  C   UNL A   1      43.200  29.631  26.853  1.00  0.00     0.031 C 
ATOM     43  C   UNL A   1      38.186  28.300  30.889  1.00  0.00     0.029 A 
ATOM     44  C   UNL A   1      38.981  29.492  31.106  1.00  0.00     0.049 A 
ATOM     45  H   UNL A   1      40.964  29.802  30.514  1.00  0.00     0.167 HD
ATOM     46  C   UNL A   1      44.761  30.689  28.581  1.00  0.00     0.037 A 
ATOM     47  C   UNL A   1      38.658  30.631  31.764  1.00  0.00     0.037 A 
ATOM     48  C   UNL A   1      45.199  30.366  29.916  1.00  0.00     0.049 A 
ATOM     49  C   UNL A   1      39.937  31.270  32.161  1.00  0.00     0.074 A 
ATOM     50  C   UNL A   1      45.857  29.295  30.489  1.00  0.00     0.029 A 
ATOM     51  N   UNL A   1      44.617  31.048  30.958  1.00  0.00    -0.354 N 
ATOM     52  N   UNL A   1      40.776  30.751  33.018  1.00  0.00    -0.248 NA
ATOM     53  C   UNL A   1      40.499  32.266  31.263  1.00  0.00     0.031 C 
ATOM     54  C   UNL A   1      45.225  29.111  31.754  1.00  0.00     0.029 A 
ATOM     55  C   UNL A   1      44.274  30.123  31.910  1.00  0.00     0.049 A 
ATOM     56  H   UNL A   1      44.475  32.020  31.011  1.00  0.00     0.167 HD
ATOM     57  C   UNL A   1      42.032  31.027  32.498  1.00  0.00     0.074 A 
ATOM     58  C   UNL A   1      41.800  32.038  31.467  1.00  0.00     0.031 C 
ATOM     59  C   UNL A   1      43.103  30.223  32.757  1.00  0.00     0.037 A 
BRANCH  46  60
ATOM     60  C   UNL A   1      44.962  32.066  27.989  1.00  0.00     0.058 A 
ATOM     61  C   UNL A   1      46.222  32.413  27.455  1.00  0.00     0.135 A 
ATOM     62  C   UNL A   1      44.070  33.143  28.186  1.00  0.00     0.135 A 
ATOM     63  F   UNL A   1      47.153  31.472  27.227  1.00  0.00    -0.206 F 
ATOM     64  C   UNL A   1      46.596  33.737  27.218  1.00  0.00     0.059 A 
ATOM     65  C   UNL A   1      44.404  34.464  27.904  1.00  0.00     0.059 A 
ATOM     66  F   UNL A   1      42.868  32.982  28.751  1.00  0.00    -0.206 F 
ATOM     67  C   UNL A   1      45.683  34.757  27.464  1.00  0.00     0.060 A 
BRANCH  67  68
ATOM     68  S   UNL A   1      46.199  36.471  27.269  1.00  0.00     0.124 S 
ATOM     69  O   UNL A   1      47.403  36.508  28.091  1.00  0.00    -0.237 OA
ATOM     70  O   UNL A   1      46.404  36.564  25.828  1.00  0.00    -0.237 OA
ATOM     71  O   UNL A   1      45.059  37.224  27.783  1.00  0.00    -0.744 OA
ENDBRANCH  67  68
ENDBRANCH  46  60
BRANCH  47  72
ATOM     72  C   UNL A   1      37.359  31.354  31.761  1.00  0.00     0.058 A 
ATOM     73  C   UNL A   1      36.708  31.686  32.963  1.00  0.00     0.135 A 
ATOM     74  C   UNL A   1      36.879  31.991  30.598  1.00  0.00     0.135 A 
ATOM     75  F   UNL A   1      37.110  31.137  34.119  1.00  0.00    -0.206 F 
ATOM     76  C   UNL A   1      35.683  32.637  33.019  1.00  0.00     0.059 A 
ATOM     77  C   UNL A   1      35.854  32.938  30.628  1.00  0.00     0.059 A 
ATOM     78  F   UNL A   1      37.458  31.781  29.407  1.00  0.00    -0.206 F 
ATOM     79  C   UNL A   1      35.278  33.276  31.848  1.00  0.00     0.060 A 
BRANCH  79  80
ATOM     80  S   UNL A   1      34.085  34.633  31.944  1.00  0.00     0.124 S 
ATOM     81  O   UNL A   1      33.118  34.116  32.906  1.00  0.00    -0.237 OA
ATOM     82  O   UNL A   1      34.914  35.741  32.407  1.00  0.00    -0.237 OA
ATOM     83  O   UNL A   1      33.597  34.754  30.573  1.00  0.00    -0.744 OA
ENDBRANCH  79  80
ENDBRANCH  47  72
BRANCH  59  84
ATOM     84  C   UNL A   1      43.000  29.205  33.863  1.00  0.00     0.058 A 
ATOM     85  C   UNL A   1      43.194  29.481  35.229  1.00  0.00     0.135 A 
ATOM     86  C   UNL A   1      42.483  27.942  33.534  1.00  0.00     0.135 A 
ATOM     87  F   UNL A   1      43.603  30.690  35.638  1.00  0.00    -0.206 F 
ATOM     88  C   UNL A   1      42.894  28.540  36.219  1.00  0.00     0.059 A 
ATOM     89  C   UNL A   1      42.150  27.001  34.504  1.00  0.00     0.059 A 
ATOM     90  F   UNL A   1      42.227  27.636  32.251  1.00  0.00    -0.206 F 
ATOM     91  C   UNL A   1      42.361  27.304  35.846  1.00  0.00     0.060 A 
BRANCH  91  92
ATOM     92  S   UNL A   1      41.858  26.133  37.127  1.00  0.00     0.124 S 
ATOM     93  O   UNL A   1      40.577  26.681  37.558  1.00  0.00    -0.237 OA
ATOM     94  O   UNL A   1      41.794  24.870  36.396  1.00  0.00    -0.237 OA
ATOM     95  O   UNL A   1      42.937  26.217  38.109  1.00  0.00    -0.744 OA
ENDBRANCH  91  92
ENDBRANCH  59  84
ENDBRANCH  33  34
ENDBRANCH  25  28
ENDBRANCH  23  24
ENDBRANCH  22  23
ENDBRANCH  21  22
ENDBRANCH   1  21
TORSDOF 20
ENDMDL
