MODEL 1
REMARK VINA RESULT:     -10.7      0.000      0.000
REMARK SMILES O=C(NCCCCCCNC(=O)[C@@H]1CCCC[C@@H]1Sc1ccncc1)c1ccc(-c2c3nc(c(-c4c(F)cc(S(=O)(=O)[O-])cc4F)c4ccc([nH]4)c(-c4c(F)cc(S(=O)(=O)[O-])cc4F)c4nc(c(-c5c(F)cc(S(=O)(=O)[O-])cc5F)c5ccc2[nH]5)C=C4)C=C3)cc1
REMARK SMILES IDX 6 1 5 2 4 3 3 4 1 5 2 6 26 8 27 9 91 10 28 11 90 12 29 13
REMARK SMILES IDX 30 14 31 15 84 16 32 17 89 18 83 19 85 20 33 21 88 22 82 23
REMARK SMILES IDX 81 24 34 26 68 27 47 28 67 29 48 30 51 31 66 32 86 33 49 34
REMARK SMILES IDX 50 35 65 37 87 38 52 39 35 40 36 41 45 42 37 43 38 44 44 45
REMARK SMILES IDX 46 46 39 47 40 48 41 49 42 50 43 51 69 52 70 53 79 54 71 55
REMARK SMILES IDX 72 56 78 57 80 58 73 59 74 60 75 61 76 62 77 63 53 64 54 65
REMARK SMILES IDX 63 66 55 67 56 68 62 69 64 70 57 71 58 72 59 73 60 74 61 75
REMARK SMILES IDX 7 76 8 77 9 78 10 79 11 80 12 82 13 83 14 84 18 85 15 86
REMARK SMILES IDX 17 87 16 88 19 89 20 90 21 91 25 92 22 93 24 94 23 95
REMARK H PARENT 3 7 85 25 51 36 10 81
REMARK Flexibility Score: inf
ROOT
ATOM      1  C   UNL A   1      32.922  29.257  24.887  1.00  0.00     0.002 C 
ENDROOT
BRANCH   1   2
ATOM      2  C   UNL A   1      33.843  28.323  25.671  1.00  0.00     0.021 C 
BRANCH   2   3
ATOM      3  C   UNL A   1      33.763  28.480  27.183  1.00  0.00     0.116 C 
BRANCH   3   4
ATOM      4  N   UNL A   1      33.615  29.870  27.580  1.00  0.00    -0.352 N 
ATOM      5  O   UNL A   1      34.167  31.765  28.671  1.00  0.00    -0.269 OA
ATOM      6  C   UNL A   1      34.518  30.674  28.229  1.00  0.00     0.251 C 
ATOM      7  H   UNL A   1      32.753  30.289  27.354  1.00  0.00     0.163 HD
BRANCH   6   8
ATOM      8  C   UNL A   1      35.910  30.208  28.401  1.00  0.00     0.039 A 
ATOM      9  C   UNL A   1      36.828  30.322  27.352  1.00  0.00     0.014 A 
ATOM     10  C   UNL A   1      36.306  29.673  29.630  1.00  0.00     0.014 A 
ATOM     11  C   UNL A   1      38.113  29.814  27.497  1.00  0.00     0.010 A 
ATOM     12  C   UNL A   1      37.620  29.233  29.800  1.00  0.00     0.010 A 
ATOM     13  C   UNL A   1      38.532  29.296  28.733  1.00  0.00    -0.014 A 
BRANCH  13  14
ATOM     14  C   UNL A   1      39.963  28.961  28.934  1.00  0.00     0.031 A 
ATOM     15  C   UNL A   1      40.517  27.623  28.537  1.00  0.00     0.074 A 
ATOM     16  C   UNL A   1      40.752  29.887  29.514  1.00  0.00     0.049 A 
ATOM     17  N   UNL A   1      41.731  27.163  28.694  1.00  0.00    -0.248 NA
ATOM     18  C   UNL A   1      39.596  26.677  27.888  1.00  0.00     0.031 C 
ATOM     19  C   UNL A   1      40.304  31.212  29.961  1.00  0.00     0.029 A 
ATOM     20  N   UNL A   1      42.083  29.865  29.838  1.00  0.00    -0.354 N 
ATOM     21  C   UNL A   1      41.718  25.868  28.190  1.00  0.00     0.074 A 
ATOM     22  C   UNL A   1      40.372  25.611  27.725  1.00  0.00     0.031 C 
ATOM     23  C   UNL A   1      41.343  31.875  30.488  1.00  0.00     0.029 A 
ATOM     24  C   UNL A   1      42.511  31.004  30.479  1.00  0.00     0.049 A 
ATOM     25  H   UNL A   1      42.676  29.107  29.631  1.00  0.00     0.167 HD
ATOM     26  C   UNL A   1      42.742  24.983  28.126  1.00  0.00     0.037 A 
ATOM     27  C   UNL A   1      43.697  31.302  31.041  1.00  0.00     0.037 A 
ATOM     28  C   UNL A   1      44.082  25.269  28.574  1.00  0.00     0.049 A 
ATOM     29  C   UNL A   1      44.800  30.286  30.980  1.00  0.00     0.074 A 
ATOM     30  C   UNL A   1      45.209  24.472  28.465  1.00  0.00     0.029 A 
ATOM     31  N   UNL A   1      44.474  26.427  29.229  1.00  0.00    -0.354 N 
ATOM     32  N   UNL A   1      44.794  29.100  30.419  1.00  0.00    -0.248 NA
ATOM     33  C   UNL A   1      46.068  30.640  31.633  1.00  0.00     0.031 C 
ATOM     34  C   UNL A   1      46.267  25.121  29.110  1.00  0.00     0.029 A 
ATOM     35  C   UNL A   1      45.814  26.345  29.574  1.00  0.00     0.049 A 
ATOM     36  H   UNL A   1      43.887  27.194  29.421  1.00  0.00     0.167 HD
ATOM     37  C   UNL A   1      46.056  28.568  30.649  1.00  0.00     0.074 A 
ATOM     38  C   UNL A   1      46.809  29.571  31.374  1.00  0.00     0.031 C 
ATOM     39  C   UNL A   1      46.545  27.354  30.299  1.00  0.00     0.037 A 
BRANCH  26  40
ATOM     40  C   UNL A   1      42.474  23.612  27.573  1.00  0.00     0.058 A 
ATOM     41  C   UNL A   1      42.528  23.342  26.198  1.00  0.00     0.135 A 
ATOM     42  C   UNL A   1      42.270  22.528  28.445  1.00  0.00     0.135 A 
ATOM     43  F   UNL A   1      42.708  24.342  25.320  1.00  0.00    -0.206 F 
ATOM     44  C   UNL A   1      42.391  22.048  25.704  1.00  0.00     0.059 A 
ATOM     45  C   UNL A   1      42.152  21.223  27.976  1.00  0.00     0.059 A 
ATOM     46  F   UNL A   1      42.208  22.731  29.770  1.00  0.00    -0.206 F 
ATOM     47  C   UNL A   1      42.212  20.992  26.603  1.00  0.00     0.060 A 
BRANCH  47  48
ATOM     48  S   UNL A   1      42.086  19.315  25.947  1.00  0.00     0.124 S 
ATOM     49  O   UNL A   1      40.658  19.221  25.660  1.00  0.00    -0.237 OA
ATOM     50  O   UNL A   1      42.964  19.369  24.783  1.00  0.00    -0.237 OA
ATOM     51  O   UNL A   1      42.560  18.482  27.048  1.00  0.00    -0.744 OA
ENDBRANCH  47  48
ENDBRANCH  26  40
BRANCH  27  52
ATOM     52  C   UNL A   1      43.878  32.592  31.755  1.00  0.00     0.058 A 
ATOM     53  C   UNL A   1      43.602  32.712  33.124  1.00  0.00     0.135 A 
ATOM     54  C   UNL A   1      44.334  33.735  31.077  1.00  0.00     0.135 A 
ATOM     55  F   UNL A   1      43.163  31.650  33.815  1.00  0.00    -0.206 F 
ATOM     56  C   UNL A   1      43.745  33.925  33.790  1.00  0.00     0.059 A 
ATOM     57  C   UNL A   1      44.515  34.949  31.727  1.00  0.00     0.059 A 
ATOM     58  F   UNL A   1      44.632  33.668  29.769  1.00  0.00    -0.206 F 
ATOM     59  C   UNL A   1      44.199  35.039  33.082  1.00  0.00     0.060 A 
BRANCH  59  60
ATOM     60  S   UNL A   1      44.397  36.604  33.957  1.00  0.00     0.124 S 
ATOM     61  O   UNL A   1      45.459  37.238  33.183  1.00  0.00    -0.237 OA
ATOM     62  O   UNL A   1      43.070  37.199  33.829  1.00  0.00    -0.237 OA
ATOM     63  O   UNL A   1      44.762  36.188  35.308  1.00  0.00    -0.744 OA
ENDBRANCH  59  60
ENDBRANCH  27  52
BRANCH  39  64
ATOM     64  C   UNL A   1      47.961  27.042  30.692  1.00  0.00     0.058 A 
ATOM     65  C   UNL A   1      48.259  26.427  31.918  1.00  0.00     0.135 A 
ATOM     66  C   UNL A   1      49.021  27.303  29.811  1.00  0.00     0.135 A 
ATOM     67  F   UNL A   1      47.280  26.170  32.801  1.00  0.00    -0.206 F 
ATOM     68  C   UNL A   1      49.562  26.088  32.260  1.00  0.00     0.059 A 
ATOM     69  C   UNL A   1      50.329  26.948  30.122  1.00  0.00     0.059 A 
ATOM     70  F   UNL A   1      48.787  27.886  28.624  1.00  0.00    -0.206 F 
ATOM     71  C   UNL A   1      50.591  26.346  31.352  1.00  0.00     0.060 A 
BRANCH  71  72
ATOM     72  S   UNL A   1      52.270  25.846  31.784  1.00  0.00     0.124 S 
ATOM     73  O   UNL A   1      52.986  26.116  30.541  1.00  0.00    -0.237 OA
ATOM     74  O   UNL A   1      52.582  26.734  32.900  1.00  0.00    -0.237 OA
ATOM     75  O   UNL A   1      52.126  24.436  32.133  1.00  0.00    -0.744 OA
ENDBRANCH  71  72
ENDBRANCH  39  64
ENDBRANCH  13  14
ENDBRANCH   6   8
ENDBRANCH   3   4
ENDBRANCH   2   3
ENDBRANCH   1   2
BRANCH   1  76
ATOM     76  C   UNL A   1      31.426  28.939  24.999  1.00  0.00     0.002 C 
BRANCH  76  77
ATOM     77  C   UNL A   1      30.790  28.328  23.743  1.00  0.00     0.021 C 
BRANCH  77  78
ATOM     78  C   UNL A   1      30.041  27.018  23.984  1.00  0.00     0.116 C 
BRANCH  78  79
ATOM     79  N   UNL A   1      30.367  26.451  25.279  1.00  0.00    -0.356 N 
ATOM     80  C   UNL A   1      31.237  25.458  25.618  1.00  0.00     0.224 C 
ATOM     81  H   UNL A   1      29.881  26.849  26.037  1.00  0.00     0.163 HD
ATOM     82  O   UNL A   1      31.413  25.254  26.819  1.00  0.00    -0.275 OA
BRANCH  80  83
ATOM     83  C   UNL A   1      31.973  24.699  24.517  1.00  0.00     0.092 C 
ATOM     84  C   UNL A   1      31.340  23.337  24.188  1.00  0.00     0.014 C 
ATOM     85  C   UNL A   1      33.500  24.572  24.767  1.00  0.00     0.064 C 
ATOM     86  C   UNL A   1      31.996  22.722  22.951  1.00  0.00     0.001 C 
ATOM     87  C   UNL A   1      34.135  23.986  23.489  1.00  0.00     0.015 C 
ATOM     88  C   UNL A   1      33.517  22.651  23.063  1.00  0.00     0.001 C 
BRANCH  85  89
ATOM     89  S   UNL A   1      33.912  23.506  26.230  1.00  0.00    -0.122 SA
BRANCH  89  90
ATOM     90  C   UNL A   1      35.609  23.002  25.999  1.00  0.00     0.011 A 
ATOM     91  C   UNL A   1      36.727  23.825  26.093  1.00  0.00     0.035 A 
ATOM     92  C   UNL A   1      35.809  21.655  25.685  1.00  0.00     0.035 A 
ATOM     93  C   UNL A   1      37.978  23.282  25.834  1.00  0.00     0.112 A 
ATOM     94  C   UNL A   1      37.097  21.202  25.454  1.00  0.00     0.112 A 
ATOM     95  N   UNL A   1      38.189  21.990  25.512  1.00  0.00    -0.265 NA
ENDBRANCH  89  90
ENDBRANCH  85  89
ENDBRANCH  80  83
ENDBRANCH  78  79
ENDBRANCH  77  78
ENDBRANCH  76  77
ENDBRANCH   1  76
TORSDOF 18
ENDMDL
MODEL 2
REMARK VINA RESULT:     -10.4      2.928      3.692
REMARK SMILES O=C(NCCCCCCNC(=O)[C@@H]1CCCC[C@@H]1Sc1ccncc1)c1ccc(-c2c3nc(c(-c4c(F)cc(S(=O)(=O)[O-])cc4F)c4ccc([nH]4)c(-c4c(F)cc(S(=O)(=O)[O-])cc4F)c4nc(c(-c5c(F)cc(S(=O)(=O)[O-])cc5F)c5ccc2[nH]5)C=C4)C=C3)cc1
REMARK SMILES IDX 6 1 5 2 4 3 3 4 1 5 2 6 26 8 27 9 91 10 28 11 90 12 29 13
REMARK SMILES IDX 30 14 31 15 84 16 32 17 89 18 83 19 85 20 33 21 88 22 82 23
REMARK SMILES IDX 81 24 34 26 68 27 47 28 67 29 48 30 51 31 66 32 86 33 49 34
REMARK SMILES IDX 50 35 65 37 87 38 52 39 35 40 36 41 45 42 37 43 38 44 44 45
REMARK SMILES IDX 46 46 39 47 40 48 41 49 42 50 43 51 69 52 70 53 79 54 71 55
REMARK SMILES IDX 72 56 78 57 80 58 73 59 74 60 75 61 76 62 77 63 53 64 54 65
REMARK SMILES IDX 63 66 55 67 56 68 62 69 64 70 57 71 58 72 59 73 60 74 61 75
REMARK SMILES IDX 7 76 8 77 9 78 10 79 11 80 12 82 13 83 14 84 18 85 15 86
REMARK SMILES IDX 17 87 16 88 19 89 20 90 21 91 25 92 22 93 24 94 23 95
REMARK H PARENT 3 7 85 25 51 36 10 81
REMARK Flexibility Score: inf
ROOT
ATOM      1  C   UNL A   1      34.277  29.292  27.426  1.00  0.00     0.002 C 
ENDROOT
BRANCH   1   2
ATOM      2  C   UNL A   1      34.540  30.788  27.594  1.00  0.00     0.021 C 
BRANCH   2   3
ATOM      3  C   UNL A   1      35.785  31.123  28.404  1.00  0.00     0.116 C 
BRANCH   3   4
ATOM      4  N   UNL A   1      35.670  30.688  29.786  1.00  0.00    -0.352 N 
ATOM      5  O   UNL A   1      36.228  29.494  31.616  1.00  0.00    -0.269 OA
ATOM      6  C   UNL A   1      36.560  29.949  30.525  1.00  0.00     0.251 C 
ATOM      7  H   UNL A   1      34.847  30.958  30.252  1.00  0.00     0.163 HD
BRANCH   6   8
ATOM      8  C   UNL A   1      37.914  29.696  29.989  1.00  0.00     0.039 A 
ATOM      9  C   UNL A   1      38.993  29.506  30.858  1.00  0.00     0.014 A 
ATOM     10  C   UNL A   1      38.101  29.629  28.606  1.00  0.00     0.014 A 
ATOM     11  C   UNL A   1      40.275  29.344  30.345  1.00  0.00     0.010 A 
ATOM     12  C   UNL A   1      39.378  29.389  28.093  1.00  0.00     0.010 A 
ATOM     13  C   UNL A   1      40.475  29.249  28.958  1.00  0.00    -0.014 A 
BRANCH  13  14
ATOM     14  C   UNL A   1      41.809  28.861  28.440  1.00  0.00     0.031 A 
ATOM     15  C   UNL A   1      42.099  27.457  27.995  1.00  0.00     0.074 A 
ATOM     16  C   UNL A   1      42.771  29.805  28.407  1.00  0.00     0.049 A 
ATOM     17  N   UNL A   1      43.228  26.953  27.568  1.00  0.00    -0.248 NA
ATOM     18  C   UNL A   1      40.990  26.492  28.041  1.00  0.00     0.031 C 
ATOM     19  C   UNL A   1      42.598  31.197  28.842  1.00  0.00     0.029 A 
ATOM     20  N   UNL A   1      44.079  29.749  28.003  1.00  0.00    -0.354 N 
ATOM     21  C   UNL A   1      42.976  25.610  27.317  1.00  0.00     0.074 A 
ATOM     22  C   UNL A   1      41.587  25.373  27.645  1.00  0.00     0.031 C 
ATOM     23  C   UNL A   1      43.750  31.860  28.671  1.00  0.00     0.029 A 
ATOM     24  C   UNL A   1      44.759  30.932  28.179  1.00  0.00     0.049 A 
ATOM     25  H   UNL A   1      44.492  28.940  27.624  1.00  0.00     0.167 HD
ATOM     26  C   UNL A   1      43.834  24.668  26.855  1.00  0.00     0.037 A 
ATOM     27  C   UNL A   1      46.061  31.228  28.010  1.00  0.00     0.037 A 
ATOM     28  C   UNL A   1      45.209  24.931  26.511  1.00  0.00     0.049 A 
ATOM     29  C   UNL A   1      46.990  30.153  27.527  1.00  0.00     0.074 A 
ATOM     30  C   UNL A   1      46.131  24.065  25.947  1.00  0.00     0.029 A 
ATOM     31  N   UNL A   1      45.865  26.135  26.715  1.00  0.00    -0.354 N 
ATOM     32  N   UNL A   1      46.713  28.911  27.209  1.00  0.00    -0.248 NA
ATOM     33  C   UNL A   1      48.407  30.512  27.386  1.00  0.00     0.031 C 
ATOM     34  C   UNL A   1      47.360  24.728  25.867  1.00  0.00     0.029 A 
ATOM     35  C   UNL A   1      47.193  26.022  26.333  1.00  0.00     0.049 A 
ATOM     36  H   UNL A   1      45.449  26.951  27.077  1.00  0.00     0.167 HD
ATOM     37  C   UNL A   1      47.921  28.340  26.829  1.00  0.00     0.074 A 
ATOM     38  C   UNL A   1      48.924  29.380  26.927  1.00  0.00     0.031 C 
ATOM     39  C   UNL A   1      48.178  27.068  26.441  1.00  0.00     0.037 A 
BRANCH  26  40
ATOM     40  C   UNL A   1      43.339  23.257  26.703  1.00  0.00     0.058 A 
ATOM     41  C   UNL A   1      43.094  22.687  25.445  1.00  0.00     0.135 A 
ATOM     42  C   UNL A   1      43.218  22.427  27.832  1.00  0.00     0.135 A 
ATOM     43  F   UNL A   1      43.183  23.437  24.335  1.00  0.00    -0.206 F 
ATOM     44  C   UNL A   1      42.746  21.347  25.309  1.00  0.00     0.059 A 
ATOM     45  C   UNL A   1      42.892  21.079  27.719  1.00  0.00     0.059 A 
ATOM     46  F   UNL A   1      43.439  22.923  29.059  1.00  0.00    -0.206 F 
ATOM     47  C   UNL A   1      42.656  20.547  26.452  1.00  0.00     0.060 A 
BRANCH  47  48
ATOM     48  S   UNL A   1      42.252  18.799  26.250  1.00  0.00     0.124 S 
ATOM     49  O   UNL A   1      40.859  18.869  25.821  1.00  0.00    -0.237 OA
ATOM     50  O   UNL A   1      43.208  18.374  25.233  1.00  0.00    -0.237 OA
ATOM     51  O   UNL A   1      42.471  18.243  27.582  1.00  0.00    -0.744 OA
ENDBRANCH  47  48
ENDBRANCH  26  40
BRANCH  27  52
ATOM     52  C   UNL A   1      46.565  32.583  28.354  1.00  0.00     0.058 A 
ATOM     53  C   UNL A   1      46.588  33.614  27.406  1.00  0.00     0.135 A 
ATOM     54  C   UNL A   1      47.034  32.872  29.647  1.00  0.00     0.135 A 
ATOM     55  F   UNL A   1      46.152  33.388  26.158  1.00  0.00    -0.206 F 
ATOM     56  C   UNL A   1      47.083  34.876  27.717  1.00  0.00     0.059 A 
ATOM     57  C   UNL A   1      47.504  34.133  29.990  1.00  0.00     0.059 A 
ATOM     58  F   UNL A   1      47.014  31.924  30.598  1.00  0.00    -0.206 F 
ATOM     59  C   UNL A   1      47.542  35.125  29.012  1.00  0.00     0.060 A 
BRANCH  59  60
ATOM     60  S   UNL A   1      48.168  36.769  29.412  1.00  0.00     0.124 S 
ATOM     61  O   UNL A   1      49.460  36.761  28.735  1.00  0.00    -0.237 OA
ATOM     62  O   UNL A   1      47.148  37.637  28.831  1.00  0.00    -0.237 OA
ATOM     63  O   UNL A   1      48.219  36.763  30.870  1.00  0.00    -0.744 OA
ENDBRANCH  59  60
ENDBRANCH  27  52
BRANCH  39  64
ATOM     64  C   UNL A   1      49.598  26.728  26.091  1.00  0.00     0.058 A 
ATOM     65  C   UNL A   1      50.455  26.123  27.024  1.00  0.00     0.135 A 
ATOM     66  C   UNL A   1      50.088  26.951  24.795  1.00  0.00     0.135 A 
ATOM     67  F   UNL A   1      50.037  25.903  28.281  1.00  0.00    -0.206 F 
ATOM     68  C   UNL A   1      51.752  25.758  26.686  1.00  0.00     0.059 A 
ATOM     69  C   UNL A   1      51.374  26.569  24.427  1.00  0.00     0.059 A 
ATOM     70  F   UNL A   1      49.306  27.523  23.865  1.00  0.00    -0.206 F 
ATOM     71  C   UNL A   1      52.200  25.979  25.382  1.00  0.00     0.060 A 
BRANCH  71  72
ATOM     72  S   UNL A   1      53.867  25.445  24.940  1.00  0.00     0.124 S 
ATOM     73  O   UNL A   1      53.687  24.003  24.803  1.00  0.00    -0.237 OA
ATOM     74  O   UNL A   1      54.110  26.175  23.700  1.00  0.00    -0.237 OA
ATOM     75  O   UNL A   1      54.674  25.871  26.080  1.00  0.00    -0.744 OA
ENDBRANCH  71  72
ENDBRANCH  39  64
ENDBRANCH  13  14
ENDBRANCH   6   8
ENDBRANCH   3   4
ENDBRANCH   2   3
ENDBRANCH   1   2
BRANCH   1  76
ATOM     76  C   UNL A   1      33.209  28.933  26.388  1.00  0.00     0.002 C 
BRANCH  76  77
ATOM     77  C   UNL A   1      31.981  28.195  26.938  1.00  0.00     0.021 C 
BRANCH  77  78
ATOM     78  C   UNL A   1      31.358  27.189  25.971  1.00  0.00     0.116 C 
BRANCH  78  79
ATOM     79  N   UNL A   1      30.898  26.002  26.664  1.00  0.00    -0.356 N 
ATOM     80  C   UNL A   1      31.080  24.681  26.378  1.00  0.00     0.224 C 
ATOM     81  H   UNL A   1      30.367  26.177  27.474  1.00  0.00     0.163 HD
ATOM     82  O   UNL A   1      30.681  23.868  27.211  1.00  0.00    -0.275 OA
BRANCH  80  83
ATOM     83  C   UNL A   1      31.803  24.286  25.093  1.00  0.00     0.092 C 
ATOM     84  C   UNL A   1      31.230  23.018  24.438  1.00  0.00     0.014 C 
ATOM     85  C   UNL A   1      33.345  24.198  25.252  1.00  0.00     0.064 C 
ATOM     86  C   UNL A   1      31.858  22.792  23.062  1.00  0.00     0.001 C 
ATOM     87  C   UNL A   1      33.948  24.008  23.844  1.00  0.00     0.015 C 
ATOM     88  C   UNL A   1      33.384  22.794  23.102  1.00  0.00     0.001 C 
BRANCH  85  89
ATOM     89  S   UNL A   1      33.885  22.817  26.368  1.00  0.00    -0.122 SA
BRANCH  89  90
ATOM     90  C   UNL A   1      35.605  22.530  25.986  1.00  0.00     0.011 A 
ATOM     91  C   UNL A   1      36.645  23.438  26.164  1.00  0.00     0.035 A 
ATOM     92  C   UNL A   1      35.911  21.276  25.450  1.00  0.00     0.035 A 
ATOM     93  C   UNL A   1      37.924  23.072  25.767  1.00  0.00     0.112 A 
ATOM     94  C   UNL A   1      37.220  20.998  25.094  1.00  0.00     0.112 A 
ATOM     95  N   UNL A   1      38.235  21.874  25.232  1.00  0.00    -0.265 NA
ENDBRANCH  89  90
ENDBRANCH  85  89
ENDBRANCH  80  83
ENDBRANCH  78  79
ENDBRANCH  77  78
ENDBRANCH  76  77
ENDBRANCH   1  76
TORSDOF 18
ENDMDL
MODEL 3
REMARK VINA RESULT:     -10.4      3.110      8.858
REMARK SMILES O=C(NCCCCCCNC(=O)[C@@H]1CCCC[C@@H]1Sc1ccncc1)c1ccc(-c2c3nc(c(-c4c(F)cc(S(=O)(=O)[O-])cc4F)c4ccc([nH]4)c(-c4c(F)cc(S(=O)(=O)[O-])cc4F)c4nc(c(-c5c(F)cc(S(=O)(=O)[O-])cc5F)c5ccc2[nH]5)C=C4)C=C3)cc1
REMARK SMILES IDX 6 1 5 2 4 3 3 4 1 5 2 6 26 8 27 9 91 10 28 11 90 12 29 13
REMARK SMILES IDX 30 14 31 15 84 16 32 17 89 18 83 19 85 20 33 21 88 22 82 23
REMARK SMILES IDX 81 24 34 26 68 27 47 28 67 29 48 30 51 31 66 32 86 33 49 34
REMARK SMILES IDX 50 35 65 37 87 38 52 39 35 40 36 41 45 42 37 43 38 44 44 45
REMARK SMILES IDX 46 46 39 47 40 48 41 49 42 50 43 51 69 52 70 53 79 54 71 55
REMARK SMILES IDX 72 56 78 57 80 58 73 59 74 60 75 61 76 62 77 63 53 64 54 65
REMARK SMILES IDX 63 66 55 67 56 68 62 69 64 70 57 71 58 72 59 73 60 74 61 75
REMARK SMILES IDX 7 76 8 77 9 78 10 79 11 80 12 82 13 83 14 84 18 85 15 86
REMARK SMILES IDX 17 87 16 88 19 89 20 90 21 91 25 92 22 93 24 94 23 95
REMARK H PARENT 3 7 85 25 51 36 10 81
REMARK Flexibility Score: inf
ROOT
ATOM      1  C   UNL A   1      33.918  30.149  27.635  1.00  0.00     0.002 C 
ENDROOT
BRANCH   1   2
ATOM      2  C   UNL A   1      34.625  31.503  27.648  1.00  0.00     0.021 C 
BRANCH   2   3
ATOM      3  C   UNL A   1      35.899  31.542  28.480  1.00  0.00     0.116 C 
BRANCH   3   4
ATOM      4  N   UNL A   1      35.679  31.068  29.836  1.00  0.00    -0.352 N 
ATOM      5  O   UNL A   1      36.091  29.816  31.666  1.00  0.00    -0.269 OA
ATOM      6  C   UNL A   1      36.506  30.299  30.616  1.00  0.00     0.251 C 
ATOM      7  H   UNL A   1      34.825  31.331  30.248  1.00  0.00     0.163 HD
BRANCH   6   8
ATOM      8  C   UNL A   1      37.895  30.050  30.174  1.00  0.00     0.039 A 
ATOM      9  C   UNL A   1      38.931  29.973  31.111  1.00  0.00     0.014 A 
ATOM     10  C   UNL A   1      38.159  29.873  28.814  1.00  0.00     0.014 A 
ATOM     11  C   UNL A   1      40.243  29.815  30.681  1.00  0.00     0.010 A 
ATOM     12  C   UNL A   1      39.468  29.636  28.390  1.00  0.00     0.010 A 
ATOM     13  C   UNL A   1      40.521  29.609  29.320  1.00  0.00    -0.014 A 
BRANCH  13  14
ATOM     14  C   UNL A   1      41.893  29.227  28.907  1.00  0.00     0.031 A 
ATOM     15  C   UNL A   1      42.992  30.243  28.804  1.00  0.00     0.074 A 
ATOM     16  C   UNL A   1      42.119  27.935  28.595  1.00  0.00     0.049 A 
ATOM     17  N   UNL A   1      44.228  30.073  28.410  1.00  0.00    -0.248 NA
ATOM     18  C   UNL A   1      42.670  31.627  29.185  1.00  0.00     0.031 C 
ATOM     19  C   UNL A   1      41.109  26.870  28.637  1.00  0.00     0.029 A 
ATOM     20  N   UNL A   1      43.254  27.292  28.175  1.00  0.00    -0.354 N 
ATOM     21  C   UNL A   1      44.824  31.326  28.467  1.00  0.00     0.074 A 
ATOM     22  C   UNL A   1      43.814  32.252  28.932  1.00  0.00     0.031 C 
ATOM     23  C   UNL A   1      41.673  25.711  28.270  1.00  0.00     0.029 A 
ATOM     24  C   UNL A   1      43.061  25.958  27.904  1.00  0.00     0.049 A 
ATOM     25  H   UNL A   1      44.124  27.743  28.077  1.00  0.00     0.167 HD
ATOM     26  C   UNL A   1      46.100  31.662  28.159  1.00  0.00     0.037 A 
ATOM     27  C   UNL A   1      43.892  25.041  27.374  1.00  0.00     0.037 A 
ATOM     28  C   UNL A   1      47.098  30.719  27.721  1.00  0.00     0.049 A 
ATOM     29  C   UNL A   1      45.290  25.455  27.014  1.00  0.00     0.074 A 
ATOM     30  C   UNL A   1      48.441  30.946  27.475  1.00  0.00     0.029 A 
ATOM     31  N   UNL A   1      46.862  29.380  27.445  1.00  0.00    -0.354 N 
ATOM     32  N   UNL A   1      45.862  26.626  27.161  1.00  0.00    -0.248 NA
ATOM     33  C   UNL A   1      46.152  24.431  26.410  1.00  0.00     0.031 C 
ATOM     34  C   UNL A   1      49.003  29.760  26.991  1.00  0.00     0.029 A 
ATOM     35  C   UNL A   1      48.024  28.781  26.985  1.00  0.00     0.049 A 
ATOM     36  H   UNL A   1      45.998  28.923  27.560  1.00  0.00     0.167 HD
ATOM     37  C   UNL A   1      47.153  26.479  26.670  1.00  0.00     0.074 A 
ATOM     38  C   UNL A   1      47.287  25.100  26.250  1.00  0.00     0.031 C 
ATOM     39  C   UNL A   1      48.136  27.405  26.568  1.00  0.00     0.037 A 
BRANCH  26  40
ATOM     40  C   UNL A   1      46.507  33.106  28.259  1.00  0.00     0.058 A 
ATOM     41  C   UNL A   1      47.091  33.633  29.420  1.00  0.00     0.135 A 
ATOM     42  C   UNL A   1      46.415  33.944  27.134  1.00  0.00     0.135 A 
ATOM     43  F   UNL A   1      47.194  32.881  30.527  1.00  0.00    -0.206 F 
ATOM     44  C   UNL A   1      47.570  34.940  29.465  1.00  0.00     0.059 A 
ATOM     45  C   UNL A   1      46.905  35.246  27.149  1.00  0.00     0.059 A 
ATOM     46  F   UNL A   1      45.863  33.489  25.998  1.00  0.00    -0.206 F 
ATOM     47  C   UNL A   1      47.480  35.737  28.320  1.00  0.00     0.060 A 
BRANCH  47  48
ATOM     48  S   UNL A   1      48.150  37.412  28.382  1.00  0.00     0.124 S 
ATOM     49  O   UNL A   1      46.931  38.212  28.453  1.00  0.00    -0.237 OA
ATOM     50  O   UNL A   1      48.957  37.379  29.597  1.00  0.00    -0.237 OA
ATOM     51  O   UNL A   1      48.902  37.525  27.137  1.00  0.00    -0.744 OA
ENDBRANCH  47  48
ENDBRANCH  26  40
BRANCH  27  52
ATOM     52  C   UNL A   1      43.404  23.664  27.103  1.00  0.00     0.058 A 
ATOM     53  C   UNL A   1      43.285  22.718  28.129  1.00  0.00     0.135 A 
ATOM     54  C   UNL A   1      43.044  23.269  25.803  1.00  0.00     0.135 A 
ATOM     55  F   UNL A   1      43.617  23.047  29.386  1.00  0.00    -0.206 F 
ATOM     56  C   UNL A   1      42.853  21.421  27.874  1.00  0.00     0.059 A 
ATOM     57  C   UNL A   1      42.580  21.989  25.529  1.00  0.00     0.059 A 
ATOM     58  F   UNL A   1      43.120  24.144  24.787  1.00  0.00    -0.206 F 
ATOM     59  C   UNL A   1      42.506  21.065  26.570  1.00  0.00     0.060 A 
BRANCH  59  60
ATOM     60  S   UNL A   1      41.931  19.384  26.251  1.00  0.00     0.124 S 
ATOM     61  O   UNL A   1      42.633  19.067  25.012  1.00  0.00    -0.237 OA
ATOM     62  O   UNL A   1      42.384  18.672  27.442  1.00  0.00    -0.237 OA
ATOM     63  O   UNL A   1      40.485  19.541  26.136  1.00  0.00    -0.744 OA
ENDBRANCH  59  60
ENDBRANCH  27  52
BRANCH  39  64
ATOM     64  C   UNL A   1      49.445  26.959  25.983  1.00  0.00     0.058 A 
ATOM     65  C   UNL A   1      49.737  27.144  24.622  1.00  0.00     0.135 A 
ATOM     66  C   UNL A   1      50.440  26.399  26.799  1.00  0.00     0.135 A 
ATOM     67  F   UNL A   1      48.812  27.662  23.797  1.00  0.00    -0.206 F 
ATOM     68  C   UNL A   1      50.967  26.781  24.089  1.00  0.00     0.059 A 
ATOM     69  C   UNL A   1      51.688  26.053  26.292  1.00  0.00     0.059 A 
ATOM     70  F   UNL A   1      50.211  26.205  28.108  1.00  0.00    -0.206 F 
ATOM     71  C   UNL A   1      51.940  26.243  24.934  1.00  0.00     0.060 A 
BRANCH  71  72
ATOM     72  S   UNL A   1      53.555  25.832  24.240  1.00  0.00     0.124 S 
ATOM     73  O   UNL A   1      54.396  26.876  24.816  1.00  0.00    -0.237 OA
ATOM     74  O   UNL A   1      53.779  24.483  24.750  1.00  0.00    -0.237 OA
ATOM     75  O   UNL A   1      53.339  25.923  22.799  1.00  0.00    -0.744 OA
ENDBRANCH  71  72
ENDBRANCH  39  64
ENDBRANCH  13  14
ENDBRANCH   6   8
ENDBRANCH   3   4
ENDBRANCH   2   3
ENDBRANCH   1   2
BRANCH   1  76
ATOM     76  C   UNL A   1      32.645  30.087  26.784  1.00  0.00     0.002 C 
BRANCH  76  77
ATOM     77  C   UNL A   1      31.707  28.911  27.087  1.00  0.00     0.021 C 
BRANCH  77  78
ATOM     78  C   UNL A   1      31.922  27.683  26.205  1.00  0.00     0.116 C 
BRANCH  78  79
ATOM     79  N   UNL A   1      31.439  26.477  26.849  1.00  0.00    -0.356 N 
ATOM     80  C   UNL A   1      31.482  25.176  26.441  1.00  0.00     0.224 C 
ATOM     81  H   UNL A   1      31.011  26.620  27.724  1.00  0.00     0.163 HD
ATOM     82  O   UNL A   1      31.105  24.325  27.246  1.00  0.00    -0.275 OA
BRANCH  80  83
ATOM     83  C   UNL A   1      32.033  24.843  25.057  1.00  0.00     0.092 C 
ATOM     84  C   UNL A   1      31.206  23.783  24.312  1.00  0.00     0.014 C 
ATOM     85  C   UNL A   1      33.544  24.486  25.062  1.00  0.00     0.064 C 
ATOM     86  C   UNL A   1      31.686  23.642  22.867  1.00  0.00     0.001 C 
ATOM     87  C   UNL A   1      34.004  24.389  23.593  1.00  0.00     0.015 C 
ATOM     88  C   UNL A   1      33.188  23.391  22.767  1.00  0.00     0.001 C 
BRANCH  85  89
ATOM     89  S   UNL A   1      33.915  22.900  25.952  1.00  0.00    -0.122 SA
BRANCH  89  90
ATOM     90  C   UNL A   1      35.682  22.675  25.826  1.00  0.00     0.011 A 
ATOM     91  C   UNL A   1      36.651  23.632  26.115  1.00  0.00     0.035 A 
ATOM     92  C   UNL A   1      36.108  21.420  25.382  1.00  0.00     0.035 A 
ATOM     93  C   UNL A   1      37.985  23.309  25.914  1.00  0.00     0.112 A 
ATOM     94  C   UNL A   1      37.464  21.188  25.223  1.00  0.00     0.112 A 
ATOM     95  N   UNL A   1      38.415  22.110  25.471  1.00  0.00    -0.265 NA
ENDBRANCH  89  90
ENDBRANCH  85  89
ENDBRANCH  80  83
ENDBRANCH  78  79
ENDBRANCH  77  78
ENDBRANCH  76  77
ENDBRANCH   1  76
TORSDOF 18
ENDMDL
