MODEL 1
REMARK VINA RESULT:     -11.6      0.000      0.000
REMARK SMILES O=C(C[C@@H]1C[N@@H+]([C@H]2CCCc3sccc32)CCO1)NCCCCCCNC(=O)c1ccc(-c2c3nc(c(-c4c(F)cc(S(=O)(=O)[O-])cc4F)c4ccc([nH]4)c(-c4c(F)cc(S(=O)(=O)[O-])cc4F)c4nc(c(-c5c(F)cc(S(=O)(=O)[O-])cc5F)c5ccc2[nH]5)C=C4)C=C3)cc1
REMARK SMILES IDX 23 1 22 2 21 3 20 4 19 5 1 6 2 7 3 9 4 10 5 11 18 12 6 13
REMARK SMILES IDX 17 14 16 15 7 17 8 18 15 19 9 20 11 21 14 22 10 23 12 24
REMARK SMILES IDX 13 25 24 26 25 27 26 28 27 29 28 31 29 32 30 33 94 34 31 35
REMARK SMILES IDX 93 36 32 37 33 38 34 39 87 40 35 41 92 42 86 43 88 44 36 45
REMARK SMILES IDX 91 46 85 47 84 48 37 50 71 51 50 52 70 53 51 54 54 55 69 56
REMARK SMILES IDX 89 57 52 58 53 59 68 61 90 62 55 63 38 64 39 65 48 66 40 67
REMARK SMILES IDX 41 68 47 69 49 70 42 71 43 72 44 73 45 74 46 75 72 76 73 77
REMARK SMILES IDX 82 78 74 79 75 80 81 81 83 82 76 83 77 84 78 85 79 86 80 87
REMARK SMILES IDX 56 88 57 89 66 90 58 91 59 92 65 93 67 94 60 95 61 96 62 97
REMARK SMILES IDX 63 98 64 99
REMARK H PARENT 19 8 6 16 26 30 88 49 54 60
REMARK Flexibility Score: inf
ROOT
ATOM      1  C   UNL A   1      36.935  23.517  24.925  1.00  0.00     0.002 C 
ENDROOT
BRANCH   1   2
ATOM      2  C   UNL A   1      36.581  22.324  24.033  1.00  0.00     0.002 C 
BRANCH   2   3
ATOM      3  C   UNL A   1      37.318  21.017  24.365  1.00  0.00     0.021 C 
BRANCH   3   4
ATOM      4  C   UNL A   1      36.434  19.926  24.965  1.00  0.00     0.116 C 
BRANCH   4   5
ATOM      5  N   UNL A   1      35.087  20.415  25.152  1.00  0.00    -0.356 N 
ATOM      6  O   UNL A   1      33.981  18.598  24.295  1.00  0.00    -0.275 OA
ATOM      7  C   UNL A   1      33.963  19.685  24.862  1.00  0.00     0.222 C 
ATOM      8  H   UNL A   1      34.969  21.325  25.508  1.00  0.00     0.163 HD
BRANCH   7   9
ATOM      9  C   UNL A   1      32.673  20.378  25.252  1.00  0.00     0.138 C 
BRANCH   9  10
ATOM     10  C   UNL A   1      32.566  21.824  24.759  1.00  0.00     0.182 C 
ATOM     11  C   UNL A   1      31.212  22.510  25.069  1.00  0.00     0.295 C 
ATOM     12  O   UNL A   1      32.840  21.855  23.355  1.00  0.00    -0.366 OA
ATOM     13  N   UNL A   1      31.067  23.869  24.529  1.00  0.00    -0.325 N 
ATOM     14  C   UNL A   1      32.858  23.193  22.864  1.00  0.00     0.222 C 
ATOM     15  C   UNL A   1      31.536  23.930  23.139  1.00  0.00     0.291 C 
ATOM     16  H   UNL A   1      30.072  24.079  24.450  1.00  0.00     0.348 HD
BRANCH  13  17
ATOM     17  C   UNL A   1      31.359  24.972  25.447  1.00  0.00     0.216 C 
ATOM     18  C   UNL A   1      32.693  24.960  26.230  1.00  0.00     0.071 C 
ATOM     19  C   UNL A   1      31.212  26.285  24.702  1.00  0.00     0.023 A 
ATOM     20  C   UNL A   1      33.905  25.481  25.445  1.00  0.00     0.012 C 
ATOM     21  C   UNL A   1      32.289  27.112  24.433  1.00  0.00     0.014 A 
ATOM     22  C   UNL A   1      29.992  26.863  24.222  1.00  0.00     0.022 A 
ATOM     23  C   UNL A   1      33.705  26.878  24.848  1.00  0.00     0.047 C 
ATOM     24  S   UNL A   1      31.845  28.521  23.585  1.00  0.00    -0.148 S 
ATOM     25  C   UNL A   1      30.195  28.074  23.597  1.00  0.00     0.065 A 
ENDBRANCH  13  17
ENDBRANCH   9  10
ENDBRANCH   7   9
ENDBRANCH   4   5
ENDBRANCH   3   4
ENDBRANCH   2   3
ENDBRANCH   1   2
BRANCH   1  26
ATOM     26  C   UNL A   1      37.970  23.220  26.009  1.00  0.00     0.021 C 
BRANCH  26  27
ATOM     27  C   UNL A   1      38.848  24.406  26.393  1.00  0.00     0.116 C 
BRANCH  27  28
ATOM     28  N   UNL A   1      40.265  24.124  26.229  1.00  0.00    -0.352 N 
ATOM     29  C   UNL A   1      41.344  24.801  26.748  1.00  0.00     0.251 C 
ATOM     30  H   UNL A   1      40.482  23.342  25.672  1.00  0.00     0.163 HD
ATOM     31  O   UNL A   1      42.477  24.530  26.377  1.00  0.00    -0.269 OA
BRANCH  29  32
ATOM     32  C   UNL A   1      41.116  25.878  27.738  1.00  0.00     0.039 A 
ATOM     33  C   UNL A   1      40.044  25.762  28.625  1.00  0.00     0.014 A 
ATOM     34  C   UNL A   1      41.968  26.983  27.803  1.00  0.00     0.014 A 
ATOM     35  C   UNL A   1      39.863  26.729  29.617  1.00  0.00     0.010 A 
ATOM     36  C   UNL A   1      41.832  27.903  28.839  1.00  0.00     0.010 A 
ATOM     37  C   UNL A   1      40.776  27.788  29.755  1.00  0.00    -0.014 A 
BRANCH  37  38
ATOM     38  C   UNL A   1      40.644  28.779  30.856  1.00  0.00     0.031 A 
ATOM     39  C   UNL A   1      41.497  28.658  32.090  1.00  0.00     0.074 A 
ATOM     40  C   UNL A   1      39.714  29.752  30.768  1.00  0.00     0.049 A 
ATOM     41  N   UNL A   1      41.487  29.392  33.174  1.00  0.00    -0.248 NA
ATOM     42  C   UNL A   1      42.469  27.554  32.125  1.00  0.00     0.031 C 
ATOM     43  C   UNL A   1      38.792  29.940  29.646  1.00  0.00     0.029 A 
ATOM     44  N   UNL A   1      39.384  30.758  31.640  1.00  0.00    -0.354 N 
ATOM     45  C   UNL A   1      42.436  28.832  34.021  1.00  0.00     0.074 A 
ATOM     46  C   UNL A   1      42.966  27.666  33.348  1.00  0.00     0.031 C 
ATOM     47  C   UNL A   1      38.017  31.008  29.887  1.00  0.00     0.029 A 
ATOM     48  C   UNL A   1      38.355  31.557  31.197  1.00  0.00     0.049 A 
ATOM     49  H   UNL A   1      39.840  30.896  32.502  1.00  0.00     0.167 HD
ATOM     50  C   UNL A   1      42.844  29.263  35.238  1.00  0.00     0.037 A 
ATOM     51  C   UNL A   1      37.745  32.607  31.783  1.00  0.00     0.037 A 
ATOM     52  C   UNL A   1      42.327  30.438  35.891  1.00  0.00     0.049 A 
ATOM     53  C   UNL A   1      38.217  33.068  33.134  1.00  0.00     0.074 A 
ATOM     54  C   UNL A   1      42.722  30.995  37.095  1.00  0.00     0.029 A 
ATOM     55  N   UNL A   1      41.301  31.234  35.402  1.00  0.00    -0.354 N 
ATOM     56  N   UNL A   1      39.167  32.569  33.890  1.00  0.00    -0.248 NA
ATOM     57  C   UNL A   1      37.545  34.241  33.711  1.00  0.00     0.031 C 
ATOM     58  C   UNL A   1      41.898  32.092  37.361  1.00  0.00     0.029 A 
ATOM     59  C   UNL A   1      41.031  32.259  36.293  1.00  0.00     0.049 A 
ATOM     60  H   UNL A   1      40.833  31.089  34.547  1.00  0.00     0.167 HD
ATOM     61  C   UNL A   1      39.223  33.382  35.018  1.00  0.00     0.074 A 
ATOM     62  C   UNL A   1      38.221  34.412  34.838  1.00  0.00     0.031 C 
ATOM     63  C   UNL A   1      40.032  33.282  36.102  1.00  0.00     0.037 A 
BRANCH  50  64
ATOM     64  C   UNL A   1      43.901  28.461  35.950  1.00  0.00     0.058 A 
ATOM     65  C   UNL A   1      45.266  28.770  35.839  1.00  0.00     0.135 A 
ATOM     66  C   UNL A   1      43.539  27.400  36.799  1.00  0.00     0.135 A 
ATOM     67  F   UNL A   1      45.671  29.763  35.031  1.00  0.00    -0.206 F 
ATOM     68  C   UNL A   1      46.235  28.044  36.523  1.00  0.00     0.059 A 
ATOM     69  C   UNL A   1      44.489  26.681  37.516  1.00  0.00     0.059 A 
ATOM     70  F   UNL A   1      42.249  27.059  36.942  1.00  0.00    -0.206 F 
ATOM     71  C   UNL A   1      45.837  27.002  37.363  1.00  0.00     0.060 A 
BRANCH  71  72
ATOM     72  S   UNL A   1      47.107  26.083  38.257  1.00  0.00     0.124 S 
ATOM     73  O   UNL A   1      47.981  25.659  37.168  1.00  0.00    -0.237 OA
ATOM     74  O   UNL A   1      47.655  27.099  39.150  1.00  0.00    -0.237 OA
ATOM     75  O   UNL A   1      46.358  25.015  38.912  1.00  0.00    -0.744 OA
ENDBRANCH  71  72
ENDBRANCH  50  64
BRANCH  51  76
ATOM     76  C   UNL A   1      36.630  33.300  31.082  1.00  0.00     0.058 A 
ATOM     77  C   UNL A   1      36.874  34.142  29.987  1.00  0.00     0.135 A 
ATOM     78  C   UNL A   1      35.296  33.115  31.479  1.00  0.00     0.135 A 
ATOM     79  F   UNL A   1      38.131  34.357  29.574  1.00  0.00    -0.206 F 
ATOM     80  C   UNL A   1      35.838  34.786  29.318  1.00  0.00     0.059 A 
ATOM     81  C   UNL A   1      34.240  33.726  30.807  1.00  0.00     0.059 A 
ATOM     82  F   UNL A   1      35.007  32.306  32.511  1.00  0.00    -0.206 F 
ATOM     83  C   UNL A   1      34.523  34.566  29.732  1.00  0.00     0.060 A 
BRANCH  83  84
ATOM     84  S   UNL A   1      33.183  35.360  28.817  1.00  0.00     0.124 S 
ATOM     85  O   UNL A   1      32.581  34.222  28.131  1.00  0.00    -0.237 OA
ATOM     86  O   UNL A   1      32.390  35.950  29.891  1.00  0.00    -0.237 OA
ATOM     87  O   UNL A   1      33.879  36.317  27.963  1.00  0.00    -0.744 OA
ENDBRANCH  83  84
ENDBRANCH  51  76
BRANCH  63  88
ATOM     88  C   UNL A   1      39.899  34.336  37.168  1.00  0.00     0.058 A 
ATOM     89  C   UNL A   1      40.555  35.574  37.075  1.00  0.00     0.135 A 
ATOM     90  C   UNL A   1      39.059  34.123  38.274  1.00  0.00     0.135 A 
ATOM     91  F   UNL A   1      41.374  35.829  36.042  1.00  0.00    -0.206 F 
ATOM     92  C   UNL A   1      40.403  36.553  38.051  1.00  0.00     0.059 A 
ATOM     93  C   UNL A   1      38.867  35.100  39.245  1.00  0.00     0.059 A 
ATOM     94  F   UNL A   1      38.398  32.962  38.408  1.00  0.00    -0.206 F 
ATOM     95  C   UNL A   1      39.553  36.308  39.132  1.00  0.00     0.060 A 
BRANCH  95  96
ATOM     96  S   UNL A   1      39.341  37.598  40.376  1.00  0.00     0.124 S 
ATOM     97  O   UNL A   1      39.082  36.811  41.576  1.00  0.00    -0.237 OA
ATOM     98  O   UNL A   1      40.628  38.285  40.335  1.00  0.00    -0.237 OA
ATOM     99  O   UNL A   1      38.209  38.372  39.875  1.00  0.00    -0.744 OA
ENDBRANCH  95  96
ENDBRANCH  63  88
ENDBRANCH  37  38
ENDBRANCH  29  32
ENDBRANCH  27  28
ENDBRANCH  26  27
ENDBRANCH   1  26
TORSDOF 18
ENDMDL
MODEL 2
REMARK VINA RESULT:     -11.6      1.032      1.956
REMARK SMILES O=C(C[C@@H]1C[N@@H+]([C@H]2CCCc3sccc32)CCO1)NCCCCCCNC(=O)c1ccc(-c2c3nc(c(-c4c(F)cc(S(=O)(=O)[O-])cc4F)c4ccc([nH]4)c(-c4c(F)cc(S(=O)(=O)[O-])cc4F)c4nc(c(-c5c(F)cc(S(=O)(=O)[O-])cc5F)c5ccc2[nH]5)C=C4)C=C3)cc1
REMARK SMILES IDX 23 1 22 2 21 3 20 4 19 5 1 6 2 7 3 9 4 10 5 11 18 12 6 13
REMARK SMILES IDX 17 14 16 15 7 17 8 18 15 19 9 20 11 21 14 22 10 23 12 24
REMARK SMILES IDX 13 25 24 26 25 27 26 28 27 29 28 31 29 32 30 33 94 34 31 35
REMARK SMILES IDX 93 36 32 37 33 38 34 39 87 40 35 41 92 42 86 43 88 44 36 45
REMARK SMILES IDX 91 46 85 47 84 48 37 50 71 51 50 52 70 53 51 54 54 55 69 56
REMARK SMILES IDX 89 57 52 58 53 59 68 61 90 62 55 63 38 64 39 65 48 66 40 67
REMARK SMILES IDX 41 68 47 69 49 70 42 71 43 72 44 73 45 74 46 75 72 76 73 77
REMARK SMILES IDX 82 78 74 79 75 80 81 81 83 82 76 83 77 84 78 85 79 86 80 87
REMARK SMILES IDX 56 88 57 89 66 90 58 91 59 92 65 93 67 94 60 95 61 96 62 97
REMARK SMILES IDX 63 98 64 99
REMARK H PARENT 19 8 6 16 26 30 88 49 54 60
REMARK Flexibility Score: inf
ROOT
ATOM      1  C   UNL A   1      38.037  21.848  25.410  1.00  0.00     0.002 C 
ENDROOT
BRANCH   1   2
ATOM      2  C   UNL A   1      36.963  20.845  24.979  1.00  0.00     0.002 C 
BRANCH   2   3
ATOM      3  C   UNL A   1      35.588  21.034  25.641  1.00  0.00     0.021 C 
BRANCH   3   4
ATOM      4  C   UNL A   1      34.447  20.290  24.952  1.00  0.00     0.116 C 
BRANCH   4   5
ATOM      5  N   UNL A   1      33.641  21.207  24.179  1.00  0.00    -0.356 N 
ATOM      6  O   UNL A   1      31.685  20.954  25.348  1.00  0.00    -0.275 OA
ATOM      7  C   UNL A   1      32.339  21.517  24.477  1.00  0.00     0.222 C 
ATOM      8  H   UNL A   1      34.050  21.633  23.391  1.00  0.00     0.163 HD
BRANCH   7   9
ATOM      9  C   UNL A   1      31.750  22.587  23.580  1.00  0.00     0.138 C 
BRANCH   9  10
ATOM     10  C   UNL A   1      31.661  23.970  24.233  1.00  0.00     0.182 C 
ATOM     11  C   UNL A   1      33.011  24.519  24.759  1.00  0.00     0.295 C 
ATOM     12  O   UNL A   1      30.690  23.923  25.282  1.00  0.00    -0.366 OA
ATOM     13  N   UNL A   1      32.925  25.808  25.460  1.00  0.00    -0.325 N 
ATOM     14  C   UNL A   1      30.490  25.214  25.854  1.00  0.00     0.222 C 
ATOM     15  C   UNL A   1      31.796  25.816  26.399  1.00  0.00     0.291 C 
ATOM     16  H   UNL A   1      33.738  25.898  26.069  1.00  0.00     0.348 HD
BRANCH  13  17
ATOM     17  C   UNL A   1      33.225  27.004  24.669  1.00  0.00     0.216 C 
ATOM     18  C   UNL A   1      32.430  27.257  23.366  1.00  0.00     0.071 C 
ATOM     19  C   UNL A   1      33.139  28.223  25.568  1.00  0.00     0.023 A 
ATOM     20  C   UNL A   1      31.055  27.908  23.567  1.00  0.00     0.012 C 
ATOM     21  C   UNL A   1      32.160  29.189  25.420  1.00  0.00     0.014 A 
ATOM     22  C   UNL A   1      34.039  28.566  26.629  1.00  0.00     0.022 A 
ATOM     23  C   UNL A   1      31.095  29.212  24.371  1.00  0.00     0.047 C 
ATOM     24  S   UNL A   1      32.296  30.449  26.559  1.00  0.00    -0.148 S 
ATOM     25  C   UNL A   1      33.694  29.748  27.248  1.00  0.00     0.065 A 
ENDBRANCH  13  17
ENDBRANCH   9  10
ENDBRANCH   7   9
ENDBRANCH   4   5
ENDBRANCH   3   4
ENDBRANCH   2   3
ENDBRANCH   1   2
BRANCH   1  26
ATOM     26  C   UNL A   1      37.528  23.271  25.636  1.00  0.00     0.021 C 
BRANCH  26  27
ATOM     27  C   UNL A   1      38.437  24.143  26.495  1.00  0.00     0.116 C 
BRANCH  27  28
ATOM     28  N   UNL A   1      39.840  24.003  26.138  1.00  0.00    -0.352 N 
ATOM     29  C   UNL A   1      40.903  24.801  26.492  1.00  0.00     0.251 C 
ATOM     30  H   UNL A   1      40.058  23.234  25.564  1.00  0.00     0.163 HD
ATOM     31  O   UNL A   1      41.996  24.637  25.968  1.00  0.00    -0.269 OA
BRANCH  29  32
ATOM     32  C   UNL A   1      40.702  25.874  27.492  1.00  0.00     0.039 A 
ATOM     33  C   UNL A   1      39.723  25.708  28.472  1.00  0.00     0.014 A 
ATOM     34  C   UNL A   1      41.492  27.027  27.473  1.00  0.00     0.014 A 
ATOM     35  C   UNL A   1      39.575  26.674  29.470  1.00  0.00     0.010 A 
ATOM     36  C   UNL A   1      41.396  27.950  28.511  1.00  0.00     0.010 A 
ATOM     37  C   UNL A   1      40.434  27.785  29.520  1.00  0.00    -0.014 A 
BRANCH  37  38
ATOM     38  C   UNL A   1      40.344  28.779  30.621  1.00  0.00     0.031 A 
ATOM     39  C   UNL A   1      41.222  28.645  31.837  1.00  0.00     0.074 A 
ATOM     40  C   UNL A   1      39.430  29.767  30.553  1.00  0.00     0.049 A 
ATOM     41  N   UNL A   1      41.249  29.380  32.919  1.00  0.00    -0.248 NA
ATOM     42  C   UNL A   1      42.176  27.524  31.851  1.00  0.00     0.031 C 
ATOM     43  C   UNL A   1      38.486  29.971  29.451  1.00  0.00     0.029 A 
ATOM     44  N   UNL A   1      39.136  30.781  31.431  1.00  0.00    -0.354 N 
ATOM     45  C   UNL A   1      42.207  28.804  33.745  1.00  0.00     0.074 A 
ATOM     46  C   UNL A   1      42.702  27.629  33.062  1.00  0.00     0.031 C 
ATOM     47  C   UNL A   1      37.734  31.052  29.708  1.00  0.00     0.029 A 
ATOM     48  C   UNL A   1      38.111  31.596  31.009  1.00  0.00     0.049 A 
ATOM     49  H   UNL A   1      39.613  30.912  32.282  1.00  0.00     0.167 HD
ATOM     50  C   UNL A   1      42.649  29.229  34.953  1.00  0.00     0.037 A 
ATOM     51  C   UNL A   1      37.533  32.657  31.607  1.00  0.00     0.037 A 
ATOM     52  C   UNL A   1      42.168  30.414  35.615  1.00  0.00     0.049 A 
ATOM     53  C   UNL A   1      38.043  33.112  32.947  1.00  0.00     0.074 A 
ATOM     54  C   UNL A   1      42.599  30.965  36.809  1.00  0.00     0.029 A 
ATOM     55  N   UNL A   1      41.145  31.227  35.148  1.00  0.00    -0.354 N 
ATOM     56  N   UNL A   1      39.001  32.597  33.682  1.00  0.00    -0.248 NA
ATOM     57  C   UNL A   1      37.404  34.296  33.536  1.00  0.00     0.031 C 
ATOM     58  C   UNL A   1      41.800  32.077  37.092  1.00  0.00     0.029 A 
ATOM     59  C   UNL A   1      40.913  32.258  36.043  1.00  0.00     0.049 A 
ATOM     60  H   UNL A   1      40.655  31.089  34.304  1.00  0.00     0.167 HD
ATOM     61  C   UNL A   1      39.096  33.410  34.807  1.00  0.00     0.074 A 
ATOM     62  C   UNL A   1      38.108  34.457  34.649  1.00  0.00     0.031 C 
ATOM     63  C   UNL A   1      39.927  33.298  35.873  1.00  0.00     0.037 A 
BRANCH  50  64
ATOM     64  C   UNL A   1      43.707  28.410  35.642  1.00  0.00     0.058 A 
ATOM     65  C   UNL A   1      45.077  28.643  35.435  1.00  0.00     0.135 A 
ATOM     66  C   UNL A   1      43.348  27.412  36.564  1.00  0.00     0.135 A 
ATOM     67  F   UNL A   1      45.479  29.573  34.555  1.00  0.00    -0.206 F 
ATOM     68  C   UNL A   1      46.049  27.902  36.098  1.00  0.00     0.059 A 
ATOM     69  C   UNL A   1      44.304  26.680  37.261  1.00  0.00     0.059 A 
ATOM     70  F   UNL A   1      42.054  27.145  36.800  1.00  0.00    -0.206 F 
ATOM     71  C   UNL A   1      45.654  26.925  37.012  1.00  0.00     0.060 A 
BRANCH  71  72
ATOM     72  S   UNL A   1      46.931  25.986  37.877  1.00  0.00     0.124 S 
ATOM     73  O   UNL A   1      47.385  26.957  38.868  1.00  0.00    -0.237 OA
ATOM     74  O   UNL A   1      46.181  24.850  38.401  1.00  0.00    -0.237 OA
ATOM     75  O   UNL A   1      47.891  25.668  36.825  1.00  0.00    -0.744 OA
ENDBRANCH  71  72
ENDBRANCH  50  64
BRANCH  51  76
ATOM     76  C   UNL A   1      36.414  33.369  30.930  1.00  0.00     0.058 A 
ATOM     77  C   UNL A   1      35.117  33.354  31.463  1.00  0.00     0.135 A 
ATOM     78  C   UNL A   1      36.627  34.097  29.749  1.00  0.00     0.135 A 
ATOM     79  F   UNL A   1      34.861  32.665  32.585  1.00  0.00    -0.206 F 
ATOM     80  C   UNL A   1      34.067  34.025  30.844  1.00  0.00     0.059 A 
ATOM     81  C   UNL A   1      35.598  34.800  29.127  1.00  0.00     0.059 A 
ATOM     82  F   UNL A   1      37.853  34.157  29.206  1.00  0.00    -0.206 F 
ATOM     83  C   UNL A   1      34.319  34.751  29.679  1.00  0.00     0.060 A 
BRANCH  83  84
ATOM     84  S   UNL A   1      32.962  35.667  28.918  1.00  0.00     0.124 S 
ATOM     85  O   UNL A   1      32.425  34.680  27.988  1.00  0.00    -0.237 OA
ATOM     86  O   UNL A   1      32.123  35.981  30.071  1.00  0.00    -0.237 OA
ATOM     87  O   UNL A   1      33.630  36.813  28.308  1.00  0.00    -0.744 OA
ENDBRANCH  83  84
ENDBRANCH  51  76
BRANCH  63  88
ATOM     88  C   UNL A   1      39.836  34.355  36.940  1.00  0.00     0.058 A 
ATOM     89  C   UNL A   1      40.534  35.570  36.844  1.00  0.00     0.135 A 
ATOM     90  C   UNL A   1      38.995  34.170  38.051  1.00  0.00     0.135 A 
ATOM     91  F   UNL A   1      41.356  35.796  35.807  1.00  0.00    -0.206 F 
ATOM     92  C   UNL A   1      40.421  36.552  37.822  1.00  0.00     0.059 A 
ATOM     93  C   UNL A   1      38.842  35.153  39.023  1.00  0.00     0.059 A 
ATOM     94  F   UNL A   1      38.296  33.032  38.188  1.00  0.00    -0.206 F 
ATOM     95  C   UNL A   1      39.569  36.336  38.908  1.00  0.00     0.060 A 
BRANCH  95  96
ATOM     96  S   UNL A   1      39.409  37.632  40.153  1.00  0.00     0.124 S 
ATOM     97  O   UNL A   1      40.708  38.289  40.063  1.00  0.00    -0.237 OA
ATOM     98  O   UNL A   1      38.274  38.403  39.656  1.00  0.00    -0.237 OA
ATOM     99  O   UNL A   1      39.163  36.891  41.387  1.00  0.00    -0.744 OA
ENDBRANCH  95  96
ENDBRANCH  63  88
ENDBRANCH  37  38
ENDBRANCH  29  32
ENDBRANCH  27  28
ENDBRANCH  26  27
ENDBRANCH   1  26
TORSDOF 18
ENDMDL
MODEL 3
REMARK VINA RESULT:     -11.4      6.716     12.199
REMARK SMILES O=C(C[C@@H]1C[N@@H+]([C@H]2CCCc3sccc32)CCO1)NCCCCCCNC(=O)c1ccc(-c2c3nc(c(-c4c(F)cc(S(=O)(=O)[O-])cc4F)c4ccc([nH]4)c(-c4c(F)cc(S(=O)(=O)[O-])cc4F)c4nc(c(-c5c(F)cc(S(=O)(=O)[O-])cc5F)c5ccc2[nH]5)C=C4)C=C3)cc1
REMARK SMILES IDX 23 1 22 2 21 3 20 4 19 5 1 6 2 7 3 9 4 10 5 11 18 12 6 13
REMARK SMILES IDX 17 14 16 15 7 17 8 18 15 19 9 20 11 21 14 22 10 23 12 24
REMARK SMILES IDX 13 25 24 26 25 27 26 28 27 29 28 31 29 32 30 33 94 34 31 35
REMARK SMILES IDX 93 36 32 37 33 38 34 39 87 40 35 41 92 42 86 43 88 44 36 45
REMARK SMILES IDX 91 46 85 47 84 48 37 50 71 51 50 52 70 53 51 54 54 55 69 56
REMARK SMILES IDX 89 57 52 58 53 59 68 61 90 62 55 63 38 64 39 65 48 66 40 67
REMARK SMILES IDX 41 68 47 69 49 70 42 71 43 72 44 73 45 74 46 75 72 76 73 77
REMARK SMILES IDX 82 78 74 79 75 80 81 81 83 82 76 83 77 84 78 85 79 86 80 87
REMARK SMILES IDX 56 88 57 89 66 90 58 91 59 92 65 93 67 94 60 95 61 96 62 97
REMARK SMILES IDX 63 98 64 99
REMARK H PARENT 19 8 6 16 26 30 88 49 54 60
REMARK Flexibility Score: inf
ROOT
ATOM      1  C   UNL A   1      33.269  29.206  27.290  1.00  0.00     0.002 C 
ENDROOT
BRANCH   1   2
ATOM      2  C   UNL A   1      32.784  30.108  26.152  1.00  0.00     0.002 C 
BRANCH   2   3
ATOM      3  C   UNL A   1      31.602  31.027  26.503  1.00  0.00     0.021 C 
BRANCH   3   4
ATOM      4  C   UNL A   1      30.681  31.350  25.329  1.00  0.00     0.116 C 
BRANCH   4   5
ATOM      5  N   UNL A   1      30.684  30.266  24.372  1.00  0.00    -0.356 N 
ATOM      6  O   UNL A   1      28.766  30.842  23.254  1.00  0.00    -0.275 OA
ATOM      7  C   UNL A   1      29.761  30.133  23.367  1.00  0.00     0.222 C 
ATOM      8  H   UNL A   1      31.389  29.584  24.447  1.00  0.00     0.163 HD
BRANCH   7   9
ATOM      9  C   UNL A   1      30.047  28.976  22.431  1.00  0.00     0.138 C 
BRANCH   9  10
ATOM     10  C   UNL A   1      30.596  27.728  23.129  1.00  0.00     0.182 C 
ATOM     11  C   UNL A   1      31.032  26.595  22.167  1.00  0.00     0.295 C 
ATOM     12  O   UNL A   1      29.621  27.254  24.062  1.00  0.00    -0.366 OA
ATOM     13  N   UNL A   1      31.484  25.361  22.826  1.00  0.00    -0.325 N 
ATOM     14  C   UNL A   1      30.125  26.154  24.817  1.00  0.00     0.222 C 
ATOM     15  C   UNL A   1      30.574  24.990  23.917  1.00  0.00     0.291 C 
ATOM     16  H   UNL A   1      31.387  24.590  22.166  1.00  0.00     0.348 HD
BRANCH  13  17
ATOM     17  C   UNL A   1      32.930  25.203  22.996  1.00  0.00     0.216 C 
ATOM     18  C   UNL A   1      33.729  26.333  23.688  1.00  0.00     0.071 C 
ATOM     19  C   UNL A   1      33.202  23.882  23.689  1.00  0.00     0.023 A 
ATOM     20  C   UNL A   1      33.689  26.303  25.222  1.00  0.00     0.012 C 
ATOM     21  C   UNL A   1      33.721  23.806  24.970  1.00  0.00     0.014 A 
ATOM     22  C   UNL A   1      33.014  22.573  23.137  1.00  0.00     0.022 A 
ATOM     23  C   UNL A   1      34.118  24.963  25.830  1.00  0.00     0.047 C 
ATOM     24  S   UNL A   1      33.929  22.203  25.506  1.00  0.00    -0.148 S 
ATOM     25  C   UNL A   1      33.369  21.575  24.018  1.00  0.00     0.065 A 
ENDBRANCH  13  17
ENDBRANCH   9  10
ENDBRANCH   7   9
ENDBRANCH   4   5
ENDBRANCH   3   4
ENDBRANCH   2   3
ENDBRANCH   1   2
BRANCH   1  26
ATOM     26  C   UNL A   1      34.788  29.113  27.429  1.00  0.00     0.021 C 
BRANCH  26  27
ATOM     27  C   UNL A   1      35.479  30.432  27.755  1.00  0.00     0.116 C 
BRANCH  27  28
ATOM     28  N   UNL A   1      35.433  30.747  29.174  1.00  0.00    -0.352 N 
ATOM     29  C   UNL A   1      36.367  30.477  30.147  1.00  0.00     0.251 C 
ATOM     30  H   UNL A   1      34.624  31.216  29.480  1.00  0.00     0.163 HD
ATOM     31  O   UNL A   1      36.099  30.662  31.326  1.00  0.00    -0.269 OA
BRANCH  29  32
ATOM     32  C   UNL A   1      37.687  29.935  29.754  1.00  0.00     0.039 A 
ATOM     33  C   UNL A   1      38.088  30.035  28.421  1.00  0.00     0.014 A 
ATOM     34  C   UNL A   1      38.532  29.350  30.702  1.00  0.00     0.014 A 
ATOM     35  C   UNL A   1      39.362  29.601  28.049  1.00  0.00     0.010 A 
ATOM     36  C   UNL A   1      39.829  28.991  30.345  1.00  0.00     0.010 A 
ATOM     37  C   UNL A   1      40.257  29.109  29.014  1.00  0.00    -0.014 A 
BRANCH  37  38
ATOM     38  C   UNL A   1      41.645  28.720  28.649  1.00  0.00     0.031 A 
ATOM     39  C   UNL A   1      42.736  29.757  28.606  1.00  0.00     0.074 A 
ATOM     40  C   UNL A   1      41.909  27.445  28.300  1.00  0.00     0.049 A 
ATOM     41  N   UNL A   1      43.991  29.620  28.259  1.00  0.00    -0.248 NA
ATOM     42  C   UNL A   1      42.365  31.133  28.973  1.00  0.00     0.031 C 
ATOM     43  C   UNL A   1      40.926  26.361  28.252  1.00  0.00     0.029 A 
ATOM     44  N   UNL A   1      43.081  26.846  27.909  1.00  0.00    -0.354 N 
ATOM     45  C   UNL A   1      44.552  30.888  28.353  1.00  0.00     0.074 A 
ATOM     46  C   UNL A   1      43.490  31.791  28.738  1.00  0.00     0.031 C 
ATOM     47  C   UNL A   1      41.537  25.227  27.876  1.00  0.00     0.029 A 
ATOM     48  C   UNL A   1      42.945  25.509  27.616  1.00  0.00     0.049 A 
ATOM     49  H   UNL A   1      43.937  27.328  27.845  1.00  0.00     0.167 HD
ATOM     50  C   UNL A   1      45.838  31.260  28.157  1.00  0.00     0.037 A 
ATOM     51  C   UNL A   1      43.851  24.611  27.177  1.00  0.00     0.037 A 
ATOM     52  C   UNL A   1      46.894  30.350  27.796  1.00  0.00     0.049 A 
ATOM     53  C   UNL A   1      45.275  25.049  26.969  1.00  0.00     0.074 A 
ATOM     54  C   UNL A   1      48.243  30.618  27.639  1.00  0.00     0.029 A 
ATOM     55  N   UNL A   1      46.723  28.999  27.529  1.00  0.00    -0.354 N 
ATOM     56  N   UNL A   1      45.804  26.238  27.133  1.00  0.00    -0.248 NA
ATOM     57  C   UNL A   1      46.229  24.022  26.528  1.00  0.00     0.031 C 
ATOM     58  C   UNL A   1      48.877  29.444  27.223  1.00  0.00     0.029 A 
ATOM     59  C   UNL A   1      47.937  28.428  27.181  1.00  0.00     0.049 A 
ATOM     60  H   UNL A   1      45.866  28.518  27.578  1.00  0.00     0.167 HD
ATOM     61  C   UNL A   1      47.156  26.098  26.840  1.00  0.00     0.074 A 
ATOM     62  C   UNL A   1      47.366  24.705  26.503  1.00  0.00     0.031 C 
ATOM     63  C   UNL A   1      48.134  27.038  26.850  1.00  0.00     0.037 A 
BRANCH  50  64
ATOM     64  C   UNL A   1      46.182  32.717  28.325  1.00  0.00     0.058 A 
ATOM     65  C   UNL A   1      46.122  33.621  27.253  1.00  0.00     0.135 A 
ATOM     66  C   UNL A   1      46.526  33.226  29.590  1.00  0.00     0.135 A 
ATOM     67  F   UNL A   1      45.814  33.188  26.020  1.00  0.00    -0.206 F 
ATOM     68  C   UNL A   1      46.412  34.970  27.421  1.00  0.00     0.059 A 
ATOM     69  C   UNL A   1      46.790  34.577  29.786  1.00  0.00     0.059 A 
ATOM     70  F   UNL A   1      46.601  32.407  30.650  1.00  0.00    -0.206 F 
ATOM     71  C   UNL A   1      46.742  35.441  28.693  1.00  0.00     0.060 A 
BRANCH  71  72
ATOM     72  S   UNL A   1      47.097  37.199  28.896  1.00  0.00     0.124 S 
ATOM     73  O   UNL A   1      46.735  37.410  30.294  1.00  0.00    -0.237 OA
ATOM     74  O   UNL A   1      48.523  37.265  28.594  1.00  0.00    -0.237 OA
ATOM     75  O   UNL A   1      46.222  37.839  27.919  1.00  0.00    -0.744 OA
ENDBRANCH  71  72
ENDBRANCH  50  64
BRANCH  51  76
ATOM     76  C   UNL A   1      43.434  23.205  26.921  1.00  0.00     0.058 A 
ATOM     77  C   UNL A   1      43.322  22.709  25.614  1.00  0.00     0.135 A 
ATOM     78  C   UNL A   1      43.163  22.324  27.980  1.00  0.00     0.135 A 
ATOM     79  F   UNL A   1      43.562  23.514  24.568  1.00  0.00    -0.206 F 
ATOM     80  C   UNL A   1      42.944  21.394  25.364  1.00  0.00     0.059 A 
ATOM     81  C   UNL A   1      42.812  20.996  27.755  1.00  0.00     0.059 A 
ATOM     82  F   UNL A   1      43.273  22.744  29.250  1.00  0.00    -0.206 F 
ATOM     83  C   UNL A   1      42.697  20.542  26.442  1.00  0.00     0.060 A 
BRANCH  83  84
ATOM     84  S   UNL A   1      42.267  18.821  26.106  1.00  0.00     0.124 S 
ATOM     85  O   UNL A   1      42.507  18.199  27.403  1.00  0.00    -0.237 OA
ATOM     86  O   UNL A   1      40.870  18.931  25.698  1.00  0.00    -0.237 OA
ATOM     87  O   UNL A   1      43.195  18.444  25.044  1.00  0.00    -0.744 OA
ENDBRANCH  83  84
ENDBRANCH  51  76
BRANCH  63  88
ATOM     88  C   UNL A   1      49.533  26.589  26.524  1.00  0.00     0.058 A 
ATOM     89  C   UNL A   1      50.048  26.654  25.219  1.00  0.00     0.135 A 
ATOM     90  C   UNL A   1      50.389  26.139  27.543  1.00  0.00     0.135 A 
ATOM     91  F   UNL A   1      49.272  27.072  24.206  1.00  0.00    -0.206 F 
ATOM     92  C   UNL A   1      51.352  26.264  24.931  1.00  0.00     0.059 A 
ATOM     93  C   UNL A   1      51.707  25.775  27.283  1.00  0.00     0.059 A 
ATOM     94  F   UNL A   1      49.953  26.067  28.810  1.00  0.00    -0.206 F 
ATOM     95  C   UNL A   1      52.175  25.828  25.972  1.00  0.00     0.060 A 
BRANCH  95  96
ATOM     96  S   UNL A   1      53.875  25.355  25.589  1.00  0.00     0.124 S 
ATOM     97  O   UNL A   1      54.401  26.588  25.015  1.00  0.00    -0.237 OA
ATOM     98  O   UNL A   1      54.401  24.993  26.901  1.00  0.00    -0.237 OA
ATOM     99  O   UNL A   1      53.717  24.244  24.655  1.00  0.00    -0.744 OA
ENDBRANCH  95  96
ENDBRANCH  63  88
ENDBRANCH  37  38
ENDBRANCH  29  32
ENDBRANCH  27  28
ENDBRANCH  26  27
ENDBRANCH   1  26
TORSDOF 18
ENDMDL
