MODEL 1
REMARK VINA RESULT:     -11.9      0.000      0.000
REMARK SMILES CC(C)(Cn1ccc2ccc([N+](=O)[O-])cc21)C(=O)NCCCCCCNC(=O)c1ccc(-c2c3nc(c(-c4c(F)cc(S(=O)(=O)[O-])cc4F)c4ccc([nH]4)c(-c4c(F)cc(S(=O)(=O)[O-])cc4F)c4nc(c(-c5c(F)cc(S(=O)(=O)[O-])cc5F)c5ccc2[nH]5)C=C4)C=C3)cc1
REMARK SMILES IDX 22 1 21 2 20 3 19 4 17 5 18 6 2 8 1 9 3 10 4 11 5 12 6 13
REMARK SMILES IDX 16 14 7 15 8 16 15 17 9 18 11 19 10 20 12 21 13 22 14 23
REMARK SMILES IDX 23 24 24 25 25 26 26 27 27 28 28 30 29 31 30 32 94 33 31 34
REMARK SMILES IDX 93 35 32 36 33 37 34 38 87 39 35 40 92 41 86 42 88 43 36 44
REMARK SMILES IDX 91 45 85 46 84 47 37 49 71 50 50 51 70 52 51 53 54 54 69 55
REMARK SMILES IDX 89 56 52 57 53 58 68 60 90 61 55 62 38 63 39 64 48 65 40 66
REMARK SMILES IDX 41 67 47 68 49 69 42 70 43 71 44 72 45 73 46 74 72 75 73 76
REMARK SMILES IDX 82 77 74 78 75 79 81 80 83 81 76 82 77 83 78 84 79 85 80 86
REMARK SMILES IDX 56 87 57 88 66 89 58 90 59 91 65 92 67 93 60 94 61 95 62 96
REMARK SMILES IDX 63 97 64 98
REMARK H PARENT 19 7 26 29 88 48 54 59
REMARK Flexibility Score: inf
ROOT
ATOM      1  C   UNL A   1      40.273  21.609  27.173  1.00  0.00     0.002 C 
ENDROOT
BRANCH   1   2
ATOM      2  C   UNL A   1      39.574  21.596  25.812  1.00  0.00     0.021 C 
BRANCH   2   3
ATOM      3  C   UNL A   1      38.151  22.151  25.831  1.00  0.00     0.116 C 
BRANCH   3   4
ATOM      4  N   UNL A   1      37.714  22.592  24.517  1.00  0.00    -0.356 N 
ATOM      5  C   UNL A   1      36.489  22.701  23.933  1.00  0.00     0.227 C 
ATOM      6  O   UNL A   1      36.472  23.132  22.777  1.00  0.00    -0.274 OA
ATOM      7  H   UNL A   1      38.455  22.867  23.929  1.00  0.00     0.163 HD
BRANCH   5   8
ATOM      8  C   UNL A   1      35.189  22.311  24.659  1.00  0.00     0.061 C 
ATOM      9  C   UNL A   1      35.219  20.795  24.982  1.00  0.00     0.023 C 
ATOM     10  C   UNL A   1      33.996  22.504  23.699  1.00  0.00     0.023 C 
BRANCH   8  11
ATOM     11  C   UNL A   1      35.004  23.102  25.978  1.00  0.00     0.138 C 
BRANCH  11  12
ATOM     12  N   UNL A   1      33.637  23.543  26.258  1.00  0.00    -0.346 N 
ATOM     13  C   UNL A   1      32.637  22.725  26.721  1.00  0.00     0.087 A 
ATOM     14  C   UNL A   1      33.149  24.831  26.114  1.00  0.00     0.055 A 
ATOM     15  C   UNL A   1      31.472  23.448  26.772  1.00  0.00     0.028 A 
ATOM     16  C   UNL A   1      31.777  24.777  26.391  1.00  0.00     0.000 A 
ATOM     17  C   UNL A   1      33.782  26.033  25.750  1.00  0.00     0.112 A 
ATOM     18  C   UNL A   1      30.997  25.943  26.265  1.00  0.00     0.017 A 
ATOM     19  C   UNL A   1      32.982  27.185  25.655  1.00  0.00     0.271 A 
ATOM     20  C   UNL A   1      31.605  27.145  25.896  1.00  0.00     0.086 A 
BRANCH  19  21
ATOM     21  N   UNL A   1      33.610  28.464  25.296  1.00  0.00     0.062 N 
ATOM     22  O   UNL A   1      33.232  29.022  24.255  1.00  0.00    -0.258 OA
ATOM     23  O   UNL A   1      34.487  28.911  26.051  1.00  0.00    -0.258 OA
ENDBRANCH  19  21
ENDBRANCH  11  12
ENDBRANCH   8  11
ENDBRANCH   5   8
ENDBRANCH   3   4
ENDBRANCH   2   3
ENDBRANCH   1   2
BRANCH   1  24
ATOM     24  C   UNL A   1      41.240  20.442  27.408  1.00  0.00     0.002 C 
BRANCH  24  25
ATOM     25  C   UNL A   1      41.538  19.577  26.175  1.00  0.00     0.021 C 
BRANCH  25  26
ATOM     26  C   UNL A   1      42.893  18.868  26.213  1.00  0.00     0.116 C 
BRANCH  26  27
ATOM     27  N   UNL A   1      43.842  19.388  25.254  1.00  0.00    -0.352 N 
ATOM     28  C   UNL A   1      44.371  20.618  24.986  1.00  0.00     0.251 C 
ATOM     29  H   UNL A   1      44.187  18.692  24.651  1.00  0.00     0.163 HD
ATOM     30  O   UNL A   1      45.256  20.640  24.124  1.00  0.00    -0.269 OA
BRANCH  28  31
ATOM     31  C   UNL A   1      43.925  21.902  25.592  1.00  0.00     0.039 A 
ATOM     32  C   UNL A   1      43.051  22.823  25.014  1.00  0.00     0.014 A 
ATOM     33  C   UNL A   1      44.503  22.213  26.839  1.00  0.00     0.014 A 
ATOM     34  C   UNL A   1      42.852  24.066  25.609  1.00  0.00     0.010 A 
ATOM     35  C   UNL A   1      44.292  23.444  27.445  1.00  0.00     0.010 A 
ATOM     36  C   UNL A   1      43.511  24.391  26.800  1.00  0.00    -0.014 A 
BRANCH  36  37
ATOM     37  C   UNL A   1      43.251  25.699  27.396  1.00  0.00     0.031 A 
ATOM     38  C   UNL A   1      44.296  26.709  27.078  1.00  0.00     0.074 A 
ATOM     39  C   UNL A   1      42.127  26.003  28.082  1.00  0.00     0.049 A 
ATOM     40  N   UNL A   1      45.164  27.230  27.881  1.00  0.00    -0.248 NA
ATOM     41  C   UNL A   1      44.512  27.062  25.664  1.00  0.00     0.031 C 
ATOM     42  C   UNL A   1      40.913  25.190  28.213  1.00  0.00     0.029 A 
ATOM     43  N   UNL A   1      41.792  27.149  28.747  1.00  0.00    -0.354 N 
ATOM     44  C   UNL A   1      45.865  28.168  27.123  1.00  0.00     0.074 A 
ATOM     45  C   UNL A   1      45.560  27.885  25.747  1.00  0.00     0.031 C 
ATOM     46  C   UNL A   1      39.906  25.953  28.697  1.00  0.00     0.029 A 
ATOM     47  C   UNL A   1      40.438  27.253  29.067  1.00  0.00     0.049 A 
ATOM     48  H   UNL A   1      42.449  27.843  28.980  1.00  0.00     0.167 HD
ATOM     49  C   UNL A   1      46.406  29.273  27.706  1.00  0.00     0.037 A 
ATOM     50  C   UNL A   1      39.805  28.338  29.583  1.00  0.00     0.037 A 
ATOM     51  C   UNL A   1      46.441  29.136  29.137  1.00  0.00     0.049 A 
ATOM     52  C   UNL A   1      40.836  29.160  30.260  1.00  0.00     0.074 A 
ATOM     53  C   UNL A   1      47.230  28.502  30.070  1.00  0.00     0.029 A 
ATOM     54  N   UNL A   1      45.253  29.440  29.743  1.00  0.00    -0.354 N 
ATOM     55  N   UNL A   1      41.492  28.766  31.316  1.00  0.00    -0.248 NA
ATOM     56  C   UNL A   1      41.393  30.318  29.570  1.00  0.00     0.031 C 
ATOM     57  C   UNL A   1      46.405  28.295  31.216  1.00  0.00     0.029 A 
ATOM     58  C   UNL A   1      45.150  28.848  30.971  1.00  0.00     0.049 A 
ATOM     59  H   UNL A   1      44.558  30.013  29.343  1.00  0.00     0.167 HD
ATOM     60  C   UNL A   1      42.737  29.343  31.177  1.00  0.00     0.074 A 
ATOM     61  C   UNL A   1      42.566  30.410  30.200  1.00  0.00     0.031 C 
ATOM     62  C   UNL A   1      43.859  28.699  31.606  1.00  0.00     0.037 A 
BRANCH  49  63
ATOM     63  C   UNL A   1      46.453  30.643  27.060  1.00  0.00     0.058 A 
ATOM     64  C   UNL A   1      47.673  31.347  26.991  1.00  0.00     0.135 A 
ATOM     65  C   UNL A   1      45.299  31.407  26.774  1.00  0.00     0.135 A 
ATOM     66  F   UNL A   1      48.832  30.732  27.280  1.00  0.00    -0.206 F 
ATOM     67  C   UNL A   1      47.739  32.710  26.684  1.00  0.00     0.059 A 
ATOM     68  C   UNL A   1      45.344  32.751  26.417  1.00  0.00     0.059 A 
ATOM     69  F   UNL A   1      44.064  30.911  26.922  1.00  0.00    -0.206 F 
ATOM     70  C   UNL A   1      46.565  33.402  26.399  1.00  0.00     0.060 A 
BRANCH  70  71
ATOM     71  S   UNL A   1      46.642  35.168  26.041  1.00  0.00     0.124 S 
ATOM     72  O   UNL A   1      46.478  35.749  27.366  1.00  0.00    -0.237 OA
ATOM     73  O   UNL A   1      47.965  35.297  25.442  1.00  0.00    -0.237 OA
ATOM     74  O   UNL A   1      45.523  35.371  25.118  1.00  0.00    -0.744 OA
ENDBRANCH  70  71
ENDBRANCH  49  63
BRANCH  50  75
ATOM     75  C   UNL A   1      38.461  28.897  29.265  1.00  0.00     0.058 A 
ATOM     76  C   UNL A   1      37.504  29.083  30.283  1.00  0.00     0.135 A 
ATOM     77  C   UNL A   1      38.220  29.580  28.057  1.00  0.00     0.135 A 
ATOM     78  F   UNL A   1      37.647  28.462  31.465  1.00  0.00    -0.206 F 
ATOM     79  C   UNL A   1      36.437  29.977  30.154  1.00  0.00     0.059 A 
ATOM     80  C   UNL A   1      37.157  30.472  27.902  1.00  0.00     0.059 A 
ATOM     81  F   UNL A   1      39.073  29.479  27.028  1.00  0.00    -0.206 F 
ATOM     82  C   UNL A   1      36.295  30.698  28.971  1.00  0.00     0.060 A 
BRANCH  82  83
ATOM     83  S   UNL A   1      35.070  32.028  28.892  1.00  0.00     0.124 S 
ATOM     84  O   UNL A   1      33.975  31.390  28.170  1.00  0.00    -0.237 OA
ATOM     85  O   UNL A   1      34.828  32.304  30.303  1.00  0.00    -0.237 OA
ATOM     86  O   UNL A   1      35.766  33.085  28.163  1.00  0.00    -0.744 OA
ENDBRANCH  82  83
ENDBRANCH  50  75
BRANCH  62  87
ATOM     87  C   UNL A   1      43.712  27.691  32.704  1.00  0.00     0.058 A 
ATOM     88  C   UNL A   1      43.440  27.990  34.050  1.00  0.00     0.135 A 
ATOM     89  C   UNL A   1      43.776  26.337  32.343  1.00  0.00     0.135 A 
ATOM     90  F   UNL A   1      43.294  29.258  34.459  1.00  0.00    -0.206 F 
ATOM     91  C   UNL A   1      43.263  26.980  34.999  1.00  0.00     0.059 A 
ATOM     92  C   UNL A   1      43.574  25.316  33.264  1.00  0.00     0.059 A 
ATOM     93  F   UNL A   1      43.995  25.993  31.064  1.00  0.00    -0.206 F 
ATOM     94  C   UNL A   1      43.327  25.645  34.593  1.00  0.00     0.060 A 
BRANCH  94  95
ATOM     95  S   UNL A   1      43.025  24.338  35.803  1.00  0.00     0.124 S 
ATOM     96  O   UNL A   1      41.665  23.925  35.477  1.00  0.00    -0.237 OA
ATOM     97  O   UNL A   1      44.075  23.373  35.489  1.00  0.00    -0.237 OA
ATOM     98  O   UNL A   1      43.180  25.018  37.086  1.00  0.00    -0.744 OA
ENDBRANCH  94  95
ENDBRANCH  62  87
ENDBRANCH  36  37
ENDBRANCH  28  31
ENDBRANCH  26  27
ENDBRANCH  25  26
ENDBRANCH  24  25
ENDBRANCH   1  24
TORSDOF 19
ENDMDL
MODEL 2
REMARK VINA RESULT:     -11.3      2.315      3.250
REMARK SMILES CC(C)(Cn1ccc2ccc([N+](=O)[O-])cc21)C(=O)NCCCCCCNC(=O)c1ccc(-c2c3nc(c(-c4c(F)cc(S(=O)(=O)[O-])cc4F)c4ccc([nH]4)c(-c4c(F)cc(S(=O)(=O)[O-])cc4F)c4nc(c(-c5c(F)cc(S(=O)(=O)[O-])cc5F)c5ccc2[nH]5)C=C4)C=C3)cc1
REMARK SMILES IDX 22 1 21 2 20 3 19 4 17 5 18 6 2 8 1 9 3 10 4 11 5 12 6 13
REMARK SMILES IDX 16 14 7 15 8 16 15 17 9 18 11 19 10 20 12 21 13 22 14 23
REMARK SMILES IDX 23 24 24 25 25 26 26 27 27 28 28 30 29 31 30 32 94 33 31 34
REMARK SMILES IDX 93 35 32 36 33 37 34 38 87 39 35 40 92 41 86 42 88 43 36 44
REMARK SMILES IDX 91 45 85 46 84 47 37 49 71 50 50 51 70 52 51 53 54 54 69 55
REMARK SMILES IDX 89 56 52 57 53 58 68 60 90 61 55 62 38 63 39 64 48 65 40 66
REMARK SMILES IDX 41 67 47 68 49 69 42 70 43 71 44 72 45 73 46 74 72 75 73 76
REMARK SMILES IDX 82 77 74 78 75 79 81 80 83 81 76 82 77 83 78 84 79 85 80 86
REMARK SMILES IDX 56 87 57 88 66 89 58 90 59 91 65 92 67 93 60 94 61 95 62 96
REMARK SMILES IDX 63 97 64 98
REMARK H PARENT 19 7 26 29 88 48 54 59
REMARK Flexibility Score: inf
ROOT
ATOM      1  C   UNL A   1      37.288  22.923  25.096  1.00  0.00     0.002 C 
ENDROOT
BRANCH   1   2
ATOM      2  C   UNL A   1      36.603  21.600  24.749  1.00  0.00     0.021 C 
BRANCH   2   3
ATOM      3  C   UNL A   1      35.586  21.128  25.785  1.00  0.00     0.116 C 
BRANCH   3   4
ATOM      4  N   UNL A   1      34.234  21.090  25.252  1.00  0.00    -0.356 N 
ATOM      5  C   UNL A   1      33.123  21.844  25.481  1.00  0.00     0.227 C 
ATOM      6  O   UNL A   1      32.117  21.542  24.835  1.00  0.00    -0.274 OA
ATOM      7  H   UNL A   1      34.092  20.373  24.592  1.00  0.00     0.163 HD
BRANCH   5   8
ATOM      8  C   UNL A   1      33.107  23.010  26.485  1.00  0.00     0.061 C 
ATOM      9  C   UNL A   1      33.356  22.458  27.912  1.00  0.00     0.023 C 
ATOM     10  C   UNL A   1      31.693  23.626  26.523  1.00  0.00     0.023 C 
BRANCH   8  11
ATOM     11  C   UNL A   1      34.191  24.068  26.160  1.00  0.00     0.138 C 
BRANCH  11  12
ATOM     12  N   UNL A   1      33.947  24.867  24.959  1.00  0.00    -0.346 N 
ATOM     13  C   UNL A   1      33.863  24.352  23.689  1.00  0.00     0.087 A 
ATOM     14  C   UNL A   1      33.755  26.237  24.914  1.00  0.00     0.055 A 
ATOM     15  C   UNL A   1      33.730  25.394  22.805  1.00  0.00     0.028 A 
ATOM     16  C   UNL A   1      33.662  26.589  23.561  1.00  0.00     0.000 A 
ATOM     17  C   UNL A   1      33.673  27.202  25.935  1.00  0.00     0.112 A 
ATOM     18  C   UNL A   1      33.522  27.944  23.204  1.00  0.00     0.017 A 
ATOM     19  C   UNL A   1      33.510  28.543  25.548  1.00  0.00     0.271 A 
ATOM     20  C   UNL A   1      33.448  28.918  24.203  1.00  0.00     0.086 A 
BRANCH  19  21
ATOM     21  N   UNL A   1      33.401  29.578  26.587  1.00  0.00     0.062 N 
ATOM     22  O   UNL A   1      32.694  30.568  26.345  1.00  0.00    -0.258 OA
ATOM     23  O   UNL A   1      34.024  29.406  27.644  1.00  0.00    -0.258 OA
ENDBRANCH  19  21
ENDBRANCH  11  12
ENDBRANCH   8  11
ENDBRANCH   5   8
ENDBRANCH   3   4
ENDBRANCH   2   3
ENDBRANCH   1   2
BRANCH   1  24
ATOM     24  C   UNL A   1      38.530  22.788  25.985  1.00  0.00     0.002 C 
BRANCH  24  25
ATOM     25  C   UNL A   1      39.315  21.479  25.823  1.00  0.00     0.021 C 
BRANCH  25  26
ATOM     26  C   UNL A   1      40.705  21.492  26.461  1.00  0.00     0.116 C 
BRANCH  26  27
ATOM     27  N   UNL A   1      41.731  22.031  25.595  1.00  0.00    -0.352 N 
ATOM     28  C   UNL A   1      42.356  23.238  25.471  1.00  0.00     0.251 C 
ATOM     29  H   UNL A   1      42.053  21.373  24.939  1.00  0.00     0.163 HD
ATOM     30  O   UNL A   1      43.278  23.279  24.651  1.00  0.00    -0.269 OA
BRANCH  28  31
ATOM     31  C   UNL A   1      41.974  24.487  26.186  1.00  0.00     0.039 A 
ATOM     32  C   UNL A   1      41.193  25.522  25.670  1.00  0.00     0.014 A 
ATOM     33  C   UNL A   1      42.515  24.632  27.478  1.00  0.00     0.014 A 
ATOM     34  C   UNL A   1      41.055  26.712  26.378  1.00  0.00     0.010 A 
ATOM     35  C   UNL A   1      42.364  25.810  28.196  1.00  0.00     0.010 A 
ATOM     36  C   UNL A   1      41.681  26.871  27.619  1.00  0.00    -0.014 A 
BRANCH  36  37
ATOM     37  C   UNL A   1      41.486  28.130  28.333  1.00  0.00     0.031 A 
ATOM     38  C   UNL A   1      42.586  29.108  28.113  1.00  0.00     0.074 A 
ATOM     39  C   UNL A   1      40.375  28.430  29.042  1.00  0.00     0.049 A 
ATOM     40  N   UNL A   1      43.474  29.506  28.962  1.00  0.00    -0.248 NA
ATOM     41  C   UNL A   1      42.831  29.577  26.737  1.00  0.00     0.031 C 
ATOM     42  C   UNL A   1      39.119  27.674  29.093  1.00  0.00     0.029 A 
ATOM     43  N   UNL A   1      40.096  29.526  29.808  1.00  0.00    -0.354 N 
ATOM     44  C   UNL A   1      44.230  30.470  28.296  1.00  0.00     0.074 A 
ATOM     45  C   UNL A   1      43.921  30.333  26.899  1.00  0.00     0.031 C 
ATOM     46  C   UNL A   1      38.150  28.443  29.643  1.00  0.00     0.029 A 
ATOM     47  C   UNL A   1      38.748  29.674  30.133  1.00  0.00     0.049 A 
ATOM     48  H   UNL A   1      40.788  30.160  30.106  1.00  0.00     0.167 HD
ATOM     49  C   UNL A   1      44.824  31.487  28.980  1.00  0.00     0.037 A 
ATOM     50  C   UNL A   1      38.169  30.739  30.745  1.00  0.00     0.037 A 
ATOM     51  C   UNL A   1      44.841  31.217  30.392  1.00  0.00     0.049 A 
ATOM     52  C   UNL A   1      39.237  31.438  31.498  1.00  0.00     0.074 A 
ATOM     53  C   UNL A   1      45.589  30.459  31.265  1.00  0.00     0.029 A 
ATOM     54  N   UNL A   1      43.666  31.527  31.020  1.00  0.00    -0.354 N 
ATOM     55  N   UNL A   1      39.864  30.914  32.515  1.00  0.00    -0.248 NA
ATOM     56  C   UNL A   1      39.861  32.623  30.919  1.00  0.00     0.031 C 
ATOM     57  C   UNL A   1      44.745  30.191  32.385  1.00  0.00     0.029 A 
ATOM     58  C   UNL A   1      43.523  30.831  32.188  1.00  0.00     0.049 A 
ATOM     59  H   UNL A   1      43.006  32.171  30.673  1.00  0.00     0.167 HD
ATOM     60  C   UNL A   1      41.138  31.434  32.433  1.00  0.00     0.074 A 
ATOM     61  C   UNL A   1      41.032  32.594  31.558  1.00  0.00     0.031 C 
ATOM     62  C   UNL A   1      42.221  30.694  32.804  1.00  0.00     0.037 A 
BRANCH  49  63
ATOM     63  C   UNL A   1      44.949  32.906  28.463  1.00  0.00     0.058 A 
ATOM     64  C   UNL A   1      46.226  33.464  28.240  1.00  0.00     0.135 A 
ATOM     65  C   UNL A   1      43.878  33.828  28.460  1.00  0.00     0.135 A 
ATOM     66  F   UNL A   1      47.321  32.688  28.259  1.00  0.00    -0.206 F 
ATOM     67  C   UNL A   1      46.424  34.835  28.051  1.00  0.00     0.059 A 
ATOM     68  C   UNL A   1      44.046  35.189  28.224  1.00  0.00     0.059 A 
ATOM     69  F   UNL A   1      42.630  33.468  28.782  1.00  0.00    -0.206 F 
ATOM     70  C   UNL A   1      45.325  35.689  28.046  1.00  0.00     0.060 A 
BRANCH  70  71
ATOM     71  S   UNL A   1      45.580  37.463  27.842  1.00  0.00     0.124 S 
ATOM     72  O   UNL A   1      44.219  37.972  27.928  1.00  0.00    -0.237 OA
ATOM     73  O   UNL A   1      46.455  37.772  28.967  1.00  0.00    -0.237 OA
ATOM     74  O   UNL A   1      46.211  37.560  26.524  1.00  0.00    -0.744 OA
ENDBRANCH  70  71
ENDBRANCH  49  63
BRANCH  50  75
ATOM     75  C   UNL A   1      36.859  31.396  30.476  1.00  0.00     0.058 A 
ATOM     76  C   UNL A   1      36.120  31.975  31.528  1.00  0.00     0.135 A 
ATOM     77  C   UNL A   1      36.488  31.780  29.174  1.00  0.00     0.135 A 
ATOM     78  F   UNL A   1      36.399  31.658  32.803  1.00  0.00    -0.206 F 
ATOM     79  C   UNL A   1      35.151  32.958  31.310  1.00  0.00     0.059 A 
ATOM     80  C   UNL A   1      35.517  32.754  28.931  1.00  0.00     0.059 A 
ATOM     81  F   UNL A   1      37.132  31.296  28.103  1.00  0.00    -0.206 F 
ATOM     82  C   UNL A   1      34.885  33.370  30.006  1.00  0.00     0.060 A 
BRANCH  82  83
ATOM     83  S   UNL A   1      33.817  34.807  29.738  1.00  0.00     0.124 S 
ATOM     84  O   UNL A   1      32.587  34.186  29.258  1.00  0.00    -0.237 OA
ATOM     85  O   UNL A   1      33.756  35.395  31.071  1.00  0.00    -0.237 OA
ATOM     86  O   UNL A   1      34.547  35.591  28.745  1.00  0.00    -0.744 OA
ENDBRANCH  82  83
ENDBRANCH  50  75
BRANCH  62  87
ATOM     87  C   UNL A   1      42.013  29.598  33.804  1.00  0.00     0.058 A 
ATOM     88  C   UNL A   1      41.590  28.293  33.501  1.00  0.00     0.135 A 
ATOM     89  C   UNL A   1      42.340  29.879  35.138  1.00  0.00     0.135 A 
ATOM     90  F   UNL A   1      41.327  27.927  32.239  1.00  0.00    -0.206 F 
ATOM     91  C   UNL A   1      41.476  27.316  34.494  1.00  0.00     0.059 A 
ATOM     92  C   UNL A   1      42.262  28.917  36.137  1.00  0.00     0.059 A 
ATOM     93  F   UNL A   1      42.785  31.100  35.478  1.00  0.00    -0.206 F 
ATOM     94  C   UNL A   1      41.820  27.638  35.809  1.00  0.00     0.060 A 
BRANCH  94  95
ATOM     95  S   UNL A   1      41.745  26.358  37.081  1.00  0.00     0.124 S 
ATOM     96  O   UNL A   1      40.434  26.591  37.676  1.00  0.00    -0.237 OA
ATOM     97  O   UNL A   1      41.880  25.132  36.300  1.00  0.00    -0.237 OA
ATOM     98  O   UNL A   1      42.884  26.665  37.943  1.00  0.00    -0.744 OA
ENDBRANCH  94  95
ENDBRANCH  62  87
ENDBRANCH  36  37
ENDBRANCH  28  31
ENDBRANCH  26  27
ENDBRANCH  25  26
ENDBRANCH  24  25
ENDBRANCH   1  24
TORSDOF 19
ENDMDL
MODEL 3
REMARK VINA RESULT:     -11.0      3.079      9.446
REMARK SMILES CC(C)(Cn1ccc2ccc([N+](=O)[O-])cc21)C(=O)NCCCCCCNC(=O)c1ccc(-c2c3nc(c(-c4c(F)cc(S(=O)(=O)[O-])cc4F)c4ccc([nH]4)c(-c4c(F)cc(S(=O)(=O)[O-])cc4F)c4nc(c(-c5c(F)cc(S(=O)(=O)[O-])cc5F)c5ccc2[nH]5)C=C4)C=C3)cc1
REMARK SMILES IDX 22 1 21 2 20 3 19 4 17 5 18 6 2 8 1 9 3 10 4 11 5 12 6 13
REMARK SMILES IDX 16 14 7 15 8 16 15 17 9 18 11 19 10 20 12 21 13 22 14 23
REMARK SMILES IDX 23 24 24 25 25 26 26 27 27 28 28 30 29 31 30 32 94 33 31 34
REMARK SMILES IDX 93 35 32 36 33 37 34 38 87 39 35 40 92 41 86 42 88 43 36 44
REMARK SMILES IDX 91 45 85 46 84 47 37 49 71 50 50 51 70 52 51 53 54 54 69 55
REMARK SMILES IDX 89 56 52 57 53 58 68 60 90 61 55 62 38 63 39 64 48 65 40 66
REMARK SMILES IDX 41 67 47 68 49 69 42 70 43 71 44 72 45 73 46 74 72 75 73 76
REMARK SMILES IDX 82 77 74 78 75 79 81 80 83 81 76 82 77 83 78 84 79 85 80 86
REMARK SMILES IDX 56 87 57 88 66 89 58 90 59 91 65 92 67 93 60 94 61 95 62 96
REMARK SMILES IDX 63 97 64 98
REMARK H PARENT 19 7 26 29 88 48 54 59
REMARK Flexibility Score: inf
ROOT
ATOM      1  C   UNL A   1      33.378  28.745  25.236  1.00  0.00     0.002 C 
ENDROOT
BRANCH   1   2
ATOM      2  C   UNL A   1      32.051  28.190  25.755  1.00  0.00     0.021 C 
BRANCH   2   3
ATOM      3  C   UNL A   1      32.169  26.847  26.473  1.00  0.00     0.116 C 
BRANCH   3   4
ATOM      4  N   UNL A   1      30.871  26.251  26.743  1.00  0.00    -0.356 N 
ATOM      5  C   UNL A   1      30.283  25.087  26.350  1.00  0.00     0.227 C 
ATOM      6  O   UNL A   1      29.146  24.878  26.782  1.00  0.00    -0.274 OA
ATOM      7  H   UNL A   1      30.300  26.801  27.327  1.00  0.00     0.163 HD
BRANCH   5   8
ATOM      8  C   UNL A   1      30.982  24.079  25.421  1.00  0.00     0.061 C 
ATOM      9  C   UNL A   1      30.652  22.639  25.889  1.00  0.00     0.023 C 
ATOM     10  C   UNL A   1      32.510  24.222  25.576  1.00  0.00     0.023 C 
BRANCH   8  11
ATOM     11  C   UNL A   1      30.532  24.243  23.947  1.00  0.00     0.138 C 
BRANCH  11  12
ATOM     12  N   UNL A   1      31.029  25.441  23.270  1.00  0.00    -0.346 N 
ATOM     13  C   UNL A   1      32.270  25.550  22.697  1.00  0.00     0.087 A 
ATOM     14  C   UNL A   1      30.335  26.627  23.095  1.00  0.00     0.055 A 
ATOM     15  C   UNL A   1      32.431  26.837  22.248  1.00  0.00     0.028 A 
ATOM     16  C   UNL A   1      31.220  27.529  22.493  1.00  0.00     0.000 A 
ATOM     17  C   UNL A   1      29.018  26.994  23.425  1.00  0.00     0.112 A 
ATOM     18  C   UNL A   1      30.803  28.851  22.245  1.00  0.00     0.017 A 
ATOM     19  C   UNL A   1      28.622  28.314  23.145  1.00  0.00     0.271 A 
ATOM     20  C   UNL A   1      29.502  29.239  22.574  1.00  0.00     0.086 A 
BRANCH  19  21
ATOM     21  N   UNL A   1      27.248  28.730  23.458  1.00  0.00     0.062 N 
ATOM     22  O   UNL A   1      26.463  27.866  23.876  1.00  0.00    -0.258 OA
ATOM     23  O   UNL A   1      26.949  29.920  23.283  1.00  0.00    -0.258 OA
ENDBRANCH  19  21
ENDBRANCH  11  12
ENDBRANCH   8  11
ENDBRANCH   5   8
ENDBRANCH   3   4
ENDBRANCH   2   3
ENDBRANCH   1   2
BRANCH   1  24
ATOM     24  C   UNL A   1      34.286  29.349  26.313  1.00  0.00     0.002 C 
BRANCH  24  25
ATOM     25  C   UNL A   1      33.587  30.271  27.322  1.00  0.00     0.021 C 
BRANCH  25  26
ATOM     26  C   UNL A   1      34.356  31.551  27.649  1.00  0.00     0.116 C 
BRANCH  26  27
ATOM     27  N   UNL A   1      34.191  31.989  29.017  1.00  0.00    -0.352 N 
ATOM     28  C   UNL A   1      34.996  32.045  30.119  1.00  0.00     0.251 C 
ATOM     29  H   UNL A   1      33.285  32.325  29.197  1.00  0.00     0.163 HD
ATOM     30  O   UNL A   1      34.504  32.593  31.110  1.00  0.00    -0.269 OA
BRANCH  28  31
ATOM     31  C   UNL A   1      36.356  31.450  30.227  1.00  0.00     0.039 A 
ATOM     32  C   UNL A   1      37.564  32.143  30.141  1.00  0.00     0.014 A 
ATOM     33  C   UNL A   1      36.392  30.049  30.371  1.00  0.00     0.014 A 
ATOM     34  C   UNL A   1      38.767  31.445  30.083  1.00  0.00     0.010 A 
ATOM     35  C   UNL A   1      37.591  29.350  30.333  1.00  0.00     0.010 A 
ATOM     36  C   UNL A   1      38.774  30.047  30.132  1.00  0.00    -0.014 A 
BRANCH  36  37
ATOM     37  C   UNL A   1      40.063  29.361  30.090  1.00  0.00     0.031 A 
ATOM     38  C   UNL A   1      40.622  29.076  31.440  1.00  0.00     0.074 A 
ATOM     39  C   UNL A   1      40.651  28.932  28.952  1.00  0.00     0.049 A 
ATOM     40  N   UNL A   1      41.652  29.617  32.001  1.00  0.00    -0.248 NA
ATOM     41  C   UNL A   1      39.847  28.204  32.341  1.00  0.00     0.031 C 
ATOM     42  C   UNL A   1      40.070  28.898  27.605  1.00  0.00     0.029 A 
ATOM     43  N   UNL A   1      41.873  28.350  28.765  1.00  0.00    -0.354 N 
ATOM     44  C   UNL A   1      41.803  28.964  33.224  1.00  0.00     0.074 A 
ATOM     45  C   UNL A   1      40.574  28.257  33.460  1.00  0.00     0.031 C 
ATOM     46  C   UNL A   1      40.831  28.118  26.803  1.00  0.00     0.029 A 
ATOM     47  C   UNL A   1      42.034  27.736  27.523  1.00  0.00     0.049 A 
ATOM     48  H   UNL A   1      42.581  28.362  29.449  1.00  0.00     0.167 HD
ATOM     49  C   UNL A   1      43.032  28.829  33.796  1.00  0.00     0.037 A 
ATOM     50  C   UNL A   1      43.075  26.958  27.128  1.00  0.00     0.037 A 
ATOM     51  C   UNL A   1      43.990  29.700  33.171  1.00  0.00     0.049 A 
ATOM     52  C   UNL A   1      44.233  27.320  27.979  1.00  0.00     0.074 A 
ATOM     53  C   UNL A   1      44.330  31.033  33.229  1.00  0.00     0.029 A 
ATOM     54  N   UNL A   1      44.512  29.193  32.012  1.00  0.00    -0.354 N 
ATOM     55  N   UNL A   1      44.810  28.489  27.952  1.00  0.00    -0.248 NA
ATOM     56  C   UNL A   1      44.567  26.481  29.125  1.00  0.00     0.031 C 
ATOM     57  C   UNL A   1      44.941  31.343  31.977  1.00  0.00     0.029 A 
ATOM     58  C   UNL A   1      45.000  30.184  31.207  1.00  0.00     0.049 A 
ATOM     59  H   UNL A   1      44.532  28.234  31.786  1.00  0.00     0.167 HD
ATOM     60  C   UNL A   1      45.229  28.691  29.250  1.00  0.00     0.074 A 
ATOM     61  C   UNL A   1      45.215  27.375  29.874  1.00  0.00     0.031 C 
ATOM     62  C   UNL A   1      45.228  29.939  29.800  1.00  0.00     0.037 A 
BRANCH  49  63
ATOM     63  C   UNL A   1      43.486  27.604  34.563  1.00  0.00     0.058 A 
ATOM     64  C   UNL A   1      43.883  27.725  35.912  1.00  0.00     0.135 A 
ATOM     65  C   UNL A   1      43.824  26.380  33.942  1.00  0.00     0.135 A 
ATOM     66  F   UNL A   1      43.648  28.859  36.592  1.00  0.00    -0.206 F 
ATOM     67  C   UNL A   1      44.581  26.716  36.583  1.00  0.00     0.059 A 
ATOM     68  C   UNL A   1      44.474  25.343  34.605  1.00  0.00     0.059 A 
ATOM     69  F   UNL A   1      43.627  26.169  32.635  1.00  0.00    -0.206 F 
ATOM     70  C   UNL A   1      44.872  25.528  35.918  1.00  0.00     0.060 A 
BRANCH  70  71
ATOM     71  S   UNL A   1      45.806  24.242  36.769  1.00  0.00     0.124 S 
ATOM     72  O   UNL A   1      45.536  24.551  38.166  1.00  0.00    -0.237 OA
ATOM     73  O   UNL A   1      45.189  23.028  36.248  1.00  0.00    -0.237 OA
ATOM     74  O   UNL A   1      47.182  24.476  36.323  1.00  0.00    -0.744 OA
ENDBRANCH  70  71
ENDBRANCH  49  63
BRANCH  50  75
ATOM     75  C   UNL A   1      43.076  25.709  26.316  1.00  0.00     0.058 A 
ATOM     76  C   UNL A   1      44.026  25.523  25.291  1.00  0.00     0.135 A 
ATOM     77  C   UNL A   1      42.402  24.553  26.752  1.00  0.00     0.135 A 
ATOM     78  F   UNL A   1      44.710  26.572  24.805  1.00  0.00    -0.206 F 
ATOM     79  C   UNL A   1      44.368  24.257  24.807  1.00  0.00     0.059 A 
ATOM     80  C   UNL A   1      42.720  23.279  26.278  1.00  0.00     0.059 A 
ATOM     81  F   UNL A   1      41.486  24.618  27.728  1.00  0.00    -0.206 F 
ATOM     82  C   UNL A   1      43.736  23.135  25.338  1.00  0.00     0.060 A 
BRANCH  82  83
ATOM     83  S   UNL A   1      44.347  21.489  24.897  1.00  0.00     0.124 S 
ATOM     84  O   UNL A   1      43.249  20.631  25.329  1.00  0.00    -0.237 OA
ATOM     85  O   UNL A   1      44.532  21.609  23.455  1.00  0.00    -0.237 OA
ATOM     86  O   UNL A   1      45.577  21.366  25.674  1.00  0.00    -0.744 OA
ENDBRANCH  82  83
ENDBRANCH  50  75
BRANCH  62  87
ATOM     87  C   UNL A   1      45.337  31.113  28.876  1.00  0.00     0.058 A 
ATOM     88  C   UNL A   1      46.536  31.620  28.346  1.00  0.00     0.135 A 
ATOM     89  C   UNL A   1      44.140  31.702  28.446  1.00  0.00     0.135 A 
ATOM     90  F   UNL A   1      47.716  31.065  28.654  1.00  0.00    -0.206 F 
ATOM     91  C   UNL A   1      46.539  32.687  27.444  1.00  0.00     0.059 A 
ATOM     92  C   UNL A   1      44.117  32.744  27.527  1.00  0.00     0.059 A 
ATOM     93  F   UNL A   1      42.962  31.232  28.890  1.00  0.00    -0.206 F 
ATOM     94  C   UNL A   1      45.322  33.239  27.037  1.00  0.00     0.060 A 
BRANCH  94  95
ATOM     95  S   UNL A   1      45.319  34.568  25.815  1.00  0.00     0.124 S 
ATOM     96  O   UNL A   1      44.158  34.233  24.997  1.00  0.00    -0.237 OA
ATOM     97  O   UNL A   1      45.186  35.760  26.648  1.00  0.00    -0.237 OA
ATOM     98  O   UNL A   1      46.612  34.426  25.151  1.00  0.00    -0.744 OA
ENDBRANCH  94  95
ENDBRANCH  62  87
ENDBRANCH  36  37
ENDBRANCH  28  31
ENDBRANCH  26  27
ENDBRANCH  25  26
ENDBRANCH  24  25
ENDBRANCH   1  24
TORSDOF 19
ENDMDL
