MODEL 1
REMARK VINA RESULT:     -12.2      0.000      0.000
REMARK SMILES Cc1c(C(=O)NCCCCCCNC(=O)c2ccc(-c3c4nc(c(-c5c(F)cc(S(=O)(=O)[O-])cc5F)c5ccc([nH]5)c(-c5c(F)cc(S(=O)(=O)[O-])cc5F)c5nc(c(-c6c(F)cc(S(=O)(=O)[O-])cc6F)c6ccc3[nH]6)C=C5)C=C4)cc2)sc2c1=C(CSc1nncn1-c1ccccc1)CC(=O)N=2
REMARK SMILES IDX 9 1 8 2 7 3 6 4 4 5 5 6 3 8 1 9 2 10 84 11 82 12 83 13 85 14
REMARK SMILES IDX 102 15 99 16 100 17 101 18 86 19 87 20 88 21 89 22 92 23
REMARK SMILES IDX 90 24 91 25 93 26 94 27 98 28 95 29 97 30 96 31 10 32 11 33
REMARK SMILES IDX 12 34 13 35 14 36 15 38 16 39 17 40 81 41 18 42 80 43 19 44
REMARK SMILES IDX 20 45 21 46 74 47 22 48 79 49 73 50 75 51 23 52 78 53 72 54
REMARK SMILES IDX 71 55 24 57 58 58 37 59 57 60 38 61 41 62 56 63 76 64 39 65
REMARK SMILES IDX 40 66 55 68 77 69 42 70 25 71 26 72 35 73 27 74 28 75 34 76
REMARK SMILES IDX 36 77 29 78 30 79 31 80 32 81 33 82 59 83 60 84 69 85 61 86
REMARK SMILES IDX 62 87 68 88 70 89 63 90 64 91 65 92 66 93 67 94 43 95 44 96
REMARK SMILES IDX 53 97 45 98 46 99 52 100 54 101 47 102 48 103 49 104 50 105
REMARK SMILES IDX 51 106
REMARK H PARENT 6 7 13 37 75 56 41 67
REMARK Flexibility Score: inf
ROOT
ATOM      1  C   UNL A   1      34.508  31.679  27.564  1.00  0.00     0.002 C 
ENDROOT
BRANCH   1   2
ATOM      2  C   UNL A   1      35.175  30.354  27.963  1.00  0.00     0.021 C 
BRANCH   2   3
ATOM      3  C   UNL A   1      34.732  29.071  27.209  1.00  0.00     0.116 C 
BRANCH   3   4
ATOM      4  N   UNL A   1      33.290  28.769  27.400  1.00  0.00    -0.351 N 
ATOM      5  C   UNL A   1      32.195  28.031  27.103  1.00  0.00     0.261 C 
ATOM      6  O   UNL A   1      31.315  28.249  27.958  1.00  0.00    -0.268 OA
ATOM      7  H   UNL A   1      32.981  29.425  28.067  1.00  0.00     0.163 HD
BRANCH   5   8
ATOM      8  C   UNL A   1      31.851  26.977  26.036  1.00  0.00     0.098 A 
ATOM      9  C   UNL A   1      33.616  25.113  26.048  1.00  0.00     0.047 C 
ATOM     10  C   UNL A   1      32.330  25.761  25.647  1.00  0.00    -0.018 A 
ATOM     11  C   UNL A   1      31.994  25.377  24.272  1.00  0.00     0.016 A 
ATOM     12  S   UNL A   1      31.181  27.791  24.521  1.00  0.00    -0.110 S 
ATOM     13  C   UNL A   1      31.864  26.584  23.444  1.00  0.00     0.128 A 
ATOM     14  C   UNL A   1      32.115  24.225  23.585  1.00  0.00    -0.040 C 
ATOM     15  N   UNL A   1      32.148  26.753  22.204  1.00  0.00    -0.202 NA
ATOM     16  C   UNL A   1      32.912  24.363  22.298  1.00  0.00     0.135 C 
ATOM     17  C   UNL A   1      32.672  25.664  21.531  1.00  0.00     0.251 C 
ATOM     18  O   UNL A   1      32.992  25.717  20.346  1.00  0.00    -0.272 OA
BRANCH  14  19
ATOM     19  C   UNL A   1      31.776  22.786  23.912  1.00  0.00     0.110 C 
BRANCH  19  20
ATOM     20  S   UNL A   1      32.165  22.229  25.578  1.00  0.00    -0.081 SA
BRANCH  20  21
ATOM     21  C   UNL A   1      32.839  20.649  25.250  1.00  0.00     0.195 A 
ATOM     22  N   UNL A   1      32.127  19.555  25.098  1.00  0.00    -0.123 NA
ATOM     23  N   UNL A   1      34.161  20.395  24.909  1.00  0.00    -0.277 N 
ATOM     24  N   UNL A   1      32.964  18.573  24.619  1.00  0.00    -0.138 NA
ATOM     25  C   UNL A   1      34.159  19.098  24.473  1.00  0.00     0.231 A 
BRANCH  23  26
ATOM     26  C   UNL A   1      35.235  21.301  24.838  1.00  0.00     0.049 A 
ATOM     27  C   UNL A   1      35.904  21.606  26.018  1.00  0.00     0.027 A 
ATOM     28  C   UNL A   1      35.401  22.075  23.677  1.00  0.00     0.027 A 
ATOM     29  C   UNL A   1      36.482  22.846  26.129  1.00  0.00     0.002 A 
ATOM     30  C   UNL A   1      36.065  23.289  23.777  1.00  0.00     0.002 A 
ATOM     31  C   UNL A   1      36.524  23.693  25.024  1.00  0.00     0.000 A 
ENDBRANCH  23  26
ENDBRANCH  20  21
ENDBRANCH  19  20
ENDBRANCH  14  19
ENDBRANCH   5   8
ENDBRANCH   3   4
ENDBRANCH   2   3
ENDBRANCH   1   2
BRANCH   1  32
ATOM     32  C   UNL A   1      33.663  32.407  28.618  1.00  0.00     0.002 C 
BRANCH  32  33
ATOM     33  C   UNL A   1      33.490  33.928  28.492  1.00  0.00     0.021 C 
BRANCH  33  34
ATOM     34  C   UNL A   1      34.399  34.776  29.375  1.00  0.00     0.116 C 
BRANCH  34  35
ATOM     35  N   UNL A   1      34.119  34.628  30.802  1.00  0.00    -0.352 N 
ATOM     36  C   UNL A   1      34.615  33.699  31.702  1.00  0.00     0.251 C 
ATOM     37  H   UNL A   1      33.487  35.283  31.177  1.00  0.00     0.163 HD
ATOM     38  O   UNL A   1      34.042  33.500  32.756  1.00  0.00    -0.269 OA
BRANCH  36  39
ATOM     39  C   UNL A   1      35.844  32.949  31.363  1.00  0.00     0.039 A 
ATOM     40  C   UNL A   1      37.063  33.613  31.185  1.00  0.00     0.014 A 
ATOM     41  C   UNL A   1      35.768  31.567  31.220  1.00  0.00     0.014 A 
ATOM     42  C   UNL A   1      38.212  32.861  30.946  1.00  0.00     0.010 A 
ATOM     43  C   UNL A   1      36.915  30.819  31.136  1.00  0.00     0.010 A 
ATOM     44  C   UNL A   1      38.134  31.459  30.948  1.00  0.00    -0.014 A 
BRANCH  44  45
ATOM     45  C   UNL A   1      39.344  30.645  30.901  1.00  0.00     0.031 A 
ATOM     46  C   UNL A   1      39.950  30.394  32.236  1.00  0.00     0.074 A 
ATOM     47  C   UNL A   1      39.751  29.985  29.793  1.00  0.00     0.049 A 
ATOM     48  N   UNL A   1      41.060  30.866  32.697  1.00  0.00    -0.248 NA
ATOM     49  C   UNL A   1      39.148  29.681  33.245  1.00  0.00     0.031 C 
ATOM     50  C   UNL A   1      39.076  29.899  28.493  1.00  0.00     0.029 A 
ATOM     51  N   UNL A   1      40.813  29.151  29.625  1.00  0.00    -0.354 N 
ATOM     52  C   UNL A   1      41.223  30.291  33.953  1.00  0.00     0.074 A 
ATOM     53  C   UNL A   1      39.932  29.774  34.322  1.00  0.00     0.031 C 
ATOM     54  C   UNL A   1      39.604  28.887  27.771  1.00  0.00     0.029 A 
ATOM     55  C   UNL A   1      40.758  28.362  28.478  1.00  0.00     0.049 A 
ATOM     56  H   UNL A   1      41.562  29.108  30.265  1.00  0.00     0.167 HD
ATOM     57  C   UNL A   1      42.467  30.042  34.450  1.00  0.00     0.037 A 
ATOM     58  C   UNL A   1      41.587  27.338  28.147  1.00  0.00     0.037 A 
ATOM     59  C   UNL A   1      43.469  30.769  33.706  1.00  0.00     0.049 A 
ATOM     60  C   UNL A   1      42.834  27.530  28.930  1.00  0.00     0.074 A 
ATOM     61  C   UNL A   1      43.686  32.102  33.411  1.00  0.00     0.029 A 
ATOM     62  N   UNL A   1      44.222  30.059  32.800  1.00  0.00    -0.354 N 
ATOM     63  N   UNL A   1      43.653  28.530  28.755  1.00  0.00    -0.248 NA
ATOM     64  C   UNL A   1      42.936  26.863  30.220  1.00  0.00     0.031 C 
ATOM     65  C   UNL A   1      44.156  32.111  32.064  1.00  0.00     0.029 A 
ATOM     66  C   UNL A   1      44.280  30.787  31.640  1.00  0.00     0.049 A 
ATOM     67  H   UNL A   1      44.643  29.184  32.957  1.00  0.00     0.167 HD
ATOM     68  C   UNL A   1      44.035  28.901  30.035  1.00  0.00     0.074 A 
ATOM     69  C   UNL A   1      43.644  27.780  30.886  1.00  0.00     0.031 C 
ATOM     70  C   UNL A   1      44.365  30.196  30.322  1.00  0.00     0.037 A 
BRANCH  57  71
ATOM     71  C   UNL A   1      42.825  28.848  35.312  1.00  0.00     0.058 A 
ATOM     72  C   UNL A   1      43.583  29.058  36.485  1.00  0.00     0.135 A 
ATOM     73  C   UNL A   1      42.719  27.501  34.897  1.00  0.00     0.135 A 
ATOM     74  F   UNL A   1      43.753  30.296  36.977  1.00  0.00    -0.206 F 
ATOM     75  C   UNL A   1      44.261  28.026  37.134  1.00  0.00     0.059 A 
ATOM     76  C   UNL A   1      43.340  26.452  35.562  1.00  0.00     0.059 A 
ATOM     77  F   UNL A   1      42.090  27.138  33.774  1.00  0.00    -0.206 F 
ATOM     78  C   UNL A   1      44.146  26.727  36.653  1.00  0.00     0.060 A 
BRANCH  78  79
ATOM     79  S   UNL A   1      45.095  25.407  37.425  1.00  0.00     0.124 S 
ATOM     80  O   UNL A   1      44.787  25.618  38.833  1.00  0.00    -0.237 OA
ATOM     81  O   UNL A   1      44.512  24.220  36.810  1.00  0.00    -0.237 OA
ATOM     82  O   UNL A   1      46.466  25.706  37.023  1.00  0.00    -0.744 OA
ENDBRANCH  78  79
ENDBRANCH  57  71
BRANCH  58  83
ATOM     83  C   UNL A   1      41.251  26.048  27.480  1.00  0.00     0.058 A 
ATOM     84  C   UNL A   1      42.155  25.440  26.586  1.00  0.00     0.135 A 
ATOM     85  C   UNL A   1      40.190  25.237  27.929  1.00  0.00     0.135 A 
ATOM     86  F   UNL A   1      43.199  26.132  26.108  1.00  0.00    -0.206 F 
ATOM     87  C   UNL A   1      42.060  24.089  26.227  1.00  0.00     0.059 A 
ATOM     88  C   UNL A   1      40.067  23.893  27.573  1.00  0.00     0.059 A 
ATOM     89  F   UNL A   1      39.289  25.694  28.812  1.00  0.00    -0.206 F 
ATOM     90  C   UNL A   1      41.026  23.316  26.750  1.00  0.00     0.060 A 
BRANCH  90  91
ATOM     91  S   UNL A   1      41.023  21.527  26.481  1.00  0.00     0.124 S 
ATOM     92  O   UNL A   1      41.248  21.018  27.829  1.00  0.00    -0.237 OA
ATOM     93  O   UNL A   1      39.693  21.300  25.925  1.00  0.00    -0.237 OA
ATOM     94  O   UNL A   1      42.126  21.327  25.544  1.00  0.00    -0.744 OA
ENDBRANCH  90  91
ENDBRANCH  58  83
BRANCH  70  95
ATOM     95  C   UNL A   1      44.638  31.136  29.175  1.00  0.00     0.058 A 
ATOM     96  C   UNL A   1      43.689  31.985  28.578  1.00  0.00     0.135 A 
ATOM     97  C   UNL A   1      45.971  31.276  28.756  1.00  0.00     0.135 A 
ATOM     98  F   UNL A   1      42.413  31.993  28.988  1.00  0.00    -0.206 F 
ATOM     99  C   UNL A   1      44.041  32.898  27.581  1.00  0.00     0.059 A 
ATOM    100  C   UNL A   1      46.350  32.201  27.789  1.00  0.00     0.059 A 
ATOM    101  F   UNL A   1      46.935  30.538  29.328  1.00  0.00    -0.206 F 
ATOM    102  C   UNL A   1      45.377  32.999  27.192  1.00  0.00     0.060 A 
BRANCH 102 103
ATOM    103  S   UNL A   1      45.846  34.219  25.947  1.00  0.00     0.124 S 
ATOM    104  O   UNL A   1      47.264  33.934  25.757  1.00  0.00    -0.237 OA
ATOM    105  O   UNL A   1      44.975  33.879  24.825  1.00  0.00    -0.237 OA
ATOM    106  O   UNL A   1      45.547  35.496  26.590  1.00  0.00    -0.744 OA
ENDBRANCH 102 103
ENDBRANCH  70  95
ENDBRANCH  44  45
ENDBRANCH  36  39
ENDBRANCH  34  35
ENDBRANCH  33  34
ENDBRANCH  32  33
ENDBRANCH   1  32
TORSDOF 20
ENDMDL
MODEL 2
REMARK VINA RESULT:     -12.1      2.535      9.313
REMARK SMILES Cc1c(C(=O)NCCCCCCNC(=O)c2ccc(-c3c4nc(c(-c5c(F)cc(S(=O)(=O)[O-])cc5F)c5ccc([nH]5)c(-c5c(F)cc(S(=O)(=O)[O-])cc5F)c5nc(c(-c6c(F)cc(S(=O)(=O)[O-])cc6F)c6ccc3[nH]6)C=C5)C=C4)cc2)sc2c1=C(CSc1nncn1-c1ccccc1)CC(=O)N=2
REMARK SMILES IDX 9 1 8 2 7 3 6 4 4 5 5 6 3 8 1 9 2 10 84 11 82 12 83 13 85 14
REMARK SMILES IDX 102 15 99 16 100 17 101 18 86 19 87 20 88 21 89 22 92 23
REMARK SMILES IDX 90 24 91 25 93 26 94 27 98 28 95 29 97 30 96 31 10 32 11 33
REMARK SMILES IDX 12 34 13 35 14 36 15 38 16 39 17 40 81 41 18 42 80 43 19 44
REMARK SMILES IDX 20 45 21 46 74 47 22 48 79 49 73 50 75 51 23 52 78 53 72 54
REMARK SMILES IDX 71 55 24 57 58 58 37 59 57 60 38 61 41 62 56 63 76 64 39 65
REMARK SMILES IDX 40 66 55 68 77 69 42 70 25 71 26 72 35 73 27 74 28 75 34 76
REMARK SMILES IDX 36 77 29 78 30 79 31 80 32 81 33 82 59 83 60 84 69 85 61 86
REMARK SMILES IDX 62 87 68 88 70 89 63 90 64 91 65 92 66 93 67 94 43 95 44 96
REMARK SMILES IDX 53 97 45 98 46 99 52 100 54 101 47 102 48 103 49 104 50 105
REMARK SMILES IDX 51 106
REMARK H PARENT 6 7 13 37 75 56 41 67
REMARK Flexibility Score: inf
ROOT
ATOM      1  C   UNL A   1      37.258  21.154  24.558  1.00  0.00     0.002 C 
ENDROOT
BRANCH   1   2
ATOM      2  C   UNL A   1      35.896  21.241  25.263  1.00  0.00     0.021 C 
BRANCH   2   3
ATOM      3  C   UNL A   1      34.776  20.279  24.783  1.00  0.00     0.116 C 
BRANCH   3   4
ATOM      4  N   UNL A   1      33.420  20.753  25.163  1.00  0.00    -0.351 N 
ATOM      5  C   UNL A   1      32.505  21.747  25.252  1.00  0.00     0.261 C 
ATOM      6  O   UNL A   1      31.385  21.248  25.474  1.00  0.00    -0.268 OA
ATOM      7  H   UNL A   1      32.967  19.958  25.527  1.00  0.00     0.163 HD
BRANCH   5   8
ATOM      8  C   UNL A   1      32.538  23.274  25.070  1.00  0.00     0.098 A 
ATOM      9  C   UNL A   1      34.715  24.223  26.045  1.00  0.00     0.047 C 
ATOM     10  C   UNL A   1      33.431  24.283  25.282  1.00  0.00    -0.018 A 
ATOM     11  C   UNL A   1      32.834  25.615  25.429  1.00  0.00     0.016 A 
ATOM     12  S   UNL A   1      30.858  23.990  25.337  1.00  0.00    -0.110 S 
ATOM     13  C   UNL A   1      31.489  25.487  26.005  1.00  0.00     0.128 A 
ATOM     14  C   UNL A   1      33.356  26.856  25.468  1.00  0.00    -0.040 C 
ATOM     15  N   UNL A   1      30.866  26.281  26.798  1.00  0.00    -0.202 NA
ATOM     16  C   UNL A   1      32.979  27.636  26.717  1.00  0.00     0.135 C 
ATOM     17  C   UNL A   1      31.544  27.417  27.201  1.00  0.00     0.251 C 
ATOM     18  O   UNL A   1      31.049  28.239  27.970  1.00  0.00    -0.272 OA
BRANCH  14  19
ATOM     19  C   UNL A   1      34.383  27.573  24.619  1.00  0.00     0.110 C 
BRANCH  19  20
ATOM     20  S   UNL A   1      33.746  28.605  23.290  1.00  0.00    -0.081 SA
BRANCH  20  21
ATOM     21  C   UNL A   1      33.040  27.397  22.242  1.00  0.00     0.195 A 
ATOM     22  N   UNL A   1      33.725  26.466  21.615  1.00  0.00    -0.123 NA
ATOM     23  N   UNL A   1      31.682  27.144  22.108  1.00  0.00    -0.277 N 
ATOM     24  N   UNL A   1      32.826  25.565  21.090  1.00  0.00    -0.138 NA
ATOM     25  C   UNL A   1      31.618  25.959  21.426  1.00  0.00     0.231 A 
BRANCH  23  26
ATOM     26  C   UNL A   1      30.603  27.831  22.694  1.00  0.00     0.049 A 
ATOM     27  C   UNL A   1      29.663  27.083  23.394  1.00  0.00     0.027 A 
ATOM     28  C   UNL A   1      30.349  29.159  22.314  1.00  0.00     0.027 A 
ATOM     29  C   UNL A   1      28.372  27.546  23.436  1.00  0.00     0.002 A 
ATOM     30  C   UNL A   1      29.059  29.653  22.442  1.00  0.00     0.002 A 
ATOM     31  C   UNL A   1      28.070  28.807  22.926  1.00  0.00     0.000 A 
ENDBRANCH  23  26
ENDBRANCH  20  21
ENDBRANCH  19  20
ENDBRANCH  14  19
ENDBRANCH   5   8
ENDBRANCH   3   4
ENDBRANCH   2   3
ENDBRANCH   1   2
BRANCH   1  32
ATOM     32  C   UNL A   1      38.520  21.136  25.430  1.00  0.00     0.002 C 
BRANCH  32  33
ATOM     33  C   UNL A   1      38.942  22.434  26.133  1.00  0.00     0.021 C 
BRANCH  33  34
ATOM     34  C   UNL A   1      40.264  22.382  26.891  1.00  0.00     0.116 C 
BRANCH  34  35
ATOM     35  N   UNL A   1      41.425  22.240  26.017  1.00  0.00    -0.352 N 
ATOM     36  C   UNL A   1      42.313  23.206  25.571  1.00  0.00     0.251 C 
ATOM     37  H   UNL A   1      41.603  21.325  25.699  1.00  0.00     0.163 HD
ATOM     38  O   UNL A   1      43.013  22.995  24.599  1.00  0.00    -0.269 OA
BRANCH  36  39
ATOM     39  C   UNL A   1      42.393  24.499  26.286  1.00  0.00     0.039 A 
ATOM     40  C   UNL A   1      41.606  25.586  25.891  1.00  0.00     0.014 A 
ATOM     41  C   UNL A   1      43.271  24.619  27.359  1.00  0.00     0.014 A 
ATOM     42  C   UNL A   1      41.653  26.760  26.641  1.00  0.00     0.010 A 
ATOM     43  C   UNL A   1      43.207  25.714  28.183  1.00  0.00     0.010 A 
ATOM     44  C   UNL A   1      42.439  26.808  27.803  1.00  0.00    -0.014 A 
BRANCH  44  45
ATOM     45  C   UNL A   1      42.356  27.946  28.714  1.00  0.00     0.031 A 
ATOM     46  C   UNL A   1      43.442  28.945  28.524  1.00  0.00     0.074 A 
ATOM     47  C   UNL A   1      41.279  28.195  29.492  1.00  0.00     0.049 A 
ATOM     48  N   UNL A   1      44.424  29.199  29.324  1.00  0.00    -0.248 NA
ATOM     49  C   UNL A   1      43.556  29.614  27.217  1.00  0.00     0.031 C 
ATOM     50  C   UNL A   1      40.012  27.458  29.545  1.00  0.00     0.029 A 
ATOM     51  N   UNL A   1      41.045  29.240  30.333  1.00  0.00    -0.354 N 
ATOM     52  C   UNL A   1      45.124  30.251  28.739  1.00  0.00     0.074 A 
ATOM     53  C   UNL A   1      44.694  30.299  27.368  1.00  0.00     0.031 C 
ATOM     54  C   UNL A   1      39.077  28.203  30.175  1.00  0.00     0.029 A 
ATOM     55  C   UNL A   1      39.714  29.390  30.715  1.00  0.00     0.049 A 
ATOM     56  H   UNL A   1      41.759  29.841  30.646  1.00  0.00     0.167 HD
ATOM     57  C   UNL A   1      45.780  31.164  29.509  1.00  0.00     0.037 A 
ATOM     58  C   UNL A   1      39.171  30.428  31.405  1.00  0.00     0.037 A 
ATOM     59  C   UNL A   1      45.943  30.672  30.858  1.00  0.00     0.049 A 
ATOM     60  C   UNL A   1      40.291  31.100  32.113  1.00  0.00     0.074 A 
ATOM     61  C   UNL A   1      46.523  29.552  31.422  1.00  0.00     0.029 A 
ATOM     62  N   UNL A   1      45.108  31.186  31.822  1.00  0.00    -0.354 N 
ATOM     63  N   UNL A   1      40.979  30.544  33.072  1.00  0.00    -0.248 NA
ATOM     64  C   UNL A   1      40.946  32.214  31.444  1.00  0.00     0.031 C 
ATOM     65  C   UNL A   1      45.652  29.182  32.490  1.00  0.00     0.029 A 
ATOM     66  C   UNL A   1      44.640  30.140  32.573  1.00  0.00     0.049 A 
ATOM     67  H   UNL A   1      44.887  32.137  31.949  1.00  0.00     0.167 HD
ATOM     68  C   UNL A   1      42.290  30.921  32.829  1.00  0.00     0.074 A 
ATOM     69  C   UNL A   1      42.196  32.027  31.877  1.00  0.00     0.031 C 
ATOM     70  C   UNL A   1      43.333  30.116  33.194  1.00  0.00     0.037 A 
BRANCH  57  71
ATOM     71  C   UNL A   1      45.902  32.637  29.178  1.00  0.00     0.058 A 
ATOM     72  C   UNL A   1      44.733  33.365  28.868  1.00  0.00     0.135 A 
ATOM     73  C   UNL A   1      47.118  33.288  28.865  1.00  0.00     0.135 A 
ATOM     74  F   UNL A   1      43.519  32.851  29.122  1.00  0.00    -0.206 F 
ATOM     75  C   UNL A   1      44.768  34.595  28.211  1.00  0.00     0.059 A 
ATOM     76  C   UNL A   1      47.175  34.537  28.261  1.00  0.00     0.059 A 
ATOM     77  F   UNL A   1      48.312  32.712  29.037  1.00  0.00    -0.206 F 
ATOM     78  C   UNL A   1      45.996  35.165  27.896  1.00  0.00     0.060 A 
BRANCH  78  79
ATOM     79  S   UNL A   1      46.049  36.702  26.961  1.00  0.00     0.124 S 
ATOM     80  O   UNL A   1      46.858  37.542  27.835  1.00  0.00    -0.237 OA
ATOM     81  O   UNL A   1      46.679  36.274  25.717  1.00  0.00    -0.237 OA
ATOM     82  O   UNL A   1      44.641  37.071  26.851  1.00  0.00    -0.744 OA
ENDBRANCH  78  79
ENDBRANCH  57  71
BRANCH  58  83
ATOM     83  C   UNL A   1      37.839  31.070  31.223  1.00  0.00     0.058 A 
ATOM     84  C   UNL A   1      36.834  30.942  32.203  1.00  0.00     0.135 A 
ATOM     85  C   UNL A   1      37.624  32.066  30.249  1.00  0.00     0.135 A 
ATOM     86  F   UNL A   1      36.953  30.024  33.173  1.00  0.00    -0.206 F 
ATOM     87  C   UNL A   1      35.730  31.800  32.261  1.00  0.00     0.059 A 
ATOM     88  C   UNL A   1      36.524  32.924  30.279  1.00  0.00     0.059 A 
ATOM     89  F   UNL A   1      38.530  32.307  29.289  1.00  0.00    -0.206 F 
ATOM     90  C   UNL A   1      35.599  32.809  31.309  1.00  0.00     0.060 A 
BRANCH  90  91
ATOM     91  S   UNL A   1      34.310  34.063  31.505  1.00  0.00     0.124 S 
ATOM     92  O   UNL A   1      33.494  33.493  32.572  1.00  0.00    -0.237 OA
ATOM     93  O   UNL A   1      35.082  35.250  31.856  1.00  0.00    -0.237 OA
ATOM     94  O   UNL A   1      33.679  34.103  30.188  1.00  0.00    -0.744 OA
ENDBRANCH  90  91
ENDBRANCH  58  83
BRANCH  70  95
ATOM     95  C   UNL A   1      43.062  28.990  34.159  1.00  0.00     0.058 A 
ATOM     96  C   UNL A   1      42.991  29.120  35.558  1.00  0.00     0.135 A 
ATOM     97  C   UNL A   1      42.723  27.740  33.617  1.00  0.00     0.135 A 
ATOM     98  F   UNL A   1      43.197  30.302  36.154  1.00  0.00    -0.206 F 
ATOM     99  C   UNL A   1      42.641  28.046  36.380  1.00  0.00     0.059 A 
ATOM    100  C   UNL A   1      42.340  26.666  34.415  1.00  0.00     0.059 A 
ATOM    101  F   UNL A   1      42.713  27.565  32.286  1.00  0.00    -0.206 F 
ATOM    102  C   UNL A   1      42.317  26.821  35.798  1.00  0.00     0.060 A 
BRANCH 102 103
ATOM    103  S   UNL A   1      41.807  25.447  36.854  1.00  0.00     0.124 S 
ATOM    104  O   UNL A   1      41.510  24.404  35.878  1.00  0.00    -0.237 OA
ATOM    105  O   UNL A   1      42.990  25.225  37.680  1.00  0.00    -0.237 OA
ATOM    106  O   UNL A   1      40.650  25.979  37.571  1.00  0.00    -0.744 OA
ENDBRANCH 102 103
ENDBRANCH  70  95
ENDBRANCH  44  45
ENDBRANCH  36  39
ENDBRANCH  34  35
ENDBRANCH  33  34
ENDBRANCH  32  33
ENDBRANCH   1  32
TORSDOF 20
ENDMDL
MODEL 3
REMARK VINA RESULT:     -11.7      2.271      9.189
REMARK SMILES Cc1c(C(=O)NCCCCCCNC(=O)c2ccc(-c3c4nc(c(-c5c(F)cc(S(=O)(=O)[O-])cc5F)c5ccc([nH]5)c(-c5c(F)cc(S(=O)(=O)[O-])cc5F)c5nc(c(-c6c(F)cc(S(=O)(=O)[O-])cc6F)c6ccc3[nH]6)C=C5)C=C4)cc2)sc2c1=C(CSc1nncn1-c1ccccc1)CC(=O)N=2
REMARK SMILES IDX 9 1 8 2 7 3 6 4 4 5 5 6 3 8 1 9 2 10 84 11 82 12 83 13 85 14
REMARK SMILES IDX 102 15 99 16 100 17 101 18 86 19 87 20 88 21 89 22 92 23
REMARK SMILES IDX 90 24 91 25 93 26 94 27 98 28 95 29 97 30 96 31 10 32 11 33
REMARK SMILES IDX 12 34 13 35 14 36 15 38 16 39 17 40 81 41 18 42 80 43 19 44
REMARK SMILES IDX 20 45 21 46 74 47 22 48 79 49 73 50 75 51 23 52 78 53 72 54
REMARK SMILES IDX 71 55 24 57 58 58 37 59 57 60 38 61 41 62 56 63 76 64 39 65
REMARK SMILES IDX 40 66 55 68 77 69 42 70 25 71 26 72 35 73 27 74 28 75 34 76
REMARK SMILES IDX 36 77 29 78 30 79 31 80 32 81 33 82 59 83 60 84 69 85 61 86
REMARK SMILES IDX 62 87 68 88 70 89 63 90 64 91 65 92 66 93 67 94 43 95 44 96
REMARK SMILES IDX 53 97 45 98 46 99 52 100 54 101 47 102 48 103 49 104 50 105
REMARK SMILES IDX 51 106
REMARK H PARENT 6 7 13 37 75 56 41 67
REMARK Flexibility Score: inf
ROOT
ATOM      1  C   UNL A   1      34.850  21.225  25.747  1.00  0.00     0.002 C 
ENDROOT
BRANCH   1   2
ATOM      2  C   UNL A   1      33.422  20.782  26.098  1.00  0.00     0.021 C 
BRANCH   2   3
ATOM      3  C   UNL A   1      32.627  19.998  25.019  1.00  0.00     0.116 C 
BRANCH   3   4
ATOM      4  N   UNL A   1      32.463  20.773  23.762  1.00  0.00    -0.351 N 
ATOM      5  C   UNL A   1      32.445  21.956  23.105  1.00  0.00     0.261 C 
ATOM      6  O   UNL A   1      32.492  21.740  21.879  1.00  0.00    -0.268 OA
ATOM      7  H   UNL A   1      32.277  20.096  23.071  1.00  0.00     0.163 HD
BRANCH   5   8
ATOM      8  C   UNL A   1      32.457  23.435  23.529  1.00  0.00     0.098 A 
ATOM      9  C   UNL A   1      30.607  23.862  25.258  1.00  0.00     0.047 C 
ATOM     10  C   UNL A   1      31.812  24.213  24.446  1.00  0.00    -0.018 A 
ATOM     11  C   UNL A   1      31.794  25.647  24.134  1.00  0.00     0.016 A 
ATOM     12  S   UNL A   1      32.820  24.517  22.079  1.00  0.00    -0.110 S 
ATOM     13  C   UNL A   1      31.820  25.832  22.678  1.00  0.00     0.128 A 
ATOM     14  C   UNL A   1      31.434  26.735  24.841  1.00  0.00    -0.040 C 
ATOM     15  N   UNL A   1      31.273  26.748  21.965  1.00  0.00    -0.202 NA
ATOM     16  C   UNL A   1      30.375  27.584  24.156  1.00  0.00     0.135 C 
ATOM     17  C   UNL A   1      30.529  27.700  22.639  1.00  0.00     0.251 C 
ATOM     18  O   UNL A   1      29.951  28.614  22.055  1.00  0.00    -0.272 OA
BRANCH  14  19
ATOM     19  C   UNL A   1      31.730  27.196  26.252  1.00  0.00     0.110 C 
BRANCH  19  20
ATOM     20  S   UNL A   1      33.424  27.699  26.593  1.00  0.00    -0.081 SA
BRANCH  20  21
ATOM     21  C   UNL A   1      33.233  29.431  26.735  1.00  0.00     0.195 A 
ATOM     22  N   UNL A   1      32.124  30.081  26.458  1.00  0.00    -0.123 NA
ATOM     23  N   UNL A   1      34.137  30.293  27.341  1.00  0.00    -0.277 N 
ATOM     24  N   UNL A   1      32.269  31.372  26.913  1.00  0.00    -0.138 NA
ATOM     25  C   UNL A   1      33.454  31.471  27.472  1.00  0.00     0.231 A 
BRANCH  23  26
ATOM     26  C   UNL A   1      35.401  29.994  27.881  1.00  0.00     0.049 A 
ATOM     27  C   UNL A   1      35.715  30.524  29.127  1.00  0.00     0.027 A 
ATOM     28  C   UNL A   1      36.389  29.445  27.046  1.00  0.00     0.027 A 
ATOM     29  C   UNL A   1      37.033  30.789  29.402  1.00  0.00     0.002 A 
ATOM     30  C   UNL A   1      37.723  29.640  27.376  1.00  0.00     0.002 A 
ATOM     31  C   UNL A   1      38.023  30.383  28.509  1.00  0.00     0.000 A 
ENDBRANCH  23  26
ENDBRANCH  20  21
ENDBRANCH  19  20
ENDBRANCH  14  19
ENDBRANCH   5   8
ENDBRANCH   3   4
ENDBRANCH   2   3
ENDBRANCH   1   2
BRANCH   1  32
ATOM     32  C   UNL A   1      35.155  22.729  25.739  1.00  0.00     0.002 C 
BRANCH  32  33
ATOM     33  C   UNL A   1      36.328  23.231  24.884  1.00  0.00     0.021 C 
BRANCH  33  34
ATOM     34  C   UNL A   1      37.530  23.768  25.653  1.00  0.00     0.116 C 
BRANCH  34  35
ATOM     35  N   UNL A   1      38.243  22.737  26.403  1.00  0.00    -0.352 N 
ATOM     36  C   UNL A   1      39.410  22.838  27.143  1.00  0.00     0.251 C 
ATOM     37  H   UNL A   1      37.835  21.842  26.380  1.00  0.00     0.163 HD
ATOM     38  O   UNL A   1      40.046  21.840  27.424  1.00  0.00    -0.269 OA
BRANCH  36  39
ATOM     39  C   UNL A   1      39.876  24.172  27.581  1.00  0.00     0.039 A 
ATOM     40  C   UNL A   1      38.987  25.250  27.662  1.00  0.00     0.014 A 
ATOM     41  C   UNL A   1      41.217  24.340  27.908  1.00  0.00     0.014 A 
ATOM     42  C   UNL A   1      39.449  26.469  28.155  1.00  0.00     0.010 A 
ATOM     43  C   UNL A   1      41.636  25.488  28.532  1.00  0.00     0.010 A 
ATOM     44  C   UNL A   1      40.772  26.573  28.613  1.00  0.00    -0.014 A 
BRANCH  44  45
ATOM     45  C   UNL A   1      41.226  27.770  29.315  1.00  0.00     0.031 A 
ATOM     46  C   UNL A   1      42.350  28.472  28.637  1.00  0.00     0.074 A 
ATOM     47  C   UNL A   1      40.553  28.324  30.348  1.00  0.00     0.049 A 
ATOM     48  N   UNL A   1      43.576  28.557  29.033  1.00  0.00    -0.248 NA
ATOM     49  C   UNL A   1      42.131  28.988  27.275  1.00  0.00     0.031 C 
ATOM     50  C   UNL A   1      39.266  27.907  30.915  1.00  0.00     0.029 A 
ATOM     51  N   UNL A   1      40.826  29.459  31.047  1.00  0.00    -0.354 N 
ATOM     52  C   UNL A   1      44.218  29.366  28.100  1.00  0.00     0.074 A 
ATOM     53  C   UNL A   1      43.359  29.401  26.947  1.00  0.00     0.031 C 
ATOM     54  C   UNL A   1      38.766  28.896  31.687  1.00  0.00     0.029 A 
ATOM     55  C   UNL A   1      39.763  29.944  31.806  1.00  0.00     0.049 A 
ATOM     56  H   UNL A   1      41.705  29.903  31.019  1.00  0.00     0.167 HD
ATOM     57  C   UNL A   1      45.260  30.162  28.470  1.00  0.00     0.037 A 
ATOM     58  C   UNL A   1      39.699  31.132  32.463  1.00  0.00     0.037 A 
ATOM     59  C   UNL A   1      45.781  29.757  29.755  1.00  0.00     0.049 A 
ATOM     60  C   UNL A   1      41.101  31.582  32.664  1.00  0.00     0.074 A 
ATOM     61  C   UNL A   1      46.296  28.583  30.271  1.00  0.00     0.029 A 
ATOM     62  N   UNL A   1      45.445  30.528  30.843  1.00  0.00    -0.354 N 
ATOM     63  N   UNL A   1      41.958  30.962  33.427  1.00  0.00    -0.248 NA
ATOM     64  C   UNL A   1      41.684  32.456  31.658  1.00  0.00     0.031 C 
ATOM     65  C   UNL A   1      45.794  28.514  31.604  1.00  0.00     0.029 A 
ATOM     66  C   UNL A   1      45.074  29.683  31.857  1.00  0.00     0.049 A 
ATOM     67  H   UNL A   1      45.466  31.511  30.886  1.00  0.00     0.167 HD
ATOM     68  C   UNL A   1      43.152  31.005  32.724  1.00  0.00     0.074 A 
ATOM     69  C   UNL A   1      42.947  32.021  31.694  1.00  0.00     0.031 C 
ATOM     70  C   UNL A   1      44.082  30.013  32.858  1.00  0.00     0.037 A 
BRANCH  57  71
ATOM     71  C   UNL A   1      45.539  31.536  27.893  1.00  0.00     0.058 A 
ATOM     72  C   UNL A   1      46.846  31.836  27.451  1.00  0.00     0.135 A 
ATOM     73  C   UNL A   1      44.677  32.648  28.025  1.00  0.00     0.135 A 
ATOM     74  F   UNL A   1      47.754  30.860  27.286  1.00  0.00    -0.206 F 
ATOM     75  C   UNL A   1      47.288  33.144  27.252  1.00  0.00     0.059 A 
ATOM     76  C   UNL A   1      45.082  33.954  27.778  1.00  0.00     0.059 A 
ATOM     77  F   UNL A   1      43.428  32.545  28.492  1.00  0.00    -0.206 F 
ATOM     78  C   UNL A   1      46.401  34.198  27.436  1.00  0.00     0.060 A 
BRANCH  78  79
ATOM     79  S   UNL A   1      46.989  35.892  27.278  1.00  0.00     0.124 S 
ATOM     80  O   UNL A   1      46.831  36.118  25.847  1.00  0.00    -0.237 OA
ATOM     81  O   UNL A   1      46.067  36.611  28.148  1.00  0.00    -0.237 OA
ATOM     82  O   UNL A   1      48.365  35.811  27.759  1.00  0.00    -0.744 OA
ENDBRANCH  78  79
ENDBRANCH  57  71
BRANCH  58  83
ATOM     83  C   UNL A   1      38.534  32.048  32.619  1.00  0.00     0.058 A 
ATOM     84  C   UNL A   1      38.197  32.968  31.606  1.00  0.00     0.135 A 
ATOM     85  C   UNL A   1      37.554  31.838  33.610  1.00  0.00     0.135 A 
ATOM     86  F   UNL A   1      39.065  33.230  30.618  1.00  0.00    -0.206 F 
ATOM     87  C   UNL A   1      36.938  33.575  31.534  1.00  0.00     0.059 A 
ATOM     88  C   UNL A   1      36.298  32.443  33.567  1.00  0.00     0.059 A 
ATOM     89  F   UNL A   1      37.747  30.956  34.603  1.00  0.00    -0.206 F 
ATOM     90  C   UNL A   1      35.983  33.283  32.505  1.00  0.00     0.060 A 
BRANCH  90  91
ATOM     91  S   UNL A   1      34.287  33.877  32.300  1.00  0.00     0.124 S 
ATOM     92  O   UNL A   1      33.536  32.937  33.125  1.00  0.00    -0.237 OA
ATOM     93  O   UNL A   1      34.373  35.243  32.804  1.00  0.00    -0.237 OA
ATOM     94  O   UNL A   1      34.063  33.762  30.861  1.00  0.00    -0.744 OA
ENDBRANCH  90  91
ENDBRANCH  58  83
BRANCH  70  95
ATOM     95  C   UNL A   1      43.952  29.062  34.021  1.00  0.00     0.058 A 
ATOM     96  C   UNL A   1      44.439  29.297  35.319  1.00  0.00     0.135 A 
ATOM     97  C   UNL A   1      43.169  27.912  33.832  1.00  0.00     0.135 A 
ATOM     98  F   UNL A   1      45.107  30.421  35.614  1.00  0.00    -0.206 F 
ATOM     99  C   UNL A   1      44.196  28.409  36.369  1.00  0.00     0.059 A 
ATOM    100  C   UNL A   1      42.887  27.030  34.871  1.00  0.00     0.059 A 
ATOM    101  F   UNL A   1      42.625  27.659  32.631  1.00  0.00    -0.206 F 
ATOM    102  C   UNL A   1      43.417  27.276  36.135  1.00  0.00     0.060 A 
BRANCH 102 103
ATOM    103  S   UNL A   1      43.051  26.155  37.503  1.00  0.00     0.124 S 
ATOM    104  O   UNL A   1      43.447  24.862  36.954  1.00  0.00    -0.237 OA
ATOM    105  O   UNL A   1      43.895  26.675  38.574  1.00  0.00    -0.237 OA
ATOM    106  O   UNL A   1      41.616  26.331  37.713  1.00  0.00    -0.744 OA
ENDBRANCH 102 103
ENDBRANCH  70  95
ENDBRANCH  44  45
ENDBRANCH  36  39
ENDBRANCH  34  35
ENDBRANCH  33  34
ENDBRANCH  32  33
ENDBRANCH   1  32
TORSDOF 20
ENDMDL
