MODEL 1
REMARK VINA RESULT:     -11.1      0.000      0.000
REMARK SMILES COc1ccc(C(=O)c2ccccc2)cc1[C@@H](C)C(=O)NCCCCCCNC(=O)c1ccc(-c2c3nc(c(-c4c(F)cc(S(=O)(=O)[O-])cc4F)c4ccc([nH]4)c(-c4c(F)cc(S(=O)(=O)[O-])cc4F)c4nc(c(-c5c(F)cc(S(=O)(=O)[O-])cc5F)c5ccc2[nH]5)C=C4)C=C3)cc1
REMARK SMILES IDX 24 1 23 2 22 3 21 4 19 5 20 6 17 8 18 9 16 10 3 11 4 12 5 13
REMARK SMILES IDX 15 14 6 15 2 16 1 17 7 18 8 19 9 20 10 21 14 22 11 23 13 24
REMARK SMILES IDX 12 25 25 26 26 27 27 28 28 29 29 30 30 32 31 33 32 34 96 35
REMARK SMILES IDX 33 36 95 37 34 38 35 39 36 40 89 41 37 42 94 43 88 44 90 45
REMARK SMILES IDX 38 46 93 47 87 48 86 49 39 51 73 52 52 53 72 54 53 55 56 56
REMARK SMILES IDX 71 57 91 58 54 59 55 60 70 62 92 63 57 64 40 65 41 66 50 67
REMARK SMILES IDX 42 68 43 69 49 70 51 71 44 72 45 73 46 74 47 75 48 76 74 77
REMARK SMILES IDX 75 78 84 79 76 80 77 81 83 82 85 83 78 84 79 85 80 86 81 87
REMARK SMILES IDX 82 88 58 89 59 90 68 91 60 92 61 93 67 94 69 95 62 96 63 97
REMARK SMILES IDX 64 98 65 99 66 100
REMARK H PARENT 21 7 28 31 90 50 56 61
REMARK Flexibility Score: inf
ROOT
ATOM      1  C   UNL A   1      47.205  21.083  37.878  1.00  0.00     0.002 C 
ENDROOT
BRANCH   1   2
ATOM      2  C   UNL A   1      46.329  20.918  39.125  1.00  0.00     0.021 C 
BRANCH   2   3
ATOM      3  C   UNL A   1      46.702  19.748  40.043  1.00  0.00     0.116 C 
BRANCH   3   4
ATOM      4  N   UNL A   1      46.005  19.812  41.314  1.00  0.00    -0.356 N 
ATOM      5  C   UNL A   1      45.555  18.868  42.182  1.00  0.00     0.227 C 
ATOM      6  O   UNL A   1      44.928  19.299  43.160  1.00  0.00    -0.274 OA
ATOM      7  H   UNL A   1      45.819  20.733  41.611  1.00  0.00     0.163 HD
BRANCH   5   8
ATOM      8  C   UNL A   1      45.753  17.349  42.018  1.00  0.00     0.109 C 
ATOM      9  C   UNL A   1      46.977  16.912  41.213  1.00  0.00     0.023 C 
BRANCH   8  10
ATOM     10  C   UNL A   1      44.469  16.611  41.665  1.00  0.00     0.007 A 
ATOM     11  C   UNL A   1      43.927  16.646  40.370  1.00  0.00     0.122 A 
ATOM     12  C   UNL A   1      42.753  15.956  40.055  1.00  0.00     0.047 A 
ATOM     13  C   UNL A   1      42.108  15.195  41.028  1.00  0.00     0.016 A 
ATOM     14  C   UNL A   1      43.787  15.851  42.632  1.00  0.00     0.020 A 
ATOM     15  C   UNL A   1      42.614  15.144  42.331  1.00  0.00     0.023 A 
BRANCH  11  16
ATOM     16  O   UNL A   1      44.462  17.445  39.396  1.00  0.00    -0.496 OA
ATOM     17  C   UNL A   1      44.182  16.936  38.090  1.00  0.00     0.278 C 
ENDBRANCH  11  16
BRANCH  15  18
ATOM     18  C   UNL A   1      41.913  14.273  43.318  1.00  0.00     0.193 C 
ATOM     19  O   UNL A   1      40.856  14.665  43.808  1.00  0.00    -0.289 OA
BRANCH  18  20
ATOM     20  C   UNL A   1      42.386  12.917  43.688  1.00  0.00     0.022 A 
ATOM     21  C   UNL A   1      42.069  11.871  42.815  1.00  0.00     0.012 A 
ATOM     22  C   UNL A   1      43.073  12.644  44.877  1.00  0.00     0.012 A 
ATOM     23  C   UNL A   1      42.458  10.569  43.119  1.00  0.00     0.001 A 
ATOM     24  C   UNL A   1      43.485  11.339  45.161  1.00  0.00     0.001 A 
ATOM     25  C   UNL A   1      43.177  10.302  44.283  1.00  0.00     0.000 A 
ENDBRANCH  18  20
ENDBRANCH  15  18
ENDBRANCH   8  10
ENDBRANCH   5   8
ENDBRANCH   3   4
ENDBRANCH   2   3
ENDBRANCH   1   2
BRANCH   1  26
ATOM     26  C   UNL A   1      46.843  22.247  36.943  1.00  0.00     0.002 C 
BRANCH  26  27
ATOM     27  C   UNL A   1      47.874  23.378  36.826  1.00  0.00     0.021 C 
BRANCH  27  28
ATOM     28  C   UNL A   1      47.303  24.786  36.649  1.00  0.00     0.116 C 
BRANCH  28  29
ATOM     29  N   UNL A   1      47.786  25.722  37.652  1.00  0.00    -0.352 N 
ATOM     30  C   UNL A   1      47.417  27.029  37.880  1.00  0.00     0.251 C 
ATOM     31  H   UNL A   1      48.480  25.368  38.255  1.00  0.00     0.163 HD
ATOM     32  O   UNL A   1      48.056  27.704  38.683  1.00  0.00    -0.269 OA
BRANCH  30  33
ATOM     33  C   UNL A   1      46.273  27.642  37.157  1.00  0.00     0.039 A 
ATOM     34  C   UNL A   1      44.973  27.234  37.471  1.00  0.00     0.014 A 
ATOM     35  C   UNL A   1      46.468  28.569  36.132  1.00  0.00     0.014 A 
ATOM     36  C   UNL A   1      43.878  27.796  36.801  1.00  0.00     0.010 A 
ATOM     37  C   UNL A   1      45.369  29.177  35.507  1.00  0.00     0.010 A 
ATOM     38  C   UNL A   1      44.056  28.799  35.831  1.00  0.00    -0.014 A 
BRANCH  38  39
ATOM     39  C   UNL A   1      42.878  29.444  35.169  1.00  0.00     0.031 A 
ATOM     40  C   UNL A   1      42.156  30.605  35.810  1.00  0.00     0.074 A 
ATOM     41  C   UNL A   1      42.428  28.975  33.985  1.00  0.00     0.049 A 
ATOM     42  N   UNL A   1      41.121  31.280  35.369  1.00  0.00    -0.248 NA
ATOM     43  C   UNL A   1      42.646  31.056  37.120  1.00  0.00     0.031 C 
ATOM     44  C   UNL A   1      42.987  27.833  33.258  1.00  0.00     0.029 A 
ATOM     45  N   UNL A   1      41.398  29.404  33.179  1.00  0.00    -0.354 N 
ATOM     46  C   UNL A   1      40.832  32.225  36.347  1.00  0.00     0.074 A 
ATOM     47  C   UNL A   1      41.772  32.006  37.427  1.00  0.00     0.031 C 
ATOM     48  C   UNL A   1      42.314  27.672  32.107  1.00  0.00     0.029 A 
ATOM     49  C   UNL A   1      41.255  28.674  32.022  1.00  0.00     0.049 A 
ATOM     50  H   UNL A   1      40.815  30.163  33.411  1.00  0.00     0.167 HD
ATOM     51  C   UNL A   1      39.892  33.202  36.345  1.00  0.00     0.037 A 
ATOM     52  C   UNL A   1      40.378  28.790  31.004  1.00  0.00     0.037 A 
ATOM     53  C   UNL A   1      38.970  33.454  35.266  1.00  0.00     0.049 A 
ATOM     54  C   UNL A   1      39.344  29.884  31.020  1.00  0.00     0.074 A 
ATOM     55  C   UNL A   1      38.029  34.466  35.159  1.00  0.00     0.029 A 
ATOM     56  N   UNL A   1      38.867  32.696  34.110  1.00  0.00    -0.354 N 
ATOM     57  N   UNL A   1      39.135  30.807  31.926  1.00  0.00    -0.248 NA
ATOM     58  C   UNL A   1      38.429  29.954  29.870  1.00  0.00     0.031 C 
ATOM     59  C   UNL A   1      37.331  34.297  33.958  1.00  0.00     0.029 A 
ATOM     60  C   UNL A   1      37.868  33.205  33.296  1.00  0.00     0.049 A 
ATOM     61  H   UNL A   1      39.423  31.911  33.900  1.00  0.00     0.167 HD
ATOM     62  C   UNL A   1      38.087  31.584  31.442  1.00  0.00     0.074 A 
ATOM     63  C   UNL A   1      37.708  31.029  30.161  1.00  0.00     0.031 C 
ATOM     64  C   UNL A   1      37.496  32.661  32.014  1.00  0.00     0.037 A 
BRANCH  51  65
ATOM     65  C   UNL A   1      39.812  34.096  37.553  1.00  0.00     0.058 A 
ATOM     66  C   UNL A   1      40.430  35.356  37.575  1.00  0.00     0.135 A 
ATOM     67  C   UNL A   1      39.061  33.715  38.677  1.00  0.00     0.135 A 
ATOM     68  F   UNL A   1      41.167  35.766  36.529  1.00  0.00    -0.206 F 
ATOM     69  C   UNL A   1      40.334  36.195  38.681  1.00  0.00     0.059 A 
ATOM     70  C   UNL A   1      38.929  34.549  39.784  1.00  0.00     0.059 A 
ATOM     71  F   UNL A   1      38.442  32.524  38.705  1.00  0.00    -0.206 F 
ATOM     72  C   UNL A   1      39.583  35.781  39.782  1.00  0.00     0.060 A 
BRANCH  72  73
ATOM     73  S   UNL A   1      39.464  36.883  41.208  1.00  0.00     0.124 S 
ATOM     74  O   UNL A   1      38.554  36.137  42.073  1.00  0.00    -0.237 OA
ATOM     75  O   UNL A   1      40.849  36.959  41.662  1.00  0.00    -0.237 OA
ATOM     76  O   UNL A   1      38.924  38.114  40.642  1.00  0.00    -0.744 OA
ENDBRANCH  72  73
ENDBRANCH  51  65
BRANCH  52  77
ATOM     77  C   UNL A   1      40.449  27.845  29.856  1.00  0.00     0.058 A 
ATOM     78  C   UNL A   1      39.567  26.760  29.758  1.00  0.00     0.135 A 
ATOM     79  C   UNL A   1      41.400  28.012  28.838  1.00  0.00     0.135 A 
ATOM     80  F   UNL A   1      38.648  26.554  30.713  1.00  0.00    -0.206 F 
ATOM     81  C   UNL A   1      39.633  25.862  28.697  1.00  0.00     0.059 A 
ATOM     82  C   UNL A   1      41.471  27.141  27.756  1.00  0.00     0.059 A 
ATOM     83  F   UNL A   1      42.257  29.044  28.880  1.00  0.00    -0.206 F 
ATOM     84  C   UNL A   1      40.588  26.062  27.700  1.00  0.00     0.060 A 
BRANCH  84  85
ATOM     85  S   UNL A   1      40.633  24.925  26.298  1.00  0.00     0.124 S 
ATOM     86  O   UNL A   1      41.366  23.797  26.859  1.00  0.00    -0.237 OA
ATOM     87  O   UNL A   1      39.215  24.701  26.037  1.00  0.00    -0.237 OA
ATOM     88  O   UNL A   1      41.336  25.690  25.271  1.00  0.00    -0.744 OA
ENDBRANCH  84  85
ENDBRANCH  52  77
BRANCH  64  89
ATOM     89  C   UNL A   1      36.395  33.346  31.248  1.00  0.00     0.058 A 
ATOM     90  C   UNL A   1      35.059  33.304  31.677  1.00  0.00     0.135 A 
ATOM     91  C   UNL A   1      36.689  34.097  30.098  1.00  0.00     0.135 A 
ATOM     92  F   UNL A   1      34.722  32.595  32.766  1.00  0.00    -0.206 F 
ATOM     93  C   UNL A   1      34.051  33.967  30.982  1.00  0.00     0.059 A 
ATOM     94  C   UNL A   1      35.701  34.786  29.401  1.00  0.00     0.059 A 
ATOM     95  F   UNL A   1      37.951  34.177  29.647  1.00  0.00    -0.206 F 
ATOM     96  C   UNL A   1      34.382  34.707  29.844  1.00  0.00     0.060 A 
BRANCH  96  97
ATOM     97  S   UNL A   1      33.071  35.591  28.972  1.00  0.00     0.124 S 
ATOM     98  O   UNL A   1      32.198  35.985  30.074  1.00  0.00    -0.237 OA
ATOM     99  O   UNL A   1      33.800  36.676  28.323  1.00  0.00    -0.237 OA
ATOM    100  O   UNL A   1      32.525  34.583  28.068  1.00  0.00    -0.744 OA
ENDBRANCH  96  97
ENDBRANCH  64  89
ENDBRANCH  38  39
ENDBRANCH  30  33
ENDBRANCH  28  29
ENDBRANCH  27  28
ENDBRANCH  26  27
ENDBRANCH   1  26
TORSDOF 20
ENDMDL
MODEL 2
REMARK VINA RESULT:     -10.9      9.149     15.457
REMARK SMILES COc1ccc(C(=O)c2ccccc2)cc1[C@@H](C)C(=O)NCCCCCCNC(=O)c1ccc(-c2c3nc(c(-c4c(F)cc(S(=O)(=O)[O-])cc4F)c4ccc([nH]4)c(-c4c(F)cc(S(=O)(=O)[O-])cc4F)c4nc(c(-c5c(F)cc(S(=O)(=O)[O-])cc5F)c5ccc2[nH]5)C=C4)C=C3)cc1
REMARK SMILES IDX 24 1 23 2 22 3 21 4 19 5 20 6 17 8 18 9 16 10 3 11 4 12 5 13
REMARK SMILES IDX 15 14 6 15 2 16 1 17 7 18 8 19 9 20 10 21 14 22 11 23 13 24
REMARK SMILES IDX 12 25 25 26 26 27 27 28 28 29 29 30 30 32 31 33 32 34 96 35
REMARK SMILES IDX 33 36 95 37 34 38 35 39 36 40 89 41 37 42 94 43 88 44 90 45
REMARK SMILES IDX 38 46 93 47 87 48 86 49 39 51 73 52 52 53 72 54 53 55 56 56
REMARK SMILES IDX 71 57 91 58 54 59 55 60 70 62 92 63 57 64 40 65 41 66 50 67
REMARK SMILES IDX 42 68 43 69 49 70 51 71 44 72 45 73 46 74 47 75 48 76 74 77
REMARK SMILES IDX 75 78 84 79 76 80 77 81 83 82 85 83 78 84 79 85 80 86 81 87
REMARK SMILES IDX 82 88 58 89 59 90 68 91 60 92 61 93 67 94 69 95 62 96 63 97
REMARK SMILES IDX 64 98 65 99 66 100
REMARK H PARENT 21 7 28 31 90 50 56 61
REMARK Flexibility Score: inf
ROOT
ATOM      1  C   UNL A   1      43.171  35.269  27.457  1.00  0.00     0.002 C 
ENDROOT
BRANCH   1   2
ATOM      2  C   UNL A   1      42.916  35.474  28.955  1.00  0.00     0.021 C 
BRANCH   2   3
ATOM      3  C   UNL A   1      41.582  34.930  29.479  1.00  0.00     0.116 C 
BRANCH   3   4
ATOM      4  N   UNL A   1      41.580  34.798  30.923  1.00  0.00    -0.356 N 
ATOM      5  C   UNL A   1      40.809  34.096  31.796  1.00  0.00     0.227 C 
ATOM      6  O   UNL A   1      41.060  34.281  32.996  1.00  0.00    -0.274 OA
ATOM      7  H   UNL A   1      42.285  35.325  31.365  1.00  0.00     0.163 HD
BRANCH   5   8
ATOM      8  C   UNL A   1      39.671  33.137  31.399  1.00  0.00     0.109 C 
ATOM      9  C   UNL A   1      39.124  33.292  29.980  1.00  0.00     0.023 C 
BRANCH   8  10
ATOM     10  C   UNL A   1      38.603  32.994  32.475  1.00  0.00     0.007 A 
ATOM     11  C   UNL A   1      38.663  31.981  33.446  1.00  0.00     0.122 A 
ATOM     12  C   UNL A   1      37.683  31.865  34.435  1.00  0.00     0.047 A 
ATOM     13  C   UNL A   1      36.631  32.777  34.486  1.00  0.00     0.016 A 
ATOM     14  C   UNL A   1      37.520  33.889  32.538  1.00  0.00     0.020 A 
ATOM     15  C   UNL A   1      36.534  33.793  33.530  1.00  0.00     0.023 A 
BRANCH  11  16
ATOM     16  O   UNL A   1      39.619  31.003  33.397  1.00  0.00    -0.496 OA
ATOM     17  C   UNL A   1      40.675  31.255  34.326  1.00  0.00     0.278 C 
ENDBRANCH  11  16
BRANCH  15  18
ATOM     18  C   UNL A   1      35.417  34.772  33.664  1.00  0.00     0.193 C 
ATOM     19  O   UNL A   1      35.163  35.233  34.775  1.00  0.00    -0.289 OA
BRANCH  18  20
ATOM     20  C   UNL A   1      34.636  35.280  32.510  1.00  0.00     0.022 A 
ATOM     21  C   UNL A   1      34.128  36.578  32.605  1.00  0.00     0.012 A 
ATOM     22  C   UNL A   1      34.351  34.505  31.379  1.00  0.00     0.012 A 
ATOM     23  C   UNL A   1      33.362  37.104  31.569  1.00  0.00     0.001 A 
ATOM     24  C   UNL A   1      33.606  35.050  30.330  1.00  0.00     0.001 A 
ATOM     25  C   UNL A   1      33.111  36.349  30.425  1.00  0.00     0.000 A 
ENDBRANCH  18  20
ENDBRANCH  15  18
ENDBRANCH   8  10
ENDBRANCH   5   8
ENDBRANCH   3   4
ENDBRANCH   2   3
ENDBRANCH   1   2
BRANCH   1  26
ATOM     26  C   UNL A   1      43.676  36.494  26.680  1.00  0.00     0.002 C 
BRANCH  26  27
ATOM     27  C   UNL A   1      44.683  37.398  27.406  1.00  0.00     0.021 C 
BRANCH  27  28
ATOM     28  C   UNL A   1      45.954  37.740  26.627  1.00  0.00     0.116 C 
BRANCH  28  29
ATOM     29  N   UNL A   1      47.134  37.808  27.474  1.00  0.00    -0.352 N 
ATOM     30  C   UNL A   1      47.725  36.824  28.236  1.00  0.00     0.251 C 
ATOM     31  H   UNL A   1      47.575  38.688  27.509  1.00  0.00     0.163 HD
ATOM     32  O   UNL A   1      48.633  37.122  29.006  1.00  0.00    -0.269 OA
BRANCH  30  33
ATOM     33  C   UNL A   1      47.268  35.412  28.155  1.00  0.00     0.039 A 
ATOM     34  C   UNL A   1      47.164  34.802  26.902  1.00  0.00     0.014 A 
ATOM     35  C   UNL A   1      46.882  34.703  29.294  1.00  0.00     0.014 A 
ATOM     36  C   UNL A   1      46.732  33.471  26.801  1.00  0.00     0.010 A 
ATOM     37  C   UNL A   1      46.512  33.353  29.197  1.00  0.00     0.010 A 
ATOM     38  C   UNL A   1      46.430  32.716  27.949  1.00  0.00    -0.014 A 
BRANCH  38  39
ATOM     39  C   UNL A   1      46.036  31.276  27.837  1.00  0.00     0.031 A 
ATOM     40  C   UNL A   1      44.609  30.833  28.059  1.00  0.00     0.074 A 
ATOM     41  C   UNL A   1      46.968  30.341  27.551  1.00  0.00     0.049 A 
ATOM     42  N   UNL A   1      44.100  29.626  27.996  1.00  0.00    -0.248 NA
ATOM     43  C   UNL A   1      43.633  31.874  28.413  1.00  0.00     0.031 C 
ATOM     44  C   UNL A   1      48.396  30.601  27.354  1.00  0.00     0.029 A 
ATOM     45  N   UNL A   1      46.854  28.981  27.375  1.00  0.00    -0.354 N 
ATOM     46  C   UNL A   1      42.752  29.760  28.310  1.00  0.00     0.074 A 
ATOM     47  C   UNL A   1      42.533  31.160  28.610  1.00  0.00     0.031 C 
ATOM     48  C   UNL A   1      49.016  29.448  27.056  1.00  0.00     0.029 A 
ATOM     49  C   UNL A   1      48.043  28.358  27.071  1.00  0.00     0.049 A 
ATOM     50  H   UNL A   1      46.001  28.498  27.459  1.00  0.00     0.167 HD
ATOM     51  C   UNL A   1      41.778  28.817  28.328  1.00  0.00     0.037 A 
ATOM     52  C   UNL A   1      48.328  27.062  26.832  1.00  0.00     0.037 A 
ATOM     53  C   UNL A   1      41.972  27.426  28.002  1.00  0.00     0.049 A 
ATOM     54  C   UNL A   1      47.230  26.032  26.853  1.00  0.00     0.074 A 
ATOM     55  C   UNL A   1      41.022  26.420  27.933  1.00  0.00     0.029 A 
ATOM     56  N   UNL A   1      43.190  26.842  27.693  1.00  0.00    -0.354 N 
ATOM     57  N   UNL A   1      45.951  26.196  27.086  1.00  0.00    -0.248 NA
ATOM     58  C   UNL A   1      47.615  24.640  26.570  1.00  0.00     0.031 C 
ATOM     59  C   UNL A   1      41.671  25.220  27.620  1.00  0.00     0.029 A 
ATOM     60  C   UNL A   1      43.018  25.488  27.451  1.00  0.00     0.049 A 
ATOM     61  H   UNL A   1      44.049  27.319  27.651  1.00  0.00     0.167 HD
ATOM     62  C   UNL A   1      45.376  24.936  26.951  1.00  0.00     0.074 A 
ATOM     63  C   UNL A   1      46.443  24.021  26.607  1.00  0.00     0.031 C 
ATOM     64  C   UNL A   1      44.078  24.576  27.098  1.00  0.00     0.037 A 
BRANCH  51  65
ATOM     65  C   UNL A   1      40.388  29.257  28.702  1.00  0.00     0.058 A 
ATOM     66  C   UNL A   1      39.411  29.514  27.727  1.00  0.00     0.135 A 
ATOM     67  C   UNL A   1      40.012  29.367  30.051  1.00  0.00     0.135 A 
ATOM     68  F   UNL A   1      39.720  29.430  26.423  1.00  0.00    -0.206 F 
ATOM     69  C   UNL A   1      38.119  29.894  28.073  1.00  0.00     0.059 A 
ATOM     70  C   UNL A   1      38.717  29.722  30.422  1.00  0.00     0.059 A 
ATOM     71  F   UNL A   1      40.904  29.126  31.024  1.00  0.00    -0.206 F 
ATOM     72  C   UNL A   1      37.781  29.998  29.424  1.00  0.00     0.060 A 
BRANCH  72  73
ATOM     73  S   UNL A   1      36.099  30.488  29.858  1.00  0.00     0.124 S 
ATOM     74  O   UNL A   1      35.936  29.844  31.158  1.00  0.00    -0.237 OA
ATOM     75  O   UNL A   1      36.193  31.945  29.880  1.00  0.00    -0.237 OA
ATOM     76  O   UNL A   1      35.293  29.931  28.776  1.00  0.00    -0.744 OA
ENDBRANCH  72  73
ENDBRANCH  51  65
BRANCH  52  77
ATOM     77  C   UNL A   1      49.727  26.657  26.527  1.00  0.00     0.058 A 
ATOM     78  C   UNL A   1      50.621  26.319  27.553  1.00  0.00     0.135 A 
ATOM     79  C   UNL A   1      50.193  26.599  25.205  1.00  0.00     0.135 A 
ATOM     80  F   UNL A   1      50.224  26.369  28.833  1.00  0.00    -0.206 F 
ATOM     81  C   UNL A   1      51.936  25.953  27.281  1.00  0.00     0.059 A 
ATOM     82  C   UNL A   1      51.496  26.214  24.907  1.00  0.00     0.059 A 
ATOM     83  F   UNL A   1      49.371  26.899  24.188  1.00  0.00    -0.206 F 
ATOM     84  C   UNL A   1      52.363  25.902  25.954  1.00  0.00     0.060 A 
BRANCH  84  85
ATOM     85  S   UNL A   1      54.054  25.373  25.605  1.00  0.00     0.124 S 
ATOM     86  O   UNL A   1      54.526  25.004  26.934  1.00  0.00    -0.237 OA
ATOM     87  O   UNL A   1      53.846  24.271  24.671  1.00  0.00    -0.237 OA
ATOM     88  O   UNL A   1      54.664  26.567  25.025  1.00  0.00    -0.744 OA
ENDBRANCH  84  85
ENDBRANCH  52  77
BRANCH  64  89
ATOM     89  C   UNL A   1      43.717  23.135  26.854  1.00  0.00     0.058 A 
ATOM     90  C   UNL A   1      43.319  22.285  27.898  1.00  0.00     0.135 A 
ATOM     91  C   UNL A   1      43.721  22.611  25.551  1.00  0.00     0.135 A 
ATOM     92  F   UNL A   1      43.304  22.733  29.164  1.00  0.00    -0.206 F 
ATOM     93  C   UNL A   1      42.956  20.962  27.662  1.00  0.00     0.059 A 
ATOM     94  C   UNL A   1      43.339  21.299  25.288  1.00  0.00     0.059 A 
ATOM     95  F   UNL A   1      44.086  23.381  24.513  1.00  0.00    -0.206 F 
ATOM     96  C   UNL A   1      42.968  20.478  26.352  1.00  0.00     0.060 A 
BRANCH  96  97
ATOM     97  S   UNL A   1      42.460  18.770  26.053  1.00  0.00     0.124 S 
ATOM     98  O   UNL A   1      42.688  18.162  27.360  1.00  0.00    -0.237 OA
ATOM     99  O   UNL A   1      41.063  18.921  25.659  1.00  0.00    -0.237 OA
ATOM    100  O   UNL A   1      43.359  18.330  24.990  1.00  0.00    -0.744 OA
ENDBRANCH  96  97
ENDBRANCH  64  89
ENDBRANCH  38  39
ENDBRANCH  30  33
ENDBRANCH  28  29
ENDBRANCH  27  28
ENDBRANCH  26  27
ENDBRANCH   1  26
TORSDOF 20
ENDMDL
MODEL 3
REMARK VINA RESULT:     -10.8     10.203     20.863
REMARK SMILES COc1ccc(C(=O)c2ccccc2)cc1[C@@H](C)C(=O)NCCCCCCNC(=O)c1ccc(-c2c3nc(c(-c4c(F)cc(S(=O)(=O)[O-])cc4F)c4ccc([nH]4)c(-c4c(F)cc(S(=O)(=O)[O-])cc4F)c4nc(c(-c5c(F)cc(S(=O)(=O)[O-])cc5F)c5ccc2[nH]5)C=C4)C=C3)cc1
REMARK SMILES IDX 24 1 23 2 22 3 21 4 19 5 20 6 17 8 18 9 16 10 3 11 4 12 5 13
REMARK SMILES IDX 15 14 6 15 2 16 1 17 7 18 8 19 9 20 10 21 14 22 11 23 13 24
REMARK SMILES IDX 12 25 25 26 26 27 27 28 28 29 29 30 30 32 31 33 32 34 96 35
REMARK SMILES IDX 33 36 95 37 34 38 35 39 36 40 89 41 37 42 94 43 88 44 90 45
REMARK SMILES IDX 38 46 93 47 87 48 86 49 39 51 73 52 52 53 72 54 53 55 56 56
REMARK SMILES IDX 71 57 91 58 54 59 55 60 70 62 92 63 57 64 40 65 41 66 50 67
REMARK SMILES IDX 42 68 43 69 49 70 51 71 44 72 45 73 46 74 47 75 48 76 74 77
REMARK SMILES IDX 75 78 84 79 76 80 77 81 83 82 85 83 78 84 79 85 80 86 81 87
REMARK SMILES IDX 82 88 58 89 59 90 68 91 60 92 61 93 67 94 69 95 62 96 63 97
REMARK SMILES IDX 64 98 65 99 66 100
REMARK H PARENT 21 7 28 31 90 50 56 61
REMARK Flexibility Score: inf
ROOT
ATOM      1  C   UNL A   1      46.077  41.295  27.544  1.00  0.00     0.002 C 
ENDROOT
BRANCH   1   2
ATOM      2  C   UNL A   1      45.962  42.125  26.260  1.00  0.00     0.021 C 
BRANCH   2   3
ATOM      3  C   UNL A   1      44.615  42.825  26.045  1.00  0.00     0.116 C 
BRANCH   3   4
ATOM      4  N   UNL A   1      43.979  42.412  24.809  1.00  0.00    -0.356 N 
ATOM      5  C   UNL A   1      44.027  42.876  23.533  1.00  0.00     0.227 C 
ATOM      6  O   UNL A   1      43.279  42.301  22.729  1.00  0.00    -0.274 OA
ATOM      7  H   UNL A   1      43.390  41.629  24.916  1.00  0.00     0.163 HD
BRANCH   5   8
ATOM      8  C   UNL A   1      44.905  44.045  23.049  1.00  0.00     0.109 C 
ATOM      9  C   UNL A   1      44.515  45.435  23.551  1.00  0.00     0.023 C 
BRANCH   8  10
ATOM     10  C   UNL A   1      45.227  43.979  21.561  1.00  0.00     0.007 A 
ATOM     11  C   UNL A   1      46.487  43.572  21.095  1.00  0.00     0.122 A 
ATOM     12  C   UNL A   1      46.768  43.505  19.728  1.00  0.00     0.047 A 
ATOM     13  C   UNL A   1      45.782  43.826  18.796  1.00  0.00     0.016 A 
ATOM     14  C   UNL A   1      44.257  44.316  20.600  1.00  0.00     0.020 A 
ATOM     15  C   UNL A   1      44.519  44.244  19.224  1.00  0.00     0.023 A 
BRANCH  11  16
ATOM     16  O   UNL A   1      47.522  43.330  21.957  1.00  0.00    -0.496 OA
ATOM     17  C   UNL A   1      48.767  43.777  21.417  1.00  0.00     0.278 C 
ENDBRANCH  11  16
BRANCH  15  18
ATOM     18  C   UNL A   1      43.487  44.524  18.184  1.00  0.00     0.193 C 
ATOM     19  O   UNL A   1      42.765  43.605  17.803  1.00  0.00    -0.289 OA
BRANCH  18  20
ATOM     20  C   UNL A   1      43.234  45.877  17.632  1.00  0.00     0.022 A 
ATOM     21  C   UNL A   1      44.345  46.610  17.205  1.00  0.00     0.012 A 
ATOM     22  C   UNL A   1      41.959  46.453  17.575  1.00  0.00     0.012 A 
ATOM     23  C   UNL A   1      44.178  47.899  16.705  1.00  0.00     0.001 A 
ATOM     24  C   UNL A   1      41.796  47.736  17.044  1.00  0.00     0.001 A 
ATOM     25  C   UNL A   1      42.905  48.458  16.610  1.00  0.00     0.000 A 
ENDBRANCH  18  20
ENDBRANCH  15  18
ENDBRANCH   8  10
ENDBRANCH   5   8
ENDBRANCH   3   4
ENDBRANCH   2   3
ENDBRANCH   1   2
BRANCH   1  26
ATOM     26  C   UNL A   1      45.612  39.834  27.452  1.00  0.00     0.002 C 
BRANCH  26  27
ATOM     27  C   UNL A   1      45.128  39.185  28.756  1.00  0.00     0.021 C 
BRANCH  27  28
ATOM     28  C   UNL A   1      45.835  37.890  29.160  1.00  0.00     0.116 C 
BRANCH  28  29
ATOM     29  N   UNL A   1      47.247  37.885  28.814  1.00  0.00    -0.352 N 
ATOM     30  C   UNL A   1      48.088  36.820  28.578  1.00  0.00     0.251 C 
ATOM     31  H   UNL A   1      47.664  38.775  28.739  1.00  0.00     0.163 HD
ATOM     32  O   UNL A   1      49.293  37.021  28.449  1.00  0.00    -0.269 OA
BRANCH  30  33
ATOM     33  C   UNL A   1      47.565  35.432  28.497  1.00  0.00     0.039 A 
ATOM     34  C   UNL A   1      47.039  34.973  27.286  1.00  0.00     0.014 A 
ATOM     35  C   UNL A   1      47.531  34.597  29.615  1.00  0.00     0.014 A 
ATOM     36  C   UNL A   1      46.538  33.668  27.185  1.00  0.00     0.010 A 
ATOM     37  C   UNL A   1      47.088  33.271  29.497  1.00  0.00     0.010 A 
ATOM     38  C   UNL A   1      46.583  32.786  28.280  1.00  0.00    -0.014 A 
BRANCH  38  39
ATOM     39  C   UNL A   1      46.108  31.372  28.146  1.00  0.00     0.031 A 
ATOM     40  C   UNL A   1      44.680  30.991  28.454  1.00  0.00     0.074 A 
ATOM     41  C   UNL A   1      46.969  30.405  27.760  1.00  0.00     0.049 A 
ATOM     42  N   UNL A   1      44.106  29.814  28.386  1.00  0.00    -0.248 NA
ATOM     43  C   UNL A   1      43.786  32.063  28.915  1.00  0.00     0.031 C 
ATOM     44  C   UNL A   1      48.390  30.602  27.469  1.00  0.00     0.029 A 
ATOM     45  N   UNL A   1      46.772  29.060  27.544  1.00  0.00    -0.354 N 
ATOM     46  C   UNL A   1      42.792  30.001  28.802  1.00  0.00     0.074 A 
ATOM     47  C   UNL A   1      42.667  31.397  29.166  1.00  0.00     0.031 C 
ATOM     48  C   UNL A   1      48.928  29.432  27.086  1.00  0.00     0.029 A 
ATOM     49  C   UNL A   1      47.903  28.392  27.133  1.00  0.00     0.049 A 
ATOM     50  H   UNL A   1      45.903  28.616  27.672  1.00  0.00     0.167 HD
ATOM     51  C   UNL A   1      41.774  29.107  28.856  1.00  0.00     0.037 A 
ATOM     52  C   UNL A   1      48.103  27.094  26.828  1.00  0.00     0.037 A 
ATOM     53  C   UNL A   1      41.873  27.722  28.467  1.00  0.00     0.049 A 
ATOM     54  C   UNL A   1      46.958  26.119  26.891  1.00  0.00     0.074 A 
ATOM     55  C   UNL A   1      40.870  26.766  28.431  1.00  0.00     0.029 A 
ATOM     56  N   UNL A   1      43.034  27.092  28.050  1.00  0.00    -0.354 N 
ATOM     57  N   UNL A   1      45.708  26.336  27.222  1.00  0.00    -0.248 NA
ATOM     58  C   UNL A   1      47.250  24.722  26.531  1.00  0.00     0.031 C 
ATOM     59  C   UNL A   1      41.432  25.550  28.030  1.00  0.00     0.029 A 
ATOM     60  C   UNL A   1      42.776  25.758  27.773  1.00  0.00     0.049 A 
ATOM     61  H   UNL A   1      43.912  27.528  27.963  1.00  0.00     0.167 HD
ATOM     62  C   UNL A   1      45.061  25.111  27.084  1.00  0.00     0.074 A 
ATOM     63  C   UNL A   1      46.053  24.160  26.631  1.00  0.00     0.031 C 
ATOM     64  C   UNL A   1      43.760  24.810  27.312  1.00  0.00     0.037 A 
BRANCH  51  65
ATOM     65  C   UNL A   1      40.439  29.599  29.346  1.00  0.00     0.058 A 
ATOM     66  C   UNL A   1      39.372  29.828  28.463  1.00  0.00     0.135 A 
ATOM     67  C   UNL A   1      40.206  29.788  30.718  1.00  0.00     0.135 A 
ATOM     68  F   UNL A   1      39.543  29.670  27.140  1.00  0.00    -0.206 F 
ATOM     69  C   UNL A   1      38.129  30.257  28.918  1.00  0.00     0.059 A 
ATOM     70  C   UNL A   1      38.963  30.192  31.199  1.00  0.00     0.059 A 
ATOM     71  F   UNL A   1      41.189  29.576  31.607  1.00  0.00    -0.206 F 
ATOM     72  C   UNL A   1      37.935  30.439  30.289  1.00  0.00     0.060 A 
BRANCH  72  73
ATOM     73  S   UNL A   1      36.315  30.992  30.865  1.00  0.00     0.124 S 
ATOM     74  O   UNL A   1      35.568  31.049  29.612  1.00  0.00    -0.237 OA
ATOM     75  O   UNL A   1      35.929  29.926  31.784  1.00  0.00    -0.237 OA
ATOM     76  O   UNL A   1      36.598  32.281  31.487  1.00  0.00    -0.744 OA
ENDBRANCH  72  73
ENDBRANCH  51  65
BRANCH  52  77
ATOM     77  C   UNL A   1      49.454  26.633  26.407  1.00  0.00     0.058 A 
ATOM     78  C   UNL A   1      49.868  26.731  25.071  1.00  0.00     0.135 A 
ATOM     79  C   UNL A   1      50.355  26.088  27.335  1.00  0.00     0.135 A 
ATOM     80  F   UNL A   1      49.037  27.236  24.147  1.00  0.00    -0.206 F 
ATOM     81  C   UNL A   1      51.123  26.290  24.664  1.00  0.00     0.059 A 
ATOM     82  C   UNL A   1      51.624  25.661  26.955  1.00  0.00     0.059 A 
ATOM     83  F   UNL A   1      50.011  25.986  28.628  1.00  0.00    -0.206 F 
ATOM     84  C   UNL A   1      51.995  25.758  25.614  1.00  0.00     0.060 A 
BRANCH  84  85
ATOM     85  S   UNL A   1      53.642  25.238  25.089  1.00  0.00     0.124 S 
ATOM     86  O   UNL A   1      53.583  23.800  25.316  1.00  0.00    -0.237 OA
ATOM     87  O   UNL A   1      53.670  25.666  23.694  1.00  0.00    -0.237 OA
ATOM     88  O   UNL A   1      54.527  25.984  25.980  1.00  0.00    -0.744 OA
ENDBRANCH  84  85
ENDBRANCH  52  77
BRANCH  64  89
ATOM     89  C   UNL A   1      43.309  23.399  27.043  1.00  0.00     0.058 A 
ATOM     90  C   UNL A   1      43.137  22.914  25.737  1.00  0.00     0.135 A 
ATOM     91  C   UNL A   1      43.095  22.506  28.106  1.00  0.00     0.135 A 
ATOM     92  F   UNL A   1      43.321  23.727  24.685  1.00  0.00    -0.206 F 
ATOM     93  C   UNL A   1      42.750  21.598  25.495  1.00  0.00     0.059 A 
ATOM     94  C   UNL A   1      42.731  21.180  27.886  1.00  0.00     0.059 A 
ATOM     95  F   UNL A   1      43.252  22.914  29.375  1.00  0.00    -0.206 F 
ATOM     96  C   UNL A   1      42.550  20.738  26.577  1.00  0.00     0.060 A 
BRANCH  96  97
ATOM     97  S   UNL A   1      42.085  19.024  26.249  1.00  0.00     0.124 S 
ATOM     98  O   UNL A   1      42.972  18.685  25.141  1.00  0.00    -0.237 OA
ATOM     99  O   UNL A   1      42.378  18.368  27.519  1.00  0.00    -0.237 OA
ATOM    100  O   UNL A   1      40.667  19.116  25.912  1.00  0.00    -0.744 OA
ENDBRANCH  96  97
ENDBRANCH  64  89
ENDBRANCH  38  39
ENDBRANCH  30  33
ENDBRANCH  28  29
ENDBRANCH  27  28
ENDBRANCH  26  27
ENDBRANCH   1  26
TORSDOF 20
ENDMDL
