MODEL 1
REMARK VINA RESULT:     -10.2      0.000      0.000
REMARK SMILES C[C@H](C[NH3+])S[C@H](C)c1ccc(C(=O)NCCCCCCNC(=O)c2ccc(-c3c4nc(c(-c5c(F)cc(S(=O)(=O)[O-])cc5F)c5ccc([nH]5)c(-c5c(F)cc(S(=O)(=O)[O-])cc5F)c5nc(c(-c6c(F)cc(S(=O)(=O)[O-])cc6F)c6ccc3[nH]6)C=C5)C=C4)cc2)o1
REMARK SMILES IDX 16 1 15 2 14 3 12 4 13 5 11 7 8 8 9 9 90 10 10 11 6 12 7 13
REMARK SMILES IDX 5 14 2 15 1 16 3 17 4 18 17 22 18 23 19 24 20 25 21 26 22 27
REMARK SMILES IDX 23 29 24 30 25 31 89 32 26 33 88 34 27 35 28 36 29 37 82 38
REMARK SMILES IDX 30 39 87 40 81 41 83 42 31 43 86 44 80 45 79 46 32 48 66 49
REMARK SMILES IDX 45 50 65 51 46 52 49 53 64 54 84 55 47 56 48 57 63 59 85 60
REMARK SMILES IDX 50 61 33 62 34 63 43 64 35 65 36 66 42 67 44 68 37 69 38 70
REMARK SMILES IDX 39 71 40 72 41 73 67 74 68 75 77 76 69 77 70 78 76 79 78 80
REMARK SMILES IDX 71 81 72 82 73 83 74 84 75 85 51 86 52 87 61 88 53 89 54 90
REMARK SMILES IDX 60 91 62 92 55 93 56 94 57 95 58 96 59 97
REMARK H PARENT 14 6 4 19 4 20 4 21 21 28 83 47 49 58
REMARK Flexibility Score: inf
ROOT
ATOM      1  C   UNL A   1      34.993  31.249  27.867  1.00  0.00     0.021 C 
ENDROOT
BRANCH   1   2
ATOM      2  C   UNL A   1      34.307  30.227  26.964  1.00  0.00     0.116 C 
BRANCH   2   3
ATOM      3  N   UNL A   1      33.206  29.583  27.640  1.00  0.00    -0.349 N 
ATOM      4  C   UNL A   1      32.456  28.469  27.352  1.00  0.00     0.286 C 
ATOM      5  O   UNL A   1      31.545  28.237  28.151  1.00  0.00    -0.266 OA
ATOM      6  H   UNL A   1      32.938  30.033  28.474  1.00  0.00     0.163 HD
BRANCH   4   7
ATOM      7  C   UNL A   1      32.715  27.620  26.198  1.00  0.00     0.191 A 
ATOM      8  C   UNL A   1      32.012  26.527  24.388  1.00  0.00     0.117 A 
ATOM      9  C   UNL A   1      33.358  26.264  24.506  1.00  0.00     0.047 A 
ATOM     10  O   UNL A   1      31.610  27.299  25.434  1.00  0.00    -0.455 OA
ATOM     11  C   UNL A   1      33.815  27.020  25.608  1.00  0.00     0.056 A 
BRANCH   8  12
ATOM     12  C   UNL A   1      31.007  26.173  23.341  1.00  0.00     0.110 C 
ATOM     13  C   UNL A   1      31.008  24.707  22.911  1.00  0.00     0.028 C 
BRANCH  12  14
ATOM     14  S   UNL A   1      29.326  26.766  23.828  1.00  0.00    -0.142 SA
BRANCH  14  15
ATOM     15  C   UNL A   1      29.306  28.540  23.299  1.00  0.00     0.099 C 
ATOM     16  C   UNL A   1      27.886  28.811  22.781  1.00  0.00     0.025 C 
BRANCH  15  17
ATOM     17  C   UNL A   1      30.352  28.957  22.241  1.00  0.00     0.273 C 
BRANCH  17  18
ATOM     18  N   UNL A   1      30.268  30.356  21.824  1.00  0.00    -0.357 N 
ATOM     19  H   UNL A   1      30.312  30.958  22.645  1.00  0.00     0.344 HD
ATOM     20  H   UNL A   1      29.386  30.512  21.335  1.00  0.00     0.344 HD
ATOM     21  H   UNL A   1      31.046  30.572  21.201  1.00  0.00     0.344 HD
ENDBRANCH  17  18
ENDBRANCH  15  17
ENDBRANCH  14  15
ENDBRANCH  12  14
ENDBRANCH   8  12
ENDBRANCH   4   7
ENDBRANCH   2   3
ENDBRANCH   1   2
BRANCH   1  22
ATOM     22  C   UNL A   1      34.080  32.416  28.257  1.00  0.00     0.002 C 
BRANCH  22  23
ATOM     23  C   UNL A   1      34.780  33.549  29.020  1.00  0.00     0.002 C 
BRANCH  23  24
ATOM     24  C   UNL A   1      36.311  33.516  28.971  1.00  0.00     0.021 C 
BRANCH  24  25
ATOM     25  C   UNL A   1      36.980  33.375  30.335  1.00  0.00     0.116 C 
BRANCH  25  26
ATOM     26  N   UNL A   1      36.374  32.309  31.115  1.00  0.00    -0.352 N 
ATOM     27  C   UNL A   1      36.715  30.984  31.201  1.00  0.00     0.251 C 
ATOM     28  H   UNL A   1      35.603  32.579  31.664  1.00  0.00     0.163 HD
ATOM     29  O   UNL A   1      35.928  30.189  31.707  1.00  0.00    -0.269 OA
BRANCH  27  30
ATOM     30  C   UNL A   1      38.018  30.514  30.684  1.00  0.00     0.039 A 
ATOM     31  C   UNL A   1      38.169  30.339  29.306  1.00  0.00     0.014 A 
ATOM     32  C   UNL A   1      39.073  30.206  31.549  1.00  0.00     0.014 A 
ATOM     33  C   UNL A   1      39.391  29.898  28.796  1.00  0.00     0.010 A 
ATOM     34  C   UNL A   1      40.314  29.841  31.032  1.00  0.00     0.010 A 
ATOM     35  C   UNL A   1      40.483  29.672  29.652  1.00  0.00    -0.014 A 
BRANCH  35  36
ATOM     36  C   UNL A   1      41.802  29.269  29.100  1.00  0.00     0.031 A 
ATOM     37  C   UNL A   1      42.925  30.265  28.989  1.00  0.00     0.074 A 
ATOM     38  C   UNL A   1      41.973  28.002  28.671  1.00  0.00     0.049 A 
ATOM     39  N   UNL A   1      44.145  30.084  28.551  1.00  0.00    -0.248 NA
ATOM     40  C   UNL A   1      42.637  31.647  29.402  1.00  0.00     0.031 C 
ATOM     41  C   UNL A   1      40.939  26.965  28.672  1.00  0.00     0.029 A 
ATOM     42  N   UNL A   1      43.076  27.370  28.156  1.00  0.00    -0.354 N 
ATOM     43  C   UNL A   1      44.767  31.324  28.630  1.00  0.00     0.074 A 
ATOM     44  C   UNL A   1      43.771  32.264  29.103  1.00  0.00     0.031 C 
ATOM     45  C   UNL A   1      41.467  25.817  28.217  1.00  0.00     0.029 A 
ATOM     46  C   UNL A   1      42.863  26.044  27.857  1.00  0.00     0.049 A 
ATOM     47  H   UNL A   1      43.940  27.822  28.014  1.00  0.00     0.167 HD
ATOM     48  C   UNL A   1      46.055  31.647  28.361  1.00  0.00     0.037 A 
ATOM     49  C   UNL A   1      43.697  25.116  27.352  1.00  0.00     0.037 A 
ATOM     50  C   UNL A   1      47.041  30.701  27.905  1.00  0.00     0.049 A 
ATOM     51  C   UNL A   1      45.123  25.497  27.063  1.00  0.00     0.074 A 
ATOM     52  C   UNL A   1      48.386  30.912  27.659  1.00  0.00     0.029 A 
ATOM     53  N   UNL A   1      46.790  29.365  27.620  1.00  0.00    -0.354 N 
ATOM     54  N   UNL A   1      45.714  26.657  27.220  1.00  0.00    -0.248 NA
ATOM     55  C   UNL A   1      45.999  24.440  26.540  1.00  0.00     0.031 C 
ATOM     56  C   UNL A   1      48.936  29.720  27.174  1.00  0.00     0.029 A 
ATOM     57  C   UNL A   1      47.948  28.748  27.176  1.00  0.00     0.049 A 
ATOM     58  H   UNL A   1      45.917  28.922  27.720  1.00  0.00     0.167 HD
ATOM     59  C   UNL A   1      47.038  26.464  26.839  1.00  0.00     0.074 A 
ATOM     60  C   UNL A   1      47.163  25.071  26.463  1.00  0.00     0.031 C 
ATOM     61  C   UNL A   1      48.057  27.360  26.802  1.00  0.00     0.037 A 
BRANCH  48  62
ATOM     62  C   UNL A   1      46.474  33.080  28.554  1.00  0.00     0.058 A 
ATOM     63  C   UNL A   1      47.003  33.538  29.772  1.00  0.00     0.135 A 
ATOM     64  C   UNL A   1      46.387  33.999  27.495  1.00  0.00     0.135 A 
ATOM     65  F   UNL A   1      47.097  32.708  30.823  1.00  0.00    -0.206 F 
ATOM     66  C   UNL A   1      47.402  34.860  29.943  1.00  0.00     0.059 A 
ATOM     67  C   UNL A   1      46.810  35.319  27.634  1.00  0.00     0.059 A 
ATOM     68  F   UNL A   1      45.890  33.618  26.308  1.00  0.00    -0.206 F 
ATOM     69  C   UNL A   1      47.303  35.744  28.866  1.00  0.00     0.060 A 
BRANCH  69  70
ATOM     70  S   UNL A   1      47.833  37.452  29.104  1.00  0.00     0.124 S 
ATOM     71  O   UNL A   1      46.834  38.178  28.326  1.00  0.00    -0.237 OA
ATOM     72  O   UNL A   1      47.743  37.608  30.552  1.00  0.00    -0.237 OA
ATOM     73  O   UNL A   1      49.187  37.469  28.558  1.00  0.00    -0.744 OA
ENDBRANCH  69  70
ENDBRANCH  48  62
BRANCH  49  74
ATOM     74  C   UNL A   1      43.209  23.731  27.114  1.00  0.00     0.058 A 
ATOM     75  C   UNL A   1      42.953  23.265  25.816  1.00  0.00     0.135 A 
ATOM     76  C   UNL A   1      43.006  22.839  28.179  1.00  0.00     0.135 A 
ATOM     77  F   UNL A   1      43.128  24.080  24.765  1.00  0.00    -0.206 F 
ATOM     78  C   UNL A   1      42.495  21.972  25.581  1.00  0.00     0.059 A 
ATOM     79  C   UNL A   1      42.577  21.532  27.968  1.00  0.00     0.059 A 
ATOM     80  F   UNL A   1      43.255  23.227  29.439  1.00  0.00    -0.206 F 
ATOM     81  C   UNL A   1      42.314  21.112  26.665  1.00  0.00     0.060 A 
BRANCH  81  82
ATOM     82  S   UNL A   1      41.766  19.421  26.347  1.00  0.00     0.124 S 
ATOM     83  O   UNL A   1      40.324  19.598  26.220  1.00  0.00    -0.237 OA
ATOM     84  O   UNL A   1      42.481  19.095  25.116  1.00  0.00    -0.237 OA
ATOM     85  O   UNL A   1      42.212  18.695  27.532  1.00  0.00    -0.744 OA
ENDBRANCH  81  82
ENDBRANCH  49  74
BRANCH  61  86
ATOM     86  C   UNL A   1      49.404  26.851  26.365  1.00  0.00     0.058 A 
ATOM     87  C   UNL A   1      49.862  27.006  25.047  1.00  0.00     0.135 A 
ATOM     88  C   UNL A   1      50.262  26.228  27.287  1.00  0.00     0.135 A 
ATOM     89  F   UNL A   1      49.081  27.590  24.124  1.00  0.00    -0.206 F 
ATOM     90  C   UNL A   1      51.107  26.529  24.648  1.00  0.00     0.059 A 
ATOM     91  C   UNL A   1      51.524  25.774  26.919  1.00  0.00     0.059 A 
ATOM     92  F   UNL A   1      49.880  26.066  28.563  1.00  0.00    -0.206 F 
ATOM     93  C   UNL A   1      51.931  25.913  25.593  1.00  0.00     0.060 A 
BRANCH  93  94
ATOM     94  S   UNL A   1      53.549  25.312  25.067  1.00  0.00     0.124 S 
ATOM     95  O   UNL A   1      53.410  23.874  25.272  1.00  0.00    -0.237 OA
ATOM     96  O   UNL A   1      53.608  25.751  23.676  1.00  0.00    -0.237 OA
ATOM     97  O   UNL A   1      54.475  25.988  25.971  1.00  0.00    -0.744 OA
ENDBRANCH  93  94
ENDBRANCH  61  86
ENDBRANCH  35  36
ENDBRANCH  27  30
ENDBRANCH  25  26
ENDBRANCH  24  25
ENDBRANCH  23  24
ENDBRANCH  22  23
ENDBRANCH   1  22
TORSDOF 21
ENDMDL
MODEL 2
REMARK VINA RESULT:     -10.2      6.475     12.106
REMARK SMILES C[C@H](C[NH3+])S[C@H](C)c1ccc(C(=O)NCCCCCCNC(=O)c2ccc(-c3c4nc(c(-c5c(F)cc(S(=O)(=O)[O-])cc5F)c5ccc([nH]5)c(-c5c(F)cc(S(=O)(=O)[O-])cc5F)c5nc(c(-c6c(F)cc(S(=O)(=O)[O-])cc6F)c6ccc3[nH]6)C=C5)C=C4)cc2)o1
REMARK SMILES IDX 16 1 15 2 14 3 12 4 13 5 11 7 8 8 9 9 90 10 10 11 6 12 7 13
REMARK SMILES IDX 5 14 2 15 1 16 3 17 4 18 17 22 18 23 19 24 20 25 21 26 22 27
REMARK SMILES IDX 23 29 24 30 25 31 89 32 26 33 88 34 27 35 28 36 29 37 82 38
REMARK SMILES IDX 30 39 87 40 81 41 83 42 31 43 86 44 80 45 79 46 32 48 66 49
REMARK SMILES IDX 45 50 65 51 46 52 49 53 64 54 84 55 47 56 48 57 63 59 85 60
REMARK SMILES IDX 50 61 33 62 34 63 43 64 35 65 36 66 42 67 44 68 37 69 38 70
REMARK SMILES IDX 39 71 40 72 41 73 67 74 68 75 77 76 69 77 70 78 76 79 78 80
REMARK SMILES IDX 71 81 72 82 73 83 74 84 75 85 51 86 52 87 61 88 53 89 54 90
REMARK SMILES IDX 60 91 62 92 55 93 56 94 57 95 58 96 59 97
REMARK H PARENT 14 6 4 19 4 20 4 21 21 28 83 47 49 58
REMARK Flexibility Score: inf
ROOT
ATOM      1  C   UNL A   1      38.629  23.286  26.333  1.00  0.00     0.021 C 
ENDROOT
BRANCH   1   2
ATOM      2  C   UNL A   1      37.515  23.700  25.374  1.00  0.00     0.116 C 
BRANCH   2   3
ATOM      3  N   UNL A   1      36.556  22.635  25.193  1.00  0.00    -0.349 N 
ATOM      4  C   UNL A   1      35.187  22.621  25.082  1.00  0.00     0.286 C 
ATOM      5  O   UNL A   1      34.688  21.496  24.980  1.00  0.00    -0.266 OA
ATOM      6  H   UNL A   1      36.965  21.741  25.140  1.00  0.00     0.163 HD
BRANCH   4   7
ATOM      7  C   UNL A   1      34.383  23.834  25.076  1.00  0.00     0.191 A 
ATOM      8  C   UNL A   1      32.705  25.054  24.261  1.00  0.00     0.117 A 
ATOM      9  C   UNL A   1      33.312  25.820  25.229  1.00  0.00     0.047 A 
ATOM     10  O   UNL A   1      33.379  23.879  24.128  1.00  0.00    -0.455 OA
ATOM     11  C   UNL A   1      34.325  25.014  25.796  1.00  0.00     0.056 A 
BRANCH   8  12
ATOM     12  C   UNL A   1      31.480  25.266  23.432  1.00  0.00     0.110 C 
ATOM     13  C   UNL A   1      30.547  24.061  23.336  1.00  0.00     0.028 C 
BRANCH  12  14
ATOM     14  S   UNL A   1      30.600  26.803  23.957  1.00  0.00    -0.142 SA
BRANCH  14  15
ATOM     15  C   UNL A   1      30.955  28.009  22.599  1.00  0.00     0.099 C 
ATOM     16  C   UNL A   1      32.464  28.291  22.667  1.00  0.00     0.025 C 
BRANCH  15  17
ATOM     17  C   UNL A   1      30.160  29.334  22.626  1.00  0.00     0.273 C 
BRANCH  17  18
ATOM     18  N   UNL A   1      30.472  30.251  21.531  1.00  0.00    -0.357 N 
ATOM     19  H   UNL A   1      30.932  31.081  21.903  1.00  0.00     0.344 HD
ATOM     20  H   UNL A   1      29.610  30.523  21.059  1.00  0.00     0.344 HD
ATOM     21  H   UNL A   1      31.093  29.788  20.866  1.00  0.00     0.344 HD
ENDBRANCH  17  18
ENDBRANCH  15  17
ENDBRANCH  14  15
ENDBRANCH  12  14
ENDBRANCH   8  12
ENDBRANCH   4   7
ENDBRANCH   2   3
ENDBRANCH   1   2
BRANCH   1  22
ATOM     22  C   UNL A   1      39.072  21.831  26.150  1.00  0.00     0.002 C 
BRANCH  22  23
ATOM     23  C   UNL A   1      40.535  21.556  26.522  1.00  0.00     0.002 C 
BRANCH  23  24
ATOM     24  C   UNL A   1      41.020  22.244  27.802  1.00  0.00     0.021 C 
BRANCH  24  25
ATOM     25  C   UNL A   1      42.277  23.089  27.622  1.00  0.00     0.116 C 
BRANCH  25  26
ATOM     26  N   UNL A   1      42.201  23.905  26.422  1.00  0.00    -0.352 N 
ATOM     27  C   UNL A   1      41.749  25.189  26.262  1.00  0.00     0.251 C 
ATOM     28  H   UNL A   1      42.523  23.469  25.599  1.00  0.00     0.163 HD
ATOM     29  O   UNL A   1      41.520  25.614  25.134  1.00  0.00    -0.269 OA
BRANCH  27  30
ATOM     30  C   UNL A   1      41.533  26.056  27.442  1.00  0.00     0.039 A 
ATOM     31  C   UNL A   1      42.494  27.021  27.749  1.00  0.00     0.014 A 
ATOM     32  C   UNL A   1      40.414  25.894  28.264  1.00  0.00     0.014 A 
ATOM     33  C   UNL A   1      42.309  27.851  28.855  1.00  0.00     0.010 A 
ATOM     34  C   UNL A   1      40.193  26.774  29.321  1.00  0.00     0.010 A 
ATOM     35  C   UNL A   1      41.144  27.754  29.635  1.00  0.00    -0.014 A 
BRANCH  35  36
ATOM     36  C   UNL A   1      40.917  28.684  30.771  1.00  0.00     0.031 A 
ATOM     37  C   UNL A   1      41.754  28.591  32.018  1.00  0.00     0.074 A 
ATOM     38  C   UNL A   1      39.929  29.597  30.684  1.00  0.00     0.049 A 
ATOM     39  N   UNL A   1      41.708  29.330  33.098  1.00  0.00    -0.248 NA
ATOM     40  C   UNL A   1      42.758  27.518  32.072  1.00  0.00     0.031 C 
ATOM     41  C   UNL A   1      39.012  29.741  29.550  1.00  0.00     0.029 A 
ATOM     42  N   UNL A   1      39.531  30.577  31.558  1.00  0.00    -0.354 N 
ATOM     43  C   UNL A   1      42.669  28.810  33.957  1.00  0.00     0.074 A 
ATOM     44  C   UNL A   1      43.242  27.656  33.298  1.00  0.00     0.031 C 
ATOM     45  C   UNL A   1      38.185  30.773  29.782  1.00  0.00     0.029 A 
ATOM     46  C   UNL A   1      38.486  31.340  31.093  1.00  0.00     0.049 A 
ATOM     47  H   UNL A   1      39.955  30.720  32.435  1.00  0.00     0.167 HD
ATOM     48  C   UNL A   1      43.057  29.268  35.172  1.00  0.00     0.037 A 
ATOM     49  C   UNL A   1      37.843  32.380  31.656  1.00  0.00     0.037 A 
ATOM     50  C   UNL A   1      42.490  30.427  35.812  1.00  0.00     0.049 A 
ATOM     51  C   UNL A   1      38.294  32.872  33.005  1.00  0.00     0.074 A 
ATOM     52  C   UNL A   1      42.852  31.009  37.015  1.00  0.00     0.029 A 
ATOM     53  N   UNL A   1      41.438  31.179  35.307  1.00  0.00    -0.354 N 
ATOM     54  N   UNL A   1      39.258  32.416  33.768  1.00  0.00    -0.248 NA
ATOM     55  C   UNL A   1      37.578  34.026  33.563  1.00  0.00     0.031 C 
ATOM     56  C   UNL A   1      41.984  32.078  37.263  1.00  0.00     0.029 A 
ATOM     57  C   UNL A   1      41.121  32.202  36.187  1.00  0.00     0.049 A 
ATOM     58  H   UNL A   1      40.984  31.011  34.451  1.00  0.00     0.167 HD
ATOM     59  C   UNL A   1      39.282  33.243  34.886  1.00  0.00     0.074 A 
ATOM     60  C   UNL A   1      38.247  34.238  34.688  1.00  0.00     0.031 C 
ATOM     61  C   UNL A   1      40.085  33.184  35.978  1.00  0.00     0.037 A 
BRANCH  48  62
ATOM     62  C   UNL A   1      44.149  28.518  35.888  1.00  0.00     0.058 A 
ATOM     63  C   UNL A   1      43.865  27.454  36.760  1.00  0.00     0.135 A 
ATOM     64  C   UNL A   1      45.499  28.837  35.667  1.00  0.00     0.135 A 
ATOM     65  F   UNL A   1      42.593  27.114  37.021  1.00  0.00    -0.206 F 
ATOM     66  C   UNL A   1      44.877  26.754  37.410  1.00  0.00     0.059 A 
ATOM     67  C   UNL A   1      46.529  28.129  36.282  1.00  0.00     0.059 A 
ATOM     68  F   UNL A   1      45.831  29.843  34.843  1.00  0.00    -0.206 F 
ATOM     69  C   UNL A   1      46.207  27.098  37.163  1.00  0.00     0.060 A 
BRANCH  69  70
ATOM     70  S   UNL A   1      47.506  26.173  38.008  1.00  0.00     0.124 S 
ATOM     71  O   UNL A   1      48.494  27.219  38.256  1.00  0.00    -0.237 OA
ATOM     72  O   UNL A   1      46.812  25.665  39.187  1.00  0.00    -0.237 OA
ATOM     73  O   UNL A   1      47.897  25.162  37.030  1.00  0.00    -0.744 OA
ENDBRANCH  69  70
ENDBRANCH  48  62
BRANCH  49  74
ATOM     74  C   UNL A   1      36.722  33.040  30.934  1.00  0.00     0.058 A 
ATOM     75  C   UNL A   1      35.392  32.859  31.339  1.00  0.00     0.135 A 
ATOM     76  C   UNL A   1      36.961  33.879  29.834  1.00  0.00     0.135 A 
ATOM     77  F   UNL A   1      35.111  32.064  32.382  1.00  0.00    -0.206 F 
ATOM     78  C   UNL A   1      34.335  33.470  30.670  1.00  0.00     0.059 A 
ATOM     79  C   UNL A   1      35.925  34.524  29.167  1.00  0.00     0.059 A 
ATOM     80  F   UNL A   1      38.218  34.102  29.418  1.00  0.00    -0.206 F 
ATOM     81  C   UNL A   1      34.613  34.305  29.587  1.00  0.00     0.060 A 
BRANCH  81  82
ATOM     82  S   UNL A   1      33.241  35.132  28.755  1.00  0.00     0.124 S 
ATOM     83  O   UNL A   1      32.424  35.556  29.887  1.00  0.00    -0.237 OA
ATOM     84  O   UNL A   1      33.923  36.197  28.026  1.00  0.00    -0.237 OA
ATOM     85  O   UNL A   1      32.669  34.079  27.923  1.00  0.00    -0.744 OA
ENDBRANCH  81  82
ENDBRANCH  49  74
BRANCH  61  86
ATOM     86  C   UNL A   1      39.896  34.242  37.030  1.00  0.00     0.058 A 
ATOM     87  C   UNL A   1      39.122  34.014  38.179  1.00  0.00     0.135 A 
ATOM     88  C   UNL A   1      40.522  35.493  36.902  1.00  0.00     0.135 A 
ATOM     89  F   UNL A   1      38.496  32.838  38.350  1.00  0.00    -0.206 F 
ATOM     90  C   UNL A   1      38.947  34.998  39.146  1.00  0.00     0.059 A 
ATOM     91  C   UNL A   1      40.388  36.481  37.872  1.00  0.00     0.059 A 
ATOM     92  F   UNL A   1      41.284  35.761  35.830  1.00  0.00    -0.206 F 
ATOM     93  C   UNL A   1      39.584  36.230  38.983  1.00  0.00     0.060 A 
BRANCH  93  94
ATOM     94  S   UNL A   1      39.360  37.495  40.251  1.00  0.00     0.124 S 
ATOM     95  O   UNL A   1      38.422  38.402  39.599  1.00  0.00    -0.237 OA
ATOM     96  O   UNL A   1      38.824  36.724  41.369  1.00  0.00    -0.237 OA
ATOM     97  O   UNL A   1      40.707  38.021  40.450  1.00  0.00    -0.744 OA
ENDBRANCH  93  94
ENDBRANCH  61  86
ENDBRANCH  35  36
ENDBRANCH  27  30
ENDBRANCH  25  26
ENDBRANCH  24  25
ENDBRANCH  23  24
ENDBRANCH  22  23
ENDBRANCH   1  22
TORSDOF 21
ENDMDL
MODEL 3
REMARK VINA RESULT:     -10.1      1.115      2.126
REMARK SMILES C[C@H](C[NH3+])S[C@H](C)c1ccc(C(=O)NCCCCCCNC(=O)c2ccc(-c3c4nc(c(-c5c(F)cc(S(=O)(=O)[O-])cc5F)c5ccc([nH]5)c(-c5c(F)cc(S(=O)(=O)[O-])cc5F)c5nc(c(-c6c(F)cc(S(=O)(=O)[O-])cc6F)c6ccc3[nH]6)C=C5)C=C4)cc2)o1
REMARK SMILES IDX 16 1 15 2 14 3 12 4 13 5 11 7 8 8 9 9 90 10 10 11 6 12 7 13
REMARK SMILES IDX 5 14 2 15 1 16 3 17 4 18 17 22 18 23 19 24 20 25 21 26 22 27
REMARK SMILES IDX 23 29 24 30 25 31 89 32 26 33 88 34 27 35 28 36 29 37 82 38
REMARK SMILES IDX 30 39 87 40 81 41 83 42 31 43 86 44 80 45 79 46 32 48 66 49
REMARK SMILES IDX 45 50 65 51 46 52 49 53 64 54 84 55 47 56 48 57 63 59 85 60
REMARK SMILES IDX 50 61 33 62 34 63 43 64 35 65 36 66 42 67 44 68 37 69 38 70
REMARK SMILES IDX 39 71 40 72 41 73 67 74 68 75 77 76 69 77 70 78 76 79 78 80
REMARK SMILES IDX 71 81 72 82 73 83 74 84 75 85 51 86 52 87 61 88 53 89 54 90
REMARK SMILES IDX 60 91 62 92 55 93 56 94 57 95 58 96 59 97
REMARK H PARENT 14 6 4 19 4 20 4 21 21 28 83 47 49 58
REMARK Flexibility Score: inf
ROOT
ATOM      1  C   UNL A   1      34.938  30.904  28.000  1.00  0.00     0.021 C 
ENDROOT
BRANCH   1   2
ATOM      2  C   UNL A   1      34.363  29.820  27.091  1.00  0.00     0.116 C 
BRANCH   2   3
ATOM      3  N   UNL A   1      33.211  29.188  27.691  1.00  0.00    -0.349 N 
ATOM      4  C   UNL A   1      32.084  28.608  27.162  1.00  0.00     0.286 C 
ATOM      5  O   UNL A   1      31.271  28.202  27.997  1.00  0.00    -0.266 OA
ATOM      6  H   UNL A   1      33.239  29.171  28.675  1.00  0.00     0.163 HD
BRANCH   4   7
ATOM      7  C   UNL A   1      31.864  28.473  25.729  1.00  0.00     0.191 A 
ATOM      8  C   UNL A   1      31.975  27.285  23.846  1.00  0.00     0.117 A 
ATOM      9  C   UNL A   1      31.468  28.519  23.503  1.00  0.00     0.047 A 
ATOM     10  O   UNL A   1      32.264  27.272  25.176  1.00  0.00    -0.455 OA
ATOM     11  C   UNL A   1      31.327  29.240  24.710  1.00  0.00     0.056 A 
BRANCH   8  12
ATOM     12  C   UNL A   1      32.189  26.033  23.061  1.00  0.00     0.110 C 
ATOM     13  C   UNL A   1      32.747  26.238  21.655  1.00  0.00     0.028 C 
BRANCH  12  14
ATOM     14  S   UNL A   1      33.170  24.812  24.041  1.00  0.00    -0.142 SA
BRANCH  14  15
ATOM     15  C   UNL A   1      31.909  23.596  24.636  1.00  0.00     0.099 C 
ATOM     16  C   UNL A   1      31.232  23.037  23.375  1.00  0.00     0.025 C 
BRANCH  15  17
ATOM     17  C   UNL A   1      30.846  24.129  25.622  1.00  0.00     0.273 C 
BRANCH  17  18
ATOM     18  N   UNL A   1      31.393  24.824  26.787  1.00  0.00    -0.357 N 
ATOM     19  H   UNL A   1      30.779  25.597  27.041  1.00  0.00     0.344 HD
ATOM     20  H   UNL A   1      32.321  25.185  26.562  1.00  0.00     0.344 HD
ATOM     21  H   UNL A   1      31.462  24.173  27.569  1.00  0.00     0.344 HD
ENDBRANCH  17  18
ENDBRANCH  15  17
ENDBRANCH  14  15
ENDBRANCH  12  14
ENDBRANCH   8  12
ENDBRANCH   4   7
ENDBRANCH   2   3
ENDBRANCH   1   2
BRANCH   1  22
ATOM     22  C   UNL A   1      34.083  32.175  28.035  1.00  0.00     0.002 C 
BRANCH  22  23
ATOM     23  C   UNL A   1      34.854  33.455  28.385  1.00  0.00     0.002 C 
BRANCH  23  24
ATOM     24  C   UNL A   1      36.379  33.309  28.409  1.00  0.00     0.021 C 
BRANCH  24  25
ATOM     25  C   UNL A   1      37.005  33.493  29.788  1.00  0.00     0.116 C 
BRANCH  25  26
ATOM     26  N   UNL A   1      36.471  32.540  30.746  1.00  0.00    -0.352 N 
ATOM     27  C   UNL A   1      36.868  31.257  31.018  1.00  0.00     0.251 C 
ATOM     28  H   UNL A   1      35.709  32.865  31.278  1.00  0.00     0.163 HD
ATOM     29  O   UNL A   1      36.133  30.522  31.672  1.00  0.00    -0.269 OA
BRANCH  27  30
ATOM     30  C   UNL A   1      38.171  30.758  30.526  1.00  0.00     0.039 A 
ATOM     31  C   UNL A   1      38.289  30.409  29.179  1.00  0.00     0.014 A 
ATOM     32  C   UNL A   1      39.257  30.595  31.391  1.00  0.00     0.014 A 
ATOM     33  C   UNL A   1      39.510  29.938  28.693  1.00  0.00     0.010 A 
ATOM     34  C   UNL A   1      40.494  30.199  30.888  1.00  0.00     0.010 A 
ATOM     35  C   UNL A   1      40.631  29.856  29.537  1.00  0.00    -0.014 A 
BRANCH  35  36
ATOM     36  C   UNL A   1      41.947  29.419  29.002  1.00  0.00     0.031 A 
ATOM     37  C   UNL A   1      43.091  30.390  28.891  1.00  0.00     0.074 A 
ATOM     38  C   UNL A   1      42.095  28.145  28.586  1.00  0.00     0.049 A 
ATOM     39  N   UNL A   1      44.311  30.179  28.466  1.00  0.00    -0.248 NA
ATOM     40  C   UNL A   1      42.829  31.782  29.288  1.00  0.00     0.031 C 
ATOM     41  C   UNL A   1      41.039  27.130  28.587  1.00  0.00     0.029 A 
ATOM     42  N   UNL A   1      43.189  27.484  28.088  1.00  0.00    -0.354 N 
ATOM     43  C   UNL A   1      44.958  31.407  28.539  1.00  0.00     0.074 A 
ATOM     44  C   UNL A   1      43.978  32.372  28.993  1.00  0.00     0.031 C 
ATOM     45  C   UNL A   1      41.547  25.967  28.148  1.00  0.00     0.029 A 
ATOM     46  C   UNL A   1      42.951  26.161  27.800  1.00  0.00     0.049 A 
ATOM     47  H   UNL A   1      44.063  27.917  27.949  1.00  0.00     0.167 HD
ATOM     48  C   UNL A   1      46.255  31.700  28.279  1.00  0.00     0.037 A 
ATOM     49  C   UNL A   1      43.769  25.210  27.311  1.00  0.00     0.037 A 
ATOM     50  C   UNL A   1      47.225  30.729  27.842  1.00  0.00     0.049 A 
ATOM     51  C   UNL A   1      45.206  25.558  27.032  1.00  0.00     0.074 A 
ATOM     52  C   UNL A   1      48.577  30.909  27.606  1.00  0.00     0.029 A 
ATOM     53  N   UNL A   1      46.948  29.396  27.567  1.00  0.00    -0.354 N 
ATOM     54  N   UNL A   1      45.820  26.707  27.183  1.00  0.00    -0.248 NA
ATOM     55  C   UNL A   1      46.064  24.479  26.528  1.00  0.00     0.031 C 
ATOM     56  C   UNL A   1      49.105  29.701  27.138  1.00  0.00     0.029 A 
ATOM     57  C   UNL A   1      48.098  28.751  27.140  1.00  0.00     0.049 A 
ATOM     58  H   UNL A   1      46.066  28.972  27.663  1.00  0.00     0.167 HD
ATOM     59  C   UNL A   1      47.143  26.483  26.816  1.00  0.00     0.074 A 
ATOM     60  C   UNL A   1      47.242  25.084  26.455  1.00  0.00     0.031 C 
ATOM     61  C   UNL A   1      48.180  27.357  26.780  1.00  0.00     0.037 A 
BRANCH  48  62
ATOM     62  C   UNL A   1      46.703  33.126  28.462  1.00  0.00     0.058 A 
ATOM     63  C   UNL A   1      46.646  34.059  27.414  1.00  0.00     0.135 A 
ATOM     64  C   UNL A   1      47.154  33.578  29.713  1.00  0.00     0.135 A 
ATOM     65  F   UNL A   1      46.236  33.680  26.193  1.00  0.00    -0.206 F 
ATOM     66  C   UNL A   1      47.048  35.379  27.590  1.00  0.00     0.059 A 
ATOM     67  C   UNL A   1      47.532  34.903  29.920  1.00  0.00     0.059 A 
ATOM     68  F   UNL A   1      47.230  32.731  30.752  1.00  0.00    -0.206 F 
ATOM     69  C   UNL A   1      47.488  35.793  28.849  1.00  0.00     0.060 A 
BRANCH  69  70
ATOM     70  S   UNL A   1      47.997  37.511  29.061  1.00  0.00     0.124 S 
ATOM     71  O   UNL A   1      48.194  37.929  27.677  1.00  0.00    -0.237 OA
ATOM     72  O   UNL A   1      46.846  38.096  29.741  1.00  0.00    -0.237 OA
ATOM     73  O   UNL A   1      49.211  37.411  29.865  1.00  0.00    -0.744 OA
ENDBRANCH  69  70
ENDBRANCH  48  62
BRANCH  49  74
ATOM     74  C   UNL A   1      43.255  23.834  27.082  1.00  0.00     0.058 A 
ATOM     75  C   UNL A   1      43.104  22.929  28.143  1.00  0.00     0.135 A 
ATOM     76  C   UNL A   1      42.886  23.401  25.798  1.00  0.00     0.135 A 
ATOM     77  F   UNL A   1      43.447  23.293  29.388  1.00  0.00    -0.206 F 
ATOM     78  C   UNL A   1      42.625  21.638  27.940  1.00  0.00     0.059 A 
ATOM     79  C   UNL A   1      42.376  22.126  25.574  1.00  0.00     0.059 A 
ATOM     80  F   UNL A   1      42.990  24.234  24.751  1.00  0.00    -0.206 F 
ATOM     81  C   UNL A   1      42.260  21.248  26.650  1.00  0.00     0.060 A 
BRANCH  81  82
ATOM     82  S   UNL A   1      41.593  19.588  26.403  1.00  0.00     0.124 S 
ATOM     83  O   UNL A   1      42.373  19.124  25.262  1.00  0.00    -0.237 OA
ATOM     84  O   UNL A   1      41.887  18.948  27.682  1.00  0.00    -0.237 OA
ATOM     85  O   UNL A   1      40.177  19.830  26.144  1.00  0.00    -0.744 OA
ENDBRANCH  81  82
ENDBRANCH  49  74
BRANCH  61  86
ATOM     86  C   UNL A   1      49.521  26.816  26.361  1.00  0.00     0.058 A 
ATOM     87  C   UNL A   1      49.987  26.935  25.043  1.00  0.00     0.135 A 
ATOM     88  C   UNL A   1      50.363  26.197  27.300  1.00  0.00     0.135 A 
ATOM     89  F   UNL A   1      49.221  27.512  24.104  1.00  0.00    -0.206 F 
ATOM     90  C   UNL A   1      51.226  26.428  24.661  1.00  0.00     0.059 A 
ATOM     91  C   UNL A   1      51.618  25.713  26.948  1.00  0.00     0.059 A 
ATOM     92  F   UNL A   1      49.972  26.068  28.577  1.00  0.00    -0.206 F 
ATOM     93  C   UNL A   1      52.034  25.818  25.622  1.00  0.00     0.060 A 
BRANCH  93  94
ATOM     94  S   UNL A   1      53.645  25.177  25.117  1.00  0.00     0.124 S 
ATOM     95  O   UNL A   1      53.720  25.631  23.732  1.00  0.00    -0.237 OA
ATOM     96  O   UNL A   1      54.550  25.839  26.051  1.00  0.00    -0.237 OA
ATOM     97  O   UNL A   1      53.510  23.735  25.299  1.00  0.00    -0.744 OA
ENDBRANCH  93  94
ENDBRANCH  61  86
ENDBRANCH  35  36
ENDBRANCH  27  30
ENDBRANCH  25  26
ENDBRANCH  24  25
ENDBRANCH  23  24
ENDBRANCH  22  23
ENDBRANCH   1  22
TORSDOF 21
ENDMDL
