MODEL 1
REMARK VINA RESULT:     -11.7      0.000      0.000
REMARK SMILES O=C(Cc1c[nH]c(=O)n(Cc2ccccc2)c1=O)NCCCCCCNC(=O)c1ccc(-c2c3nc(c(-c4c(F)cc(S(=O)(=O)[O-])cc4F)c4ccc([nH]4)c(-c4c(F)cc(S(=O)(=O)[O-])cc4F)c4nc(c(-c5c(F)cc(S(=O)(=O)[O-])cc5F)c5ccc2[nH]5)C=C4)C=C3)cc1
REMARK SMILES IDX 22 1 21 2 20 3 19 4 1 5 2 6 3 8 4 9 5 10 17 11 6 12 9 13
REMARK SMILES IDX 18 14 7 15 8 17 10 18 11 19 12 20 16 21 13 22 15 23 14 24
REMARK SMILES IDX 23 25 24 26 25 27 26 28 27 29 28 31 29 32 30 33 94 34 31 35
REMARK SMILES IDX 93 36 32 37 33 38 34 39 87 40 35 41 92 42 86 43 88 44 36 45
REMARK SMILES IDX 91 46 85 47 84 48 37 50 71 51 50 52 70 53 51 54 54 55 69 56
REMARK SMILES IDX 89 57 52 58 53 59 68 61 90 62 55 63 38 64 39 65 48 66 40 67
REMARK SMILES IDX 41 68 47 69 49 70 42 71 43 72 44 73 45 74 46 75 72 76 73 77
REMARK SMILES IDX 82 78 74 79 75 80 81 81 83 82 76 83 77 84 78 85 79 86 80 87
REMARK SMILES IDX 56 88 57 89 66 90 58 91 59 92 65 93 67 94 60 95 61 96 62 97
REMARK SMILES IDX 63 98 64 99
REMARK H PARENT 19 7 6 16 26 30 88 49 54 60
REMARK Flexibility Score: inf
ROOT
ATOM      1  C   UNL A   1      38.371  22.130  25.977  1.00  0.00     0.002 C 
ENDROOT
BRANCH   1   2
ATOM      2  C   UNL A   1      37.643  21.395  24.842  1.00  0.00     0.021 C 
BRANCH   2   3
ATOM      3  C   UNL A   1      36.277  20.817  25.215  1.00  0.00     0.116 C 
BRANCH   3   4
ATOM      4  N   UNL A   1      35.605  21.650  26.188  1.00  0.00    -0.356 N 
ATOM      5  O   UNL A   1      33.552  20.612  26.153  1.00  0.00    -0.275 OA
ATOM      6  C   UNL A   1      34.296  21.493  26.571  1.00  0.00     0.224 C 
ATOM      7  H   UNL A   1      36.122  22.378  26.604  1.00  0.00     0.163 HD
BRANCH   6   8
ATOM      8  C   UNL A   1      33.836  22.520  27.597  1.00  0.00     0.142 C 
BRANCH   8   9
ATOM      9  C   UNL A   1      32.770  23.382  26.991  1.00  0.00     0.043 A 
ATOM     10  C   UNL A   1      31.464  23.201  27.197  1.00  0.00     0.097 A 
ATOM     11  C   UNL A   1      33.196  24.510  26.112  1.00  0.00     0.260 A 
ATOM     12  N   UNL A   1      30.548  24.058  26.673  1.00  0.00    -0.314 N 
ATOM     13  N   UNL A   1      32.198  25.349  25.647  1.00  0.00    -0.256 N 
ATOM     14  O   UNL A   1      34.395  24.655  25.866  1.00  0.00    -0.269 OA
ATOM     15  C   UNL A   1      30.856  25.165  25.931  1.00  0.00     0.328 A 
ATOM     16  H   UNL A   1      29.596  23.867  26.839  1.00  0.00     0.171 HD
ATOM     17  O   UNL A   1      29.949  25.916  25.576  1.00  0.00    -0.248 OA
BRANCH  13  18
ATOM     18  C   UNL A   1      32.580  26.503  24.844  1.00  0.00     0.166 C 
BRANCH  18  19
ATOM     19  C   UNL A   1      32.792  27.753  25.675  1.00  0.00    -0.028 A 
ATOM     20  C   UNL A   1      31.786  28.727  25.766  1.00  0.00     0.005 A 
ATOM     21  C   UNL A   1      33.992  27.958  26.371  1.00  0.00     0.005 A 
ATOM     22  C   UNL A   1      31.976  29.880  26.527  1.00  0.00     0.000 A 
ATOM     23  C   UNL A   1      34.174  29.107  27.143  1.00  0.00     0.000 A 
ATOM     24  C   UNL A   1      33.169  30.069  27.219  1.00  0.00     0.000 A 
ENDBRANCH  18  19
ENDBRANCH  13  18
ENDBRANCH   8   9
ENDBRANCH   6   8
ENDBRANCH   3   4
ENDBRANCH   2   3
ENDBRANCH   1   2
BRANCH   1  25
ATOM     25  C   UNL A   1      39.760  21.593  26.334  1.00  0.00     0.002 C 
BRANCH  25  26
ATOM     26  C   UNL A   1      40.446  22.282  27.514  1.00  0.00     0.021 C 
BRANCH  26  27
ATOM     27  C   UNL A   1      41.728  23.035  27.174  1.00  0.00     0.116 C 
BRANCH  27  28
ATOM     28  N   UNL A   1      41.578  23.967  26.065  1.00  0.00    -0.352 N 
ATOM     29  C   UNL A   1      41.347  25.324  26.113  1.00  0.00     0.251 C 
ATOM     30  H   UNL A   1      41.652  23.576  25.165  1.00  0.00     0.163 HD
ATOM     31  O   UNL A   1      41.147  25.956  25.079  1.00  0.00    -0.269 OA
BRANCH  29  32
ATOM     32  C   UNL A   1      41.296  26.005  27.427  1.00  0.00     0.039 A 
ATOM     33  C   UNL A   1      40.145  25.938  28.215  1.00  0.00     0.014 A 
ATOM     34  C   UNL A   1      42.388  26.773  27.842  1.00  0.00     0.014 A 
ATOM     35  C   UNL A   1      40.019  26.776  29.318  1.00  0.00     0.010 A 
ATOM     36  C   UNL A   1      42.287  27.554  28.998  1.00  0.00     0.010 A 
ATOM     37  C   UNL A   1      41.079  27.609  29.712  1.00  0.00    -0.014 A 
BRANCH  37  38
ATOM     38  C   UNL A   1      40.880  28.555  30.842  1.00  0.00     0.031 A 
ATOM     39  C   UNL A   1      41.842  28.577  32.004  1.00  0.00     0.074 A 
ATOM     40  C   UNL A   1      39.877  29.454  30.786  1.00  0.00     0.049 A 
ATOM     41  N   UNL A   1      41.853  29.364  33.050  1.00  0.00    -0.248 NA
ATOM     42  C   UNL A   1      42.932  27.587  31.992  1.00  0.00     0.031 C 
ATOM     43  C   UNL A   1      38.890  29.546  29.708  1.00  0.00     0.029 A 
ATOM     44  N   UNL A   1      39.543  30.482  31.631  1.00  0.00    -0.354 N 
ATOM     45  C   UNL A   1      42.934  28.958  33.825  1.00  0.00     0.074 A 
ATOM     46  C   UNL A   1      43.539  27.833  33.145  1.00  0.00     0.031 C 
ATOM     47  C   UNL A   1      38.099  30.607  29.927  1.00  0.00     0.029 A 
ATOM     48  C   UNL A   1      38.486  31.239  31.184  1.00  0.00     0.049 A 
ATOM     49  H   UNL A   1      40.015  30.661  32.475  1.00  0.00     0.167 HD
ATOM     50  C   UNL A   1      43.393  29.485  34.986  1.00  0.00     0.037 A 
ATOM     51  C   UNL A   1      37.888  32.317  31.727  1.00  0.00     0.037 A 
ATOM     52  C   UNL A   1      42.809  30.623  35.648  1.00  0.00     0.049 A 
ATOM     53  C   UNL A   1      38.390  32.857  33.036  1.00  0.00     0.074 A 
ATOM     54  C   UNL A   1      43.219  31.242  36.815  1.00  0.00     0.029 A 
ATOM     55  N   UNL A   1      41.695  31.316  35.198  1.00  0.00    -0.354 N 
ATOM     56  N   UNL A   1      39.414  32.457  33.752  1.00  0.00    -0.248 NA
ATOM     57  C   UNL A   1      37.649  33.984  33.619  1.00  0.00     0.031 C 
ATOM     58  C   UNL A   1      42.332  32.288  37.091  1.00  0.00     0.029 A 
ATOM     59  C   UNL A   1      41.392  32.344  36.076  1.00  0.00     0.049 A 
ATOM     60  H   UNL A   1      41.195  31.109  34.376  1.00  0.00     0.167 HD
ATOM     61  C   UNL A   1      39.440  33.284  34.869  1.00  0.00     0.074 A 
ATOM     62  C   UNL A   1      38.344  34.220  34.723  1.00  0.00     0.031 C 
ATOM     63  C   UNL A   1      40.291  33.262  35.923  1.00  0.00     0.037 A 
BRANCH  50  64
ATOM     64  C   UNL A   1      44.589  28.836  35.625  1.00  0.00     0.058 A 
ATOM     65  C   UNL A   1      44.454  27.742  36.494  1.00  0.00     0.135 A 
ATOM     66  C   UNL A   1      45.888  29.275  35.323  1.00  0.00     0.135 A 
ATOM     67  F   UNL A   1      43.234  27.291  36.828  1.00  0.00    -0.206 F 
ATOM     68  C   UNL A   1      45.564  27.118  37.055  1.00  0.00     0.059 A 
ATOM     69  C   UNL A   1      47.013  28.653  35.857  1.00  0.00     0.059 A 
ATOM     70  F   UNL A   1      46.073  30.318  34.497  1.00  0.00    -0.206 F 
ATOM     71  C   UNL A   1      46.840  27.581  36.731  1.00  0.00     0.060 A 
BRANCH  71  72
ATOM     72  S   UNL A   1      48.268  26.754  37.462  1.00  0.00     0.124 S 
ATOM     73  O   UNL A   1      47.651  25.565  38.041  1.00  0.00    -0.237 OA
ATOM     74  O   UNL A   1      49.122  26.521  36.301  1.00  0.00    -0.237 OA
ATOM     75  O   UNL A   1      48.774  27.730  38.422  1.00  0.00    -0.744 OA
ENDBRANCH  71  72
ENDBRANCH  50  64
BRANCH  51  76
ATOM     76  C   UNL A   1      36.746  32.956  31.024  1.00  0.00     0.058 A 
ATOM     77  C   UNL A   1      35.428  32.739  31.448  1.00  0.00     0.135 A 
ATOM     78  C   UNL A   1      36.953  33.824  29.940  1.00  0.00     0.135 A 
ATOM     79  F   UNL A   1      35.180  31.912  32.474  1.00  0.00    -0.206 F 
ATOM     80  C   UNL A   1      34.351  33.360  30.821  1.00  0.00     0.059 A 
ATOM     81  C   UNL A   1      35.896  34.474  29.313  1.00  0.00     0.059 A 
ATOM     82  F   UNL A   1      38.199  34.072  29.507  1.00  0.00    -0.206 F 
ATOM     83  C   UNL A   1      34.597  34.231  29.758  1.00  0.00     0.060 A 
BRANCH  83  84
ATOM     84  S   UNL A   1      33.200  35.085  28.997  1.00  0.00     0.124 S 
ATOM     85  O   UNL A   1      33.857  36.233  28.384  1.00  0.00    -0.237 OA
ATOM     86  O   UNL A   1      32.687  34.075  28.077  1.00  0.00    -0.237 OA
ATOM     87  O   UNL A   1      32.332  35.385  30.133  1.00  0.00    -0.744 OA
ENDBRANCH  83  84
ENDBRANCH  51  76
BRANCH  63  88
ATOM     88  C   UNL A   1      40.072  34.274  37.010  1.00  0.00     0.058 A 
ATOM     89  C   UNL A   1      40.690  35.533  36.967  1.00  0.00     0.135 A 
ATOM     90  C   UNL A   1      39.185  34.012  38.065  1.00  0.00     0.135 A 
ATOM     91  F   UNL A   1      41.554  35.828  35.982  1.00  0.00    -0.206 F 
ATOM     92  C   UNL A   1      40.442  36.496  37.939  1.00  0.00     0.059 A 
ATOM     93  C   UNL A   1      38.906  34.968  39.038  1.00  0.00     0.059 A 
ATOM     94  F   UNL A   1      38.562  32.825  38.147  1.00  0.00    -0.206 F 
ATOM     95  C   UNL A   1      39.545  36.206  38.969  1.00  0.00     0.060 A 
BRANCH  95  96
ATOM     96  S   UNL A   1      39.195  37.485  40.194  1.00  0.00     0.124 S 
ATOM     97  O   UNL A   1      38.150  38.253  39.526  1.00  0.00    -0.237 OA
ATOM     98  O   UNL A   1      38.767  36.703  41.349  1.00  0.00    -0.237 OA
ATOM     99  O   UNL A   1      40.476  38.168  40.347  1.00  0.00    -0.744 OA
ENDBRANCH  95  96
ENDBRANCH  63  88
ENDBRANCH  37  38
ENDBRANCH  29  32
ENDBRANCH  27  28
ENDBRANCH  26  27
ENDBRANCH  25  26
ENDBRANCH   1  25
TORSDOF 19
ENDMDL
MODEL 2
REMARK VINA RESULT:     -11.6      1.824      3.660
REMARK SMILES O=C(Cc1c[nH]c(=O)n(Cc2ccccc2)c1=O)NCCCCCCNC(=O)c1ccc(-c2c3nc(c(-c4c(F)cc(S(=O)(=O)[O-])cc4F)c4ccc([nH]4)c(-c4c(F)cc(S(=O)(=O)[O-])cc4F)c4nc(c(-c5c(F)cc(S(=O)(=O)[O-])cc5F)c5ccc2[nH]5)C=C4)C=C3)cc1
REMARK SMILES IDX 22 1 21 2 20 3 19 4 1 5 2 6 3 8 4 9 5 10 17 11 6 12 9 13
REMARK SMILES IDX 18 14 7 15 8 17 10 18 11 19 12 20 16 21 13 22 15 23 14 24
REMARK SMILES IDX 23 25 24 26 25 27 26 28 27 29 28 31 29 32 30 33 94 34 31 35
REMARK SMILES IDX 93 36 32 37 33 38 34 39 87 40 35 41 92 42 86 43 88 44 36 45
REMARK SMILES IDX 91 46 85 47 84 48 37 50 71 51 50 52 70 53 51 54 54 55 69 56
REMARK SMILES IDX 89 57 52 58 53 59 68 61 90 62 55 63 38 64 39 65 48 66 40 67
REMARK SMILES IDX 41 68 47 69 49 70 42 71 43 72 44 73 45 74 46 75 72 76 73 77
REMARK SMILES IDX 82 78 74 79 75 80 81 81 83 82 76 83 77 84 78 85 79 86 80 87
REMARK SMILES IDX 56 88 57 89 66 90 58 91 59 92 65 93 67 94 60 95 61 96 62 97
REMARK SMILES IDX 63 98 64 99
REMARK H PARENT 19 7 6 16 26 30 88 49 54 60
REMARK Flexibility Score: inf
ROOT
ATOM      1  C   UNL A   1      40.608  21.445  27.344  1.00  0.00     0.002 C 
ENDROOT
BRANCH   1   2
ATOM      2  C   UNL A   1      39.664  22.319  26.503  1.00  0.00     0.021 C 
BRANCH   2   3
ATOM      3  C   UNL A   1      38.506  21.571  25.842  1.00  0.00     0.116 C 
BRANCH   3   4
ATOM      4  N   UNL A   1      37.260  22.286  26.007  1.00  0.00    -0.356 N 
ATOM      5  O   UNL A   1      37.628  23.956  24.467  1.00  0.00    -0.275 OA
ATOM      6  C   UNL A   1      36.924  23.426  25.320  1.00  0.00     0.224 C 
ATOM      7  H   UNL A   1      36.609  21.931  26.654  1.00  0.00     0.163 HD
BRANCH   6   8
ATOM      8  C   UNL A   1      35.560  23.986  25.702  1.00  0.00     0.142 C 
BRANCH   8   9
ATOM      9  C   UNL A   1      34.516  23.408  24.795  1.00  0.00     0.043 A 
ATOM     10  C   UNL A   1      34.197  23.925  23.606  1.00  0.00     0.097 A 
ATOM     11  C   UNL A   1      33.797  22.180  25.246  1.00  0.00     0.260 A 
ATOM     12  N   UNL A   1      33.288  23.316  22.799  1.00  0.00    -0.314 N 
ATOM     13  N   UNL A   1      32.911  21.612  24.347  1.00  0.00    -0.256 N 
ATOM     14  O   UNL A   1      34.039  21.724  26.364  1.00  0.00    -0.269 OA
ATOM     15  C   UNL A   1      32.649  22.144  23.096  1.00  0.00     0.328 A 
ATOM     16  H   UNL A   1      33.075  23.751  21.942  1.00  0.00     0.171 HD
ATOM     17  O   UNL A   1      31.907  21.641  22.255  1.00  0.00    -0.248 OA
BRANCH  13  18
ATOM     18  C   UNL A   1      32.242  20.373  24.722  1.00  0.00     0.166 C 
BRANCH  18  19
ATOM     19  C   UNL A   1      32.948  19.141  24.192  1.00  0.00    -0.028 A 
ATOM     20  C   UNL A   1      34.175  18.734  24.737  1.00  0.00     0.005 A 
ATOM     21  C   UNL A   1      32.390  18.384  23.152  1.00  0.00     0.005 A 
ATOM     22  C   UNL A   1      34.831  17.603  24.253  1.00  0.00     0.000 A 
ATOM     23  C   UNL A   1      33.043  17.244  22.678  1.00  0.00     0.000 A 
ATOM     24  C   UNL A   1      34.263  16.855  23.225  1.00  0.00     0.000 A 
ENDBRANCH  18  19
ENDBRANCH  13  18
ENDBRANCH   8   9
ENDBRANCH   6   8
ENDBRANCH   3   4
ENDBRANCH   2   3
ENDBRANCH   1   2
BRANCH   1  25
ATOM     25  C   UNL A   1      41.754  22.184  28.041  1.00  0.00     0.002 C 
BRANCH  25  26
ATOM     26  C   UNL A   1      43.031  22.340  27.216  1.00  0.00     0.021 C 
BRANCH  26  27
ATOM     27  C   UNL A   1      43.398  23.773  26.846  1.00  0.00     0.116 C 
BRANCH  27  28
ATOM     28  N   UNL A   1      42.489  24.376  25.881  1.00  0.00    -0.352 N 
ATOM     29  C   UNL A   1      41.613  25.423  26.067  1.00  0.00     0.251 C 
ATOM     30  H   UNL A   1      42.503  23.984  24.978  1.00  0.00     0.163 HD
ATOM     31  O   UNL A   1      40.839  25.751  25.172  1.00  0.00    -0.269 OA
BRANCH  29  32
ATOM     32  C   UNL A   1      41.582  26.118  27.374  1.00  0.00     0.039 A 
ATOM     33  C   UNL A   1      40.618  25.789  28.329  1.00  0.00     0.014 A 
ATOM     34  C   UNL A   1      42.486  27.156  27.618  1.00  0.00     0.014 A 
ATOM     35  C   UNL A   1      40.444  26.608  29.440  1.00  0.00     0.010 A 
ATOM     36  C   UNL A   1      42.358  27.929  28.777  1.00  0.00     0.010 A 
ATOM     37  C   UNL A   1      41.297  27.700  29.667  1.00  0.00    -0.014 A 
BRANCH  37  38
ATOM     38  C   UNL A   1      41.030  28.606  30.816  1.00  0.00     0.031 A 
ATOM     39  C   UNL A   1      41.942  28.614  32.017  1.00  0.00     0.074 A 
ATOM     40  C   UNL A   1      40.009  29.484  30.744  1.00  0.00     0.049 A 
ATOM     41  N   UNL A   1      41.891  29.369  33.086  1.00  0.00    -0.248 NA
ATOM     42  C   UNL A   1      43.054  27.649  32.022  1.00  0.00     0.031 C 
ATOM     43  C   UNL A   1      39.065  29.586  29.629  1.00  0.00     0.029 A 
ATOM     44  N   UNL A   1      39.616  30.478  31.604  1.00  0.00    -0.354 N 
ATOM     45  C   UNL A   1      42.949  28.963  33.893  1.00  0.00     0.074 A 
ATOM     46  C   UNL A   1      43.608  27.873  33.206  1.00  0.00     0.031 C 
ATOM     47  C   UNL A   1      38.241  30.622  29.845  1.00  0.00     0.029 A 
ATOM     48  C   UNL A   1      38.561  31.224  31.136  1.00  0.00     0.049 A 
ATOM     49  H   UNL A   1      40.049  30.641  32.473  1.00  0.00     0.167 HD
ATOM     50  C   UNL A   1      43.347  29.465  35.087  1.00  0.00     0.037 A 
ATOM     51  C   UNL A   1      37.916  32.272  31.685  1.00  0.00     0.037 A 
ATOM     52  C   UNL A   1      42.709  30.569  35.757  1.00  0.00     0.049 A 
ATOM     53  C   UNL A   1      38.351  32.782  33.029  1.00  0.00     0.074 A 
ATOM     54  C   UNL A   1      43.055  31.161  36.959  1.00  0.00     0.029 A 
ATOM     55  N   UNL A   1      41.599  31.250  35.282  1.00  0.00    -0.354 N 
ATOM     56  N   UNL A   1      39.353  32.384  33.775  1.00  0.00    -0.248 NA
ATOM     57  C   UNL A   1      37.560  33.874  33.614  1.00  0.00     0.031 C 
ATOM     58  C   UNL A   1      42.134  32.178  37.228  1.00  0.00     0.029 A 
ATOM     59  C   UNL A   1      41.235  32.244  36.176  1.00  0.00     0.049 A 
ATOM     60  H   UNL A   1      41.138  31.057  34.433  1.00  0.00     0.167 HD
ATOM     61  C   UNL A   1      39.313  33.176  34.917  1.00  0.00     0.074 A 
ATOM     62  C   UNL A   1      38.203  34.092  34.753  1.00  0.00     0.031 C 
ATOM     63  C   UNL A   1      40.121  33.142  36.005  1.00  0.00     0.037 A 
BRANCH  50  64
ATOM     64  C   UNL A   1      44.530  28.823  35.757  1.00  0.00     0.058 A 
ATOM     65  C   UNL A   1      45.836  29.292  35.547  1.00  0.00     0.135 A 
ATOM     66  C   UNL A   1      44.352  27.763  36.661  1.00  0.00     0.135 A 
ATOM     67  F   UNL A   1      46.064  30.292  34.681  1.00  0.00    -0.206 F 
ATOM     68  C   UNL A   1      46.927  28.722  36.197  1.00  0.00     0.059 A 
ATOM     69  C   UNL A   1      45.426  27.192  37.338  1.00  0.00     0.059 A 
ATOM     70  F   UNL A   1      43.123  27.277  36.898  1.00  0.00    -0.206 F 
ATOM     71  C   UNL A   1      46.711  27.671  37.091  1.00  0.00     0.060 A 
BRANCH  71  72
ATOM     72  S   UNL A   1      48.136  26.949  37.931  1.00  0.00     0.124 S 
ATOM     73  O   UNL A   1      49.226  27.339  37.042  1.00  0.00    -0.237 OA
ATOM     74  O   UNL A   1      48.108  27.620  39.227  1.00  0.00    -0.237 OA
ATOM     75  O   UNL A   1      47.830  25.523  37.959  1.00  0.00    -0.744 OA
ENDBRANCH  71  72
ENDBRANCH  50  64
BRANCH  51  76
ATOM     76  C   UNL A   1      36.789  32.906  30.954  1.00  0.00     0.058 A 
ATOM     77  C   UNL A   1      35.461  32.670  31.333  1.00  0.00     0.135 A 
ATOM     78  C   UNL A   1      37.020  33.789  29.887  1.00  0.00     0.135 A 
ATOM     79  F   UNL A   1      35.191  31.827  32.341  1.00  0.00    -0.206 F 
ATOM     80  C   UNL A   1      34.398  33.286  30.680  1.00  0.00     0.059 A 
ATOM     81  C   UNL A   1      35.976  34.435  29.235  1.00  0.00     0.059 A 
ATOM     82  F   UNL A   1      38.276  34.057  29.496  1.00  0.00    -0.206 F 
ATOM     83  C   UNL A   1      34.666  34.172  29.636  1.00  0.00     0.060 A 
BRANCH  83  84
ATOM     84  S   UNL A   1      33.284  35.019  28.841  1.00  0.00     0.124 S 
ATOM     85  O   UNL A   1      32.780  33.983  27.947  1.00  0.00    -0.237 OA
ATOM     86  O   UNL A   1      32.432  35.352  29.979  1.00  0.00    -0.237 OA
ATOM     87  O   UNL A   1      33.921  36.161  28.191  1.00  0.00    -0.744 OA
ENDBRANCH  83  84
ENDBRANCH  51  76
BRANCH  63  88
ATOM     88  C   UNL A   1      39.833  34.115  37.111  1.00  0.00     0.058 A 
ATOM     89  C   UNL A   1      39.105  33.729  38.246  1.00  0.00     0.135 A 
ATOM     90  C   UNL A   1      40.346  35.420  37.069  1.00  0.00     0.135 A 
ATOM     91  F   UNL A   1      38.586  32.494  38.329  1.00  0.00    -0.206 F 
ATOM     92  C   UNL A   1      38.888  34.609  39.301  1.00  0.00     0.059 A 
ATOM     93  C   UNL A   1      40.159  36.311  38.122  1.00  0.00     0.059 A 
ATOM     94  F   UNL A   1      41.056  35.835  36.007  1.00  0.00    -0.206 F 
ATOM     95  C   UNL A   1      39.422  35.897  39.232  1.00  0.00     0.060 A 
BRANCH  95  96
ATOM     96  S   UNL A   1      39.176  37.011  40.631  1.00  0.00     0.124 S 
ATOM     97  O   UNL A   1      38.275  38.006  40.059  1.00  0.00    -0.237 OA
ATOM     98  O   UNL A   1      38.590  36.127  41.634  1.00  0.00    -0.237 OA
ATOM     99  O   UNL A   1      40.524  37.483  40.932  1.00  0.00    -0.744 OA
ENDBRANCH  95  96
ENDBRANCH  63  88
ENDBRANCH  37  38
ENDBRANCH  29  32
ENDBRANCH  27  28
ENDBRANCH  26  27
ENDBRANCH  25  26
ENDBRANCH   1  25
TORSDOF 19
ENDMDL
MODEL 3
REMARK VINA RESULT:     -11.6      1.164      1.990
REMARK SMILES O=C(Cc1c[nH]c(=O)n(Cc2ccccc2)c1=O)NCCCCCCNC(=O)c1ccc(-c2c3nc(c(-c4c(F)cc(S(=O)(=O)[O-])cc4F)c4ccc([nH]4)c(-c4c(F)cc(S(=O)(=O)[O-])cc4F)c4nc(c(-c5c(F)cc(S(=O)(=O)[O-])cc5F)c5ccc2[nH]5)C=C4)C=C3)cc1
REMARK SMILES IDX 22 1 21 2 20 3 19 4 1 5 2 6 3 8 4 9 5 10 17 11 6 12 9 13
REMARK SMILES IDX 18 14 7 15 8 17 10 18 11 19 12 20 16 21 13 22 15 23 14 24
REMARK SMILES IDX 23 25 24 26 25 27 26 28 27 29 28 31 29 32 30 33 94 34 31 35
REMARK SMILES IDX 93 36 32 37 33 38 34 39 87 40 35 41 92 42 86 43 88 44 36 45
REMARK SMILES IDX 91 46 85 47 84 48 37 50 71 51 50 52 70 53 51 54 54 55 69 56
REMARK SMILES IDX 89 57 52 58 53 59 68 61 90 62 55 63 38 64 39 65 48 66 40 67
REMARK SMILES IDX 41 68 47 69 49 70 42 71 43 72 44 73 45 74 46 75 72 76 73 77
REMARK SMILES IDX 82 78 74 79 75 80 81 81 83 82 76 83 77 84 78 85 79 86 80 87
REMARK SMILES IDX 56 88 57 89 66 90 58 91 59 92 65 93 67 94 60 95 61 96 62 97
REMARK SMILES IDX 63 98 64 99
REMARK H PARENT 19 7 6 16 26 30 88 49 54 60
REMARK Flexibility Score: inf
ROOT
ATOM      1  C   UNL A   1      38.537  22.889  26.213  1.00  0.00     0.002 C 
ENDROOT
BRANCH   1   2
ATOM      2  C   UNL A   1      37.320  22.234  25.541  1.00  0.00     0.021 C 
BRANCH   2   3
ATOM      3  C   UNL A   1      36.624  23.091  24.483  1.00  0.00     0.116 C 
BRANCH   3   4
ATOM      4  N   UNL A   1      35.343  22.530  24.116  1.00  0.00    -0.356 N 
ATOM      5  O   UNL A   1      34.690  24.147  22.615  1.00  0.00    -0.275 OA
ATOM      6  C   UNL A   1      34.472  23.105  23.224  1.00  0.00     0.224 C 
ATOM      7  H   UNL A   1      35.079  21.678  24.532  1.00  0.00     0.163 HD
BRANCH   6   8
ATOM      8  C   UNL A   1      33.185  22.313  23.035  1.00  0.00     0.142 C 
BRANCH   8   9
ATOM      9  C   UNL A   1      32.252  22.606  24.171  1.00  0.00     0.043 A 
ATOM     10  C   UNL A   1      32.108  21.813  25.235  1.00  0.00     0.097 A 
ATOM     11  C   UNL A   1      31.444  23.859  24.110  1.00  0.00     0.260 A 
ATOM     12  N   UNL A   1      31.295  22.167  26.266  1.00  0.00    -0.314 N 
ATOM     13  N   UNL A   1      30.667  24.154  25.217  1.00  0.00    -0.256 N 
ATOM     14  O   UNL A   1      31.523  24.572  23.108  1.00  0.00    -0.269 OA
ATOM     15  C   UNL A   1      30.588  23.336  26.330  1.00  0.00     0.328 A 
ATOM     16  H   UNL A   1      31.209  21.536  27.017  1.00  0.00     0.171 HD
ATOM     17  O   UNL A   1      29.948  23.589  27.349  1.00  0.00    -0.248 OA
BRANCH  13  18
ATOM     18  C   UNL A   1      29.918  25.403  25.226  1.00  0.00     0.166 C 
BRANCH  18  19
ATOM     19  C   UNL A   1      30.792  26.610  25.505  1.00  0.00    -0.028 A 
ATOM     20  C   UNL A   1      30.813  27.694  24.615  1.00  0.00     0.005 A 
ATOM     21  C   UNL A   1      31.591  26.668  26.655  1.00  0.00     0.005 A 
ATOM     22  C   UNL A   1      31.616  28.807  24.864  1.00  0.00     0.000 A 
ATOM     23  C   UNL A   1      32.384  27.789  26.909  1.00  0.00     0.000 A 
ATOM     24  C   UNL A   1      32.399  28.856  26.013  1.00  0.00     0.000 A 
ENDBRANCH  18  19
ENDBRANCH  13  18
ENDBRANCH   8   9
ENDBRANCH   6   8
ENDBRANCH   3   4
ENDBRANCH   2   3
ENDBRANCH   1   2
BRANCH   1  25
ATOM     25  C   UNL A   1      39.807  22.036  26.266  1.00  0.00     0.002 C 
BRANCH  25  26
ATOM     26  C   UNL A   1      40.739  22.320  27.444  1.00  0.00     0.021 C 
BRANCH  26  27
ATOM     27  C   UNL A   1      42.013  23.084  27.099  1.00  0.00     0.116 C 
BRANCH  27  28
ATOM     28  N   UNL A   1      41.843  24.037  26.011  1.00  0.00    -0.352 N 
ATOM     29  C   UNL A   1      41.546  25.380  26.087  1.00  0.00     0.251 C 
ATOM     30  H   UNL A   1      41.956  23.674  25.103  1.00  0.00     0.163 HD
ATOM     31  O   UNL A   1      41.338  26.029  25.066  1.00  0.00    -0.269 OA
BRANCH  29  32
ATOM     32  C   UNL A   1      41.433  26.023  27.416  1.00  0.00     0.039 A 
ATOM     33  C   UNL A   1      40.268  25.884  28.174  1.00  0.00     0.014 A 
ATOM     34  C   UNL A   1      42.479  26.827  27.878  1.00  0.00     0.014 A 
ATOM     35  C   UNL A   1      40.078  26.685  29.295  1.00  0.00     0.010 A 
ATOM     36  C   UNL A   1      42.315  27.572  29.051  1.00  0.00     0.010 A 
ATOM     37  C   UNL A   1      41.090  27.555  29.735  1.00  0.00    -0.014 A 
BRANCH  37  38
ATOM     38  C   UNL A   1      40.822  28.460  30.884  1.00  0.00     0.031 A 
ATOM     39  C   UNL A   1      41.712  28.440  32.102  1.00  0.00     0.074 A 
ATOM     40  C   UNL A   1      39.824  29.362  30.799  1.00  0.00     0.049 A 
ATOM     41  N   UNL A   1      41.658  29.190  33.174  1.00  0.00    -0.248 NA
ATOM     42  C   UNL A   1      42.801  27.450  32.122  1.00  0.00     0.031 C 
ATOM     43  C   UNL A   1      38.903  29.492  29.668  1.00  0.00     0.029 A 
ATOM     44  N   UNL A   1      39.438  30.360  31.658  1.00  0.00    -0.354 N 
ATOM     45  C   UNL A   1      42.691  28.755  33.998  1.00  0.00     0.074 A 
ATOM     46  C   UNL A   1      43.338  27.655  33.317  1.00  0.00     0.031 C 
ATOM     47  C   UNL A   1      38.099  30.545  29.875  1.00  0.00     0.029 A 
ATOM     48  C   UNL A   1      38.408  31.132  31.175  1.00  0.00     0.049 A 
ATOM     49  H   UNL A   1      39.857  30.508  32.535  1.00  0.00     0.167 HD
ATOM     50  C   UNL A   1      43.078  29.241  35.203  1.00  0.00     0.037 A 
ATOM     51  C   UNL A   1      37.778  32.192  31.718  1.00  0.00     0.037 A 
ATOM     52  C   UNL A   1      42.454  30.356  35.868  1.00  0.00     0.049 A 
ATOM     53  C   UNL A   1      38.199  32.684  33.074  1.00  0.00     0.074 A 
ATOM     54  C   UNL A   1      42.791  30.933  37.079  1.00  0.00     0.029 A 
ATOM     55  N   UNL A   1      41.369  31.065  35.376  1.00  0.00    -0.354 N 
ATOM     56  N   UNL A   1      39.178  32.259  33.836  1.00  0.00    -0.248 NA
ATOM     57  C   UNL A   1      37.422  33.791  33.650  1.00  0.00     0.031 C 
ATOM     58  C   UNL A   1      41.889  31.969  37.338  1.00  0.00     0.029 A 
ATOM     59  C   UNL A   1      41.012  32.062  36.270  1.00  0.00     0.049 A 
ATOM     60  H   UNL A   1      40.920  30.888  34.518  1.00  0.00     0.167 HD
ATOM     61  C   UNL A   1      39.135  33.045  34.981  1.00  0.00     0.074 A 
ATOM     62  C   UNL A   1      38.049  33.987  34.802  1.00  0.00     0.031 C 
ATOM     63  C   UNL A   1      39.921  32.986  36.083  1.00  0.00     0.037 A 
BRANCH  50  64
ATOM     64  C   UNL A   1      44.234  28.568  35.890  1.00  0.00     0.058 A 
ATOM     65  C   UNL A   1      45.557  28.984  35.678  1.00  0.00     0.135 A 
ATOM     66  C   UNL A   1      44.013  27.533  36.814  1.00  0.00     0.135 A 
ATOM     67  F   UNL A   1      45.827  29.959  34.795  1.00  0.00    -0.206 F 
ATOM     68  C   UNL A   1      46.623  28.386  36.344  1.00  0.00     0.059 A 
ATOM     69  C   UNL A   1      45.062  26.935  37.506  1.00  0.00     0.059 A 
ATOM     70  F   UNL A   1      42.766  27.098  37.053  1.00  0.00    -0.206 F 
ATOM     71  C   UNL A   1      46.365  27.362  37.257  1.00  0.00     0.060 A 
BRANCH  71  72
ATOM     72  S   UNL A   1      47.759  26.603  38.117  1.00  0.00     0.124 S 
ATOM     73  O   UNL A   1      48.090  25.502  37.219  1.00  0.00    -0.237 OA
ATOM     74  O   UNL A   1      48.728  27.694  38.163  1.00  0.00    -0.237 OA
ATOM     75  O   UNL A   1      47.195  26.214  39.406  1.00  0.00    -0.744 OA
ENDBRANCH  71  72
ENDBRANCH  50  64
BRANCH  51  76
ATOM     76  C   UNL A   1      36.679  32.856  30.971  1.00  0.00     0.058 A 
ATOM     77  C   UNL A   1      35.342  32.685  31.353  1.00  0.00     0.135 A 
ATOM     78  C   UNL A   1      36.948  33.702  29.883  1.00  0.00     0.135 A 
ATOM     79  F   UNL A   1      35.035  31.879  32.381  1.00  0.00    -0.206 F 
ATOM     80  C   UNL A   1      34.306  33.331  30.684  1.00  0.00     0.059 A 
ATOM     81  C   UNL A   1      35.933  34.376  29.214  1.00  0.00     0.059 A 
ATOM     82  F   UNL A   1      38.215  33.906  29.488  1.00  0.00    -0.206 F 
ATOM     83  C   UNL A   1      34.613  34.180  29.619  1.00  0.00     0.060 A 
BRANCH  83  84
ATOM     84  S   UNL A   1      33.269  35.065  28.802  1.00  0.00     0.124 S 
ATOM     85  O   UNL A   1      32.418  35.415  29.934  1.00  0.00    -0.237 OA
ATOM     86  O   UNL A   1      33.974  36.174  28.165  1.00  0.00    -0.237 OA
ATOM     87  O   UNL A   1      32.722  34.071  27.884  1.00  0.00    -0.744 OA
ENDBRANCH  83  84
ENDBRANCH  51  76
BRANCH  63  88
ATOM     88  C   UNL A   1      39.635  33.959  37.190  1.00  0.00     0.058 A 
ATOM     89  C   UNL A   1      38.920  33.571  38.332  1.00  0.00     0.135 A 
ATOM     90  C   UNL A   1      40.138  35.268  37.141  1.00  0.00     0.135 A 
ATOM     91  F   UNL A   1      38.411  32.331  38.422  1.00  0.00    -0.206 F 
ATOM     92  C   UNL A   1      38.705  34.451  39.387  1.00  0.00     0.059 A 
ATOM     93  C   UNL A   1      39.953  36.160  38.193  1.00  0.00     0.059 A 
ATOM     94  F   UNL A   1      40.836  35.686  36.072  1.00  0.00    -0.206 F 
ATOM     95  C   UNL A   1      39.229  35.743  39.310  1.00  0.00     0.060 A 
BRANCH  95  96
ATOM     96  S   UNL A   1      38.986  36.857  40.710  1.00  0.00     0.124 S 
ATOM     97  O   UNL A   1      40.349  37.007  41.207  1.00  0.00    -0.237 OA
ATOM     98  O   UNL A   1      38.410  38.037  40.073  1.00  0.00    -0.237 OA
ATOM     99  O   UNL A   1      38.078  36.117  41.580  1.00  0.00    -0.744 OA
ENDBRANCH  95  96
ENDBRANCH  63  88
ENDBRANCH  37  38
ENDBRANCH  29  32
ENDBRANCH  27  28
ENDBRANCH  26  27
ENDBRANCH  25  26
ENDBRANCH   1  25
TORSDOF 19
ENDMDL
