MODEL 1
REMARK VINA RESULT:     -11.2      0.000      0.000
REMARK SMILES O=C(NCCCCCCNC(=O)c1ccc(S(=O)(=O)Cc2cnoc2)c(F)c1)c1ccc(-c2c3nc(c(-c4c(F)cc(S(=O)(=O)[O-])cc4F)c4ccc([nH]4)c(-c4c(F)cc(S(=O)(=O)[O-])cc4F)c4nc(c(-c5c(F)cc(S(=O)(=O)[O-])cc5F)c5ccc2[nH]5)C=C4)C=C3)cc1
REMARK SMILES IDX 6 1 5 2 4 3 3 4 1 5 2 6 29 8 30 9 94 10 31 11 93 12 32 13
REMARK SMILES IDX 33 14 34 15 87 16 35 17 92 18 86 19 88 20 36 21 91 22 85 23
REMARK SMILES IDX 84 24 37 26 71 27 50 28 70 29 51 30 54 31 69 32 89 33 52 34
REMARK SMILES IDX 53 35 68 37 90 38 55 39 38 40 39 41 48 42 40 43 41 44 47 45
REMARK SMILES IDX 49 46 42 47 43 48 44 49 45 50 46 51 72 52 73 53 82 54 74 55
REMARK SMILES IDX 75 56 81 57 83 58 76 59 77 60 78 61 79 62 80 63 56 64 57 65
REMARK SMILES IDX 66 66 58 67 59 68 65 69 67 70 60 71 61 72 62 73 63 74 64 75
REMARK SMILES IDX 7 76 8 77 9 78 10 79 11 80 12 82 13 83 14 84 28 85 15 86
REMARK SMILES IDX 26 87 16 88 27 89 17 90 18 91 19 92 20 93 21 94 22 95 25 96
REMARK SMILES IDX 23 97 24 98
REMARK H PARENT 3 7 88 25 54 36 10 81
REMARK Flexibility Score: inf
ROOT
ATOM      1  C   UNL A   1      31.615  27.683  25.911  1.00  0.00     0.002 C 
ENDROOT
BRANCH   1   2
ATOM      2  C   UNL A   1      32.916  27.123  26.487  1.00  0.00     0.021 C 
BRANCH   2   3
ATOM      3  C   UNL A   1      34.084  28.098  26.528  1.00  0.00     0.116 C 
BRANCH   3   4
ATOM      4  N   UNL A   1      33.706  29.421  26.996  1.00  0.00    -0.352 N 
ATOM      5  O   UNL A   1      33.905  31.332  28.178  1.00  0.00    -0.269 OA
ATOM      6  C   UNL A   1      34.433  30.306  27.760  1.00  0.00     0.251 C 
ATOM      7  H   UNL A   1      32.808  29.726  26.731  1.00  0.00     0.163 HD
BRANCH   6   8
ATOM      8  C   UNL A   1      35.842  29.999  28.100  1.00  0.00     0.039 A 
ATOM      9  C   UNL A   1      36.856  30.183  27.160  1.00  0.00     0.014 A 
ATOM     10  C   UNL A   1      36.151  29.517  29.377  1.00  0.00     0.014 A 
ATOM     11  C   UNL A   1      38.146  29.747  27.443  1.00  0.00     0.010 A 
ATOM     12  C   UNL A   1      37.470  29.162  29.690  1.00  0.00     0.010 A 
ATOM     13  C   UNL A   1      38.474  29.248  28.715  1.00  0.00    -0.014 A 
BRANCH  13  14
ATOM     14  C   UNL A   1      39.891  28.900  29.000  1.00  0.00     0.031 A 
ATOM     15  C   UNL A   1      40.471  27.568  28.610  1.00  0.00     0.074 A 
ATOM     16  C   UNL A   1      40.679  29.846  29.551  1.00  0.00     0.049 A 
ATOM     17  N   UNL A   1      41.709  27.155  28.705  1.00  0.00    -0.248 NA
ATOM     18  C   UNL A   1      39.551  26.567  28.044  1.00  0.00     0.031 C 
ATOM     19  C   UNL A   1      40.220  31.170  29.986  1.00  0.00     0.029 A 
ATOM     20  N   UNL A   1      42.027  29.868  29.799  1.00  0.00    -0.354 N 
ATOM     21  C   UNL A   1      41.719  25.851  28.225  1.00  0.00     0.074 A 
ATOM     22  C   UNL A   1      40.357  25.529  27.857  1.00  0.00     0.031 C 
ATOM     23  C   UNL A   1      41.277  31.900  30.366  1.00  0.00     0.029 A 
ATOM     24  C   UNL A   1      42.480  31.081  30.263  1.00  0.00     0.049 A 
ATOM     25  H   UNL A   1      42.613  29.090  29.658  1.00  0.00     0.167 HD
ATOM     26  C   UNL A   1      42.772  25.007  28.095  1.00  0.00     0.037 A 
ATOM     27  C   UNL A   1      43.723  31.494  30.569  1.00  0.00     0.037 A 
ATOM     28  C   UNL A   1      44.130  25.344  28.443  1.00  0.00     0.049 A 
ATOM     29  C   UNL A   1      44.867  30.536  30.415  1.00  0.00     0.074 A 
ATOM     30  C   UNL A   1      45.266  24.559  28.329  1.00  0.00     0.029 A 
ATOM     31  N   UNL A   1      44.540  26.561  28.964  1.00  0.00    -0.354 N 
ATOM     32  N   UNL A   1      44.852  29.308  29.957  1.00  0.00    -0.248 NA
ATOM     33  C   UNL A   1      46.192  31.013  30.833  1.00  0.00     0.031 C 
ATOM     34  C   UNL A   1      46.357  25.291  28.810  1.00  0.00     0.029 A 
ATOM     35  C   UNL A   1      45.907  26.544  29.189  1.00  0.00     0.049 A 
ATOM     36  H   UNL A   1      43.947  27.327  29.146  1.00  0.00     0.167 HD
ATOM     37  C   UNL A   1      46.166  28.862  30.035  1.00  0.00     0.074 A 
ATOM     38  C   UNL A   1      46.952  29.963  30.553  1.00  0.00     0.031 C 
ATOM     39  C   UNL A   1      46.671  27.645  29.719  1.00  0.00     0.037 A 
BRANCH  26  40
ATOM     40  C   UNL A   1      42.519  23.630  27.547  1.00  0.00     0.058 A 
ATOM     41  C   UNL A   1      42.333  22.540  28.412  1.00  0.00     0.135 A 
ATOM     42  C   UNL A   1      42.569  23.370  26.168  1.00  0.00     0.135 A 
ATOM     43  F   UNL A   1      42.269  22.734  29.740  1.00  0.00    -0.206 F 
ATOM     44  C   UNL A   1      42.235  21.238  27.933  1.00  0.00     0.059 A 
ATOM     45  C   UNL A   1      42.456  22.077  25.665  1.00  0.00     0.059 A 
ATOM     46  F   UNL A   1      42.723  24.380  25.297  1.00  0.00    -0.206 F 
ATOM     47  C   UNL A   1      42.308  21.014  26.557  1.00  0.00     0.060 A 
BRANCH  47  48
ATOM     48  S   UNL A   1      42.188  19.318  25.950  1.00  0.00     0.124 S 
ATOM     49  O   UNL A   1      40.761  19.199  25.672  1.00  0.00    -0.237 OA
ATOM     50  O   UNL A   1      43.064  19.348  24.783  1.00  0.00    -0.237 OA
ATOM     51  O   UNL A   1      42.681  18.523  27.071  1.00  0.00    -0.744 OA
ENDBRANCH  47  48
ENDBRANCH  26  40
BRANCH  27  52
ATOM     52  C   UNL A   1      43.943  32.883  31.046  1.00  0.00     0.058 A 
ATOM     53  C   UNL A   1      43.917  33.193  32.415  1.00  0.00     0.135 A 
ATOM     54  C   UNL A   1      44.153  33.933  30.141  1.00  0.00     0.135 A 
ATOM     55  F   UNL A   1      43.708  32.225  33.321  1.00  0.00    -0.206 F 
ATOM     56  C   UNL A   1      44.063  34.498  32.869  1.00  0.00     0.059 A 
ATOM     57  C   UNL A   1      44.330  35.245  30.571  1.00  0.00     0.059 A 
ATOM     58  F   UNL A   1      44.197  33.683  28.823  1.00  0.00    -0.206 F 
ATOM     59  C   UNL A   1      44.266  35.518  31.938  1.00  0.00     0.060 A 
BRANCH  59  60
ATOM     60  S   UNL A   1      44.461  37.207  32.543  1.00  0.00     0.124 S 
ATOM     61  O   UNL A   1      45.828  37.176  33.053  1.00  0.00    -0.237 OA
ATOM     62  O   UNL A   1      44.251  37.997  31.334  1.00  0.00    -0.237 OA
ATOM     63  O   UNL A   1      43.414  37.323  33.555  1.00  0.00    -0.744 OA
ENDBRANCH  59  60
ENDBRANCH  27  52
BRANCH  39  64
ATOM     64  C   UNL A   1      48.143  27.441  29.934  1.00  0.00     0.058 A 
ATOM     65  C   UNL A   1      48.624  26.927  31.147  1.00  0.00     0.135 A 
ATOM     66  C   UNL A   1      49.077  27.786  28.946  1.00  0.00     0.135 A 
ATOM     67  F   UNL A   1      47.770  26.584  32.125  1.00  0.00    -0.206 F 
ATOM     68  C   UNL A   1      49.987  26.763  31.375  1.00  0.00     0.059 A 
ATOM     69  C   UNL A   1      50.443  27.610  29.143  1.00  0.00     0.059 A 
ATOM     70  F   UNL A   1      48.662  28.270  27.764  1.00  0.00    -0.206 F 
ATOM     71  C   UNL A   1      50.888  27.108  30.366  1.00  0.00     0.060 A 
BRANCH  71  72
ATOM     72  S   UNL A   1      52.651  26.847  30.655  1.00  0.00     0.124 S 
ATOM     73  O   UNL A   1      52.634  25.878  31.745  1.00  0.00    -0.237 OA
ATOM     74  O   UNL A   1      53.106  26.341  29.363  1.00  0.00    -0.237 OA
ATOM     75  O   UNL A   1      53.137  28.178  31.003  1.00  0.00    -0.744 OA
ENDBRANCH  71  72
ENDBRANCH  39  64
ENDBRANCH  13  14
ENDBRANCH   6   8
ENDBRANCH   3   4
ENDBRANCH   2   3
ENDBRANCH   1   2
BRANCH   1  76
ATOM     76  C   UNL A   1      30.805  26.723  25.034  1.00  0.00     0.002 C 
BRANCH  76  77
ATOM     77  C   UNL A   1      30.654  27.119  23.561  1.00  0.00     0.021 C 
BRANCH  77  78
ATOM     78  C   UNL A   1      31.926  27.625  22.883  1.00  0.00     0.116 C 
BRANCH  78  79
ATOM     79  N   UNL A   1      32.105  27.049  21.560  1.00  0.00    -0.352 N 
ATOM     80  C   UNL A   1      32.766  25.904  21.204  1.00  0.00     0.251 C 
ATOM     81  H   UNL A   1      31.696  27.552  20.819  1.00  0.00     0.163 HD
ATOM     82  O   UNL A   1      32.958  25.617  20.028  1.00  0.00    -0.269 OA
BRANCH  80  83
ATOM     83  C   UNL A   1      33.270  25.008  22.258  1.00  0.00     0.042 A 
ATOM     84  C   UNL A   1      34.095  25.505  23.274  1.00  0.00     0.015 A 
ATOM     85  C   UNL A   1      32.903  23.661  22.229  1.00  0.00     0.054 A 
ATOM     86  C   UNL A   1      34.588  24.633  24.244  1.00  0.00     0.024 A 
ATOM     87  C   UNL A   1      33.413  22.796  23.192  1.00  0.00     0.142 A 
ATOM     88  C   UNL A   1      34.248  23.273  24.194  1.00  0.00     0.103 A 
ATOM     89  F   UNL A   1      33.099  21.499  23.102  1.00  0.00    -0.206 F 
BRANCH  88  90
ATOM     90  S   UNL A   1      34.933  22.204  25.419  1.00  0.00     0.185 S 
ATOM     91  O   UNL A   1      35.608  21.153  24.683  1.00  0.00    -0.223 OA
ATOM     92  O   UNL A   1      35.687  23.060  26.323  1.00  0.00    -0.223 OA
BRANCH  90  93
ATOM     93  C   UNL A   1      33.633  21.452  26.371  1.00  0.00     0.183 C 
BRANCH  93  94
ATOM     94  C   UNL A   1      32.372  22.223  26.515  1.00  0.00     0.027 A 
ATOM     95  C   UNL A   1      32.194  23.423  27.243  1.00  0.00     0.162 A 
ATOM     96  C   UNL A   1      31.125  22.002  25.975  1.00  0.00     0.235 A 
ATOM     97  N   UNL A   1      30.945  23.883  27.169  1.00  0.00    -0.088 NA
ATOM     98  O   UNL A   1      30.271  22.979  26.365  1.00  0.00    -0.364 OA
ENDBRANCH  93  94
ENDBRANCH  90  93
ENDBRANCH  88  90
ENDBRANCH  80  83
ENDBRANCH  78  79
ENDBRANCH  77  78
ENDBRANCH  76  77
ENDBRANCH   1  76
TORSDOF 19
ENDMDL
MODEL 2
REMARK VINA RESULT:     -11.1      1.451      2.063
REMARK SMILES O=C(NCCCCCCNC(=O)c1ccc(S(=O)(=O)Cc2cnoc2)c(F)c1)c1ccc(-c2c3nc(c(-c4c(F)cc(S(=O)(=O)[O-])cc4F)c4ccc([nH]4)c(-c4c(F)cc(S(=O)(=O)[O-])cc4F)c4nc(c(-c5c(F)cc(S(=O)(=O)[O-])cc5F)c5ccc2[nH]5)C=C4)C=C3)cc1
REMARK SMILES IDX 6 1 5 2 4 3 3 4 1 5 2 6 29 8 30 9 94 10 31 11 93 12 32 13
REMARK SMILES IDX 33 14 34 15 87 16 35 17 92 18 86 19 88 20 36 21 91 22 85 23
REMARK SMILES IDX 84 24 37 26 71 27 50 28 70 29 51 30 54 31 69 32 89 33 52 34
REMARK SMILES IDX 53 35 68 37 90 38 55 39 38 40 39 41 48 42 40 43 41 44 47 45
REMARK SMILES IDX 49 46 42 47 43 48 44 49 45 50 46 51 72 52 73 53 82 54 74 55
REMARK SMILES IDX 75 56 81 57 83 58 76 59 77 60 78 61 79 62 80 63 56 64 57 65
REMARK SMILES IDX 66 66 58 67 59 68 65 69 67 70 60 71 61 72 62 73 63 74 64 75
REMARK SMILES IDX 7 76 8 77 9 78 10 79 11 80 12 82 13 83 14 84 28 85 15 86
REMARK SMILES IDX 26 87 16 88 27 89 17 90 18 91 19 92 20 93 21 94 22 95 25 96
REMARK SMILES IDX 23 97 24 98
REMARK H PARENT 3 7 88 25 54 36 10 81
REMARK Flexibility Score: inf
ROOT
ATOM      1  C   UNL A   1      32.591  28.900  24.787  1.00  0.00     0.002 C 
ENDROOT
BRANCH   1   2
ATOM      2  C   UNL A   1      33.552  27.858  25.360  1.00  0.00     0.021 C 
BRANCH   2   3
ATOM      3  C   UNL A   1      34.178  28.215  26.701  1.00  0.00     0.116 C 
BRANCH   3   4
ATOM      4  N   UNL A   1      33.830  29.552  27.154  1.00  0.00    -0.352 N 
ATOM      5  O   UNL A   1      34.073  31.471  28.314  1.00  0.00    -0.269 OA
ATOM      6  C   UNL A   1      34.577  30.429  27.908  1.00  0.00     0.251 C 
ATOM      7  H   UNL A   1      32.939  29.873  26.887  1.00  0.00     0.163 HD
BRANCH   6   8
ATOM      8  C   UNL A   1      35.980  30.095  28.249  1.00  0.00     0.039 A 
ATOM      9  C   UNL A   1      36.998  30.251  27.308  1.00  0.00     0.014 A 
ATOM     10  C   UNL A   1      36.279  29.615  29.529  1.00  0.00     0.014 A 
ATOM     11  C   UNL A   1      38.278  29.791  27.593  1.00  0.00     0.010 A 
ATOM     12  C   UNL A   1      37.590  29.235  29.844  1.00  0.00     0.010 A 
ATOM     13  C   UNL A   1      38.596  29.293  28.869  1.00  0.00    -0.014 A 
BRANCH  13  14
ATOM     14  C   UNL A   1      40.005  28.917  29.156  1.00  0.00     0.031 A 
ATOM     15  C   UNL A   1      40.566  27.583  28.746  1.00  0.00     0.074 A 
ATOM     16  C   UNL A   1      40.805  29.841  29.727  1.00  0.00     0.049 A 
ATOM     17  N   UNL A   1      41.797  27.149  28.841  1.00  0.00    -0.248 NA
ATOM     18  C   UNL A   1      39.634  26.607  28.158  1.00  0.00     0.031 C 
ATOM     19  C   UNL A   1      40.365  31.165  30.181  1.00  0.00     0.029 A 
ATOM     20  N   UNL A   1      42.152  29.837  29.982  1.00  0.00    -0.354 N 
ATOM     21  C   UNL A   1      41.789  25.853  28.339  1.00  0.00     0.074 A 
ATOM     22  C   UNL A   1      40.424  25.559  27.959  1.00  0.00     0.031 C 
ATOM     23  C   UNL A   1      41.432  31.871  30.579  1.00  0.00     0.029 A 
ATOM     24  C   UNL A   1      42.622  31.035  30.469  1.00  0.00     0.049 A 
ATOM     25  H   UNL A   1      42.727  29.053  29.831  1.00  0.00     0.167 HD
ATOM     26  C   UNL A   1      42.829  24.994  28.201  1.00  0.00     0.037 A 
ATOM     27  C   UNL A   1      43.870  31.423  30.789  1.00  0.00     0.037 A 
ATOM     28  C   UNL A   1      44.190  25.303  28.562  1.00  0.00     0.049 A 
ATOM     29  C   UNL A   1      44.999  30.449  30.625  1.00  0.00     0.074 A 
ATOM     30  C   UNL A   1      45.314  24.502  28.441  1.00  0.00     0.029 A 
ATOM     31  N   UNL A   1      44.616  26.505  29.106  1.00  0.00    -0.354 N 
ATOM     32  N   UNL A   1      44.967  29.229  30.146  1.00  0.00    -0.248 NA
ATOM     33  C   UNL A   1      46.329  30.897  31.058  1.00  0.00     0.031 C 
ATOM     34  C   UNL A   1      46.413  25.207  28.940  1.00  0.00     0.029 A 
ATOM     35  C   UNL A   1      45.982  26.462  29.338  1.00  0.00     0.049 A 
ATOM     36  H   UNL A   1      44.034  27.276  29.297  1.00  0.00     0.167 HD
ATOM     37  C   UNL A   1      46.273  28.760  30.224  1.00  0.00     0.074 A 
ATOM     38  C   UNL A   1      47.074  29.839  30.765  1.00  0.00     0.031 C 
ATOM     39  C   UNL A   1      46.760  27.541  29.890  1.00  0.00     0.037 A 
BRANCH  26  40
ATOM     40  C   UNL A   1      42.556  23.630  27.628  1.00  0.00     0.058 A 
ATOM     41  C   UNL A   1      42.347  22.530  28.475  1.00  0.00     0.135 A 
ATOM     42  C   UNL A   1      42.612  23.392  26.246  1.00  0.00     0.135 A 
ATOM     43  F   UNL A   1      42.278  22.702  29.804  1.00  0.00    -0.206 F 
ATOM     44  C   UNL A   1      42.231  21.237  27.973  1.00  0.00     0.059 A 
ATOM     45  C   UNL A   1      42.481  22.110  25.720  1.00  0.00     0.059 A 
ATOM     46  F   UNL A   1      42.788  24.414  25.392  1.00  0.00    -0.206 F 
ATOM     47  C   UNL A   1      42.309  21.036  26.594  1.00  0.00     0.060 A 
BRANCH  47  48
ATOM     48  S   UNL A   1      42.165  19.352  25.958  1.00  0.00     0.124 S 
ATOM     49  O   UNL A   1      42.997  19.410  24.762  1.00  0.00    -0.237 OA
ATOM     50  O   UNL A   1      42.695  18.560  27.065  1.00  0.00    -0.237 OA
ATOM     51  O   UNL A   1      40.732  19.202  25.723  1.00  0.00    -0.744 OA
ENDBRANCH  47  48
ENDBRANCH  26  40
BRANCH  27  52
ATOM     52  C   UNL A   1      44.109  32.800  31.290  1.00  0.00     0.058 A 
ATOM     53  C   UNL A   1      44.510  33.828  30.424  1.00  0.00     0.135 A 
ATOM     54  C   UNL A   1      43.972  33.107  32.652  1.00  0.00     0.135 A 
ATOM     55  F   UNL A   1      44.667  33.582  29.114  1.00  0.00    -0.206 F 
ATOM     56  C   UNL A   1      44.793  35.106  30.892  1.00  0.00     0.059 A 
ATOM     57  C   UNL A   1      44.222  34.385  33.141  1.00  0.00     0.059 A 
ATOM     58  F   UNL A   1      43.579  32.157  33.516  1.00  0.00    -0.206 F 
ATOM     59  C   UNL A   1      44.650  35.373  32.254  1.00  0.00     0.060 A 
BRANCH  59  60
ATOM     60  S   UNL A   1      45.014  37.039  32.846  1.00  0.00     0.124 S 
ATOM     61  O   UNL A   1      45.835  37.560  31.757  1.00  0.00    -0.237 OA
ATOM     62  O   UNL A   1      43.683  37.621  32.974  1.00  0.00    -0.237 OA
ATOM     63  O   UNL A   1      45.716  36.801  34.104  1.00  0.00    -0.744 OA
ENDBRANCH  59  60
ENDBRANCH  27  52
BRANCH  39  64
ATOM     64  C   UNL A   1      48.227  27.310  30.111  1.00  0.00     0.058 A 
ATOM     65  C   UNL A   1      48.711  26.935  31.373  1.00  0.00     0.135 A 
ATOM     66  C   UNL A   1      49.156  27.490  29.074  1.00  0.00     0.135 A 
ATOM     67  F   UNL A   1      47.863  26.751  32.398  1.00  0.00    -0.206 F 
ATOM     68  C   UNL A   1      50.071  26.749  31.601  1.00  0.00     0.059 A 
ATOM     69  C   UNL A   1      50.517  27.289  29.274  1.00  0.00     0.059 A 
ATOM     70  F   UNL A   1      48.737  27.836  27.846  1.00  0.00    -0.206 F 
ATOM     71  C   UNL A   1      50.966  26.929  30.545  1.00  0.00     0.060 A 
BRANCH  71  72
ATOM     72  S   UNL A   1      52.723  26.639  30.841  1.00  0.00     0.124 S 
ATOM     73  O   UNL A   1      52.706  25.322  31.469  1.00  0.00    -0.237 OA
ATOM     74  O   UNL A   1      53.278  26.691  29.492  1.00  0.00    -0.237 OA
ATOM     75  O   UNL A   1      53.106  27.746  31.711  1.00  0.00    -0.744 OA
ENDBRANCH  71  72
ENDBRANCH  39  64
ENDBRANCH  13  14
ENDBRANCH   6   8
ENDBRANCH   3   4
ENDBRANCH   2   3
ENDBRANCH   1   2
BRANCH   1  76
ATOM     76  C   UNL A   1      31.957  28.553  23.437  1.00  0.00     0.002 C 
BRANCH  76  77
ATOM     77  C   UNL A   1      30.739  27.623  23.483  1.00  0.00     0.021 C 
BRANCH  77  78
ATOM     78  C   UNL A   1      31.010  26.167  23.110  1.00  0.00     0.116 C 
BRANCH  78  79
ATOM     79  N   UNL A   1      31.663  26.047  21.817  1.00  0.00    -0.352 N 
ATOM     80  C   UNL A   1      32.655  25.184  21.432  1.00  0.00     0.251 C 
ATOM     81  H   UNL A   1      31.351  26.672  21.124  1.00  0.00     0.163 HD
ATOM     82  O   UNL A   1      33.211  25.295  20.345  1.00  0.00    -0.269 OA
BRANCH  80  83
ATOM     83  C   UNL A   1      33.072  24.113  22.351  1.00  0.00     0.042 A 
ATOM     84  C   UNL A   1      32.303  22.950  22.478  1.00  0.00     0.015 A 
ATOM     85  C   UNL A   1      34.248  24.276  23.086  1.00  0.00     0.054 A 
ATOM     86  C   UNL A   1      32.698  21.962  23.379  1.00  0.00     0.024 A 
ATOM     87  C   UNL A   1      34.625  23.292  23.995  1.00  0.00     0.142 A 
ATOM     88  C   UNL A   1      33.861  22.142  24.143  1.00  0.00     0.103 A 
ATOM     89  F   UNL A   1      35.720  23.504  24.733  1.00  0.00    -0.206 F 
BRANCH  88  90
ATOM     90  S   UNL A   1      34.293  20.883  25.300  1.00  0.00     0.185 S 
ATOM     91  O   UNL A   1      35.532  20.313  24.809  1.00  0.00    -0.223 OA
ATOM     92  O   UNL A   1      34.250  21.511  26.613  1.00  0.00    -0.223 OA
BRANCH  90  93
ATOM     93  C   UNL A   1      33.063  19.598  25.293  1.00  0.00     0.183 C 
BRANCH  93  94
ATOM     94  C   UNL A   1      33.174  18.566  24.230  1.00  0.00     0.027 A 
ATOM     95  C   UNL A   1      32.446  18.520  23.018  1.00  0.00     0.162 A 
ATOM     96  C   UNL A   1      33.998  17.468  24.136  1.00  0.00     0.235 A 
ATOM     97  N   UNL A   1      32.783  17.477  22.260  1.00  0.00    -0.088 NA
ATOM     98  O   UNL A   1      33.766  16.811  22.973  1.00  0.00    -0.364 OA
ENDBRANCH  93  94
ENDBRANCH  90  93
ENDBRANCH  88  90
ENDBRANCH  80  83
ENDBRANCH  78  79
ENDBRANCH  77  78
ENDBRANCH  76  77
ENDBRANCH   1  76
TORSDOF 19
ENDMDL
MODEL 3
REMARK VINA RESULT:     -10.8      5.908     11.556
REMARK SMILES O=C(NCCCCCCNC(=O)c1ccc(S(=O)(=O)Cc2cnoc2)c(F)c1)c1ccc(-c2c3nc(c(-c4c(F)cc(S(=O)(=O)[O-])cc4F)c4ccc([nH]4)c(-c4c(F)cc(S(=O)(=O)[O-])cc4F)c4nc(c(-c5c(F)cc(S(=O)(=O)[O-])cc5F)c5ccc2[nH]5)C=C4)C=C3)cc1
REMARK SMILES IDX 6 1 5 2 4 3 3 4 1 5 2 6 29 8 30 9 94 10 31 11 93 12 32 13
REMARK SMILES IDX 33 14 34 15 87 16 35 17 92 18 86 19 88 20 36 21 91 22 85 23
REMARK SMILES IDX 84 24 37 26 71 27 50 28 70 29 51 30 54 31 69 32 89 33 52 34
REMARK SMILES IDX 53 35 68 37 90 38 55 39 38 40 39 41 48 42 40 43 41 44 47 45
REMARK SMILES IDX 49 46 42 47 43 48 44 49 45 50 46 51 72 52 73 53 82 54 74 55
REMARK SMILES IDX 75 56 81 57 83 58 76 59 77 60 78 61 79 62 80 63 56 64 57 65
REMARK SMILES IDX 66 66 58 67 59 68 65 69 67 70 60 71 61 72 62 73 63 74 64 75
REMARK SMILES IDX 7 76 8 77 9 78 10 79 11 80 12 82 13 83 14 84 28 85 15 86
REMARK SMILES IDX 26 87 16 88 27 89 17 90 18 91 19 92 20 93 21 94 22 95 25 96
REMARK SMILES IDX 23 97 24 98
REMARK H PARENT 3 7 88 25 54 36 10 81
REMARK Flexibility Score: inf
ROOT
ATOM      1  C   UNL A   1      43.348  24.546  29.205  1.00  0.00     0.002 C 
ENDROOT
BRANCH   1   2
ATOM      2  C   UNL A   1      43.004  23.282  28.416  1.00  0.00     0.021 C 
BRANCH   2   3
ATOM      3  C   UNL A   1      41.575  23.206  27.896  1.00  0.00     0.116 C 
BRANCH   3   4
ATOM      4  N   UNL A   1      41.391  23.902  26.633  1.00  0.00    -0.352 N 
ATOM      5  O   UNL A   1      40.736  25.576  25.270  1.00  0.00    -0.269 OA
ATOM      6  C   UNL A   1      40.963  25.192  26.413  1.00  0.00     0.251 C 
ATOM      7  H   UNL A   1      41.599  23.379  25.826  1.00  0.00     0.163 HD
BRANCH   6   8
ATOM      8  C   UNL A   1      40.749  26.101  27.563  1.00  0.00     0.039 A 
ATOM      9  C   UNL A   1      41.581  27.204  27.762  1.00  0.00     0.014 A 
ATOM     10  C   UNL A   1      39.704  25.845  28.457  1.00  0.00     0.014 A 
ATOM     11  C   UNL A   1      41.464  27.956  28.925  1.00  0.00     0.010 A 
ATOM     12  C   UNL A   1      39.531  26.660  29.583  1.00  0.00     0.010 A 
ATOM     13  C   UNL A   1      40.427  27.706  29.842  1.00  0.00    -0.014 A 
BRANCH  13  14
ATOM     14  C   UNL A   1      40.279  28.610  31.013  1.00  0.00     0.031 A 
ATOM     15  C   UNL A   1      41.211  28.534  32.193  1.00  0.00     0.074 A 
ATOM     16  C   UNL A   1      39.331  29.567  30.961  1.00  0.00     0.049 A 
ATOM     17  N   UNL A   1      41.267  29.314  33.242  1.00  0.00    -0.248 NA
ATOM     18  C   UNL A   1      42.202  27.446  32.204  1.00  0.00     0.031 C 
ATOM     19  C   UNL A   1      38.360  29.726  29.872  1.00  0.00     0.029 A 
ATOM     20  N   UNL A   1      39.050  30.609  31.806  1.00  0.00    -0.354 N 
ATOM     21  C   UNL A   1      42.286  28.810  34.042  1.00  0.00     0.074 A 
ATOM     22  C   UNL A   1      42.810  27.641  33.368  1.00  0.00     0.031 C 
ATOM     23  C   UNL A   1      37.651  30.845  30.074  1.00  0.00     0.029 A 
ATOM     24  C   UNL A   1      38.070  31.450  31.333  1.00  0.00     0.049 A 
ATOM     25  H   UNL A   1      39.507  30.743  32.667  1.00  0.00     0.167 HD
ATOM     26  C   UNL A   1      42.746  29.289  35.224  1.00  0.00     0.037 A 
ATOM     27  C   UNL A   1      37.564  32.585  31.849  1.00  0.00     0.037 A 
ATOM     28  C   UNL A   1      42.234  30.467  35.877  1.00  0.00     0.049 A 
ATOM     29  C   UNL A   1      38.093  33.088  33.160  1.00  0.00     0.074 A 
ATOM     30  C   UNL A   1      42.649  31.038  37.069  1.00  0.00     0.029 A 
ATOM     31  N   UNL A   1      41.202  31.259  35.397  1.00  0.00    -0.354 N 
ATOM     32  N   UNL A   1      39.059  32.596  33.897  1.00  0.00    -0.248 NA
ATOM     33  C   UNL A   1      37.456  34.289  33.716  1.00  0.00     0.031 C 
ATOM     34  C   UNL A   1      41.849  32.156  37.324  1.00  0.00     0.029 A 
ATOM     35  C   UNL A   1      40.958  32.304  36.274  1.00  0.00     0.049 A 
ATOM     36  H   UNL A   1      40.714  31.102  34.555  1.00  0.00     0.167 HD
ATOM     37  C   UNL A   1      39.144  33.426  35.008  1.00  0.00     0.074 A 
ATOM     38  C   UNL A   1      38.154  34.468  34.829  1.00  0.00     0.031 C 
ATOM     39  C   UNL A   1      39.959  33.324  36.086  1.00  0.00     0.037 A 
BRANCH  26  40
ATOM     40  C   UNL A   1      43.869  28.553  35.903  1.00  0.00     0.058 A 
ATOM     41  C   UNL A   1      43.597  27.509  36.802  1.00  0.00     0.135 A 
ATOM     42  C   UNL A   1      45.205  28.953  35.748  1.00  0.00     0.135 A 
ATOM     43  F   UNL A   1      42.337  27.082  36.982  1.00  0.00    -0.206 F 
ATOM     44  C   UNL A   1      44.607  26.908  37.545  1.00  0.00     0.059 A 
ATOM     45  C   UNL A   1      46.234  28.354  36.468  1.00  0.00     0.059 A 
ATOM     46  F   UNL A   1      45.520  29.932  34.884  1.00  0.00    -0.206 F 
ATOM     47  C   UNL A   1      45.923  27.344  37.379  1.00  0.00     0.060 A 
BRANCH  47  48
ATOM     48  S   UNL A   1      47.223  26.559  38.356  1.00  0.00     0.124 S 
ATOM     49  O   UNL A   1      47.207  25.195  37.838  1.00  0.00    -0.237 OA
ATOM     50  O   UNL A   1      48.393  27.359  38.008  1.00  0.00    -0.237 OA
ATOM     51  O   UNL A   1      46.754  26.717  39.730  1.00  0.00    -0.744 OA
ENDBRANCH  47  48
ENDBRANCH  26  40
BRANCH  27  52
ATOM     52  C   UNL A   1      36.500  33.319  31.118  1.00  0.00     0.058 A 
ATOM     53  C   UNL A   1      35.174  33.322  31.576  1.00  0.00     0.135 A 
ATOM     54  C   UNL A   1      36.784  34.006  29.929  1.00  0.00     0.135 A 
ATOM     55  F   UNL A   1      34.849  32.669  32.703  1.00  0.00    -0.206 F 
ATOM     56  C   UNL A   1      34.161  33.957  30.868  1.00  0.00     0.059 A 
ATOM     57  C   UNL A   1      35.793  34.673  29.216  1.00  0.00     0.059 A 
ATOM     58  F   UNL A   1      38.041  34.040  29.459  1.00  0.00    -0.206 F 
ATOM     59  C   UNL A   1      34.480  34.627  29.686  1.00  0.00     0.060 A 
BRANCH  59  60
ATOM     60  S   UNL A   1      33.154  35.453  28.782  1.00  0.00     0.124 S 
ATOM     61  O   UNL A   1      32.605  34.348  28.001  1.00  0.00    -0.237 OA
ATOM     62  O   UNL A   1      32.307  35.953  29.859  1.00  0.00    -0.237 OA
ATOM     63  O   UNL A   1      33.859  36.476  28.015  1.00  0.00    -0.744 OA
ENDBRANCH  59  60
ENDBRANCH  27  52
BRANCH  39  64
ATOM     64  C   UNL A   1      39.805  34.365  37.157  1.00  0.00     0.058 A 
ATOM     65  C   UNL A   1      40.452  35.605  37.049  1.00  0.00     0.135 A 
ATOM     66  C   UNL A   1      39.038  34.118  38.306  1.00  0.00     0.135 A 
ATOM     67  F   UNL A   1      41.199  35.889  35.970  1.00  0.00    -0.206 F 
ATOM     68  C   UNL A   1      40.346  36.567  38.048  1.00  0.00     0.059 A 
ATOM     69  C   UNL A   1      38.900  35.073  39.307  1.00  0.00     0.059 A 
ATOM     70  F   UNL A   1      38.390  32.950  38.447  1.00  0.00    -0.206 F 
ATOM     71  C   UNL A   1      39.568  36.291  39.174  1.00  0.00     0.060 A 
BRANCH  71  72
ATOM     72  S   UNL A   1      39.399  37.565  40.442  1.00  0.00     0.124 S 
ATOM     73  O   UNL A   1      38.709  36.839  41.503  1.00  0.00    -0.237 OA
ATOM     74  O   UNL A   1      40.789  37.918  40.715  1.00  0.00    -0.237 OA
ATOM     75  O   UNL A   1      38.617  38.602  39.777  1.00  0.00    -0.744 OA
ENDBRANCH  71  72
ENDBRANCH  39  64
ENDBRANCH  13  14
ENDBRANCH   6   8
ENDBRANCH   3   4
ENDBRANCH   2   3
ENDBRANCH   1   2
BRANCH   1  76
ATOM     76  C   UNL A   1      44.510  24.420  30.195  1.00  0.00     0.002 C 
BRANCH  76  77
ATOM     77  C   UNL A   1      45.302  25.703  30.473  1.00  0.00     0.021 C 
BRANCH  77  78
ATOM     78  C   UNL A   1      44.757  26.968  29.810  1.00  0.00     0.116 C 
BRANCH  78  79
ATOM     79  N   UNL A   1      45.806  27.741  29.166  1.00  0.00    -0.352 N 
ATOM     80  C   UNL A   1      46.570  27.414  28.078  1.00  0.00     0.251 C 
ATOM     81  H   UNL A   1      45.993  28.620  29.568  1.00  0.00     0.163 HD
ATOM     82  O   UNL A   1      47.520  28.107  27.733  1.00  0.00    -0.269 OA
BRANCH  80  83
ATOM     83  C   UNL A   1      46.253  26.192  27.320  1.00  0.00     0.042 A 
ATOM     84  C   UNL A   1      47.027  25.037  27.481  1.00  0.00     0.015 A 
ATOM     85  C   UNL A   1      45.164  26.208  26.445  1.00  0.00     0.054 A 
ATOM     86  C   UNL A   1      46.728  23.902  26.729  1.00  0.00     0.024 A 
ATOM     87  C   UNL A   1      44.885  25.075  25.687  1.00  0.00     0.142 A 
ATOM     88  C   UNL A   1      45.656  23.929  25.824  1.00  0.00     0.103 A 
ATOM     89  F   UNL A   1      43.877  25.138  24.809  1.00  0.00    -0.206 F 
BRANCH  88  90
ATOM     90  S   UNL A   1      45.348  22.481  24.865  1.00  0.00     0.185 S 
ATOM     91  O   UNL A   1      45.201  22.945  23.499  1.00  0.00    -0.223 OA
ATOM     92  O   UNL A   1      46.406  21.541  25.204  1.00  0.00    -0.223 OA
BRANCH  90  93
ATOM     93  C   UNL A   1      43.809  21.738  25.355  1.00  0.00     0.183 C 
BRANCH  93  94
ATOM     94  C   UNL A   1      43.742  20.254  25.337  1.00  0.00     0.027 A 
ATOM     95  C   UNL A   1      42.763  19.445  25.961  1.00  0.00     0.162 A 
ATOM     96  C   UNL A   1      44.549  19.333  24.711  1.00  0.00     0.235 A 
ATOM     97  N   UNL A   1      42.966  18.145  25.749  1.00  0.00    -0.088 NA
ATOM     98  O   UNL A   1      44.100  18.078  24.957  1.00  0.00    -0.364 OA
ENDBRANCH  93  94
ENDBRANCH  90  93
ENDBRANCH  88  90
ENDBRANCH  80  83
ENDBRANCH  78  79
ENDBRANCH  77  78
ENDBRANCH  76  77
ENDBRANCH   1  76
TORSDOF 19
ENDMDL
