MODEL 1
REMARK VINA RESULT:     -14.3      0.000      0.000
REMARK SMILES CC1=C(C)C[C@H](C(=O)NNC(=O)c2cccc(C)c2)[C@@H](C(=O)NCCCCCCNC(=O)c2ccc(-c3c4nc(c(-c5c(F)cc(S(=O)(=O)[O-])cc5F)c5ccc([nH]5)c(-c5c(F)cc(S(=O)(=O)[O-])cc5F)c5nc(c(-c6c(F)cc(S(=O)(=O)[O-])cc6F)c6ccc3[nH]6)C=C5)C=C4)cc2)C1
REMARK SMILES IDX 26 1 25 2 24 3 23 4 21 5 22 6 20 8 1 9 2 10 3 11 99 12 4 13
REMARK SMILES IDX 5 14 6 15 7 16 8 17 9 18 10 20 11 21 12 23 13 24 14 25 19 26
REMARK SMILES IDX 15 27 17 28 16 29 18 30 27 31 28 32 29 33 30 34 31 35 32 37
REMARK SMILES IDX 33 38 34 39 98 40 35 41 97 42 36 43 37 44 38 45 91 46 39 47
REMARK SMILES IDX 96 48 90 49 92 50 40 51 95 52 89 53 88 54 41 56 75 57 54 58
REMARK SMILES IDX 74 59 55 60 58 61 73 62 93 63 56 64 57 65 72 67 94 68 59 69
REMARK SMILES IDX 42 70 43 71 52 72 44 73 45 74 51 75 53 76 46 77 47 78 48 79
REMARK SMILES IDX 49 80 50 81 76 82 77 83 86 84 78 85 79 86 85 87 87 88 80 89
REMARK SMILES IDX 81 90 82 91 83 92 84 93 60 94 61 95 70 96 62 97 63 98 69 99
REMARK SMILES IDX 71 100 64 101 65 102 66 103 67 104 68 105
REMARK H PARENT 23 7 9 19 10 22 30 36 92 55 58 66
REMARK Flexibility Score: inf
ROOT
ATOM      1  C   UNL A   1      33.821  27.936  25.116  1.00  0.00     0.002 C 
ENDROOT
BRANCH   1   2
ATOM      2  C   UNL A   1      33.413  26.733  25.976  1.00  0.00     0.021 C 
BRANCH   2   3
ATOM      3  C   UNL A   1      33.814  25.368  25.413  1.00  0.00     0.116 C 
BRANCH   3   4
ATOM      4  N   UNL A   1      33.430  24.283  26.307  1.00  0.00    -0.356 N 
ATOM      5  C   UNL A   1      33.287  22.944  26.080  1.00  0.00     0.224 C 
ATOM      6  O   UNL A   1      32.914  22.236  27.016  1.00  0.00    -0.275 OA
ATOM      7  H   UNL A   1      33.241  24.563  27.232  1.00  0.00     0.163 HD
BRANCH   5   8
ATOM      8  C   UNL A   1      33.591  22.356  24.710  1.00  0.00     0.095 C 
ATOM      9  C   UNL A   1      36.127  19.354  24.799  1.00  0.00     0.039 C 
ATOM     10  C   UNL A   1      34.779  20.027  24.749  1.00  0.00    -0.074 C 
ATOM     11  C   UNL A   1      33.590  19.389  24.700  1.00  0.00    -0.074 C 
ATOM     12  C   UNL A   1      34.888  21.537  24.744  1.00  0.00     0.045 C 
ATOM     13  C   UNL A   1      33.396  17.895  24.671  1.00  0.00     0.039 C 
ATOM     14  C   UNL A   1      32.284  20.151  24.662  1.00  0.00     0.045 C 
ATOM     15  C   UNL A   1      32.370  21.600  24.173  1.00  0.00     0.097 C 
BRANCH  15  16
ATOM     16  C   UNL A   1      32.382  21.671  22.649  1.00  0.00     0.242 C 
ATOM     17  O   UNL A   1      32.093  20.719  21.925  1.00  0.00    -0.273 OA
ATOM     18  N   UNL A   1      32.763  22.852  22.066  1.00  0.00    -0.267 N 
ATOM     19  H   UNL A   1      33.046  22.823  21.124  1.00  0.00     0.191 HD
BRANCH  18  20
ATOM     20  N   UNL A   1      32.781  24.095  22.709  1.00  0.00    -0.263 N 
ATOM     21  C   UNL A   1      32.473  25.188  21.912  1.00  0.00     0.269 C 
ATOM     22  H   UNL A   1      32.998  24.189  23.665  1.00  0.00     0.191 HD
ATOM     23  O   UNL A   1      32.935  25.346  20.788  1.00  0.00    -0.267 OA
BRANCH  21  24
ATOM     24  C   UNL A   1      31.428  26.103  22.452  1.00  0.00     0.041 A 
ATOM     25  C   UNL A   1      30.687  25.714  23.569  1.00  0.00     0.014 A 
ATOM     26  C   UNL A   1      31.311  27.414  21.963  1.00  0.00     0.017 A 
ATOM     27  C   UNL A   1      29.836  26.633  24.187  1.00  0.00     0.001 A 
ATOM     28  C   UNL A   1      30.446  28.331  22.569  1.00  0.00    -0.050 A 
ATOM     29  C   UNL A   1      29.717  27.931  23.690  1.00  0.00     0.003 A 
ATOM     30  C   UNL A   1      30.373  29.747  22.081  1.00  0.00     0.044 C 
ENDBRANCH  21  24
ENDBRANCH  18  20
ENDBRANCH  15  16
ENDBRANCH   5   8
ENDBRANCH   3   4
ENDBRANCH   2   3
ENDBRANCH   1   2
BRANCH   1  31
ATOM     31  C   UNL A   1      32.934  29.188  25.223  1.00  0.00     0.002 C 
BRANCH  31  32
ATOM     32  C   UNL A   1      33.149  30.062  26.460  1.00  0.00     0.021 C 
BRANCH  32  33
ATOM     33  C   UNL A   1      34.439  29.766  27.218  1.00  0.00     0.116 C 
BRANCH  33  34
ATOM     34  N   UNL A   1      35.180  30.979  27.529  1.00  0.00    -0.352 N 
ATOM     35  C   UNL A   1      36.388  31.092  28.192  1.00  0.00     0.251 C 
ATOM     36  H   UNL A   1      34.771  31.824  27.231  1.00  0.00     0.163 HD
ATOM     37  O   UNL A   1      36.777  32.134  28.688  1.00  0.00    -0.269 OA
BRANCH  35  38
ATOM     38  C   UNL A   1      37.273  29.914  28.137  1.00  0.00     0.039 A 
ATOM     39  C   UNL A   1      37.360  29.137  29.298  1.00  0.00     0.014 A 
ATOM     40  C   UNL A   1      38.174  29.752  27.090  1.00  0.00     0.014 A 
ATOM     41  C   UNL A   1      38.465  28.314  29.490  1.00  0.00     0.010 A 
ATOM     42  C   UNL A   1      39.298  28.977  27.306  1.00  0.00     0.010 A 
ATOM     43  C   UNL A   1      39.474  28.310  28.530  1.00  0.00    -0.014 A 
BRANCH  43  44
ATOM     44  C   UNL A   1      40.792  27.731  28.761  1.00  0.00     0.031 A 
ATOM     45  C   UNL A   1      41.051  26.306  28.452  1.00  0.00     0.074 A 
ATOM     46  C   UNL A   1      41.807  28.519  29.185  1.00  0.00     0.049 A 
ATOM     47  N   UNL A   1      42.111  25.673  28.825  1.00  0.00    -0.248 NA
ATOM     48  C   UNL A   1      40.096  25.450  27.752  1.00  0.00     0.031 C 
ATOM     49  C   UNL A   1      43.237  28.231  29.120  1.00  0.00     0.029 A 
ATOM     50  N   UNL A   1      41.727  29.674  29.965  1.00  0.00    -0.354 N 
ATOM     51  C   UNL A   1      42.122  24.459  28.187  1.00  0.00     0.074 A 
ATOM     52  C   UNL A   1      40.793  24.313  27.649  1.00  0.00     0.031 C 
ATOM     53  C   UNL A   1      43.888  29.018  29.988  1.00  0.00     0.029 A 
ATOM     54  C   UNL A   1      42.884  29.714  30.768  1.00  0.00     0.049 A 
ATOM     55  H   UNL A   1      40.999  30.337  29.956  1.00  0.00     0.167 HD
ATOM     56  C   UNL A   1      43.304  23.791  28.073  1.00  0.00     0.037 A 
ATOM     57  C   UNL A   1      42.804  29.658  32.131  1.00  0.00     0.037 A 
ATOM     58  C   UNL A   1      44.300  24.330  29.001  1.00  0.00     0.049 A 
ATOM     59  C   UNL A   1      43.487  28.458  32.751  1.00  0.00     0.074 A 
ATOM     60  C   UNL A   1      45.449  25.083  28.847  1.00  0.00     0.029 A 
ATOM     61  N   UNL A   1      44.034  24.291  30.369  1.00  0.00    -0.354 N 
ATOM     62  N   UNL A   1      43.868  27.404  32.082  1.00  0.00    -0.248 NA
ATOM     63  C   UNL A   1      43.789  28.347  34.175  1.00  0.00     0.031 C 
ATOM     64  C   UNL A   1      45.809  25.590  30.127  1.00  0.00     0.029 A 
ATOM     65  C   UNL A   1      44.912  25.099  31.063  1.00  0.00     0.049 A 
ATOM     66  H   UNL A   1      43.317  23.759  30.784  1.00  0.00     0.167 HD
ATOM     67  C   UNL A   1      44.398  26.475  32.942  1.00  0.00     0.074 A 
ATOM     68  C   UNL A   1      44.363  27.131  34.235  1.00  0.00     0.031 C 
ATOM     69  C   UNL A   1      44.804  25.240  32.512  1.00  0.00     0.037 A 
BRANCH  56  70
ATOM     70  C   UNL A   1      43.632  22.777  26.989  1.00  0.00     0.058 A 
ATOM     71  C   UNL A   1      43.010  21.507  26.986  1.00  0.00     0.135 A 
ATOM     72  C   UNL A   1      44.654  22.925  26.023  1.00  0.00     0.135 A 
ATOM     73  F   UNL A   1      42.035  21.214  27.860  1.00  0.00    -0.206 F 
ATOM     74  C   UNL A   1      43.387  20.471  26.121  1.00  0.00     0.059 A 
ATOM     75  C   UNL A   1      45.010  21.925  25.116  1.00  0.00     0.059 A 
ATOM     76  F   UNL A   1      45.421  24.018  25.952  1.00  0.00    -0.206 F 
ATOM     77  C   UNL A   1      44.396  20.689  25.191  1.00  0.00     0.060 A 
BRANCH  77  78
ATOM     78  S   UNL A   1      44.935  19.345  24.116  1.00  0.00     0.124 S 
ATOM     79  O   UNL A   1      44.284  18.193  24.730  1.00  0.00    -0.237 OA
ATOM     80  O   UNL A   1      44.417  19.754  22.815  1.00  0.00    -0.237 OA
ATOM     81  O   UNL A   1      46.391  19.378  24.240  1.00  0.00    -0.744 OA
ENDBRANCH  77  78
ENDBRANCH  56  70
BRANCH  57  82
ATOM     82  C   UNL A   1      41.608  30.360  32.671  1.00  0.00     0.058 A 
ATOM     83  C   UNL A   1      40.511  29.564  33.051  1.00  0.00     0.135 A 
ATOM     84  C   UNL A   1      41.707  31.641  33.231  1.00  0.00     0.135 A 
ATOM     85  F   UNL A   1      40.361  28.336  32.529  1.00  0.00    -0.206 F 
ATOM     86  C   UNL A   1      39.653  29.946  34.075  1.00  0.00     0.059 A 
ATOM     87  C   UNL A   1      40.849  32.049  34.255  1.00  0.00     0.059 A 
ATOM     88  F   UNL A   1      42.730  32.445  32.903  1.00  0.00    -0.206 F 
ATOM     89  C   UNL A   1      39.877  31.161  34.719  1.00  0.00     0.060 A 
BRANCH  89  90
ATOM     90  S   UNL A   1      38.999  31.465  36.272  1.00  0.00     0.124 S 
ATOM     91  O   UNL A   1      38.078  32.532  35.896  1.00  0.00    -0.237 OA
ATOM     92  O   UNL A   1      38.386  30.163  36.528  1.00  0.00    -0.237 OA
ATOM     93  O   UNL A   1      40.067  31.847  37.189  1.00  0.00    -0.744 OA
ENDBRANCH  89  90
ENDBRANCH  57  82
BRANCH  69  94
ATOM     94  C   UNL A   1      45.206  24.073  33.395  1.00  0.00     0.058 A 
ATOM     95  C   UNL A   1      46.449  23.950  34.042  1.00  0.00     0.135 A 
ATOM     96  C   UNL A   1      44.259  23.070  33.728  1.00  0.00     0.135 A 
ATOM     97  F   UNL A   1      47.395  24.894  33.924  1.00  0.00    -0.206 F 
ATOM     98  C   UNL A   1      46.761  22.879  34.885  1.00  0.00     0.059 A 
ATOM     99  C   UNL A   1      44.528  22.025  34.610  1.00  0.00     0.059 A 
ATOM    100  F   UNL A   1      43.021  23.080  33.210  1.00  0.00    -0.206 F 
ATOM    101  C   UNL A   1      45.794  21.919  35.163  1.00  0.00     0.060 A 
BRANCH 101 102
ATOM    102  S   UNL A   1      46.162  20.566  36.299  1.00  0.00     0.124 S 
ATOM    103  O   UNL A   1      47.606  20.437  36.139  1.00  0.00    -0.237 OA
ATOM    104  O   UNL A   1      45.716  21.090  37.586  1.00  0.00    -0.237 OA
ATOM    105  O   UNL A   1      45.364  19.465  35.770  1.00  0.00    -0.744 OA
ENDBRANCH 101 102
ENDBRANCH  69  94
ENDBRANCH  43  44
ENDBRANCH  35  38
ENDBRANCH  33  34
ENDBRANCH  32  33
ENDBRANCH  31  32
ENDBRANCH   1  31
TORSDOF 19
ENDMDL
MODEL 2
REMARK VINA RESULT:     -14.0      4.790     11.271
REMARK SMILES CC1=C(C)C[C@H](C(=O)NNC(=O)c2cccc(C)c2)[C@@H](C(=O)NCCCCCCNC(=O)c2ccc(-c3c4nc(c(-c5c(F)cc(S(=O)(=O)[O-])cc5F)c5ccc([nH]5)c(-c5c(F)cc(S(=O)(=O)[O-])cc5F)c5nc(c(-c6c(F)cc(S(=O)(=O)[O-])cc6F)c6ccc3[nH]6)C=C5)C=C4)cc2)C1
REMARK SMILES IDX 26 1 25 2 24 3 23 4 21 5 22 6 20 8 1 9 2 10 3 11 99 12 4 13
REMARK SMILES IDX 5 14 6 15 7 16 8 17 9 18 10 20 11 21 12 23 13 24 14 25 19 26
REMARK SMILES IDX 15 27 17 28 16 29 18 30 27 31 28 32 29 33 30 34 31 35 32 37
REMARK SMILES IDX 33 38 34 39 98 40 35 41 97 42 36 43 37 44 38 45 91 46 39 47
REMARK SMILES IDX 96 48 90 49 92 50 40 51 95 52 89 53 88 54 41 56 75 57 54 58
REMARK SMILES IDX 74 59 55 60 58 61 73 62 93 63 56 64 57 65 72 67 94 68 59 69
REMARK SMILES IDX 42 70 43 71 52 72 44 73 45 74 51 75 53 76 46 77 47 78 48 79
REMARK SMILES IDX 49 80 50 81 76 82 77 83 86 84 78 85 79 86 85 87 87 88 80 89
REMARK SMILES IDX 81 90 82 91 83 92 84 93 60 94 61 95 70 96 62 97 63 98 69 99
REMARK SMILES IDX 71 100 64 101 65 102 66 103 67 104 68 105
REMARK H PARENT 23 7 9 19 10 22 30 36 92 55 58 66
REMARK Flexibility Score: inf
ROOT
ATOM      1  C   UNL A   1      36.250  23.065  23.581  1.00  0.00     0.002 C 
ENDROOT
BRANCH   1   2
ATOM      2  C   UNL A   1      34.932  23.391  22.867  1.00  0.00     0.021 C 
BRANCH   2   3
ATOM      3  C   UNL A   1      34.360  24.779  23.163  1.00  0.00     0.116 C 
BRANCH   3   4
ATOM      4  N   UNL A   1      33.426  25.208  22.131  1.00  0.00    -0.356 N 
ATOM      5  C   UNL A   1      32.312  25.994  22.202  1.00  0.00     0.224 C 
ATOM      6  O   UNL A   1      31.668  26.180  21.168  1.00  0.00    -0.275 OA
ATOM      7  H   UNL A   1      33.633  24.874  21.228  1.00  0.00     0.163 HD
BRANCH   5   8
ATOM      8  C   UNL A   1      31.892  26.621  23.523  1.00  0.00     0.095 C 
ATOM      9  C   UNL A   1      29.539  29.744  23.119  1.00  0.00     0.039 C 
ATOM     10  C   UNL A   1      29.893  28.298  23.362  1.00  0.00    -0.074 C 
ATOM     11  C   UNL A   1      29.007  27.310  23.612  1.00  0.00    -0.074 C 
ATOM     12  C   UNL A   1      31.386  28.054  23.309  1.00  0.00     0.045 C 
ATOM     13  C   UNL A   1      27.513  27.474  23.710  1.00  0.00     0.039 C 
ATOM     14  C   UNL A   1      29.457  25.883  23.832  1.00  0.00     0.045 C 
ATOM     15  C   UNL A   1      30.916  25.700  24.264  1.00  0.00     0.097 C 
BRANCH  15  16
ATOM     16  C   UNL A   1      31.081  25.918  25.765  1.00  0.00     0.242 C 
ATOM     17  O   UNL A   1      30.308  26.597  26.440  1.00  0.00    -0.273 OA
ATOM     18  N   UNL A   1      32.165  25.345  26.379  1.00  0.00    -0.267 N 
ATOM     19  H   UNL A   1      32.433  25.705  27.255  1.00  0.00     0.191 HD
BRANCH  18  20
ATOM     20  N   UNL A   1      32.920  24.289  25.855  1.00  0.00    -0.263 N 
ATOM     21  C   UNL A   1      32.559  23.022  26.287  1.00  0.00     0.269 C 
ATOM     22  H   UNL A   1      33.657  24.435  25.220  1.00  0.00     0.191 HD
ATOM     23  O   UNL A   1      32.320  22.759  27.461  1.00  0.00    -0.267 OA
BRANCH  21  24
ATOM     24  C   UNL A   1      32.343  22.013  25.213  1.00  0.00     0.041 A 
ATOM     25  C   UNL A   1      31.849  22.426  23.974  1.00  0.00     0.014 A 
ATOM     26  C   UNL A   1      32.798  20.694  25.373  1.00  0.00     0.017 A 
ATOM     27  C   UNL A   1      31.812  21.523  22.909  1.00  0.00     0.001 A 
ATOM     28  C   UNL A   1      32.747  19.783  24.314  1.00  0.00    -0.050 A 
ATOM     29  C   UNL A   1      32.257  20.212  23.078  1.00  0.00     0.003 A 
ATOM     30  C   UNL A   1      33.293  18.396  24.474  1.00  0.00     0.044 C 
ENDBRANCH  21  24
ENDBRANCH  18  20
ENDBRANCH  15  16
ENDBRANCH   5   8
ENDBRANCH   3   4
ENDBRANCH   2   3
ENDBRANCH   1   2
BRANCH   1  31
ATOM     31  C   UNL A   1      36.145  22.223  24.864  1.00  0.00     0.002 C 
BRANCH  31  32
ATOM     32  C   UNL A   1      37.454  21.976  25.617  1.00  0.00     0.021 C 
BRANCH  32  33
ATOM     33  C   UNL A   1      38.102  23.240  26.176  1.00  0.00     0.116 C 
BRANCH  33  34
ATOM     34  N   UNL A   1      39.328  22.948  26.904  1.00  0.00    -0.352 N 
ATOM     35  C   UNL A   1      40.259  23.843  27.396  1.00  0.00     0.251 C 
ATOM     36  H   UNL A   1      39.518  21.995  27.065  1.00  0.00     0.163 HD
ATOM     37  O   UNL A   1      41.392  23.520  27.703  1.00  0.00    -0.269 OA
BRANCH  35  38
ATOM     38  C   UNL A   1      39.764  25.202  27.688  1.00  0.00     0.039 A 
ATOM     39  C   UNL A   1      40.208  26.228  26.847  1.00  0.00     0.014 A 
ATOM     40  C   UNL A   1      39.122  25.479  28.890  1.00  0.00     0.014 A 
ATOM     41  C   UNL A   1      40.172  27.544  27.294  1.00  0.00     0.010 A 
ATOM     42  C   UNL A   1      39.137  26.781  29.356  1.00  0.00     0.010 A 
ATOM     43  C   UNL A   1      39.719  27.802  28.586  1.00  0.00    -0.014 A 
BRANCH  43  44
ATOM     44  C   UNL A   1      39.915  29.081  29.259  1.00  0.00     0.031 A 
ATOM     45  C   UNL A   1      38.912  30.161  29.124  1.00  0.00     0.074 A 
ATOM     46  C   UNL A   1      40.978  29.253  30.078  1.00  0.00     0.049 A 
ATOM     47  N   UNL A   1      39.112  31.378  29.504  1.00  0.00    -0.248 NA
ATOM     48  C   UNL A   1      37.614  29.977  28.477  1.00  0.00     0.031 C 
ATOM     49  C   UNL A   1      41.149  30.281  31.100  1.00  0.00     0.029 A 
ATOM     50  N   UNL A   1      42.229  28.639  29.998  1.00  0.00    -0.354 N 
ATOM     51  C   UNL A   1      37.916  32.044  29.433  1.00  0.00     0.074 A 
ATOM     52  C   UNL A   1      37.058  31.179  28.664  1.00  0.00     0.031 C 
ATOM     53  C   UNL A   1      42.451  30.397  31.399  1.00  0.00     0.029 A 
ATOM     54  C   UNL A   1      43.180  29.573  30.454  1.00  0.00     0.049 A 
ATOM     55  H   UNL A   1      42.413  27.725  29.682  1.00  0.00     0.167 HD
ATOM     56  C   UNL A   1      37.759  33.186  30.160  1.00  0.00     0.037 A 
ATOM     57  C   UNL A   1      44.163  30.046  29.631  1.00  0.00     0.037 A 
ATOM     58  C   UNL A   1      39.055  33.706  30.601  1.00  0.00     0.049 A 
ATOM     59  C   UNL A   1      44.115  31.539  29.391  1.00  0.00     0.074 A 
ATOM     60  C   UNL A   1      39.695  33.779  31.825  1.00  0.00     0.029 A 
ATOM     61  N   UNL A   1      40.000  34.058  29.639  1.00  0.00    -0.354 N 
ATOM     62  N   UNL A   1      43.090  32.296  29.674  1.00  0.00    -0.248 NA
ATOM     63  C   UNL A   1      45.216  32.299  28.805  1.00  0.00     0.031 C 
ATOM     64  C   UNL A   1      41.066  34.072  31.579  1.00  0.00     0.029 A 
ATOM     65  C   UNL A   1      41.244  34.231  30.213  1.00  0.00     0.049 A 
ATOM     66  H   UNL A   1      39.807  34.169  28.680  1.00  0.00     0.167 HD
ATOM     67  C   UNL A   1      43.343  33.587  29.282  1.00  0.00     0.074 A 
ATOM     68  C   UNL A   1      44.703  33.542  28.781  1.00  0.00     0.031 C 
ATOM     69  C   UNL A   1      42.400  34.574  29.391  1.00  0.00     0.037 A 
BRANCH  56  70
ATOM     70  C   UNL A   1      36.428  33.736  30.644  1.00  0.00     0.058 A 
ATOM     71  C   UNL A   1      35.508  34.294  29.725  1.00  0.00     0.135 A 
ATOM     72  C   UNL A   1      36.058  33.888  32.000  1.00  0.00     0.135 A 
ATOM     73  F   UNL A   1      35.735  34.242  28.404  1.00  0.00    -0.206 F 
ATOM     74  C   UNL A   1      34.344  34.967  30.119  1.00  0.00     0.059 A 
ATOM     75  C   UNL A   1      34.877  34.507  32.413  1.00  0.00     0.059 A 
ATOM     76  F   UNL A   1      36.856  33.518  33.007  1.00  0.00    -0.206 F 
ATOM     77  C   UNL A   1      34.039  35.074  31.470  1.00  0.00     0.060 A 
BRANCH  77  78
ATOM     78  S   UNL A   1      32.578  35.991  31.994  1.00  0.00     0.124 S 
ATOM     79  O   UNL A   1      33.147  36.935  32.951  1.00  0.00    -0.237 OA
ATOM     80  O   UNL A   1      32.096  36.561  30.742  1.00  0.00    -0.237 OA
ATOM     81  O   UNL A   1      31.721  34.958  32.574  1.00  0.00    -0.744 OA
ENDBRANCH  77  78
ENDBRANCH  56  70
BRANCH  57  82
ATOM     82  C   UNL A   1      44.660  29.020  28.674  1.00  0.00     0.058 A 
ATOM     83  C   UNL A   1      44.071  28.995  27.395  1.00  0.00     0.135 A 
ATOM     84  C   UNL A   1      45.931  28.447  28.817  1.00  0.00     0.135 A 
ATOM     85  F   UNL A   1      42.847  29.515  27.210  1.00  0.00    -0.206 F 
ATOM     86  C   UNL A   1      44.781  28.585  26.273  1.00  0.00     0.059 A 
ATOM     87  C   UNL A   1      46.658  28.019  27.704  1.00  0.00     0.059 A 
ATOM     88  F   UNL A   1      46.538  28.440  30.012  1.00  0.00    -0.206 F 
ATOM     89  C   UNL A   1      46.101  28.166  26.432  1.00  0.00     0.060 A 
BRANCH  89  90
ATOM     90  S   UNL A   1      47.116  27.999  24.943  1.00  0.00     0.124 S 
ATOM     91  O   UNL A   1      48.466  28.125  25.480  1.00  0.00    -0.237 OA
ATOM     92  O   UNL A   1      46.744  26.664  24.476  1.00  0.00    -0.237 OA
ATOM     93  O   UNL A   1      46.664  29.104  24.105  1.00  0.00    -0.744 OA
ENDBRANCH  89  90
ENDBRANCH  57  82
BRANCH  69  94
ATOM     94  C   UNL A   1      42.496  35.971  28.805  1.00  0.00     0.058 A 
ATOM     95  C   UNL A   1      43.271  37.013  29.344  1.00  0.00     0.135 A 
ATOM     96  C   UNL A   1      41.883  36.265  27.560  1.00  0.00     0.135 A 
ATOM     97  F   UNL A   1      44.010  36.835  30.449  1.00  0.00    -0.206 F 
ATOM     98  C   UNL A   1      43.366  38.273  28.745  1.00  0.00     0.059 A 
ATOM     99  C   UNL A   1      42.011  37.494  26.915  1.00  0.00     0.059 A 
ATOM    100  F   UNL A   1      41.140  35.353  26.914  1.00  0.00    -0.206 F 
ATOM    101  C   UNL A   1      42.731  38.506  27.529  1.00  0.00     0.060 A 
BRANCH 101 102
ATOM    102  S   UNL A   1      42.898  40.106  26.714  1.00  0.00     0.124 S 
ATOM    103  O   UNL A   1      43.084  40.997  27.854  1.00  0.00    -0.237 OA
ATOM    104  O   UNL A   1      44.070  39.919  25.865  1.00  0.00    -0.237 OA
ATOM    105  O   UNL A   1      41.634  40.246  25.999  1.00  0.00    -0.744 OA
ENDBRANCH 101 102
ENDBRANCH  69  94
ENDBRANCH  43  44
ENDBRANCH  35  38
ENDBRANCH  33  34
ENDBRANCH  32  33
ENDBRANCH  31  32
ENDBRANCH   1  31
TORSDOF 19
ENDMDL
MODEL 3
REMARK VINA RESULT:     -14.0      1.294      3.674
REMARK SMILES CC1=C(C)C[C@H](C(=O)NNC(=O)c2cccc(C)c2)[C@@H](C(=O)NCCCCCCNC(=O)c2ccc(-c3c4nc(c(-c5c(F)cc(S(=O)(=O)[O-])cc5F)c5ccc([nH]5)c(-c5c(F)cc(S(=O)(=O)[O-])cc5F)c5nc(c(-c6c(F)cc(S(=O)(=O)[O-])cc6F)c6ccc3[nH]6)C=C5)C=C4)cc2)C1
REMARK SMILES IDX 26 1 25 2 24 3 23 4 21 5 22 6 20 8 1 9 2 10 3 11 99 12 4 13
REMARK SMILES IDX 5 14 6 15 7 16 8 17 9 18 10 20 11 21 12 23 13 24 14 25 19 26
REMARK SMILES IDX 15 27 17 28 16 29 18 30 27 31 28 32 29 33 30 34 31 35 32 37
REMARK SMILES IDX 33 38 34 39 98 40 35 41 97 42 36 43 37 44 38 45 91 46 39 47
REMARK SMILES IDX 96 48 90 49 92 50 40 51 95 52 89 53 88 54 41 56 75 57 54 58
REMARK SMILES IDX 74 59 55 60 58 61 73 62 93 63 56 64 57 65 72 67 94 68 59 69
REMARK SMILES IDX 42 70 43 71 52 72 44 73 45 74 51 75 53 76 46 77 47 78 48 79
REMARK SMILES IDX 49 80 50 81 76 82 77 83 86 84 78 85 79 86 85 87 87 88 80 89
REMARK SMILES IDX 81 90 82 91 83 92 84 93 60 94 61 95 70 96 62 97 63 98 69 99
REMARK SMILES IDX 71 100 64 101 65 102 66 103 67 104 68 105
REMARK H PARENT 23 7 9 19 10 22 30 36 92 55 58 66
REMARK Flexibility Score: inf
ROOT
ATOM      1  C   UNL A   1      32.126  27.212  26.740  1.00  0.00     0.002 C 
ENDROOT
BRANCH   1   2
ATOM      2  C   UNL A   1      30.971  27.021  25.748  1.00  0.00     0.021 C 
BRANCH   2   3
ATOM      3  C   UNL A   1      30.545  25.570  25.519  1.00  0.00     0.116 C 
BRANCH   3   4
ATOM      4  N   UNL A   1      31.142  24.672  26.500  1.00  0.00    -0.356 N 
ATOM      5  C   UNL A   1      32.108  23.717  26.368  1.00  0.00     0.224 C 
ATOM      6  O   UNL A   1      32.415  23.063  27.366  1.00  0.00    -0.275 OA
ATOM      7  H   UNL A   1      30.787  24.771  27.413  1.00  0.00     0.163 HD
BRANCH   5   8
ATOM      8  C   UNL A   1      32.784  23.482  25.025  1.00  0.00     0.095 C 
ATOM      9  C   UNL A   1      36.699  23.820  25.139  1.00  0.00     0.039 C 
ATOM     10  C   UNL A   1      35.369  23.108  25.143  1.00  0.00    -0.074 C 
ATOM     11  C   UNL A   1      35.200  21.772  25.231  1.00  0.00    -0.074 C 
ATOM     12  C   UNL A   1      34.203  24.066  25.020  1.00  0.00     0.045 C 
ATOM     13  C   UNL A   1      36.305  20.752  25.325  1.00  0.00     0.039 C 
ATOM     14  C   UNL A   1      33.823  21.148  25.237  1.00  0.00     0.045 C 
ATOM     15  C   UNL A   1      32.699  22.001  24.639  1.00  0.00     0.097 C 
BRANCH  15  16
ATOM     16  C   UNL A   1      32.672  21.893  23.117  1.00  0.00     0.242 C 
ATOM     17  O   UNL A   1      33.121  22.761  22.369  1.00  0.00    -0.273 OA
ATOM     18  N   UNL A   1      32.093  20.780  22.564  1.00  0.00    -0.267 N 
ATOM     19  H   UNL A   1      31.818  20.832  21.621  1.00  0.00     0.191 HD
BRANCH  18  20
ATOM     20  N   UNL A   1      31.861  19.576  23.240  1.00  0.00    -0.263 N 
ATOM     21  C   UNL A   1      32.360  18.437  22.625  1.00  0.00     0.269 C 
ATOM     22  H   UNL A   1      31.377  19.539  24.096  1.00  0.00     0.191 HD
ATOM     23  O   UNL A   1      32.238  18.218  21.425  1.00  0.00    -0.267 OA
BRANCH  21  24
ATOM     24  C   UNL A   1      33.184  17.548  23.491  1.00  0.00     0.041 A 
ATOM     25  C   UNL A   1      34.508  17.895  23.769  1.00  0.00     0.014 A 
ATOM     26  C   UNL A   1      32.592  16.471  24.171  1.00  0.00     0.017 A 
ATOM     27  C   UNL A   1      35.228  17.167  24.718  1.00  0.00     0.001 A 
ATOM     28  C   UNL A   1      33.316  15.728  25.109  1.00  0.00    -0.050 A 
ATOM     29  C   UNL A   1      34.636  16.091  25.382  1.00  0.00     0.003 A 
ATOM     30  C   UNL A   1      32.658  14.621  25.876  1.00  0.00     0.044 C 
ENDBRANCH  21  24
ENDBRANCH  18  20
ENDBRANCH  15  16
ENDBRANCH   5   8
ENDBRANCH   3   4
ENDBRANCH   2   3
ENDBRANCH   1   2
BRANCH   1  31
ATOM     31  C   UNL A   1      32.080  28.477  27.612  1.00  0.00     0.002 C 
BRANCH  31  32
ATOM     32  C   UNL A   1      32.756  29.721  27.032  1.00  0.00     0.021 C 
BRANCH  32  33
ATOM     33  C   UNL A   1      34.274  29.614  26.923  1.00  0.00     0.116 C 
BRANCH  33  34
ATOM     34  N   UNL A   1      34.941  30.825  27.378  1.00  0.00    -0.352 N 
ATOM     35  C   UNL A   1      36.104  30.929  28.117  1.00  0.00     0.251 C 
ATOM     36  H   UNL A   1      34.510  31.675  27.128  1.00  0.00     0.163 HD
ATOM     37  O   UNL A   1      36.418  31.939  28.721  1.00  0.00    -0.269 OA
BRANCH  35  38
ATOM     38  C   UNL A   1      37.044  29.797  28.014  1.00  0.00     0.039 A 
ATOM     39  C   UNL A   1      37.121  28.941  29.118  1.00  0.00     0.014 A 
ATOM     40  C   UNL A   1      37.992  29.753  26.997  1.00  0.00     0.014 A 
ATOM     41  C   UNL A   1      38.254  28.155  29.297  1.00  0.00     0.010 A 
ATOM     42  C   UNL A   1      39.141  29.013  27.204  1.00  0.00     0.010 A 
ATOM     43  C   UNL A   1      39.299  28.265  28.383  1.00  0.00    -0.014 A 
BRANCH  43  44
ATOM     44  C   UNL A   1      40.633  27.728  28.628  1.00  0.00     0.031 A 
ATOM     45  C   UNL A   1      40.934  26.307  28.339  1.00  0.00     0.074 A 
ATOM     46  C   UNL A   1      41.623  28.551  29.043  1.00  0.00     0.049 A 
ATOM     47  N   UNL A   1      42.010  25.710  28.725  1.00  0.00    -0.248 NA
ATOM     48  C   UNL A   1      40.007  25.414  27.649  1.00  0.00     0.031 C 
ATOM     49  C   UNL A   1      43.061  28.303  28.987  1.00  0.00     0.029 A 
ATOM     50  N   UNL A   1      41.506  29.714  29.806  1.00  0.00    -0.354 N 
ATOM     51  C   UNL A   1      42.059  24.488  28.105  1.00  0.00     0.074 A 
ATOM     52  C   UNL A   1      40.737  24.296  27.565  1.00  0.00     0.031 C 
ATOM     53  C   UNL A   1      43.686  29.121  29.846  1.00  0.00     0.029 A 
ATOM     54  C   UNL A   1      42.658  29.800  30.613  1.00  0.00     0.049 A 
ATOM     55  H   UNL A   1      40.759  30.356  29.785  1.00  0.00     0.167 HD
ATOM     56  C   UNL A   1      43.260  23.853  28.005  1.00  0.00     0.037 A 
ATOM     57  C   UNL A   1      42.575  29.761  31.976  1.00  0.00     0.037 A 
ATOM     58  C   UNL A   1      44.236  24.433  28.929  1.00  0.00     0.049 A 
ATOM     59  C   UNL A   1      43.290  28.591  32.615  1.00  0.00     0.074 A 
ATOM     60  C   UNL A   1      45.364  25.218  28.768  1.00  0.00     0.029 A 
ATOM     61  N   UNL A   1      43.966  24.407  30.296  1.00  0.00    -0.354 N 
ATOM     62  N   UNL A   1      43.704  27.538  31.964  1.00  0.00    -0.248 NA
ATOM     63  C   UNL A   1      43.589  28.508  34.042  1.00  0.00     0.031 C 
ATOM     64  C   UNL A   1      45.704  25.753  30.042  1.00  0.00     0.029 A 
ATOM     65  C   UNL A   1      44.818  25.250  30.982  1.00  0.00     0.049 A 
ATOM     66  H   UNL A   1      43.263  23.861  30.717  1.00  0.00     0.167 HD
ATOM     67  C   UNL A   1      44.257  26.637  32.838  1.00  0.00     0.074 A 
ATOM     68  C   UNL A   1      44.198  27.311  34.121  1.00  0.00     0.031 C 
ATOM     69  C   UNL A   1      44.700  25.408  32.429  1.00  0.00     0.037 A 
BRANCH  56  70
ATOM     70  C   UNL A   1      43.622  22.833  26.938  1.00  0.00     0.058 A 
ATOM     71  C   UNL A   1      42.993  21.566  26.916  1.00  0.00     0.135 A 
ATOM     72  C   UNL A   1      44.678  22.972  26.008  1.00  0.00     0.135 A 
ATOM     73  F   UNL A   1      41.985  21.282  27.756  1.00  0.00    -0.206 F 
ATOM     74  C   UNL A   1      43.395  20.525  26.069  1.00  0.00     0.059 A 
ATOM     75  C   UNL A   1      45.061  21.967  25.119  1.00  0.00     0.059 A 
ATOM     76  F   UNL A   1      45.453  24.060  25.961  1.00  0.00    -0.206 F 
ATOM     77  C   UNL A   1      44.438  20.734  25.176  1.00  0.00     0.060 A 
BRANCH  77  78
ATOM     78  S   UNL A   1      45.008  19.384  24.125  1.00  0.00     0.124 S 
ATOM     79  O   UNL A   1      46.454  19.452  24.312  1.00  0.00    -0.237 OA
ATOM     80  O   UNL A   1      44.342  18.226  24.709  1.00  0.00    -0.237 OA
ATOM     81  O   UNL A   1      44.533  19.767  22.797  1.00  0.00    -0.744 OA
ENDBRANCH  77  78
ENDBRANCH  56  70
BRANCH  57  82
ATOM     82  C   UNL A   1      41.357  30.436  32.501  1.00  0.00     0.058 A 
ATOM     83  C   UNL A   1      40.258  29.619  32.827  1.00  0.00     0.135 A 
ATOM     84  C   UNL A   1      41.427  31.702  33.100  1.00  0.00     0.135 A 
ATOM     85  F   UNL A   1      40.136  28.405  32.266  1.00  0.00    -0.206 F 
ATOM     86  C   UNL A   1      39.367  29.963  33.837  1.00  0.00     0.059 A 
ATOM     87  C   UNL A   1      40.536  32.072  34.110  1.00  0.00     0.059 A 
ATOM     88  F   UNL A   1      42.450  32.524  32.824  1.00  0.00    -0.206 F 
ATOM     89  C   UNL A   1      39.561  31.161  34.520  1.00  0.00     0.060 A 
BRANCH  89  90
ATOM     90  S   UNL A   1      38.637  31.413  36.056  1.00  0.00     0.124 S 
ATOM     91  O   UNL A   1      39.462  32.395  36.750  1.00  0.00    -0.237 OA
ATOM     92  O   UNL A   1      37.354  31.906  35.556  1.00  0.00    -0.237 OA
ATOM     93  O   UNL A   1      38.607  30.081  36.650  1.00  0.00    -0.744 OA
ENDBRANCH  89  90
ENDBRANCH  57  82
BRANCH  69  94
ATOM     94  C   UNL A   1      45.133  24.266  33.330  1.00  0.00     0.058 A 
ATOM     95  C   UNL A   1      44.371  23.110  33.577  1.00  0.00     0.135 A 
ATOM     96  C   UNL A   1      46.437  24.252  33.887  1.00  0.00     0.135 A 
ATOM     97  F   UNL A   1      43.170  22.930  33.007  1.00  0.00    -0.206 F 
ATOM     98  C   UNL A   1      44.828  22.060  34.379  1.00  0.00     0.059 A 
ATOM     99  C   UNL A   1      46.936  23.191  34.641  1.00  0.00     0.059 A 
ATOM    100  F   UNL A   1      47.286  25.275  33.705  1.00  0.00    -0.206 F 
ATOM    101  C   UNL A   1      46.113  22.109  34.909  1.00  0.00     0.060 A 
BRANCH 101 102
ATOM    102  S   UNL A   1      46.739  20.732  35.893  1.00  0.00     0.124 S 
ATOM    103  O   UNL A   1      47.511  19.993  34.900  1.00  0.00    -0.237 OA
ATOM    104  O   UNL A   1      47.522  21.400  36.928  1.00  0.00    -0.237 OA
ATOM    105  O   UNL A   1      45.521  20.082  36.363  1.00  0.00    -0.744 OA
ENDBRANCH 101 102
ENDBRANCH  69  94
ENDBRANCH  43  44
ENDBRANCH  35  38
ENDBRANCH  33  34
ENDBRANCH  32  33
ENDBRANCH  31  32
ENDBRANCH   1  31
TORSDOF 19
ENDMDL
