MODEL 1
REMARK VINA RESULT:     -12.0      0.000      0.000
REMARK SMILES CCc1cccc2c3c([nH]c12)[C@](CC)(CC(=O)NCCCCCCNC(=O)c1ccc(-c2c4nc(c(-c5c(F)cc(S(=O)(=O)[O-])cc5F)c5ccc([nH]5)c(-c5c(F)cc(S(=O)(=O)[O-])cc5F)c5nc(c(-c6c(F)cc(S(=O)(=O)[O-])cc6F)c6ccc2[nH]6)C=C5)C=C4)cc1)OCC3
REMARK SMILES IDX 22 1 21 2 20 3 19 4 18 5 16 6 17 7 15 9 12 10 3 11 4 12
REMARK SMILES IDX 11 13 5 14 7 15 10 16 6 17 8 18 9 19 96 21 95 22 94 23 2 24
REMARK SMILES IDX 1 25 13 26 14 27 23 28 24 29 25 30 26 31 27 33 28 34 29 35
REMARK SMILES IDX 93 36 30 37 92 38 31 39 32 40 33 41 86 42 34 43 91 44 85 45
REMARK SMILES IDX 87 46 35 47 90 48 84 49 83 50 36 52 70 53 49 54 69 55 50 56
REMARK SMILES IDX 53 57 68 58 88 59 51 60 52 61 67 63 89 64 54 65 37 66 38 67
REMARK SMILES IDX 47 68 39 69 40 70 46 71 48 72 41 73 42 74 43 75 44 76 45 77
REMARK SMILES IDX 71 78 72 79 81 80 73 81 74 82 80 83 82 84 75 85 76 86 77 87
REMARK SMILES IDX 78 88 79 89 55 90 56 91 65 92 57 93 58 94 64 95 66 96 59 97
REMARK SMILES IDX 60 98 61 99 62 100 63 101
REMARK H PARENT 18 8 10 20 25 32 87 51 53 62
REMARK Flexibility Score: inf
ROOT
ATOM      1  C   UNL A   1      41.000  21.103  27.248  1.00  0.00     0.002 C 
ENDROOT
BRANCH   1   2
ATOM      2  C   UNL A   1      40.288  22.329  26.694  1.00  0.00     0.002 C 
BRANCH   2   3
ATOM      3  C   UNL A   1      38.883  22.049  26.130  1.00  0.00     0.021 C 
BRANCH   3   4
ATOM      4  C   UNL A   1      37.960  23.269  26.002  1.00  0.00     0.116 C 
BRANCH   4   5
ATOM      5  N   UNL A   1      37.403  23.478  24.669  1.00  0.00    -0.356 N 
ATOM      6  C   UNL A   1      36.551  22.731  23.904  1.00  0.00     0.223 C 
ATOM      7  O   UNL A   1      36.319  23.109  22.755  1.00  0.00    -0.275 OA
ATOM      8  H   UNL A   1      37.697  24.314  24.239  1.00  0.00     0.163 HD
BRANCH   6   9
ATOM      9  C   UNL A   1      35.865  21.519  24.482  1.00  0.00     0.142 C 
BRANCH   9  10
ATOM     10  C   UNL A   1      34.523  21.685  25.235  1.00  0.00     0.117 C 
ATOM     11  C   UNL A   1      32.390  26.290  25.018  1.00  0.00    -0.024 A 
ATOM     12  C   UNL A   1      31.305  26.783  24.256  1.00  0.00     0.006 A 
ATOM     13  C   UNL A   1      32.775  24.960  24.752  1.00  0.00     0.049 A 
ATOM     14  C   UNL A   1      30.654  26.015  23.294  1.00  0.00     0.001 A 
ATOM     15  C   UNL A   1      32.104  24.166  23.823  1.00  0.00     0.003 A 
ATOM     16  N   UNL A   1      33.768  24.166  25.305  1.00  0.00    -0.356 N 
ATOM     17  C   UNL A   1      31.041  24.699  23.075  1.00  0.00     0.010 A 
ATOM     18  C   UNL A   1      32.642  22.868  23.932  1.00  0.00    -0.014 A 
ATOM     19  C   UNL A   1      33.710  22.889  24.801  1.00  0.00     0.052 A 
ATOM     20  H   UNL A   1      34.427  24.475  25.969  1.00  0.00     0.166 HD
ATOM     21  C   UNL A   1      32.110  21.624  23.365  1.00  0.00     0.066 C 
ATOM     22  C   UNL A   1      32.901  20.428  23.869  1.00  0.00     0.166 C 
ATOM     23  O   UNL A   1      33.624  20.562  25.108  1.00  0.00    -0.368 OA
BRANCH  11  24
ATOM     24  C   UNL A   1      32.981  27.158  26.100  1.00  0.00     0.034 C 
ATOM     25  C   UNL A   1      31.954  27.735  27.061  1.00  0.00     0.009 C 
ENDBRANCH  11  24
BRANCH  10  26
ATOM     26  C   UNL A   1      34.835  21.790  26.766  1.00  0.00     0.039 C 
ATOM     27  C   UNL A   1      33.618  21.821  27.696  1.00  0.00     0.007 C 
ENDBRANCH  10  26
ENDBRANCH   9  10
ENDBRANCH   6   9
ENDBRANCH   4   5
ENDBRANCH   3   4
ENDBRANCH   2   3
ENDBRANCH   1   2
BRANCH   1  28
ATOM     28  C   UNL A   1      41.239  19.999  26.217  1.00  0.00     0.021 C 
BRANCH  28  29
ATOM     29  C   UNL A   1      42.627  19.354  26.288  1.00  0.00     0.116 C 
BRANCH  29  30
ATOM     30  N   UNL A   1      43.413  19.526  25.085  1.00  0.00    -0.352 N 
ATOM     31  C   UNL A   1      44.172  20.564  24.613  1.00  0.00     0.251 C 
ATOM     32  H   UNL A   1      43.399  18.742  24.489  1.00  0.00     0.163 HD
ATOM     33  O   UNL A   1      44.803  20.364  23.572  1.00  0.00    -0.269 OA
BRANCH  31  34
ATOM     34  C   UNL A   1      44.202  21.918  25.232  1.00  0.00     0.039 A 
ATOM     35  C   UNL A   1      44.952  22.273  26.353  1.00  0.00     0.014 A 
ATOM     36  C   UNL A   1      43.352  22.881  24.661  1.00  0.00     0.014 A 
ATOM     37  C   UNL A   1      44.730  23.478  26.998  1.00  0.00     0.010 A 
ATOM     38  C   UNL A   1      43.178  24.120  25.263  1.00  0.00     0.010 A 
ATOM     39  C   UNL A   1      43.815  24.385  26.471  1.00  0.00    -0.014 A 
BRANCH  39  40
ATOM     40  C   UNL A   1      43.633  25.635  27.196  1.00  0.00     0.031 A 
ATOM     41  C   UNL A   1      44.656  26.683  26.907  1.00  0.00     0.074 A 
ATOM     42  C   UNL A   1      42.582  25.863  28.006  1.00  0.00     0.049 A 
ATOM     43  N   UNL A   1      45.514  27.208  27.721  1.00  0.00    -0.248 NA
ATOM     44  C   UNL A   1      44.845  27.090  25.505  1.00  0.00     0.031 C 
ATOM     45  C   UNL A   1      41.386  25.042  28.200  1.00  0.00     0.029 A 
ATOM     46  N   UNL A   1      42.319  26.961  28.760  1.00  0.00    -0.354 N 
ATOM     47  C   UNL A   1      46.222  28.157  26.984  1.00  0.00     0.074 A 
ATOM     48  C   UNL A   1      45.872  27.935  25.605  1.00  0.00     0.031 C 
ATOM     49  C   UNL A   1      40.430  25.789  28.796  1.00  0.00     0.029 A 
ATOM     50  C   UNL A   1      40.990  27.084  29.138  1.00  0.00     0.049 A 
ATOM     51  H   UNL A   1      43.011  27.614  29.016  1.00  0.00     0.167 HD
ATOM     52  C   UNL A   1      46.902  29.175  27.583  1.00  0.00     0.037 A 
ATOM     53  C   UNL A   1      40.388  28.214  29.593  1.00  0.00     0.037 A 
ATOM     54  C   UNL A   1      47.115  28.915  28.982  1.00  0.00     0.049 A 
ATOM     55  C   UNL A   1      41.467  29.091  30.131  1.00  0.00     0.074 A 
ATOM     56  C   UNL A   1      47.776  27.932  29.693  1.00  0.00     0.029 A 
ATOM     57  N   UNL A   1      46.301  29.548  29.892  1.00  0.00    -0.354 N 
ATOM     58  N   UNL A   1      42.188  28.790  31.180  1.00  0.00    -0.248 NA
ATOM     59  C   UNL A   1      42.073  30.055  29.221  1.00  0.00     0.031 C 
ATOM     60  C   UNL A   1      46.958  27.694  30.834  1.00  0.00     0.029 A 
ATOM     61  C   UNL A   1      45.887  28.588  30.780  1.00  0.00     0.049 A 
ATOM     62  H   UNL A   1      46.063  30.503  29.902  1.00  0.00     0.167 HD
ATOM     63  C   UNL A   1      43.479  29.183  30.855  1.00  0.00     0.074 A 
ATOM     64  C   UNL A   1      43.333  30.020  29.664  1.00  0.00     0.031 C 
ATOM     65  C   UNL A   1      44.577  28.572  31.394  1.00  0.00     0.037 A 
BRANCH  52  66
ATOM     66  C   UNL A   1      47.080  30.556  26.998  1.00  0.00     0.058 A 
ATOM     67  C   UNL A   1      48.355  31.161  27.030  1.00  0.00     0.135 A 
ATOM     68  C   UNL A   1      46.004  31.418  26.694  1.00  0.00     0.135 A 
ATOM     69  F   UNL A   1      49.453  30.435  27.297  1.00  0.00    -0.206 F 
ATOM     70  C   UNL A   1      48.533  32.537  26.881  1.00  0.00     0.059 A 
ATOM     71  C   UNL A   1      46.167  32.784  26.490  1.00  0.00     0.059 A 
ATOM     72  F   UNL A   1      44.734  30.998  26.684  1.00  0.00    -0.206 F 
ATOM     73  C   UNL A   1      47.425  33.343  26.636  1.00  0.00     0.060 A 
BRANCH  73  74
ATOM     74  S   UNL A   1      47.630  35.131  26.596  1.00  0.00     0.124 S 
ATOM     75  O   UNL A   1      48.491  35.299  25.432  1.00  0.00    -0.237 OA
ATOM     76  O   UNL A   1      46.254  35.590  26.447  1.00  0.00    -0.237 OA
ATOM     77  O   UNL A   1      48.248  35.428  27.886  1.00  0.00    -0.744 OA
ENDBRANCH  73  74
ENDBRANCH  52  66
BRANCH  53  78
ATOM     78  C   UNL A   1      39.036  28.705  29.194  1.00  0.00     0.058 A 
ATOM     79  C   UNL A   1      37.987  28.824  30.122  1.00  0.00     0.135 A 
ATOM     80  C   UNL A   1      38.809  29.302  27.934  1.00  0.00     0.135 A 
ATOM     81  F   UNL A   1      38.122  28.318  31.358  1.00  0.00    -0.206 F 
ATOM     82  C   UNL A   1      36.800  29.513  29.829  1.00  0.00     0.059 A 
ATOM     83  C   UNL A   1      37.633  29.978  27.614  1.00  0.00     0.059 A 
ATOM     84  F   UNL A   1      39.761  29.329  26.991  1.00  0.00    -0.206 F 
ATOM     85  C   UNL A   1      36.640  30.100  28.574  1.00  0.00     0.060 A 
BRANCH  85  86
ATOM     86  S   UNL A   1      35.179  31.111  28.229  1.00  0.00     0.124 S 
ATOM     87  O   UNL A   1      34.796  31.555  29.565  1.00  0.00    -0.237 OA
ATOM     88  O   UNL A   1      35.719  32.137  27.345  1.00  0.00    -0.237 OA
ATOM     89  O   UNL A   1      34.256  30.171  27.597  1.00  0.00    -0.744 OA
ENDBRANCH  85  86
ENDBRANCH  53  78
BRANCH  65  90
ATOM     90  C   UNL A   1      44.400  27.608  32.539  1.00  0.00     0.058 A 
ATOM     91  C   UNL A   1      44.242  28.000  33.880  1.00  0.00     0.135 A 
ATOM     92  C   UNL A   1      44.159  26.258  32.238  1.00  0.00     0.135 A 
ATOM     93  F   UNL A   1      44.343  29.287  34.239  1.00  0.00    -0.206 F 
ATOM     94  C   UNL A   1      43.889  27.089  34.878  1.00  0.00     0.059 A 
ATOM     95  C   UNL A   1      43.775  25.339  33.210  1.00  0.00     0.059 A 
ATOM     96  F   UNL A   1      44.227  25.832  30.965  1.00  0.00    -0.206 F 
ATOM     97  C   UNL A   1      43.647  25.761  34.532  1.00  0.00     0.060 A 
BRANCH  97  98
ATOM     98  S   UNL A   1      43.084  24.608  35.802  1.00  0.00     0.124 S 
ATOM     99  O   UNL A   1      42.392  25.496  36.737  1.00  0.00    -0.237 OA
ATOM    100  O   UNL A   1      42.222  23.701  35.042  1.00  0.00    -0.237 OA
ATOM    101  O   UNL A   1      44.313  24.012  36.300  1.00  0.00    -0.744 OA
ENDBRANCH  97  98
ENDBRANCH  65  90
ENDBRANCH  39  40
ENDBRANCH  31  34
ENDBRANCH  29  30
ENDBRANCH  28  29
ENDBRANCH   1  28
TORSDOF 19
ENDMDL
MODEL 2
REMARK VINA RESULT:     -11.8      2.750      4.023
REMARK SMILES CCc1cccc2c3c([nH]c12)[C@](CC)(CC(=O)NCCCCCCNC(=O)c1ccc(-c2c4nc(c(-c5c(F)cc(S(=O)(=O)[O-])cc5F)c5ccc([nH]5)c(-c5c(F)cc(S(=O)(=O)[O-])cc5F)c5nc(c(-c6c(F)cc(S(=O)(=O)[O-])cc6F)c6ccc2[nH]6)C=C5)C=C4)cc1)OCC3
REMARK SMILES IDX 22 1 21 2 20 3 19 4 18 5 16 6 17 7 15 9 12 10 3 11 4 12
REMARK SMILES IDX 11 13 5 14 7 15 10 16 6 17 8 18 9 19 96 21 95 22 94 23 2 24
REMARK SMILES IDX 1 25 13 26 14 27 23 28 24 29 25 30 26 31 27 33 28 34 29 35
REMARK SMILES IDX 93 36 30 37 92 38 31 39 32 40 33 41 86 42 34 43 91 44 85 45
REMARK SMILES IDX 87 46 35 47 90 48 84 49 83 50 36 52 70 53 49 54 69 55 50 56
REMARK SMILES IDX 53 57 68 58 88 59 51 60 52 61 67 63 89 64 54 65 37 66 38 67
REMARK SMILES IDX 47 68 39 69 40 70 46 71 48 72 41 73 42 74 43 75 44 76 45 77
REMARK SMILES IDX 71 78 72 79 81 80 73 81 74 82 80 83 82 84 75 85 76 86 77 87
REMARK SMILES IDX 78 88 79 89 55 90 56 91 65 92 57 93 58 94 64 95 66 96 59 97
REMARK SMILES IDX 60 98 61 99 62 100 63 101
REMARK H PARENT 18 8 10 20 25 32 87 51 53 62
REMARK Flexibility Score: inf
ROOT
ATOM      1  C   UNL A   1      38.355  23.529  25.955  1.00  0.00     0.002 C 
ENDROOT
BRANCH   1   2
ATOM      2  C   UNL A   1      36.850  23.670  26.126  1.00  0.00     0.002 C 
BRANCH   2   3
ATOM      3  C   UNL A   1      36.068  23.799  24.806  1.00  0.00     0.021 C 
BRANCH   3   4
ATOM      4  C   UNL A   1      34.658  24.396  24.921  1.00  0.00     0.116 C 
BRANCH   4   5
ATOM      5  N   UNL A   1      34.188  25.089  23.725  1.00  0.00    -0.356 N 
ATOM      6  C   UNL A   1      33.707  26.352  23.527  1.00  0.00     0.223 C 
ATOM      7  O   UNL A   1      33.285  26.645  22.407  1.00  0.00    -0.275 OA
ATOM      8  H   UNL A   1      34.222  24.542  22.907  1.00  0.00     0.163 HD
BRANCH   6   9
ATOM      9  C   UNL A   1      33.760  27.375  24.635  1.00  0.00     0.142 C 
BRANCH   9  10
ATOM     10  C   UNL A   1      32.495  27.651  25.483  1.00  0.00     0.117 C 
ATOM     11  C   UNL A   1      29.134  30.901  23.496  1.00  0.00    -0.024 A 
ATOM     12  C   UNL A   1      27.893  30.686  22.853  1.00  0.00     0.006 A 
ATOM     13  C   UNL A   1      29.857  29.742  23.845  1.00  0.00     0.049 A 
ATOM     14  C   UNL A   1      27.407  29.412  22.568  1.00  0.00     0.001 A 
ATOM     15  C   UNL A   1      29.361  28.461  23.606  1.00  0.00     0.003 A 
ATOM     16  N   UNL A   1      31.078  29.580  24.482  1.00  0.00    -0.356 N 
ATOM     17  C   UNL A   1      28.131  28.289  22.949  1.00  0.00     0.010 A 
ATOM     18  C   UNL A   1      30.252  27.558  24.220  1.00  0.00    -0.014 A 
ATOM     19  C   UNL A   1      31.340  28.250  24.703  1.00  0.00     0.052 A 
ATOM     20  H   UNL A   1      31.676  30.318  24.741  1.00  0.00     0.166 HD
ATOM     21  C   UNL A   1      30.048  26.128  24.477  1.00  0.00     0.066 C 
ATOM     22  C   UNL A   1      31.185  25.570  25.316  1.00  0.00     0.166 C 
ATOM     23  O   UNL A   1      31.943  26.485  26.132  1.00  0.00    -0.368 OA
BRANCH  11  24
ATOM     24  C   UNL A   1      29.546  32.310  23.844  1.00  0.00     0.034 C 
ATOM     25  C   UNL A   1      28.839  33.380  23.029  1.00  0.00     0.009 C 
ENDBRANCH  11  24
BRANCH  10  26
ATOM     26  C   UNL A   1      32.894  28.619  26.649  1.00  0.00     0.039 C 
ATOM     27  C   UNL A   1      34.352  29.087  26.661  1.00  0.00     0.007 C 
ENDBRANCH  10  26
ENDBRANCH   9  10
ENDBRANCH   6   9
ENDBRANCH   4   5
ENDBRANCH   3   4
ENDBRANCH   2   3
ENDBRANCH   1   2
BRANCH   1  28
ATOM     28  C   UNL A   1      38.863  22.089  26.042  1.00  0.00     0.021 C 
BRANCH  28  29
ATOM     29  C   UNL A   1      40.266  21.946  26.640  1.00  0.00     0.116 C 
BRANCH  29  30
ATOM     30  N   UNL A   1      41.331  22.060  25.667  1.00  0.00    -0.352 N 
ATOM     31  C   UNL A   1      42.299  23.006  25.457  1.00  0.00     0.251 C 
ATOM     32  H   UNL A   1      41.366  21.309  25.030  1.00  0.00     0.163 HD
ATOM     33  O   UNL A   1      43.131  22.766  24.578  1.00  0.00    -0.269 OA
BRANCH  31  34
ATOM     34  C   UNL A   1      42.342  24.318  26.159  1.00  0.00     0.039 A 
ATOM     35  C   UNL A   1      43.040  24.576  27.339  1.00  0.00     0.014 A 
ATOM     36  C   UNL A   1      41.561  25.346  25.604  1.00  0.00     0.014 A 
ATOM     37  C   UNL A   1      42.826  25.748  28.045  1.00  0.00     0.010 A 
ATOM     38  C   UNL A   1      41.397  26.553  26.271  1.00  0.00     0.010 A 
ATOM     39  C   UNL A   1      41.974  26.720  27.526  1.00  0.00    -0.014 A 
BRANCH  39  40
ATOM     40  C   UNL A   1      41.797  27.931  28.316  1.00  0.00     0.031 A 
ATOM     41  C   UNL A   1      42.905  28.924  28.201  1.00  0.00     0.074 A 
ATOM     42  C   UNL A   1      40.686  28.176  29.036  1.00  0.00     0.049 A 
ATOM     43  N   UNL A   1      43.707  29.337  29.127  1.00  0.00    -0.248 NA
ATOM     44  C   UNL A   1      43.257  29.406  26.855  1.00  0.00     0.031 C 
ATOM     45  C   UNL A   1      39.429  27.426  29.058  1.00  0.00     0.029 A 
ATOM     46  N   UNL A   1      40.415  29.239  29.837  1.00  0.00    -0.354 N 
ATOM     47  C   UNL A   1      44.541  30.282  28.530  1.00  0.00     0.074 A 
ATOM     48  C   UNL A   1      44.318  30.173  27.111  1.00  0.00     0.031 C 
ATOM     49  C   UNL A   1      38.465  28.196  29.610  1.00  0.00     0.029 A 
ATOM     50  C   UNL A   1      39.065  29.426  30.094  1.00  0.00     0.049 A 
ATOM     51  H   UNL A   1      41.117  29.826  30.202  1.00  0.00     0.167 HD
ATOM     52  C   UNL A   1      45.218  31.213  29.260  1.00  0.00     0.037 A 
ATOM     53  C   UNL A   1      38.490  30.562  30.567  1.00  0.00     0.037 A 
ATOM     54  C   UNL A   1      45.274  30.850  30.651  1.00  0.00     0.049 A 
ATOM     55  C   UNL A   1      39.561  31.329  31.266  1.00  0.00     0.074 A 
ATOM     56  C   UNL A   1      45.801  29.782  31.352  1.00  0.00     0.029 A 
ATOM     57  N   UNL A   1      44.414  31.477  31.521  1.00  0.00    -0.354 N 
ATOM     58  N   UNL A   1      40.154  30.914  32.355  1.00  0.00    -0.248 NA
ATOM     59  C   UNL A   1      40.311  32.306  30.488  1.00  0.00     0.031 C 
ATOM     60  C   UNL A   1      44.860  29.527  32.390  1.00  0.00     0.029 A 
ATOM     61  C   UNL A   1      43.856  30.492  32.297  1.00  0.00     0.049 A 
ATOM     62  H   UNL A   1      44.233  32.443  31.576  1.00  0.00     0.167 HD
ATOM     63  C   UNL A   1      41.493  31.240  32.184  1.00  0.00     0.074 A 
ATOM     64  C   UNL A   1      41.517  32.159  31.046  1.00  0.00     0.031 C 
ATOM     65  C   UNL A   1      42.493  30.524  32.780  1.00  0.00     0.037 A 
BRANCH  52  66
ATOM     66  C   UNL A   1      45.536  32.613  28.793  1.00  0.00     0.058 A 
ATOM     67  C   UNL A   1      46.881  33.041  28.756  1.00  0.00     0.135 A 
ATOM     68  C   UNL A   1      44.569  33.635  28.679  1.00  0.00     0.135 A 
ATOM     69  F   UNL A   1      47.886  32.154  28.844  1.00  0.00    -0.206 F 
ATOM     70  C   UNL A   1      47.235  34.390  28.720  1.00  0.00     0.059 A 
ATOM     71  C   UNL A   1      44.902  34.982  28.589  1.00  0.00     0.059 A 
ATOM     72  F   UNL A   1      43.256  33.387  28.754  1.00  0.00    -0.206 F 
ATOM     73  C   UNL A   1      46.234  35.354  28.663  1.00  0.00     0.060 A 
BRANCH  73  74
ATOM     74  S   UNL A   1      46.681  37.095  28.771  1.00  0.00     0.124 S 
ATOM     75  O   UNL A   1      45.453  37.739  28.320  1.00  0.00    -0.237 OA
ATOM     76  O   UNL A   1      46.998  37.238  30.187  1.00  0.00    -0.237 OA
ATOM     77  O   UNL A   1      47.822  37.205  27.863  1.00  0.00    -0.744 OA
ENDBRANCH  73  74
ENDBRANCH  52  66
BRANCH  53  78
ATOM     78  C   UNL A   1      37.217  31.166  30.076  1.00  0.00     0.058 A 
ATOM     79  C   UNL A   1      36.295  31.765  30.953  1.00  0.00     0.135 A 
ATOM     80  C   UNL A   1      36.985  31.388  28.700  1.00  0.00     0.135 A 
ATOM     81  F   UNL A   1      36.449  31.640  32.280  1.00  0.00    -0.206 F 
ATOM     82  C   UNL A   1      35.228  32.554  30.495  1.00  0.00     0.059 A 
ATOM     83  C   UNL A   1      35.925  32.154  28.221  1.00  0.00     0.059 A 
ATOM     84  F   UNL A   1      37.837  30.940  27.767  1.00  0.00    -0.206 F 
ATOM     85  C   UNL A   1      35.061  32.754  29.125  1.00  0.00     0.060 A 
BRANCH  85  86
ATOM     86  S   UNL A   1      33.779  33.881  28.527  1.00  0.00     0.124 S 
ATOM     87  O   UNL A   1      34.559  34.855  27.772  1.00  0.00    -0.237 OA
ATOM     88  O   UNL A   1      32.933  32.991  27.739  1.00  0.00    -0.237 OA
ATOM     89  O   UNL A   1      33.171  34.389  29.754  1.00  0.00    -0.744 OA
ENDBRANCH  85  86
ENDBRANCH  53  78
BRANCH  65  90
ATOM     90  C   UNL A   1      42.145  29.503  33.833  1.00  0.00     0.058 A 
ATOM     91  C   UNL A   1      41.758  28.181  33.551  1.00  0.00     0.135 A 
ATOM     92  C   UNL A   1      42.427  29.812  35.174  1.00  0.00     0.135 A 
ATOM     93  F   UNL A   1      41.577  27.771  32.289  1.00  0.00    -0.206 F 
ATOM     94  C   UNL A   1      41.633  27.219  34.555  1.00  0.00     0.059 A 
ATOM     95  C   UNL A   1      42.339  28.861  36.187  1.00  0.00     0.059 A 
ATOM     96  F   UNL A   1      42.865  31.039  35.503  1.00  0.00    -0.206 F 
ATOM     97  C   UNL A   1      41.935  27.566  35.870  1.00  0.00     0.060 A 
BRANCH  97  98
ATOM     98  S   UNL A   1      41.879  26.294  37.152  1.00  0.00     0.124 S 
ATOM     99  O   UNL A   1      42.974  26.701  38.034  1.00  0.00    -0.237 OA
ATOM    100  O   UNL A   1      40.533  26.462  37.702  1.00  0.00    -0.237 OA
ATOM    101  O   UNL A   1      42.094  25.056  36.421  1.00  0.00    -0.744 OA
ENDBRANCH  97  98
ENDBRANCH  65  90
ENDBRANCH  39  40
ENDBRANCH  31  34
ENDBRANCH  29  30
ENDBRANCH  28  29
ENDBRANCH   1  28
TORSDOF 19
ENDMDL
MODEL 3
REMARK VINA RESULT:     -11.6      2.441      3.790
REMARK SMILES CCc1cccc2c3c([nH]c12)[C@](CC)(CC(=O)NCCCCCCNC(=O)c1ccc(-c2c4nc(c(-c5c(F)cc(S(=O)(=O)[O-])cc5F)c5ccc([nH]5)c(-c5c(F)cc(S(=O)(=O)[O-])cc5F)c5nc(c(-c6c(F)cc(S(=O)(=O)[O-])cc6F)c6ccc2[nH]6)C=C5)C=C4)cc1)OCC3
REMARK SMILES IDX 22 1 21 2 20 3 19 4 18 5 16 6 17 7 15 9 12 10 3 11 4 12
REMARK SMILES IDX 11 13 5 14 7 15 10 16 6 17 8 18 9 19 96 21 95 22 94 23 2 24
REMARK SMILES IDX 1 25 13 26 14 27 23 28 24 29 25 30 26 31 27 33 28 34 29 35
REMARK SMILES IDX 93 36 30 37 92 38 31 39 32 40 33 41 86 42 34 43 91 44 85 45
REMARK SMILES IDX 87 46 35 47 90 48 84 49 83 50 36 52 70 53 49 54 69 55 50 56
REMARK SMILES IDX 53 57 68 58 88 59 51 60 52 61 67 63 89 64 54 65 37 66 38 67
REMARK SMILES IDX 47 68 39 69 40 70 46 71 48 72 41 73 42 74 43 75 44 76 45 77
REMARK SMILES IDX 71 78 72 79 81 80 73 81 74 82 80 83 82 84 75 85 76 86 77 87
REMARK SMILES IDX 78 88 79 89 55 90 56 91 65 92 57 93 58 94 64 95 66 96 59 97
REMARK SMILES IDX 60 98 61 99 62 100 63 101
REMARK H PARENT 18 8 10 20 25 32 87 51 53 62
REMARK Flexibility Score: inf
ROOT
ATOM      1  C   UNL A   1      35.397  20.603  24.846  1.00  0.00     0.002 C 
ENDROOT
BRANCH   1   2
ATOM      2  C   UNL A   1      34.012  20.034  25.121  1.00  0.00     0.002 C 
BRANCH   2   3
ATOM      3  C   UNL A   1      33.052  20.088  23.919  1.00  0.00     0.021 C 
BRANCH   3   4
ATOM      4  C   UNL A   1      32.176  21.346  23.820  1.00  0.00     0.116 C 
BRANCH   4   5
ATOM      5  N   UNL A   1      32.534  22.257  22.737  1.00  0.00    -0.356 N 
ATOM      6  C   UNL A   1      33.149  23.478  22.731  1.00  0.00     0.223 C 
ATOM      7  O   UNL A   1      33.239  24.078  21.660  1.00  0.00    -0.275 OA
ATOM      8  H   UNL A   1      32.284  21.932  21.842  1.00  0.00     0.163 HD
BRANCH   6   9
ATOM      9  C   UNL A   1      33.758  24.035  23.994  1.00  0.00     0.142 C 
BRANCH   9  10
ATOM     10  C   UNL A   1      32.836  24.505  25.145  1.00  0.00     0.117 C 
ATOM     11  C   UNL A   1      33.583  29.243  26.817  1.00  0.00    -0.024 A 
ATOM     12  C   UNL A   1      32.863  30.439  26.591  1.00  0.00     0.006 A 
ATOM     13  C   UNL A   1      33.136  28.111  26.107  1.00  0.00     0.049 A 
ATOM     14  C   UNL A   1      31.782  30.509  25.716  1.00  0.00     0.001 A 
ATOM     15  C   UNL A   1      32.028  28.157  25.262  1.00  0.00     0.003 A 
ATOM     16  N   UNL A   1      33.588  26.800  26.093  1.00  0.00    -0.356 N 
ATOM     17  C   UNL A   1      31.349  29.369  25.051  1.00  0.00     0.010 A 
ATOM     18  C   UNL A   1      31.771  26.832  24.854  1.00  0.00    -0.014 A 
ATOM     19  C   UNL A   1      32.774  26.010  25.319  1.00  0.00     0.052 A 
ATOM     20  H   UNL A   1      34.385  26.478  26.573  1.00  0.00     0.166 HD
ATOM     21  C   UNL A   1      30.576  26.315  24.179  1.00  0.00     0.066 C 
ATOM     22  C   UNL A   1      30.634  24.800  24.079  1.00  0.00     0.166 C 
ATOM     23  O   UNL A   1      31.460  24.086  25.019  1.00  0.00    -0.368 OA
BRANCH  11  24
ATOM     24  C   UNL A   1      34.686  29.235  27.846  1.00  0.00     0.034 C 
ATOM     25  C   UNL A   1      35.629  30.423  27.752  1.00  0.00     0.009 C 
ENDBRANCH  11  24
BRANCH  10  26
ATOM     26  C   UNL A   1      33.345  23.848  26.473  1.00  0.00     0.039 C 
ATOM     27  C   UNL A   1      32.376  22.877  27.153  1.00  0.00     0.007 C 
ENDBRANCH  10  26
ENDBRANCH   9  10
ENDBRANCH   6   9
ENDBRANCH   4   5
ENDBRANCH   3   4
ENDBRANCH   2   3
ENDBRANCH   1   2
BRANCH   1  28
ATOM     28  C   UNL A   1      35.935  21.504  25.957  1.00  0.00     0.021 C 
BRANCH  28  29
ATOM     29  C   UNL A   1      37.013  22.495  25.505  1.00  0.00     0.116 C 
BRANCH  29  30
ATOM     30  N   UNL A   1      38.341  21.925  25.443  1.00  0.00    -0.352 N 
ATOM     31  C   UNL A   1      39.514  22.233  26.080  1.00  0.00     0.251 C 
ATOM     32  H   UNL A   1      38.417  21.166  24.820  1.00  0.00     0.163 HD
ATOM     33  O   UNL A   1      40.474  21.487  25.872  1.00  0.00    -0.269 OA
BRANCH  31  34
ATOM     34  C   UNL A   1      39.707  23.447  26.921  1.00  0.00     0.039 A 
ATOM     35  C   UNL A   1      38.913  24.593  26.872  1.00  0.00     0.014 A 
ATOM     36  C   UNL A   1      40.818  23.437  27.781  1.00  0.00     0.014 A 
ATOM     37  C   UNL A   1      39.311  25.755  27.511  1.00  0.00     0.010 A 
ATOM     38  C   UNL A   1      41.184  24.579  28.481  1.00  0.00     0.010 A 
ATOM     39  C   UNL A   1      40.468  25.756  28.285  1.00  0.00    -0.014 A 
BRANCH  39  40
ATOM     40  C   UNL A   1      40.827  27.009  28.934  1.00  0.00     0.031 A 
ATOM     41  C   UNL A   1      41.936  27.762  28.278  1.00  0.00     0.074 A 
ATOM     42  C   UNL A   1      40.163  27.495  30.000  1.00  0.00     0.049 A 
ATOM     43  N   UNL A   1      43.102  28.048  28.760  1.00  0.00    -0.248 NA
ATOM     44  C   UNL A   1      41.781  28.111  26.856  1.00  0.00     0.031 C 
ATOM     45  C   UNL A   1      38.921  27.006  30.601  1.00  0.00     0.029 A 
ATOM     46  N   UNL A   1      40.418  28.623  30.713  1.00  0.00    -0.354 N 
ATOM     47  C   UNL A   1      43.760  28.787  27.776  1.00  0.00     0.074 A 
ATOM     48  C   UNL A   1      42.963  28.666  26.584  1.00  0.00     0.031 C 
ATOM     49  C   UNL A   1      38.404  27.972  31.394  1.00  0.00     0.029 A 
ATOM     50  C   UNL A   1      39.340  29.080  31.456  1.00  0.00     0.049 A 
ATOM     51  H   UNL A   1      41.292  29.077  30.702  1.00  0.00     0.167 HD
ATOM     52  C   UNL A   1      44.817  29.597  28.068  1.00  0.00     0.037 A 
ATOM     53  C   UNL A   1      39.200  30.325  31.982  1.00  0.00     0.037 A 
ATOM     54  C   UNL A   1      45.377  29.287  29.357  1.00  0.00     0.049 A 
ATOM     55  C   UNL A   1      40.572  30.896  32.108  1.00  0.00     0.074 A 
ATOM     56  C   UNL A   1      45.963  28.166  29.913  1.00  0.00     0.029 A 
ATOM     57  N   UNL A   1      45.060  30.105  30.416  1.00  0.00    -0.354 N 
ATOM     58  N   UNL A   1      41.482  30.418  32.917  1.00  0.00    -0.248 NA
ATOM     59  C   UNL A   1      41.086  31.676  30.990  1.00  0.00     0.031 C 
ATOM     60  C   UNL A   1      45.500  28.143  31.260  1.00  0.00     0.029 A 
ATOM     61  C   UNL A   1      44.716  29.280  31.457  1.00  0.00     0.049 A 
ATOM     62  H   UNL A   1      45.077  31.089  30.425  1.00  0.00     0.167 HD
ATOM     63  C   UNL A   1      42.667  30.469  32.196  1.00  0.00     0.074 A 
ATOM     64  C   UNL A   1      42.373  31.320  31.042  1.00  0.00     0.031 C 
ATOM     65  C   UNL A   1      43.694  29.597  32.430  1.00  0.00     0.037 A 
BRANCH  52  66
ATOM     66  C   UNL A   1      45.139  30.888  27.353  1.00  0.00     0.058 A 
ATOM     67  C   UNL A   1      46.424  31.070  26.801  1.00  0.00     0.135 A 
ATOM     68  C   UNL A   1      44.352  32.055  27.461  1.00  0.00     0.135 A 
ATOM     69  F   UNL A   1      47.256  30.027  26.640  1.00  0.00    -0.206 F 
ATOM     70  C   UNL A   1      46.929  32.331  26.481  1.00  0.00     0.059 A 
ATOM     71  C   UNL A   1      44.816  33.314  27.099  1.00  0.00     0.059 A 
ATOM     72  F   UNL A   1      43.135  32.046  28.018  1.00  0.00    -0.206 F 
ATOM     73  C   UNL A   1      46.122  33.450  26.659  1.00  0.00     0.060 A 
BRANCH  73  74
ATOM     74  S   UNL A   1      46.820  35.089  26.394  1.00  0.00     0.124 S 
ATOM     75  O   UNL A   1      47.466  34.923  25.097  1.00  0.00    -0.237 OA
ATOM     76  O   UNL A   1      45.630  35.931  26.414  1.00  0.00    -0.237 OA
ATOM     77  O   UNL A   1      47.722  35.258  27.531  1.00  0.00    -0.744 OA
ENDBRANCH  73  74
ENDBRANCH  52  66
BRANCH  53  78
ATOM     78  C   UNL A   1      37.954  31.145  31.965  1.00  0.00     0.058 A 
ATOM     79  C   UNL A   1      37.277  31.490  33.148  1.00  0.00     0.135 A 
ATOM     80  C   UNL A   1      37.528  31.819  30.798  1.00  0.00     0.135 A 
ATOM     81  F   UNL A   1      37.632  30.928  34.314  1.00  0.00    -0.206 F 
ATOM     82  C   UNL A   1      36.262  32.459  33.177  1.00  0.00     0.059 A 
ATOM     83  C   UNL A   1      36.513  32.773  30.799  1.00  0.00     0.059 A 
ATOM     84  F   UNL A   1      38.147  31.641  29.623  1.00  0.00    -0.206 F 
ATOM     85  C   UNL A   1      35.898  33.106  31.996  1.00  0.00     0.060 A 
BRANCH  85  86
ATOM     86  S   UNL A   1      34.693  34.455  32.041  1.00  0.00     0.124 S 
ATOM     87  O   UNL A   1      34.463  34.704  30.623  1.00  0.00    -0.237 OA
ATOM     88  O   UNL A   1      33.585  33.850  32.772  1.00  0.00    -0.237 OA
ATOM     89  O   UNL A   1      35.398  35.518  32.753  1.00  0.00    -0.744 OA
ENDBRANCH  85  86
ENDBRANCH  53  78
BRANCH  65  90
ATOM     90  C   UNL A   1      43.645  28.708  33.646  1.00  0.00     0.058 A 
ATOM     91  C   UNL A   1      44.086  29.096  34.924  1.00  0.00     0.135 A 
ATOM     92  C   UNL A   1      42.925  27.505  33.559  1.00  0.00     0.135 A 
ATOM     93  F   UNL A   1      44.683  30.280  35.117  1.00  0.00    -0.206 F 
ATOM     94  C   UNL A   1      43.845  28.315  36.056  1.00  0.00     0.059 A 
ATOM     95  C   UNL A   1      42.646  26.726  34.679  1.00  0.00     0.059 A 
ATOM     96  F   UNL A   1      42.419  27.110  32.379  1.00  0.00    -0.206 F 
ATOM     97  C   UNL A   1      43.115  27.136  35.926  1.00  0.00     0.060 A 
BRANCH  97  98
ATOM     98  S   UNL A   1      42.710  26.182  37.405  1.00  0.00     0.124 S 
ATOM     99  O   UNL A   1      43.054  24.820  36.994  1.00  0.00    -0.237 OA
ATOM    100  O   UNL A   1      43.590  26.776  38.412  1.00  0.00    -0.237 OA
ATOM    101  O   UNL A   1      41.292  26.435  37.603  1.00  0.00    -0.744 OA
ENDBRANCH  97  98
ENDBRANCH  65  90
ENDBRANCH  39  40
ENDBRANCH  31  34
ENDBRANCH  29  30
ENDBRANCH  28  29
ENDBRANCH   1  28
TORSDOF 19
ENDMDL
