MODEL 1
REMARK VINA RESULT:     -10.7      0.000      0.000
REMARK SMILES CC[C@H]1CC[C@@](C(=O)NCCCCCCNC(=O)c2ccc(-c3c4nc(c(-c5c(F)cc(S(=O)(=O)[O-])cc5F)c5ccc([nH]5)c(-c5c(F)cc(S(=O)(=O)[O-])cc5F)c5nc(c(-c6c(F)cc(S(=O)(=O)[O-])cc6F)c6ccc3[nH]6)C=C5)C=C4)cc2)(C2CCCC2)C1
REMARK SMILES IDX 13 1 12 2 11 3 10 4 9 5 7 6 8 7 6 9 3 10 4 11 90 12 5 13
REMARK SMILES IDX 2 14 1 15 85 16 86 17 89 18 87 19 88 20 14 21 15 22 16 23
REMARK SMILES IDX 17 24 18 26 19 27 20 28 84 29 21 30 83 31 22 32 23 33 24 34
REMARK SMILES IDX 77 35 25 36 82 37 76 38 78 39 26 40 81 41 75 42 74 43 27 45
REMARK SMILES IDX 61 46 40 47 60 48 41 49 44 50 59 51 79 52 42 53 43 54 58 56
REMARK SMILES IDX 80 57 45 58 28 59 29 60 38 61 30 62 31 63 37 64 39 65 32 66
REMARK SMILES IDX 33 67 34 68 35 69 36 70 62 71 63 72 72 73 64 74 65 75 71 76
REMARK SMILES IDX 73 77 66 78 67 79 68 80 69 81 70 82 46 83 47 84 56 85 48 86
REMARK SMILES IDX 49 87 55 88 57 89 50 90 51 91 52 92 53 93 54 94
REMARK H PARENT 9 8 16 25 78 44 44 55
REMARK Flexibility Score: inf
ROOT
ATOM      1  C   UNL A   1      31.686  27.727  25.668  1.00  0.00     0.002 C 
ENDROOT
BRANCH   1   2
ATOM      2  C   UNL A   1      30.757  26.513  25.578  1.00  0.00     0.002 C 
BRANCH   2   3
ATOM      3  C   UNL A   1      30.071  26.312  24.219  1.00  0.00     0.021 C 
BRANCH   3   4
ATOM      4  C   UNL A   1      30.588  25.112  23.426  1.00  0.00     0.116 C 
BRANCH   4   5
ATOM      5  N   UNL A   1      31.825  25.430  22.751  1.00  0.00    -0.356 N 
ATOM      6  C   UNL A   1      33.082  24.934  22.829  1.00  0.00     0.226 C 
ATOM      7  O   UNL A   1      33.905  25.535  22.127  1.00  0.00    -0.274 OA
ATOM      8  H   UNL A   1      31.735  26.160  22.097  1.00  0.00     0.163 HD
BRANCH   6   9
ATOM      9  C   UNL A   1      33.485  23.679  23.666  1.00  0.00     0.052 C 
ATOM     10  C   UNL A   1      32.140  21.551  23.779  1.00  0.00    -0.010 C 
ATOM     11  C   UNL A   1      31.923  22.320  25.076  1.00  0.00     0.005 C 
ATOM     12  C   UNL A   1      33.083  22.387  22.899  1.00  0.00     0.020 C 
ATOM     13  C   UNL A   1      32.762  23.592  25.027  1.00  0.00     0.017 C 
BRANCH  10  14
ATOM     14  C   UNL A   1      32.511  20.068  23.979  1.00  0.00     0.000 C 
ATOM     15  C   UNL A   1      33.173  19.672  25.288  1.00  0.00     0.004 C 
ENDBRANCH  10  14
BRANCH   9  16
ATOM     16  C   UNL A   1      35.052  23.761  23.850  1.00  0.00     0.004 C 
ATOM     17  C   UNL A   1      35.544  24.173  25.249  1.00  0.00     0.005 C 
ATOM     18  C   UNL A   1      35.816  22.461  23.598  1.00  0.00     0.005 C 
ATOM     19  C   UNL A   1      37.015  23.779  25.259  1.00  0.00     0.000 C 
ATOM     20  C   UNL A   1      37.112  22.535  24.392  1.00  0.00     0.000 C 
ENDBRANCH   9  16
ENDBRANCH   6   9
ENDBRANCH   4   5
ENDBRANCH   3   4
ENDBRANCH   2   3
ENDBRANCH   1   2
BRANCH   1  21
ATOM     21  C   UNL A   1      33.174  27.419  25.491  1.00  0.00     0.021 C 
BRANCH  21  22
ATOM     22  C   UNL A   1      34.069  27.947  26.607  1.00  0.00     0.116 C 
BRANCH  22  23
ATOM     23  N   UNL A   1      33.689  29.287  27.023  1.00  0.00    -0.352 N 
ATOM     24  C   UNL A   1      34.393  30.190  27.778  1.00  0.00     0.251 C 
ATOM     25  H   UNL A   1      32.802  29.589  26.721  1.00  0.00     0.163 HD
ATOM     26  O   UNL A   1      33.832  31.199  28.206  1.00  0.00    -0.269 OA
BRANCH  24  27
ATOM     27  C   UNL A   1      35.816  29.943  28.089  1.00  0.00     0.039 A 
ATOM     28  C   UNL A   1      36.167  29.551  29.383  1.00  0.00     0.014 A 
ATOM     29  C   UNL A   1      36.804  30.105  27.113  1.00  0.00     0.014 A 
ATOM     30  C   UNL A   1      37.502  29.275  29.683  1.00  0.00     0.010 A 
ATOM     31  C   UNL A   1      38.122  29.754  27.393  1.00  0.00     0.010 A 
ATOM     32  C   UNL A   1      38.488  29.345  28.683  1.00  0.00    -0.014 A 
BRANCH  32  33
ATOM     33  C   UNL A   1      39.903  28.998  28.976  1.00  0.00     0.031 A 
ATOM     34  C   UNL A   1      40.823  30.023  29.583  1.00  0.00     0.074 A 
ATOM     35  C   UNL A   1      40.369  27.777  28.650  1.00  0.00     0.049 A 
ATOM     36  N   UNL A   1      42.095  29.921  29.873  1.00  0.00    -0.248 NA
ATOM     37  C   UNL A   1      40.246  31.345  29.879  1.00  0.00     0.031 C 
ATOM     38  C   UNL A   1      39.588  26.716  28.011  1.00  0.00     0.029 A 
ATOM     39  N   UNL A   1      41.615  27.222  28.804  1.00  0.00    -0.354 N 
ATOM     40  C   UNL A   1      42.471  31.162  30.375  1.00  0.00     0.074 A 
ATOM     41  C   UNL A   1      41.309  32.019  30.295  1.00  0.00     0.031 C 
ATOM     42  C   UNL A   1      40.363  25.632  27.852  1.00  0.00     0.029 A 
ATOM     43  C   UNL A   1      41.706  25.930  28.341  1.00  0.00     0.049 A 
ATOM     44  H   UNL A   1      42.373  27.703  29.209  1.00  0.00     0.167 HD
ATOM     45  C   UNL A   1      43.669  31.544  30.880  1.00  0.00     0.037 A 
ATOM     46  C   UNL A   1      42.754  25.084  28.307  1.00  0.00     0.037 A 
ATOM     47  C   UNL A   1      44.816  30.678  30.974  1.00  0.00     0.049 A 
ATOM     48  C   UNL A   1      44.074  25.533  28.871  1.00  0.00     0.074 A 
ATOM     49  C   UNL A   1      46.059  30.952  31.519  1.00  0.00     0.029 A 
ATOM     50  N   UNL A   1      44.865  29.372  30.509  1.00  0.00    -0.354 N 
ATOM     51  N   UNL A   1      44.394  26.688  29.403  1.00  0.00    -0.248 NA
ATOM     52  C   UNL A   1      45.176  24.560  28.840  1.00  0.00     0.031 C 
ATOM     53  C   UNL A   1      46.873  29.830  31.336  1.00  0.00     0.029 A 
ATOM     54  C   UNL A   1      46.121  28.835  30.733  1.00  0.00     0.049 A 
ATOM     55  H   UNL A   1      44.115  28.896  30.082  1.00  0.00     0.167 HD
ATOM     56  C   UNL A   1      45.723  26.571  29.796  1.00  0.00     0.074 A 
ATOM     57  C   UNL A   1      46.142  25.227  29.454  1.00  0.00     0.031 C 
ATOM     58  C   UNL A   1      46.523  27.492  30.390  1.00  0.00     0.037 A 
BRANCH  45  59
ATOM     59  C   UNL A   1      43.800  32.961  31.373  1.00  0.00     0.058 A 
ATOM     60  C   UNL A   1      44.166  34.011  30.515  1.00  0.00     0.135 A 
ATOM     61  C   UNL A   1      43.519  33.281  32.711  1.00  0.00     0.135 A 
ATOM     62  F   UNL A   1      44.460  33.763  29.229  1.00  0.00    -0.206 F 
ATOM     63  C   UNL A   1      44.281  35.320  30.972  1.00  0.00     0.059 A 
ATOM     64  C   UNL A   1      43.597  34.588  33.183  1.00  0.00     0.059 A 
ATOM     65  F   UNL A   1      43.165  32.318  33.577  1.00  0.00    -0.206 F 
ATOM     66  C   UNL A   1      43.994  35.599  32.309  1.00  0.00     0.060 A 
BRANCH  66  67
ATOM     67  S   UNL A   1      44.143  37.303  32.884  1.00  0.00     0.124 S 
ATOM     68  O   UNL A   1      44.098  38.039  31.624  1.00  0.00    -0.237 OA
ATOM     69  O   UNL A   1      42.973  37.446  33.743  1.00  0.00    -0.237 OA
ATOM     70  O   UNL A   1      45.430  37.320  33.573  1.00  0.00    -0.744 OA
ENDBRANCH  66  67
ENDBRANCH  45  59
BRANCH  46  71
ATOM     71  C   UNL A   1      42.587  23.718  27.739  1.00  0.00     0.058 A 
ATOM     72  C   UNL A   1      42.399  22.606  28.572  1.00  0.00     0.135 A 
ATOM     73  C   UNL A   1      42.602  23.500  26.353  1.00  0.00     0.135 A 
ATOM     74  F   UNL A   1      42.384  22.761  29.905  1.00  0.00    -0.206 F 
ATOM     75  C   UNL A   1      42.250  21.323  28.054  1.00  0.00     0.059 A 
ATOM     76  C   UNL A   1      42.426  22.231  25.809  1.00  0.00     0.059 A 
ATOM     77  F   UNL A   1      42.760  24.534  25.511  1.00  0.00    -0.206 F 
ATOM     78  C   UNL A   1      42.262  21.147  26.669  1.00  0.00     0.060 A 
BRANCH  78  79
ATOM     79  S   UNL A   1      42.020  19.485  26.005  1.00  0.00     0.124 S 
ATOM     80  O   UNL A   1      40.583  19.473  25.757  1.00  0.00    -0.237 OA
ATOM     81  O   UNL A   1      42.874  19.502  24.820  1.00  0.00    -0.237 OA
ATOM     82  O   UNL A   1      42.481  18.621  27.088  1.00  0.00    -0.744 OA
ENDBRANCH  78  79
ENDBRANCH  46  71
BRANCH  58  83
ATOM     83  C   UNL A   1      47.923  27.068  30.743  1.00  0.00     0.058 A 
ATOM     84  C   UNL A   1      48.995  27.230  29.851  1.00  0.00     0.135 A 
ATOM     85  C   UNL A   1      48.202  26.530  32.011  1.00  0.00     0.135 A 
ATOM     86  F   UNL A   1      48.783  27.735  28.625  1.00  0.00    -0.206 F 
ATOM     87  C   UNL A   1      50.288  26.846  30.192  1.00  0.00     0.059 A 
ATOM     88  C   UNL A   1      49.493  26.168  32.384  1.00  0.00     0.059 A 
ATOM     89  F   UNL A   1      47.217  26.364  32.907  1.00  0.00    -0.206 F 
ATOM     90  C   UNL A   1      50.527  26.316  31.461  1.00  0.00     0.060 A 
BRANCH  90  91
ATOM     91  S   UNL A   1      52.213  25.843  31.897  1.00  0.00     0.124 S 
ATOM     92  O   UNL A   1      52.054  24.422  32.189  1.00  0.00    -0.237 OA
ATOM     93  O   UNL A   1      52.952  26.163  30.680  1.00  0.00    -0.237 OA
ATOM     94  O   UNL A   1      52.517  26.690  33.047  1.00  0.00    -0.744 OA
ENDBRANCH  90  91
ENDBRANCH  58  83
ENDBRANCH  32  33
ENDBRANCH  24  27
ENDBRANCH  22  23
ENDBRANCH  21  22
ENDBRANCH   1  21
TORSDOF 18
ENDMDL
MODEL 2
REMARK VINA RESULT:     -10.6      3.145      4.586
REMARK SMILES CC[C@H]1CC[C@@](C(=O)NCCCCCCNC(=O)c2ccc(-c3c4nc(c(-c5c(F)cc(S(=O)(=O)[O-])cc5F)c5ccc([nH]5)c(-c5c(F)cc(S(=O)(=O)[O-])cc5F)c5nc(c(-c6c(F)cc(S(=O)(=O)[O-])cc6F)c6ccc3[nH]6)C=C5)C=C4)cc2)(C2CCCC2)C1
REMARK SMILES IDX 13 1 12 2 11 3 10 4 9 5 7 6 8 7 6 9 3 10 4 11 90 12 5 13
REMARK SMILES IDX 2 14 1 15 85 16 86 17 89 18 87 19 88 20 14 21 15 22 16 23
REMARK SMILES IDX 17 24 18 26 19 27 20 28 84 29 21 30 83 31 22 32 23 33 24 34
REMARK SMILES IDX 77 35 25 36 82 37 76 38 78 39 26 40 81 41 75 42 74 43 27 45
REMARK SMILES IDX 61 46 40 47 60 48 41 49 44 50 59 51 79 52 42 53 43 54 58 56
REMARK SMILES IDX 80 57 45 58 28 59 29 60 38 61 30 62 31 63 37 64 39 65 32 66
REMARK SMILES IDX 33 67 34 68 35 69 36 70 62 71 63 72 72 73 64 74 65 75 71 76
REMARK SMILES IDX 73 77 66 78 67 79 68 80 69 81 70 82 46 83 47 84 56 85 48 86
REMARK SMILES IDX 49 87 55 88 57 89 50 90 51 91 52 92 53 93 54 94
REMARK H PARENT 9 8 16 25 78 44 44 55
REMARK Flexibility Score: inf
ROOT
ATOM      1  C   UNL A   1      35.204  32.178  28.511  1.00  0.00     0.002 C 
ENDROOT
BRANCH   1   2
ATOM      2  C   UNL A   1      35.357  31.093  27.440  1.00  0.00     0.002 C 
BRANCH   2   3
ATOM      3  C   UNL A   1      35.174  29.653  27.937  1.00  0.00     0.021 C 
BRANCH   3   4
ATOM      4  C   UNL A   1      34.297  28.783  27.036  1.00  0.00     0.116 C 
BRANCH   4   5
ATOM      5  N   UNL A   1      33.006  28.550  27.639  1.00  0.00    -0.356 N 
ATOM      6  C   UNL A   1      31.907  27.860  27.251  1.00  0.00     0.226 C 
ATOM      7  O   UNL A   1      30.948  27.961  28.026  1.00  0.00    -0.274 OA
ATOM      8  H   UNL A   1      32.902  28.983  28.517  1.00  0.00     0.163 HD
BRANCH   6   9
ATOM      9  C   UNL A   1      31.839  26.954  25.981  1.00  0.00     0.052 C 
ATOM     10  C   UNL A   1      30.616  27.561  23.863  1.00  0.00    -0.010 C 
ATOM     11  C   UNL A   1      29.781  26.532  24.616  1.00  0.00     0.005 C 
ATOM     12  C   UNL A   1      31.873  27.840  24.703  1.00  0.00     0.020 C 
ATOM     13  C   UNL A   1      30.534  26.136  25.882  1.00  0.00     0.017 C 
BRANCH  10  14
ATOM     14  C   UNL A   1      30.837  27.227  22.374  1.00  0.00     0.000 C 
ATOM     15  C   UNL A   1      31.699  26.021  22.038  1.00  0.00     0.004 C 
ENDBRANCH  10  14
BRANCH   9  16
ATOM     16  C   UNL A   1      33.106  26.012  26.047  1.00  0.00     0.004 C 
ATOM     17  C   UNL A   1      32.823  24.524  26.325  1.00  0.00     0.005 C 
ATOM     18  C   UNL A   1      33.957  25.958  24.779  1.00  0.00     0.005 C 
ATOM     19  C   UNL A   1      34.116  23.819  25.934  1.00  0.00     0.000 C 
ATOM     20  C   UNL A   1      34.687  24.623  24.778  1.00  0.00     0.000 C 
ENDBRANCH   9  16
ENDBRANCH   6   9
ENDBRANCH   4   5
ENDBRANCH   3   4
ENDBRANCH   2   3
ENDBRANCH   1   2
BRANCH   1  21
ATOM     21  C   UNL A   1      36.352  33.187  28.580  1.00  0.00     0.021 C 
BRANCH  21  22
ATOM     22  C   UNL A   1      37.100  33.209  29.908  1.00  0.00     0.116 C 
BRANCH  22  23
ATOM     23  N   UNL A   1      36.532  32.278  30.869  1.00  0.00    -0.352 N 
ATOM     24  C   UNL A   1      36.931  31.003  31.177  1.00  0.00     0.251 C 
ATOM     25  H   UNL A   1      35.751  32.609  31.369  1.00  0.00     0.163 HD
ATOM     26  O   UNL A   1      36.208  30.284  31.868  1.00  0.00    -0.269 OA
BRANCH  24  27
ATOM     27  C   UNL A   1      38.218  30.487  30.666  1.00  0.00     0.039 A 
ATOM     28  C   UNL A   1      38.354  30.242  29.298  1.00  0.00     0.014 A 
ATOM     29  C   UNL A   1      39.287  30.236  31.533  1.00  0.00     0.014 A 
ATOM     30  C   UNL A   1      39.576  29.793  28.794  1.00  0.00     0.010 A 
ATOM     31  C   UNL A   1      40.526  29.864  31.019  1.00  0.00     0.010 A 
ATOM     32  C   UNL A   1      40.682  29.628  29.645  1.00  0.00    -0.014 A 
BRANCH  32  33
ATOM     33  C   UNL A   1      42.003  29.206  29.113  1.00  0.00     0.031 A 
ATOM     34  C   UNL A   1      43.127  30.200  28.998  1.00  0.00     0.074 A 
ATOM     35  C   UNL A   1      42.174  27.939  28.687  1.00  0.00     0.049 A 
ATOM     36  N   UNL A   1      44.334  30.031  28.522  1.00  0.00    -0.248 NA
ATOM     37  C   UNL A   1      42.851  31.573  29.453  1.00  0.00     0.031 C 
ATOM     38  C   UNL A   1      41.145  26.897  28.699  1.00  0.00     0.029 A 
ATOM     39  N   UNL A   1      43.272  27.311  28.154  1.00  0.00    -0.354 N 
ATOM     40  C   UNL A   1      44.956  31.271  28.612  1.00  0.00     0.074 A 
ATOM     41  C   UNL A   1      43.975  32.198  29.131  1.00  0.00     0.031 C 
ATOM     42  C   UNL A   1      41.668  25.755  28.224  1.00  0.00     0.029 A 
ATOM     43  C   UNL A   1      43.055  25.991  27.836  1.00  0.00     0.049 A 
ATOM     44  H   UNL A   1      44.135  27.763  28.014  1.00  0.00     0.167 HD
ATOM     45  C   UNL A   1      46.236  31.601  28.313  1.00  0.00     0.037 A 
ATOM     46  C   UNL A   1      43.878  25.076  27.288  1.00  0.00     0.037 A 
ATOM     47  C   UNL A   1      47.212  30.667  27.814  1.00  0.00     0.049 A 
ATOM     48  C   UNL A   1      45.293  25.467  26.961  1.00  0.00     0.074 A 
ATOM     49  C   UNL A   1      48.549  30.889  27.531  1.00  0.00     0.029 A 
ATOM     50  N   UNL A   1      46.959  29.335  27.519  1.00  0.00    -0.354 N 
ATOM     51  N   UNL A   1      45.884  26.628  27.115  1.00  0.00    -0.248 NA
ATOM     52  C   UNL A   1      46.158  24.423  26.395  1.00  0.00     0.031 C 
ATOM     53  C   UNL A   1      49.089  29.706  27.017  1.00  0.00     0.029 A 
ATOM     54  C   UNL A   1      48.106  28.729  27.036  1.00  0.00     0.049 A 
ATOM     55  H   UNL A   1      46.090  28.886  27.636  1.00  0.00     0.167 HD
ATOM     56  C   UNL A   1      47.196  26.446  26.692  1.00  0.00     0.074 A 
ATOM     57  C   UNL A   1      47.316  25.059  26.291  1.00  0.00     0.031 C 
ATOM     58  C   UNL A   1      48.212  27.345  26.644  1.00  0.00     0.037 A 
BRANCH  45  59
ATOM     59  C   UNL A   1      46.655  33.033  28.519  1.00  0.00     0.058 A 
ATOM     60  C   UNL A   1      46.512  33.998  27.507  1.00  0.00     0.135 A 
ATOM     61  C   UNL A   1      47.171  33.456  29.754  1.00  0.00     0.135 A 
ATOM     62  F   UNL A   1      46.038  33.648  26.301  1.00  0.00    -0.206 F 
ATOM     63  C   UNL A   1      46.896  35.321  27.703  1.00  0.00     0.059 A 
ATOM     64  C   UNL A   1      47.531  34.781  29.983  1.00  0.00     0.059 A 
ATOM     65  F   UNL A   1      47.330  32.578  30.757  1.00  0.00    -0.206 F 
ATOM     66  C   UNL A   1      47.405  35.703  28.945  1.00  0.00     0.060 A 
BRANCH  66  67
ATOM     67  S   UNL A   1      47.891  37.425  29.182  1.00  0.00     0.124 S 
ATOM     68  O   UNL A   1      48.130  37.851  27.807  1.00  0.00    -0.237 OA
ATOM     69  O   UNL A   1      46.714  37.996  29.827  1.00  0.00    -0.237 OA
ATOM     70  O   UNL A   1      49.080  37.330  30.024  1.00  0.00    -0.744 OA
ENDBRANCH  66  67
ENDBRANCH  45  59
BRANCH  46  71
ATOM     71  C   UNL A   1      43.387  23.693  27.036  1.00  0.00     0.058 A 
ATOM     72  C   UNL A   1      43.059  23.266  25.741  1.00  0.00     0.135 A 
ATOM     73  C   UNL A   1      43.248  22.769  28.083  1.00  0.00     0.135 A 
ATOM     74  F   UNL A   1      43.169  24.114  24.707  1.00  0.00    -0.206 F 
ATOM     75  C   UNL A   1      42.592  21.979  25.493  1.00  0.00     0.059 A 
ATOM     76  C   UNL A   1      42.811  21.467  27.856  1.00  0.00     0.059 A 
ATOM     77  F   UNL A   1      43.567  23.121  29.338  1.00  0.00    -0.206 F 
ATOM     78  C   UNL A   1      42.475  21.084  26.559  1.00  0.00     0.060 A 
BRANCH  78  79
ATOM     79  S   UNL A   1      41.914  19.402  26.221  1.00  0.00     0.124 S 
ATOM     80  O   UNL A   1      42.349  18.699  27.422  1.00  0.00    -0.237 OA
ATOM     81  O   UNL A   1      40.473  19.585  26.075  1.00  0.00    -0.237 OA
ATOM     82  O   UNL A   1      42.622  19.053  24.993  1.00  0.00    -0.744 OA
ENDBRANCH  78  79
ENDBRANCH  46  71
BRANCH  58  83
ATOM     83  C   UNL A   1      49.553  26.849  26.176  1.00  0.00     0.058 A 
ATOM     84  C   UNL A   1      49.978  27.002  24.846  1.00  0.00     0.135 A 
ATOM     85  C   UNL A   1      50.443  26.250  27.082  1.00  0.00     0.135 A 
ATOM     86  F   UNL A   1      49.165  27.564  23.938  1.00  0.00    -0.206 F 
ATOM     87  C   UNL A   1      51.225  26.552  24.426  1.00  0.00     0.059 A 
ATOM     88  C   UNL A   1      51.707  25.820  26.691  1.00  0.00     0.059 A 
ATOM     89  F   UNL A   1      50.093  26.089  28.368  1.00  0.00    -0.206 F 
ATOM     90  C   UNL A   1      52.083  25.962  25.356  1.00  0.00     0.060 A 
BRANCH  90  91
ATOM     91  S   UNL A   1      53.707  25.402  24.802  1.00  0.00     0.124 S 
ATOM     92  O   UNL A   1      53.773  25.974  23.461  1.00  0.00    -0.237 OA
ATOM     93  O   UNL A   1      54.598  26.001  25.792  1.00  0.00    -0.237 OA
ATOM     94  O   UNL A   1      53.604  23.947  24.860  1.00  0.00    -0.744 OA
ENDBRANCH  90  91
ENDBRANCH  58  83
ENDBRANCH  32  33
ENDBRANCH  24  27
ENDBRANCH  22  23
ENDBRANCH  21  22
ENDBRANCH   1  21
TORSDOF 18
ENDMDL
MODEL 3
REMARK VINA RESULT:     -10.3      2.962      4.487
REMARK SMILES CC[C@H]1CC[C@@](C(=O)NCCCCCCNC(=O)c2ccc(-c3c4nc(c(-c5c(F)cc(S(=O)(=O)[O-])cc5F)c5ccc([nH]5)c(-c5c(F)cc(S(=O)(=O)[O-])cc5F)c5nc(c(-c6c(F)cc(S(=O)(=O)[O-])cc6F)c6ccc3[nH]6)C=C5)C=C4)cc2)(C2CCCC2)C1
REMARK SMILES IDX 13 1 12 2 11 3 10 4 9 5 7 6 8 7 6 9 3 10 4 11 90 12 5 13
REMARK SMILES IDX 2 14 1 15 85 16 86 17 89 18 87 19 88 20 14 21 15 22 16 23
REMARK SMILES IDX 17 24 18 26 19 27 20 28 84 29 21 30 83 31 22 32 23 33 24 34
REMARK SMILES IDX 77 35 25 36 82 37 76 38 78 39 26 40 81 41 75 42 74 43 27 45
REMARK SMILES IDX 61 46 40 47 60 48 41 49 44 50 59 51 79 52 42 53 43 54 58 56
REMARK SMILES IDX 80 57 45 58 28 59 29 60 38 61 30 62 31 63 37 64 39 65 32 66
REMARK SMILES IDX 33 67 34 68 35 69 36 70 62 71 63 72 72 73 64 74 65 75 71 76
REMARK SMILES IDX 73 77 66 78 67 79 68 80 69 81 70 82 46 83 47 84 56 85 48 86
REMARK SMILES IDX 49 87 55 88 57 89 50 90 51 91 52 92 53 93 54 94
REMARK H PARENT 9 8 16 25 78 44 44 55
REMARK Flexibility Score: inf
ROOT
ATOM      1  C   UNL A   1      34.555  32.280  28.411  1.00  0.00     0.002 C 
ENDROOT
BRANCH   1   2
ATOM      2  C   UNL A   1      34.442  31.227  27.304  1.00  0.00     0.002 C 
BRANCH   2   3
ATOM      3  C   UNL A   1      34.792  29.793  27.727  1.00  0.00     0.021 C 
BRANCH   3   4
ATOM      4  C   UNL A   1      34.028  28.709  26.965  1.00  0.00     0.116 C 
BRANCH   4   5
ATOM      5  N   UNL A   1      34.077  28.945  25.541  1.00  0.00    -0.356 N 
ATOM      6  C   UNL A   1      33.853  28.162  24.459  1.00  0.00     0.226 C 
ATOM      7  O   UNL A   1      34.074  28.722  23.377  1.00  0.00    -0.274 OA
ATOM      8  H   UNL A   1      34.323  29.869  25.307  1.00  0.00     0.163 HD
BRANCH   6   9
ATOM      9  C   UNL A   1      33.305  26.701  24.526  1.00  0.00     0.052 C 
ATOM     10  C   UNL A   1      34.702  24.680  25.080  1.00  0.00    -0.010 C 
ATOM     11  C   UNL A   1      34.447  24.684  23.577  1.00  0.00     0.005 C 
ATOM     12  C   UNL A   1      34.021  25.925  25.668  1.00  0.00     0.020 C 
ATOM     13  C   UNL A   1      33.572  25.888  23.243  1.00  0.00     0.017 C 
BRANCH  10  14
ATOM     14  C   UNL A   1      34.400  23.333  25.767  1.00  0.00     0.000 C 
ATOM     15  C   UNL A   1      33.288  22.474  25.187  1.00  0.00     0.004 C 
ENDBRANCH  10  14
BRANCH   9  16
ATOM     16  C   UNL A   1      31.756  26.829  24.816  1.00  0.00     0.004 C 
ATOM     17  C   UNL A   1      30.820  26.318  23.705  1.00  0.00     0.005 C 
ATOM     18  C   UNL A   1      31.251  26.080  26.048  1.00  0.00     0.005 C 
ATOM     19  C   UNL A   1      29.468  26.180  24.391  1.00  0.00     0.000 C 
ATOM     20  C   UNL A   1      29.775  25.784  25.826  1.00  0.00     0.000 C 
ENDBRANCH   9  16
ENDBRANCH   6   9
ENDBRANCH   4   5
ENDBRANCH   3   4
ENDBRANCH   2   3
ENDBRANCH   1   2
BRANCH   1  21
ATOM     21  C   UNL A   1      35.792  33.176  28.328  1.00  0.00     0.021 C 
BRANCH  21  22
ATOM     22  C   UNL A   1      36.754  33.041  29.504  1.00  0.00     0.116 C 
BRANCH  22  23
ATOM     23  N   UNL A   1      36.230  32.166  30.539  1.00  0.00    -0.352 N 
ATOM     24  C   UNL A   1      36.682  30.936  30.942  1.00  0.00     0.251 C 
ATOM     25  H   UNL A   1      35.438  32.503  31.019  1.00  0.00     0.163 HD
ATOM     26  O   UNL A   1      35.992  30.245  31.693  1.00  0.00    -0.269 OA
BRANCH  24  27
ATOM     27  C   UNL A   1      37.986  30.434  30.462  1.00  0.00     0.039 A 
ATOM     28  C   UNL A   1      38.180  30.259  29.090  1.00  0.00     0.014 A 
ATOM     29  C   UNL A   1      39.013  30.127  31.361  1.00  0.00     0.014 A 
ATOM     30  C   UNL A   1      39.420  29.824  28.617  1.00  0.00     0.010 A 
ATOM     31  C   UNL A   1      40.271  29.769  30.882  1.00  0.00     0.010 A 
ATOM     32  C   UNL A   1      40.486  29.604  29.506  1.00  0.00    -0.014 A 
BRANCH  32  33
ATOM     33  C   UNL A   1      41.826  29.196  29.010  1.00  0.00     0.031 A 
ATOM     34  C   UNL A   1      42.937  30.206  28.913  1.00  0.00     0.074 A 
ATOM     35  C   UNL A   1      42.025  27.927  28.602  1.00  0.00     0.049 A 
ATOM     36  N   UNL A   1      44.158  30.050  28.468  1.00  0.00    -0.248 NA
ATOM     37  C   UNL A   1      42.630  31.579  29.346  1.00  0.00     0.031 C 
ATOM     38  C   UNL A   1      41.012  26.870  28.600  1.00  0.00     0.029 A 
ATOM     39  N   UNL A   1      43.145  27.311  28.103  1.00  0.00    -0.354 N 
ATOM     40  C   UNL A   1      44.759  31.300  28.560  1.00  0.00     0.074 A 
ATOM     41  C   UNL A   1      43.752  32.217  29.046  1.00  0.00     0.031 C 
ATOM     42  C   UNL A   1      41.563  25.732  28.150  1.00  0.00     0.029 A 
ATOM     43  C   UNL A   1      42.955  25.984  27.793  1.00  0.00     0.049 A 
ATOM     44  H   UNL A   1      44.005  27.774  27.979  1.00  0.00     0.167 HD
ATOM     45  C   UNL A   1      46.041  31.646  28.289  1.00  0.00     0.037 A 
ATOM     46  C   UNL A   1      43.805  25.076  27.275  1.00  0.00     0.037 A 
ATOM     47  C   UNL A   1      47.042  30.722  27.824  1.00  0.00     0.049 A 
ATOM     48  C   UNL A   1      45.222  25.486  26.979  1.00  0.00     0.074 A 
ATOM     49  C   UNL A   1      48.382  30.961  27.571  1.00  0.00     0.029 A 
ATOM     50  N   UNL A   1      46.816  29.383  27.537  1.00  0.00    -0.354 N 
ATOM     51  N   UNL A   1      45.792  26.656  27.135  1.00  0.00    -0.248 NA
ATOM     52  C   UNL A   1      46.116  24.448  26.445  1.00  0.00     0.031 C 
ATOM     53  C   UNL A   1      48.953  29.781  27.083  1.00  0.00     0.029 A 
ATOM     54  C   UNL A   1      47.984  28.790  27.089  1.00  0.00     0.049 A 
ATOM     55  H   UNL A   1      45.951  28.923  27.638  1.00  0.00     0.167 HD
ATOM     56  C   UNL A   1      47.117  26.490  26.747  1.00  0.00     0.074 A 
ATOM     57  C   UNL A   1      47.266  25.101  26.363  1.00  0.00     0.031 C 
ATOM     58  C   UNL A   1      48.120  27.403  26.714  1.00  0.00     0.037 A 
BRANCH  45  59
ATOM     59  C   UNL A   1      46.433  33.086  28.490  1.00  0.00     0.058 A 
ATOM     60  C   UNL A   1      46.871  33.565  29.737  1.00  0.00     0.135 A 
ATOM     61  C   UNL A   1      46.407  33.991  27.417  1.00  0.00     0.135 A 
ATOM     62  F   UNL A   1      46.903  32.749  30.802  1.00  0.00    -0.206 F 
ATOM     63  C   UNL A   1      47.238  34.895  29.918  1.00  0.00     0.059 A 
ATOM     64  C   UNL A   1      46.800  35.318  27.568  1.00  0.00     0.059 A 
ATOM     65  F   UNL A   1      45.997  33.589  26.204  1.00  0.00    -0.206 F 
ATOM     66  C   UNL A   1      47.199  35.764  28.827  1.00  0.00     0.060 A 
BRANCH  66  67
ATOM     67  S   UNL A   1      47.683  37.484  29.080  1.00  0.00     0.124 S 
ATOM     68  O   UNL A   1      49.128  37.357  29.249  1.00  0.00    -0.237 OA
ATOM     69  O   UNL A   1      47.244  38.118  27.841  1.00  0.00    -0.237 OA
ATOM     70  O   UNL A   1      46.944  37.875  30.277  1.00  0.00    -0.744 OA
ENDBRANCH  66  67
ENDBRANCH  45  59
BRANCH  46  71
ATOM     71  C   UNL A   1      43.341  23.684  27.026  1.00  0.00     0.058 A 
ATOM     72  C   UNL A   1      43.193  22.771  28.079  1.00  0.00     0.135 A 
ATOM     73  C   UNL A   1      43.027  23.243  25.731  1.00  0.00     0.135 A 
ATOM     74  F   UNL A   1      43.487  23.142  29.335  1.00  0.00    -0.206 F 
ATOM     75  C   UNL A   1      42.769  21.464  27.859  1.00  0.00     0.059 A 
ATOM     76  C   UNL A   1      42.572  21.950  25.488  1.00  0.00     0.059 A 
ATOM     77  F   UNL A   1      43.134  24.082  24.689  1.00  0.00    -0.206 F 
ATOM     78  C   UNL A   1      42.457  21.064  26.558  1.00  0.00     0.060 A 
BRANCH  78  79
ATOM     79  S   UNL A   1      41.861  19.381  26.288  1.00  0.00     0.124 S 
ATOM     80  O   UNL A   1      42.598  18.997  25.090  1.00  0.00    -0.237 OA
ATOM     81  O   UNL A   1      42.259  18.714  27.525  1.00  0.00    -0.237 OA
ATOM     82  O   UNL A   1      40.423  19.558  26.115  1.00  0.00    -0.744 OA
ENDBRANCH  78  79
ENDBRANCH  46  71
BRANCH  58  83
ATOM     83  C   UNL A   1      49.479  26.923  26.284  1.00  0.00     0.058 A 
ATOM     84  C   UNL A   1      50.372  26.319  27.184  1.00  0.00     0.135 A 
ATOM     85  C   UNL A   1      49.876  27.029  24.940  1.00  0.00     0.135 A 
ATOM     86  F   UNL A   1      50.044  26.195  28.480  1.00  0.00    -0.206 F 
ATOM     87  C   UNL A   1      51.621  25.866  26.773  1.00  0.00     0.059 A 
ATOM     88  C   UNL A   1      51.108  26.555  24.502  1.00  0.00     0.059 A 
ATOM     89  F   UNL A   1      49.057  27.587  24.035  1.00  0.00    -0.206 F 
ATOM     90  C   UNL A   1      51.981  25.989  25.429  1.00  0.00     0.060 A 
BRANCH  90  91
ATOM     91  S   UNL A   1      53.596  25.377  24.907  1.00  0.00     0.124 S 
ATOM     92  O   UNL A   1      53.455  23.942  25.135  1.00  0.00    -0.237 OA
ATOM     93  O   UNL A   1      53.651  25.794  23.509  1.00  0.00    -0.237 OA
ATOM     94  O   UNL A   1      54.526  26.066  25.797  1.00  0.00    -0.744 OA
ENDBRANCH  90  91
ENDBRANCH  58  83
ENDBRANCH  32  33
ENDBRANCH  24  27
ENDBRANCH  22  23
ENDBRANCH  21  22
ENDBRANCH   1  21
TORSDOF 18
ENDMDL
