MODEL 1
REMARK VINA RESULT:     -12.0      0.000      0.000
REMARK SMILES Cc1ccc(Cl)c(Nc2ccccc2C(=O)NCCCCCCNC(=O)c2ccc(-c3c4nc(c(-c5c(F)cc(S(=O)(=O)[O-])cc5F)c5ccc([nH]5)c(-c5c(F)cc(S(=O)(=O)[O-])cc5F)c5nc(c(-c6c(F)cc(S(=O)(=O)[O-])cc6F)c6ccc3[nH]6)C=C5)C=C4)cc2)c1Cl
REMARK SMILES IDX 21 1 20 2 19 3 18 4 17 5 15 6 16 7 14 9 9 10 10 11 11 12
REMARK SMILES IDX 13 13 12 14 8 15 7 17 1 18 2 19 3 20 93 21 4 22 94 23 5 24
REMARK SMILES IDX 6 25 22 26 23 27 24 28 25 29 26 31 27 32 28 33 92 34 29 35
REMARK SMILES IDX 91 36 30 37 31 38 32 39 85 40 33 41 90 42 84 43 86 44 34 45
REMARK SMILES IDX 89 46 83 47 82 48 35 50 69 51 48 52 68 53 49 54 52 55 67 56
REMARK SMILES IDX 87 57 50 58 51 59 66 61 88 62 53 63 36 64 37 65 46 66 38 67
REMARK SMILES IDX 39 68 45 69 47 70 40 71 41 72 42 73 43 74 44 75 70 76 71 77
REMARK SMILES IDX 80 78 72 79 73 80 79 81 81 82 74 83 75 84 76 85 77 86 78 87
REMARK SMILES IDX 54 88 55 89 64 90 56 91 57 92 63 93 65 94 58 95 59 96 60 97
REMARK SMILES IDX 61 98 62 99
REMARK H PARENT 17 8 8 16 24 30 86 49 52 60
REMARK Flexibility Score: inf
ROOT
ATOM      1  C   UNL A   1      34.781  29.103  27.157  1.00  0.00     0.002 C 
ENDROOT
BRANCH   1   2
ATOM      2  C   UNL A   1      33.930  28.405  26.090  1.00  0.00     0.002 C 
BRANCH   2   3
ATOM      3  C   UNL A   1      32.625  27.728  26.532  1.00  0.00     0.021 C 
BRANCH   3   4
ATOM      4  C   UNL A   1      32.514  26.219  26.322  1.00  0.00     0.116 C 
BRANCH   4   5
ATOM      5  N   UNL A   1      31.245  25.652  26.711  1.00  0.00    -0.352 N 
ATOM      6  C   UNL A   1      30.661  24.455  26.375  1.00  0.00     0.253 C 
ATOM      7  O   UNL A   1      29.574  24.198  26.899  1.00  0.00    -0.269 OA
ATOM      8  H   UNL A   1      30.711  26.214  27.317  1.00  0.00     0.163 HD
BRANCH   6   9
ATOM      9  C   UNL A   1      31.196  23.520  25.335  1.00  0.00     0.063 A 
ATOM     10  C   UNL A   1      31.083  23.618  23.933  1.00  0.00     0.051 A 
ATOM     11  C   UNL A   1      31.636  22.575  23.150  1.00  0.00     0.027 A 
ATOM     12  C   UNL A   1      32.339  21.509  23.713  1.00  0.00     0.002 A 
ATOM     13  C   UNL A   1      31.933  22.443  25.886  1.00  0.00     0.016 A 
ATOM     14  C   UNL A   1      32.507  21.455  25.086  1.00  0.00     0.001 A 
BRANCH  10  15
ATOM     15  N   UNL A   1      30.583  24.700  23.184  1.00  0.00    -0.352 N 
ATOM     16  H   UNL A   1      29.816  24.448  22.621  1.00  0.00     0.167 HD
BRANCH  15  17
ATOM     17  C   UNL A   1      30.927  26.067  23.051  1.00  0.00     0.077 A 
ATOM     18  C   UNL A   1      33.857  28.445  22.329  1.00  0.00     0.046 C 
ATOM     19  C   UNL A   1      32.505  27.921  22.733  1.00  0.00    -0.030 A 
ATOM     20  C   UNL A   1      31.557  28.819  23.244  1.00  0.00     0.006 A 
ATOM     21  C   UNL A   1      32.167  26.556  22.593  1.00  0.00     0.069 A 
ATOM     22  C   UNL A   1      30.287  28.377  23.594  1.00  0.00     0.023 A 
ATOM     23  Cl  UNL A   1      33.245  25.538  21.681  1.00  0.00    -0.082 Cl
ATOM     24  C   UNL A   1      29.980  27.021  23.499  1.00  0.00     0.066 A 
ATOM     25  Cl  UNL A   1      28.395  26.519  24.001  1.00  0.00    -0.082 Cl
ENDBRANCH  15  17
ENDBRANCH  10  15
ENDBRANCH   6   9
ENDBRANCH   4   5
ENDBRANCH   3   4
ENDBRANCH   2   3
ENDBRANCH   1   2
BRANCH   1  26
ATOM     26  C   UNL A   1      34.520  30.589  27.407  1.00  0.00     0.021 C 
BRANCH  26  27
ATOM     27  C   UNL A   1      35.557  31.347  28.227  1.00  0.00     0.116 C 
BRANCH  27  28
ATOM     28  N   UNL A   1      35.459  31.087  29.651  1.00  0.00    -0.352 N 
ATOM     29  C   UNL A   1      36.358  30.499  30.510  1.00  0.00     0.251 C 
ATOM     30  H   UNL A   1      34.616  31.377  30.068  1.00  0.00     0.163 HD
ATOM     31  O   UNL A   1      36.008  30.262  31.665  1.00  0.00    -0.269 OA
BRANCH  29  32
ATOM     32  C   UNL A   1      37.726  30.122  30.068  1.00  0.00     0.039 A 
ATOM     33  C   UNL A   1      38.698  29.873  31.046  1.00  0.00     0.014 A 
ATOM     34  C   UNL A   1      38.082  30.059  28.718  1.00  0.00     0.014 A 
ATOM     35  C   UNL A   1      39.999  29.514  30.674  1.00  0.00     0.010 A 
ATOM     36  C   UNL A   1      39.361  29.635  28.347  1.00  0.00     0.010 A 
ATOM     37  C   UNL A   1      40.336  29.367  29.320  1.00  0.00    -0.014 A 
BRANCH  37  38
ATOM     38  C   UNL A   1      41.704  28.951  28.902  1.00  0.00     0.031 A 
ATOM     39  C   UNL A   1      42.812  29.968  28.822  1.00  0.00     0.074 A 
ATOM     40  C   UNL A   1      41.938  27.677  28.531  1.00  0.00     0.049 A 
ATOM     41  N   UNL A   1      44.040  29.821  28.394  1.00  0.00    -0.248 NA
ATOM     42  C   UNL A   1      42.489  31.335  29.257  1.00  0.00     0.031 C 
ATOM     43  C   UNL A   1      40.943  26.602  28.523  1.00  0.00     0.029 A 
ATOM     44  N   UNL A   1      43.082  27.072  28.072  1.00  0.00    -0.354 N 
ATOM     45  C   UNL A   1      44.627  31.078  28.483  1.00  0.00     0.074 A 
ATOM     46  C   UNL A   1      43.609  31.984  28.970  1.00  0.00     0.031 C 
ATOM     47  C   UNL A   1      41.522  25.470  28.090  1.00  0.00     0.029 A 
ATOM     48  C   UNL A   1      42.918  25.744  27.758  1.00  0.00     0.049 A 
ATOM     49  H   UNL A   1      43.941  27.546  27.979  1.00  0.00     0.167 HD
ATOM     50  C   UNL A   1      45.901  31.443  28.199  1.00  0.00     0.037 A 
ATOM     51  C   UNL A   1      43.787  24.848  27.249  1.00  0.00     0.037 A 
ATOM     52  C   UNL A   1      46.925  30.535  27.750  1.00  0.00     0.049 A 
ATOM     53  C   UNL A   1      45.202  25.268  26.962  1.00  0.00     0.074 A 
ATOM     54  C   UNL A   1      48.261  30.796  27.507  1.00  0.00     0.029 A 
ATOM     55  N   UNL A   1      46.726  29.189  27.478  1.00  0.00    -0.354 N 
ATOM     56  N   UNL A   1      45.754  26.449  27.108  1.00  0.00    -0.248 NA
ATOM     57  C   UNL A   1      46.114  24.236  26.450  1.00  0.00     0.031 C 
ATOM     58  C   UNL A   1      48.864  29.617  27.055  1.00  0.00     0.029 A 
ATOM     59  C   UNL A   1      47.911  28.612  27.054  1.00  0.00     0.049 A 
ATOM     60  H   UNL A   1      45.868  28.715  27.574  1.00  0.00     0.167 HD
ATOM     61  C   UNL A   1      47.083  26.298  26.724  1.00  0.00     0.074 A 
ATOM     62  C   UNL A   1      47.254  24.909  26.349  1.00  0.00     0.031 C 
ATOM     63  C   UNL A   1      48.070  27.226  26.688  1.00  0.00     0.037 A 
BRANCH  50  64
ATOM     64  C   UNL A   1      46.261  32.894  28.366  1.00  0.00     0.058 A 
ATOM     65  C   UNL A   1      46.742  33.400  29.585  1.00  0.00     0.135 A 
ATOM     66  C   UNL A   1      46.142  33.787  27.289  1.00  0.00     0.135 A 
ATOM     67  F   UNL A   1      46.863  32.592  30.650  1.00  0.00    -0.206 F 
ATOM     68  C   UNL A   1      47.057  34.746  29.740  1.00  0.00     0.059 A 
ATOM     69  C   UNL A   1      46.476  35.132  27.414  1.00  0.00     0.059 A 
ATOM     70  F   UNL A   1      45.690  33.357  26.100  1.00  0.00    -0.206 F 
ATOM     71  C   UNL A   1      46.914  35.606  28.650  1.00  0.00     0.060 A 
BRANCH  71  72
ATOM     72  S   UNL A   1      47.310  37.354  28.867  1.00  0.00     0.124 S 
ATOM     73  O   UNL A   1      47.711  37.387  30.272  1.00  0.00    -0.237 OA
ATOM     74  O   UNL A   1      48.389  37.553  27.899  1.00  0.00    -0.237 OA
ATOM     75  O   UNL A   1      46.059  38.028  28.552  1.00  0.00    -0.744 OA
ENDBRANCH  71  72
ENDBRANCH  50  64
BRANCH  51  76
ATOM     76  C   UNL A   1      43.340  23.453  26.996  1.00  0.00     0.058 A 
ATOM     77  C   UNL A   1      43.122  22.991  25.690  1.00  0.00     0.135 A 
ATOM     78  C   UNL A   1      43.156  22.545  28.051  1.00  0.00     0.135 A 
ATOM     79  F   UNL A   1      43.277  23.825  24.651  1.00  0.00    -0.206 F 
ATOM     80  C   UNL A   1      42.735  21.680  25.436  1.00  0.00     0.059 A 
ATOM     81  C   UNL A   1      42.789  21.223  27.821  1.00  0.00     0.059 A 
ATOM     82  F   UNL A   1      43.365  22.936  29.318  1.00  0.00    -0.206 F 
ATOM     83  C   UNL A   1      42.577  20.801  26.509  1.00  0.00     0.060 A 
BRANCH  83  84
ATOM     84  S   UNL A   1      42.148  19.079  26.165  1.00  0.00     0.124 S 
ATOM     85  O   UNL A   1      40.741  19.195  25.803  1.00  0.00    -0.237 OA
ATOM     86  O   UNL A   1      43.064  18.746  25.079  1.00  0.00    -0.237 OA
ATOM     87  O   UNL A   1      42.424  18.408  27.432  1.00  0.00    -0.744 OA
ENDBRANCH  83  84
ENDBRANCH  51  76
BRANCH  63  88
ATOM     88  C   UNL A   1      49.434  26.772  26.253  1.00  0.00     0.058 A 
ATOM     89  C   UNL A   1      49.850  26.868  24.916  1.00  0.00     0.135 A 
ATOM     90  C   UNL A   1      50.360  26.295  27.196  1.00  0.00     0.135 A 
ATOM     91  F   UNL A   1      49.000  27.310  23.976  1.00  0.00    -0.206 F 
ATOM     92  C   UNL A   1      51.131  26.494  24.526  1.00  0.00     0.059 A 
ATOM     93  C   UNL A   1      51.653  25.936  26.832  1.00  0.00     0.059 A 
ATOM     94  F   UNL A   1      50.014  26.192  28.489  1.00  0.00    -0.206 F 
ATOM     95  C   UNL A   1      52.028  26.032  25.491  1.00  0.00     0.060 A 
BRANCH  95  96
ATOM     96  S   UNL A   1      53.704  25.595  24.982  1.00  0.00     0.124 S 
ATOM     97  O   UNL A   1      53.551  24.181  24.652  1.00  0.00    -0.237 OA
ATOM     98  O   UNL A   1      53.932  26.489  23.851  1.00  0.00    -0.237 OA
ATOM     99  O   UNL A   1      54.505  25.880  26.169  1.00  0.00    -0.744 OA
ENDBRANCH  95  96
ENDBRANCH  63  88
ENDBRANCH  37  38
ENDBRANCH  29  32
ENDBRANCH  27  28
ENDBRANCH  26  27
ENDBRANCH   1  26
TORSDOF 18
ENDMDL
MODEL 2
REMARK VINA RESULT:     -11.8      6.565     11.744
REMARK SMILES Cc1ccc(Cl)c(Nc2ccccc2C(=O)NCCCCCCNC(=O)c2ccc(-c3c4nc(c(-c5c(F)cc(S(=O)(=O)[O-])cc5F)c5ccc([nH]5)c(-c5c(F)cc(S(=O)(=O)[O-])cc5F)c5nc(c(-c6c(F)cc(S(=O)(=O)[O-])cc6F)c6ccc3[nH]6)C=C5)C=C4)cc2)c1Cl
REMARK SMILES IDX 21 1 20 2 19 3 18 4 17 5 15 6 16 7 14 9 9 10 10 11 11 12
REMARK SMILES IDX 13 13 12 14 8 15 7 17 1 18 2 19 3 20 93 21 4 22 94 23 5 24
REMARK SMILES IDX 6 25 22 26 23 27 24 28 25 29 26 31 27 32 28 33 92 34 29 35
REMARK SMILES IDX 91 36 30 37 31 38 32 39 85 40 33 41 90 42 84 43 86 44 34 45
REMARK SMILES IDX 89 46 83 47 82 48 35 50 69 51 48 52 68 53 49 54 52 55 67 56
REMARK SMILES IDX 87 57 50 58 51 59 66 61 88 62 53 63 36 64 37 65 46 66 38 67
REMARK SMILES IDX 39 68 45 69 47 70 40 71 41 72 42 73 43 74 44 75 70 76 71 77
REMARK SMILES IDX 80 78 72 79 73 80 79 81 81 82 74 83 75 84 76 85 77 86 78 87
REMARK SMILES IDX 54 88 55 89 64 90 56 91 57 92 63 93 65 94 58 95 59 96 60 97
REMARK SMILES IDX 61 98 62 99
REMARK H PARENT 17 8 8 16 24 30 86 49 52 60
REMARK Flexibility Score: inf
ROOT
ATOM      1  C   UNL A   1      35.866  23.288  25.998  1.00  0.00     0.002 C 
ENDROOT
BRANCH   1   2
ATOM      2  C   UNL A   1      35.399  21.829  26.045  1.00  0.00     0.002 C 
BRANCH   2   3
ATOM      3  C   UNL A   1      34.309  21.448  27.058  1.00  0.00     0.021 C 
BRANCH   3   4
ATOM      4  C   UNL A   1      33.385  22.563  27.544  1.00  0.00     0.116 C 
BRANCH   4   5
ATOM      5  N   UNL A   1      31.984  22.336  27.283  1.00  0.00    -0.352 N 
ATOM      6  C   UNL A   1      31.267  22.425  26.115  1.00  0.00     0.253 C 
ATOM      7  O   UNL A   1      30.071  22.123  26.170  1.00  0.00    -0.269 OA
ATOM      8  H   UNL A   1      31.456  22.073  28.071  1.00  0.00     0.163 HD
BRANCH   6   9
ATOM      9  C   UNL A   1      31.810  22.976  24.834  1.00  0.00     0.063 A 
ATOM     10  C   UNL A   1      31.856  24.321  24.413  1.00  0.00     0.051 A 
ATOM     11  C   UNL A   1      32.380  24.594  23.125  1.00  0.00     0.027 A 
ATOM     12  C   UNL A   1      32.907  23.596  22.305  1.00  0.00     0.002 A 
ATOM     13  C   UNL A   1      32.371  21.980  23.997  1.00  0.00     0.016 A 
ATOM     14  C   UNL A   1      32.923  22.286  22.753  1.00  0.00     0.001 A 
BRANCH  10  15
ATOM     15  N   UNL A   1      31.551  25.470  25.168  1.00  0.00    -0.352 N 
ATOM     16  H   UNL A   1      31.556  25.297  26.137  1.00  0.00     0.167 HD
BRANCH  15  17
ATOM     17  C   UNL A   1      31.241  26.816  24.858  1.00  0.00     0.077 A 
ATOM     18  C   UNL A   1      28.886  29.029  22.781  1.00  0.00     0.046 C 
ATOM     19  C   UNL A   1      30.031  28.575  23.646  1.00  0.00    -0.030 A 
ATOM     20  C   UNL A   1      31.019  29.504  24.002  1.00  0.00     0.006 A 
ATOM     21  C   UNL A   1      30.122  27.246  24.117  1.00  0.00     0.069 A 
ATOM     22  C   UNL A   1      32.071  29.129  24.828  1.00  0.00     0.023 A 
ATOM     23  Cl  UNL A   1      28.737  26.211  23.914  1.00  0.00    -0.082 Cl
ATOM     24  C   UNL A   1      32.179  27.805  25.247  1.00  0.00     0.066 A 
ATOM     25  Cl  UNL A   1      33.544  27.382  26.235  1.00  0.00    -0.082 Cl
ENDBRANCH  15  17
ENDBRANCH  10  15
ENDBRANCH   6   9
ENDBRANCH   4   5
ENDBRANCH   3   4
ENDBRANCH   2   3
ENDBRANCH   1   2
BRANCH   1  26
ATOM     26  C   UNL A   1      37.294  23.556  25.519  1.00  0.00     0.021 C 
BRANCH  26  27
ATOM     27  C   UNL A   1      38.261  24.164  26.529  1.00  0.00     0.116 C 
BRANCH  27  28
ATOM     28  N   UNL A   1      39.652  24.010  26.150  1.00  0.00    -0.352 N 
ATOM     29  C   UNL A   1      40.763  24.724  26.538  1.00  0.00     0.251 C 
ATOM     30  H   UNL A   1      39.830  23.280  25.514  1.00  0.00     0.163 HD
ATOM     31  O   UNL A   1      41.837  24.497  25.984  1.00  0.00    -0.269 OA
BRANCH  29  32
ATOM     32  C   UNL A   1      40.687  25.774  27.586  1.00  0.00     0.039 A 
ATOM     33  C   UNL A   1      39.668  25.688  28.543  1.00  0.00     0.014 A 
ATOM     34  C   UNL A   1      41.562  26.864  27.614  1.00  0.00     0.014 A 
ATOM     35  C   UNL A   1      39.560  26.655  29.550  1.00  0.00     0.010 A 
ATOM     36  C   UNL A   1      41.496  27.791  28.658  1.00  0.00     0.010 A 
ATOM     37  C   UNL A   1      40.490  27.703  29.632  1.00  0.00    -0.014 A 
BRANCH  37  38
ATOM     38  C   UNL A   1      40.415  28.723  30.714  1.00  0.00     0.031 A 
ATOM     39  C   UNL A   1      41.295  28.601  31.931  1.00  0.00     0.074 A 
ATOM     40  C   UNL A   1      39.514  29.722  30.638  1.00  0.00     0.049 A 
ATOM     41  N   UNL A   1      41.311  29.333  33.016  1.00  0.00    -0.248 NA
ATOM     42  C   UNL A   1      42.266  27.496  31.937  1.00  0.00     0.031 C 
ATOM     43  C   UNL A   1      38.574  29.931  29.535  1.00  0.00     0.029 A 
ATOM     44  N   UNL A   1      39.227  30.739  31.515  1.00  0.00    -0.354 N 
ATOM     45  C   UNL A   1      42.272  28.763  33.844  1.00  0.00     0.074 A 
ATOM     46  C   UNL A   1      42.789  27.602  33.151  1.00  0.00     0.031 C 
ATOM     47  C   UNL A   1      37.823  31.013  29.797  1.00  0.00     0.029 A 
ATOM     48  C   UNL A   1      38.201  31.555  31.099  1.00  0.00     0.049 A 
ATOM     49  H   UNL A   1      39.711  30.872  32.362  1.00  0.00     0.167 HD
ATOM     50  C   UNL A   1      42.695  29.176  35.063  1.00  0.00     0.037 A 
ATOM     51  C   UNL A   1      37.622  32.612  31.700  1.00  0.00     0.037 A 
ATOM     52  C   UNL A   1      42.207  30.351  35.737  1.00  0.00     0.049 A 
ATOM     53  C   UNL A   1      38.122  33.068  33.044  1.00  0.00     0.074 A 
ATOM     54  C   UNL A   1      42.627  30.891  36.940  1.00  0.00     0.029 A 
ATOM     55  N   UNL A   1      41.193  31.171  35.264  1.00  0.00    -0.354 N 
ATOM     56  N   UNL A   1      39.071  32.549  33.785  1.00  0.00    -0.248 NA
ATOM     57  C   UNL A   1      37.479  34.253  33.629  1.00  0.00     0.031 C 
ATOM     58  C   UNL A   1      41.843  32.017  37.213  1.00  0.00     0.029 A 
ATOM     59  C   UNL A   1      40.962  32.202  36.159  1.00  0.00     0.049 A 
ATOM     60  H   UNL A   1      40.710  31.040  34.416  1.00  0.00     0.167 HD
ATOM     61  C   UNL A   1      39.154  33.357  34.915  1.00  0.00     0.074 A 
ATOM     62  C   UNL A   1      38.165  34.403  34.755  1.00  0.00     0.031 C 
ATOM     63  C   UNL A   1      39.977  33.241  35.986  1.00  0.00     0.037 A 
BRANCH  50  64
ATOM     64  C   UNL A   1      43.743  28.345  35.752  1.00  0.00     0.058 A 
ATOM     65  C   UNL A   1      43.399  27.307  36.634  1.00  0.00     0.135 A 
ATOM     66  C   UNL A   1      45.108  28.574  35.512  1.00  0.00     0.135 A 
ATOM     67  F   UNL A   1      42.110  27.053  36.908  1.00  0.00    -0.206 F 
ATOM     68  C   UNL A   1      44.371  26.552  37.283  1.00  0.00     0.059 A 
ATOM     69  C   UNL A   1      46.096  27.814  36.130  1.00  0.00     0.059 A 
ATOM     70  F   UNL A   1      45.492  29.551  34.676  1.00  0.00    -0.206 F 
ATOM     71  C   UNL A   1      45.718  26.817  37.029  1.00  0.00     0.060 A 
BRANCH  71  72
ATOM     72  S   UNL A   1      46.971  25.842  37.887  1.00  0.00     0.124 S 
ATOM     73  O   UNL A   1      46.497  25.914  39.268  1.00  0.00    -0.237 OA
ATOM     74  O   UNL A   1      46.845  24.534  37.245  1.00  0.00    -0.237 OA
ATOM     75  O   UNL A   1      48.208  26.556  37.608  1.00  0.00    -0.744 OA
ENDBRANCH  71  72
ENDBRANCH  50  64
BRANCH  51  76
ATOM     76  C   UNL A   1      36.509  33.326  31.019  1.00  0.00     0.058 A 
ATOM     77  C   UNL A   1      36.751  34.137  29.901  1.00  0.00     0.135 A 
ATOM     78  C   UNL A   1      35.181  33.183  31.450  1.00  0.00     0.135 A 
ATOM     79  F   UNL A   1      38.005  34.310  29.458  1.00  0.00    -0.206 F 
ATOM     80  C   UNL A   1      35.717  34.785  29.234  1.00  0.00     0.059 A 
ATOM     81  C   UNL A   1      34.128  33.804  30.787  1.00  0.00     0.059 A 
ATOM     82  F   UNL A   1      34.897  32.407  32.508  1.00  0.00    -0.206 F 
ATOM     83  C   UNL A   1      34.406  34.607  29.682  1.00  0.00     0.060 A 
BRANCH  83  84
ATOM     84  S   UNL A   1      33.062  35.391  28.763  1.00  0.00     0.124 S 
ATOM     85  O   UNL A   1      33.787  36.359  27.951  1.00  0.00    -0.237 OA
ATOM     86  O   UNL A   1      32.481  34.261  28.044  1.00  0.00    -0.237 OA
ATOM     87  O   UNL A   1      32.220  35.950  29.817  1.00  0.00    -0.744 OA
ENDBRANCH  83  84
ENDBRANCH  51  76
BRANCH  63  88
ATOM     88  C   UNL A   1      39.867  34.283  37.063  1.00  0.00     0.058 A 
ATOM     89  C   UNL A   1      40.524  35.519  36.960  1.00  0.00     0.135 A 
ATOM     90  C   UNL A   1      39.043  34.068  38.180  1.00  0.00     0.135 A 
ATOM     91  F   UNL A   1      41.329  35.770  35.916  1.00  0.00    -0.206 F 
ATOM     92  C   UNL A   1      40.379  36.501  37.934  1.00  0.00     0.059 A 
ATOM     93  C   UNL A   1      38.866  35.045  39.154  1.00  0.00     0.059 A 
ATOM     94  F   UNL A   1      38.386  32.906  38.321  1.00  0.00    -0.206 F 
ATOM     95  C   UNL A   1      39.545  36.257  39.027  1.00  0.00     0.060 A 
BRANCH  95  96
ATOM     96  S   UNL A   1      39.326  37.556  40.261  1.00  0.00     0.124 S 
ATOM     97  O   UNL A   1      38.879  36.789  41.419  1.00  0.00    -0.237 OA
ATOM     98  O   UNL A   1      40.666  38.127  40.357  1.00  0.00    -0.237 OA
ATOM     99  O   UNL A   1      38.322  38.429  39.659  1.00  0.00    -0.744 OA
ENDBRANCH  95  96
ENDBRANCH  63  88
ENDBRANCH  37  38
ENDBRANCH  29  32
ENDBRANCH  27  28
ENDBRANCH  26  27
ENDBRANCH   1  26
TORSDOF 18
ENDMDL
MODEL 3
REMARK VINA RESULT:     -11.7      6.411     11.843
REMARK SMILES Cc1ccc(Cl)c(Nc2ccccc2C(=O)NCCCCCCNC(=O)c2ccc(-c3c4nc(c(-c5c(F)cc(S(=O)(=O)[O-])cc5F)c5ccc([nH]5)c(-c5c(F)cc(S(=O)(=O)[O-])cc5F)c5nc(c(-c6c(F)cc(S(=O)(=O)[O-])cc6F)c6ccc3[nH]6)C=C5)C=C4)cc2)c1Cl
REMARK SMILES IDX 21 1 20 2 19 3 18 4 17 5 15 6 16 7 14 9 9 10 10 11 11 12
REMARK SMILES IDX 13 13 12 14 8 15 7 17 1 18 2 19 3 20 93 21 4 22 94 23 5 24
REMARK SMILES IDX 6 25 22 26 23 27 24 28 25 29 26 31 27 32 28 33 92 34 29 35
REMARK SMILES IDX 91 36 30 37 31 38 32 39 85 40 33 41 90 42 84 43 86 44 34 45
REMARK SMILES IDX 89 46 83 47 82 48 35 50 69 51 48 52 68 53 49 54 52 55 67 56
REMARK SMILES IDX 87 57 50 58 51 59 66 61 88 62 53 63 36 64 37 65 46 66 38 67
REMARK SMILES IDX 39 68 45 69 47 70 40 71 41 72 42 73 43 74 44 75 70 76 71 77
REMARK SMILES IDX 80 78 72 79 73 80 79 81 81 82 74 83 75 84 76 85 77 86 78 87
REMARK SMILES IDX 54 88 55 89 64 90 56 91 57 92 63 93 65 94 58 95 59 96 60 97
REMARK SMILES IDX 61 98 62 99
REMARK H PARENT 17 8 8 16 24 30 86 49 52 60
REMARK Flexibility Score: inf
ROOT
ATOM      1  C   UNL A   1      36.571  23.564  26.132  1.00  0.00     0.002 C 
ENDROOT
BRANCH   1   2
ATOM      2  C   UNL A   1      35.458  24.054  25.198  1.00  0.00     0.002 C 
BRANCH   2   3
ATOM      3  C   UNL A   1      34.339  24.920  25.794  1.00  0.00     0.021 C 
BRANCH   3   4
ATOM      4  C   UNL A   1      33.950  26.184  25.030  1.00  0.00     0.116 C 
BRANCH   4   5
ATOM      5  N   UNL A   1      34.070  26.076  23.595  1.00  0.00    -0.352 N 
ATOM      6  C   UNL A   1      33.244  26.525  22.594  1.00  0.00     0.253 C 
ATOM      7  O   UNL A   1      33.620  26.336  21.434  1.00  0.00    -0.269 OA
ATOM      8  H   UNL A   1      34.875  25.604  23.284  1.00  0.00     0.163 HD
BRANCH   6   9
ATOM      9  C   UNL A   1      31.884  27.107  22.822  1.00  0.00     0.063 A 
ATOM     10  C   UNL A   1      30.672  26.425  23.059  1.00  0.00     0.051 A 
ATOM     11  C   UNL A   1      29.494  27.198  23.199  1.00  0.00     0.027 A 
ATOM     12  C   UNL A   1      29.508  28.593  23.180  1.00  0.00     0.002 A 
ATOM     13  C   UNL A   1      31.881  28.523  22.829  1.00  0.00     0.016 A 
ATOM     14  C   UNL A   1      30.711  29.259  23.017  1.00  0.00     0.001 A 
BRANCH  10  15
ATOM     15  N   UNL A   1      30.492  25.048  23.298  1.00  0.00    -0.352 N 
ATOM     16  H   UNL A   1      29.794  24.655  22.726  1.00  0.00     0.167 HD
BRANCH  15  17
ATOM     17  C   UNL A   1      31.081  24.099  24.167  1.00  0.00     0.077 A 
ATOM     18  C   UNL A   1      33.076  20.817  24.238  1.00  0.00     0.046 C 
ATOM     19  C   UNL A   1      32.253  22.002  24.669  1.00  0.00    -0.030 A 
ATOM     20  C   UNL A   1      31.825  22.078  26.002  1.00  0.00     0.006 A 
ATOM     21  C   UNL A   1      31.920  23.039  23.769  1.00  0.00     0.069 A 
ATOM     22  C   UNL A   1      31.094  23.174  26.443  1.00  0.00     0.023 A 
ATOM     23  Cl  UNL A   1      32.716  23.065  22.222  1.00  0.00    -0.082 Cl
ATOM     24  C   UNL A   1      30.728  24.167  25.538  1.00  0.00     0.066 A 
ATOM     25  Cl  UNL A   1      29.769  25.487  26.135  1.00  0.00    -0.082 Cl
ENDBRANCH  15  17
ENDBRANCH  10  15
ENDBRANCH   6   9
ENDBRANCH   4   5
ENDBRANCH   3   4
ENDBRANCH   2   3
ENDBRANCH   1   2
BRANCH   1  26
ATOM     26  C   UNL A   1      37.999  24.019  25.826  1.00  0.00     0.021 C 
BRANCH  26  27
ATOM     27  C   UNL A   1      39.090  23.577  26.794  1.00  0.00     0.116 C 
BRANCH  27  28
ATOM     28  N   UNL A   1      40.425  23.689  26.239  1.00  0.00    -0.352 N 
ATOM     29  C   UNL A   1      41.410  24.620  26.473  1.00  0.00     0.251 C 
ATOM     30  H   UNL A   1      40.664  22.987  25.591  1.00  0.00     0.163 HD
ATOM     31  O   UNL A   1      42.429  24.591  25.786  1.00  0.00    -0.269 OA
BRANCH  29  32
ATOM     32  C   UNL A   1      41.259  25.668  27.515  1.00  0.00     0.039 A 
ATOM     33  C   UNL A   1      40.181  25.573  28.405  1.00  0.00     0.014 A 
ATOM     34  C   UNL A   1      42.120  26.765  27.599  1.00  0.00     0.014 A 
ATOM     35  C   UNL A   1      40.001  26.538  29.403  1.00  0.00     0.010 A 
ATOM     36  C   UNL A   1      41.980  27.691  28.636  1.00  0.00     0.010 A 
ATOM     37  C   UNL A   1      40.915  27.594  29.544  1.00  0.00    -0.014 A 
BRANCH  37  38
ATOM     38  C   UNL A   1      40.763  28.613  30.619  1.00  0.00     0.031 A 
ATOM     39  C   UNL A   1      41.610  28.533  31.863  1.00  0.00     0.074 A 
ATOM     40  C   UNL A   1      39.822  29.571  30.513  1.00  0.00     0.049 A 
ATOM     41  N   UNL A   1      41.561  29.268  32.945  1.00  0.00    -0.248 NA
ATOM     42  C   UNL A   1      42.628  27.472  31.903  1.00  0.00     0.031 C 
ATOM     43  C   UNL A   1      38.908  29.736  29.380  1.00  0.00     0.029 A 
ATOM     44  N   UNL A   1      39.464  30.577  31.376  1.00  0.00    -0.354 N 
ATOM     45  C   UNL A   1      42.520  28.743  33.804  1.00  0.00     0.074 A 
ATOM     46  C   UNL A   1      43.109  27.604  33.131  1.00  0.00     0.031 C 
ATOM     47  C   UNL A   1      38.102  30.785  29.615  1.00  0.00     0.029 A 
ATOM     48  C   UNL A   1      38.417  31.346  30.926  1.00  0.00     0.049 A 
ATOM     49  H   UNL A   1      39.916  30.734  32.237  1.00  0.00     0.167 HD
ATOM     50  C   UNL A   1      42.888  29.177  35.034  1.00  0.00     0.037 A 
ATOM     51  C   UNL A   1      37.773  32.379  31.506  1.00  0.00     0.037 A 
ATOM     52  C   UNL A   1      42.329  30.332  35.687  1.00  0.00     0.049 A 
ATOM     53  C   UNL A   1      38.212  32.859  32.862  1.00  0.00     0.074 A 
ATOM     54  C   UNL A   1      42.688  30.893  36.900  1.00  0.00     0.029 A 
ATOM     55  N   UNL A   1      41.295  31.105  35.181  1.00  0.00    -0.354 N 
ATOM     56  N   UNL A   1      39.160  32.385  33.634  1.00  0.00    -0.248 NA
ATOM     57  C   UNL A   1      37.501  34.017  33.422  1.00  0.00     0.031 C 
ATOM     58  C   UNL A   1      41.847  31.984  37.145  1.00  0.00     0.029 A 
ATOM     59  C   UNL A   1      40.991  32.127  36.065  1.00  0.00     0.049 A 
ATOM     60  H   UNL A   1      40.843  30.950  34.319  1.00  0.00     0.167 HD
ATOM     61  C   UNL A   1      39.174  33.198  34.762  1.00  0.00     0.074 A 
ATOM     62  C   UNL A   1      38.145  34.199  34.568  1.00  0.00     0.031 C 
ATOM     63  C   UNL A   1      39.968  33.121  35.858  1.00  0.00     0.037 A 
BRANCH  50  64
ATOM     64  C   UNL A   1      43.950  28.395  35.757  1.00  0.00     0.058 A 
ATOM     65  C   UNL A   1      45.317  28.662  35.575  1.00  0.00     0.135 A 
ATOM     66  C   UNL A   1      43.597  27.378  36.659  1.00  0.00     0.135 A 
ATOM     67  F   UNL A   1      45.709  29.615  34.715  1.00  0.00    -0.206 F 
ATOM     68  C   UNL A   1      46.296  27.924  36.232  1.00  0.00     0.059 A 
ATOM     69  C   UNL A   1      44.560  26.645  37.347  1.00  0.00     0.059 A 
ATOM     70  F   UNL A   1      42.305  27.082  36.874  1.00  0.00    -0.206 F 
ATOM     71  C   UNL A   1      45.908  26.913  37.112  1.00  0.00     0.060 A 
BRANCH  71  72
ATOM     72  S   UNL A   1      47.187  25.951  37.948  1.00  0.00     0.124 S 
ATOM     73  O   UNL A   1      47.459  24.912  36.957  1.00  0.00    -0.237 OA
ATOM     74  O   UNL A   1      48.250  26.938  38.134  1.00  0.00    -0.237 OA
ATOM     75  O   UNL A   1      46.533  25.503  39.167  1.00  0.00    -0.744 OA
ENDBRANCH  71  72
ENDBRANCH  50  64
BRANCH  51  76
ATOM     76  C   UNL A   1      36.652  33.041  30.788  1.00  0.00     0.058 A 
ATOM     77  C   UNL A   1      35.322  32.840  31.187  1.00  0.00     0.135 A 
ATOM     78  C   UNL A   1      36.888  33.913  29.715  1.00  0.00     0.135 A 
ATOM     79  F   UNL A   1      35.047  32.007  32.203  1.00  0.00    -0.206 F 
ATOM     80  C   UNL A   1      34.265  33.477  30.547  1.00  0.00     0.059 A 
ATOM     81  C   UNL A   1      35.849  34.578  29.072  1.00  0.00     0.059 A 
ATOM     82  F   UNL A   1      38.144  34.150  29.305  1.00  0.00    -0.206 F 
ATOM     83  C   UNL A   1      34.540  34.350  29.493  1.00  0.00     0.060 A 
BRANCH  83  84
ATOM     84  S   UNL A   1      33.167  35.232  28.717  1.00  0.00     0.124 S 
ATOM     85  O   UNL A   1      32.400  35.662  29.880  1.00  0.00    -0.237 OA
ATOM     86  O   UNL A   1      33.856  36.287  27.979  1.00  0.00    -0.237 OA
ATOM     87  O   UNL A   1      32.540  34.208  27.887  1.00  0.00    -0.744 OA
ENDBRANCH  83  84
ENDBRANCH  51  76
BRANCH  63  88
ATOM     88  C   UNL A   1      39.779  34.161  36.927  1.00  0.00     0.058 A 
ATOM     89  C   UNL A   1      39.027  33.900  38.082  1.00  0.00     0.135 A 
ATOM     90  C   UNL A   1      40.411  35.411  36.822  1.00  0.00     0.135 A 
ATOM     91  F   UNL A   1      38.397  32.724  38.225  1.00  0.00    -0.206 F 
ATOM     92  C   UNL A   1      38.897  34.847  39.092  1.00  0.00     0.059 A 
ATOM     93  C   UNL A   1      40.313  36.364  37.830  1.00  0.00     0.059 A 
ATOM     94  F   UNL A   1      41.149  35.706  35.741  1.00  0.00    -0.206 F 
ATOM     95  C   UNL A   1      39.546  36.076  38.960  1.00  0.00     0.060 A 
BRANCH  95  96
ATOM     96  S   UNL A   1      39.410  37.280  40.298  1.00  0.00     0.124 S 
ATOM     97  O   UNL A   1      38.612  36.543  41.275  1.00  0.00    -0.237 OA
ATOM     98  O   UNL A   1      40.806  37.506  40.661  1.00  0.00    -0.237 OA
ATOM     99  O   UNL A   1      38.741  38.414  39.668  1.00  0.00    -0.744 OA
ENDBRANCH  95  96
ENDBRANCH  63  88
ENDBRANCH  37  38
ENDBRANCH  29  32
ENDBRANCH  27  28
ENDBRANCH  26  27
ENDBRANCH   1  26
TORSDOF 18
ENDMDL
