MODEL 1
REMARK VINA RESULT:     -10.9      0.000      0.000
REMARK SMILES O=C(NCCCCCCNC(=O)[C@@H]1C[NH2+]CCN1C(=O)N[C@@H]1CCOC1)c1ccc(-c2c3nc(c(-c4c(F)cc(S(=O)(=O)[O-])cc4F)c4ccc([nH]4)c(-c4c(F)cc(S(=O)(=O)[O-])cc4F)c4nc(c(-c5c(F)cc(S(=O)(=O)[O-])cc5F)c5ccc2[nH]5)C=C4)C=C3)cc1
REMARK SMILES IDX 6 1 5 2 4 3 3 4 1 5 2 6 27 8 28 9 92 10 29 11 91 12 30 13
REMARK SMILES IDX 31 14 32 15 85 16 33 17 90 18 84 19 86 20 34 21 89 22 83 23
REMARK SMILES IDX 82 24 35 26 69 27 48 28 68 29 49 30 52 31 67 32 87 33 50 34
REMARK SMILES IDX 51 35 66 37 88 38 53 39 36 40 37 41 46 42 38 43 39 44 45 45
REMARK SMILES IDX 47 46 40 47 41 48 42 49 43 50 44 51 70 52 71 53 80 54 72 55
REMARK SMILES IDX 73 56 79 57 81 58 74 59 75 60 76 61 77 62 78 63 54 64 55 65
REMARK SMILES IDX 64 66 56 67 57 68 63 69 65 70 58 71 59 72 60 73 61 74 62 75
REMARK SMILES IDX 7 76 8 77 9 78 10 79 11 80 12 82 13 83 14 84 18 85 15 86
REMARK SMILES IDX 17 87 16 88 19 91 20 92 21 93 22 95 23 96 26 97 24 98 25 99
REMARK H PARENT 3 7 86 25 52 36 10 81 15 89 15 90 21 94
REMARK Flexibility Score: inf
ROOT
ATOM      1  C   UNL A   1      34.289  23.106  26.533  1.00  0.00     0.002 C 
ENDROOT
BRANCH   1   2
ATOM      2  C   UNL A   1      34.980  23.895  25.423  1.00  0.00     0.021 C 
BRANCH   2   3
ATOM      3  C   UNL A   1      36.444  24.220  25.679  1.00  0.00     0.116 C 
BRANCH   3   4
ATOM      4  N   UNL A   1      37.329  23.078  25.533  1.00  0.00    -0.352 N 
ATOM      5  O   UNL A   1      39.308  21.992  25.688  1.00  0.00    -0.269 OA
ATOM      6  C   UNL A   1      38.638  22.966  25.967  1.00  0.00     0.251 C 
ATOM      7  H   UNL A   1      36.953  22.293  25.073  1.00  0.00     0.163 HD
BRANCH   6   8
ATOM      8  C   UNL A   1      39.212  24.089  26.749  1.00  0.00     0.039 A 
ATOM      9  C   UNL A   1      38.923  24.210  28.109  1.00  0.00     0.014 A 
ATOM     10  C   UNL A   1      39.977  25.062  26.100  1.00  0.00     0.014 A 
ATOM     11  C   UNL A   1      39.251  25.382  28.775  1.00  0.00     0.010 A 
ATOM     12  C   UNL A   1      40.403  26.193  26.807  1.00  0.00     0.010 A 
ATOM     13  C   UNL A   1      40.016  26.378  28.143  1.00  0.00    -0.014 A 
BRANCH  13  14
ATOM     14  C   UNL A   1      40.456  27.549  28.948  1.00  0.00     0.031 A 
ATOM     15  C   UNL A   1      39.580  28.756  29.146  1.00  0.00     0.074 A 
ATOM     16  C   UNL A   1      41.653  27.473  29.564  1.00  0.00     0.049 A 
ATOM     17  N   UNL A   1      39.804  29.820  29.876  1.00  0.00    -0.248 NA
ATOM     18  C   UNL A   1      38.294  28.783  28.432  1.00  0.00     0.031 C 
ATOM     19  C   UNL A   1      42.602  26.363  29.419  1.00  0.00     0.029 A 
ATOM     20  N   UNL A   1      42.267  28.315  30.453  1.00  0.00    -0.354 N 
ATOM     21  C   UNL A   1      38.698  30.646  29.706  1.00  0.00     0.074 A 
ATOM     22  C   UNL A   1      37.814  29.973  28.777  1.00  0.00     0.031 C 
ATOM     23  C   UNL A   1      43.642  26.560  30.239  1.00  0.00     0.029 A 
ATOM     24  C   UNL A   1      43.475  27.842  30.911  1.00  0.00     0.049 A 
ATOM     25  H   UNL A   1      41.882  29.175  30.737  1.00  0.00     0.167 HD
ATOM     26  C   UNL A   1      38.442  31.847  30.282  1.00  0.00     0.037 A 
ATOM     27  C   UNL A   1      44.365  28.384  31.763  1.00  0.00     0.037 A 
ATOM     28  C   UNL A   1      39.330  32.506  31.210  1.00  0.00     0.049 A 
ATOM     29  C   UNL A   1      44.054  29.713  32.383  1.00  0.00     0.074 A 
ATOM     30  C   UNL A   1      39.158  33.721  31.851  1.00  0.00     0.029 A 
ATOM     31  N   UNL A   1      40.555  32.006  31.632  1.00  0.00    -0.354 N 
ATOM     32  N   UNL A   1      42.993  30.468  32.220  1.00  0.00    -0.248 NA
ATOM     33  C   UNL A   1      45.056  30.266  33.300  1.00  0.00     0.031 C 
ATOM     34  C   UNL A   1      40.293  33.973  32.632  1.00  0.00     0.029 A 
ATOM     35  C   UNL A   1      41.152  32.893  32.515  1.00  0.00     0.049 A 
ATOM     36  H   UNL A   1      40.942  31.148  31.347  1.00  0.00     0.167 HD
ATOM     37  C   UNL A   1      43.202  31.587  33.014  1.00  0.00     0.074 A 
ATOM     38  C   UNL A   1      44.471  31.389  33.687  1.00  0.00     0.031 C 
ATOM     39  C   UNL A   1      42.421  32.686  33.166  1.00  0.00     0.037 A 
BRANCH  26  40
ATOM     40  C   UNL A   1      37.151  32.538  29.930  1.00  0.00     0.058 A 
ATOM     41  C   UNL A   1      35.945  32.211  30.568  1.00  0.00     0.135 A 
ATOM     42  C   UNL A   1      37.131  33.592  29.000  1.00  0.00     0.135 A 
ATOM     43  F   UNL A   1      35.901  31.204  31.455  1.00  0.00    -0.206 F 
ATOM     44  C   UNL A   1      34.763  32.892  30.288  1.00  0.00     0.059 A 
ATOM     45  C   UNL A   1      35.966  34.303  28.722  1.00  0.00     0.059 A 
ATOM     46  F   UNL A   1      38.256  33.950  28.360  1.00  0.00    -0.206 F 
ATOM     47  C   UNL A   1      34.785  33.939  29.366  1.00  0.00     0.060 A 
BRANCH  47  48
ATOM     48  S   UNL A   1      33.247  34.828  29.035  1.00  0.00     0.124 S 
ATOM     49  O   UNL A   1      33.750  36.111  28.556  1.00  0.00    -0.237 OA
ATOM     50  O   UNL A   1      32.610  33.983  28.029  1.00  0.00    -0.237 OA
ATOM     51  O   UNL A   1      32.585  34.859  30.335  1.00  0.00    -0.744 OA
ENDBRANCH  47  48
ENDBRANCH  26  40
BRANCH  27  52
ATOM     52  C   UNL A   1      45.639  27.674  32.048  1.00  0.00     0.058 A 
ATOM     53  C   UNL A   1      45.749  26.767  33.110  1.00  0.00     0.135 A 
ATOM     54  C   UNL A   1      46.771  27.882  31.243  1.00  0.00     0.135 A 
ATOM     55  F   UNL A   1      44.695  26.535  33.908  1.00  0.00    -0.206 F 
ATOM     56  C   UNL A   1      46.943  26.107  33.381  1.00  0.00     0.059 A 
ATOM     57  C   UNL A   1      47.965  27.209  31.473  1.00  0.00     0.059 A 
ATOM     58  F   UNL A   1      46.710  28.722  30.199  1.00  0.00    -0.206 F 
ATOM     59  C   UNL A   1      48.046  26.335  32.555  1.00  0.00     0.060 A 
BRANCH  59  60
ATOM     60  S   UNL A   1      49.583  25.450  32.888  1.00  0.00     0.124 S 
ATOM     61  O   UNL A   1      50.028  25.121  31.540  1.00  0.00    -0.237 OA
ATOM     62  O   UNL A   1      50.372  26.454  33.596  1.00  0.00    -0.237 OA
ATOM     63  O   UNL A   1      49.147  24.320  33.703  1.00  0.00    -0.744 OA
ENDBRANCH  59  60
ENDBRANCH  27  52
BRANCH  39  64
ATOM     64  C   UNL A   1      42.923  33.746  34.105  1.00  0.00     0.058 A 
ATOM     65  C   UNL A   1      42.588  33.738  35.468  1.00  0.00     0.135 A 
ATOM     66  C   UNL A   1      43.745  34.784  33.637  1.00  0.00     0.135 A 
ATOM     67  F   UNL A   1      41.799  32.773  35.965  1.00  0.00    -0.206 F 
ATOM     68  C   UNL A   1      43.013  34.747  36.327  1.00  0.00     0.059 A 
ATOM     69  C   UNL A   1      44.205  35.786  34.482  1.00  0.00     0.059 A 
ATOM     70  F   UNL A   1      44.103  34.832  32.344  1.00  0.00    -0.206 F 
ATOM     71  C   UNL A   1      43.818  35.770  35.822  1.00  0.00     0.060 A 
BRANCH  71  72
ATOM     72  S   UNL A   1      44.358  37.078  36.943  1.00  0.00     0.124 S 
ATOM     73  O   UNL A   1      43.462  36.880  38.078  1.00  0.00    -0.237 OA
ATOM     74  O   UNL A   1      45.759  36.735  37.173  1.00  0.00    -0.237 OA
ATOM     75  O   UNL A   1      44.136  38.298  36.172  1.00  0.00    -0.744 OA
ENDBRANCH  71  72
ENDBRANCH  39  64
ENDBRANCH  13  14
ENDBRANCH   6   8
ENDBRANCH   3   4
ENDBRANCH   2   3
ENDBRANCH   1   2
BRANCH   1  76
ATOM     76  C   UNL A   1      32.908  22.548  26.176  1.00  0.00     0.002 C 
BRANCH  76  77
ATOM     77  C   UNL A   1      31.726  23.232  26.878  1.00  0.00     0.021 C 
BRANCH  77  78
ATOM     78  C   UNL A   1      30.985  24.224  25.989  1.00  0.00     0.116 C 
BRANCH  78  79
ATOM     79  N   UNL A   1      30.772  25.450  26.727  1.00  0.00    -0.354 N 
ATOM     80  C   UNL A   1      31.158  26.712  26.405  1.00  0.00     0.248 C 
ATOM     81  H   UNL A   1      30.283  25.358  27.577  1.00  0.00     0.163 HD
ATOM     82  O   UNL A   1      31.198  27.532  27.326  1.00  0.00    -0.272 OA
BRANCH  80  83
ATOM     83  C   UNL A   1      31.710  27.017  25.022  1.00  0.00     0.231 C 
ATOM     84  C   UNL A   1      33.262  27.060  25.009  1.00  0.00     0.296 C 
ATOM     85  N   UNL A   1      31.167  28.041  24.105  1.00  0.00    -0.302 N 
ATOM     86  N   UNL A   1      33.827  26.854  23.646  1.00  0.00    -0.343 N 
ATOM     87  C   UNL A   1      31.638  27.738  22.730  1.00  0.00     0.183 C 
ATOM     88  C   UNL A   1      33.191  27.780  22.685  1.00  0.00     0.282 C 
ATOM     89  H   UNL A   1      33.657  25.892  23.352  1.00  0.00     0.346 HD
ATOM     90  H   UNL A   1      34.831  27.037  23.670  1.00  0.00     0.346 HD
BRANCH  85  91
ATOM     91  C   UNL A   1      30.976  29.366  24.310  1.00  0.00     0.318 C 
ATOM     92  O   UNL A   1      31.660  29.974  25.153  1.00  0.00    -0.249 OA
ATOM     93  N   UNL A   1      30.158  30.212  23.716  1.00  0.00    -0.333 N 
ATOM     94  H   UNL A   1      30.048  30.953  24.354  1.00  0.00     0.165 HD
BRANCH  93  95
ATOM     95  C   UNL A   1      29.324  30.586  22.548  1.00  0.00     0.112 C 
ATOM     96  C   UNL A   1      28.578  31.869  22.958  1.00  0.00     0.056 C 
ATOM     97  C   UNL A   1      28.090  29.771  22.169  1.00  0.00     0.185 C 
ATOM     98  C   UNL A   1      27.419  31.297  23.758  1.00  0.00     0.162 C 
ATOM     99  O   UNL A   1      27.018  30.120  23.061  1.00  0.00    -0.379 OA
ENDBRANCH  93  95
ENDBRANCH  85  91
ENDBRANCH  80  83
ENDBRANCH  78  79
ENDBRANCH  77  78
ENDBRANCH  76  77
ENDBRANCH   1  76
TORSDOF 18
ENDMDL
MODEL 2
REMARK VINA RESULT:     -10.8      3.297      9.304
REMARK SMILES O=C(NCCCCCCNC(=O)[C@@H]1C[NH2+]CCN1C(=O)N[C@@H]1CCOC1)c1ccc(-c2c3nc(c(-c4c(F)cc(S(=O)(=O)[O-])cc4F)c4ccc([nH]4)c(-c4c(F)cc(S(=O)(=O)[O-])cc4F)c4nc(c(-c5c(F)cc(S(=O)(=O)[O-])cc5F)c5ccc2[nH]5)C=C4)C=C3)cc1
REMARK SMILES IDX 6 1 5 2 4 3 3 4 1 5 2 6 27 8 28 9 92 10 29 11 91 12 30 13
REMARK SMILES IDX 31 14 32 15 85 16 33 17 90 18 84 19 86 20 34 21 89 22 83 23
REMARK SMILES IDX 82 24 35 26 69 27 48 28 68 29 49 30 52 31 67 32 87 33 50 34
REMARK SMILES IDX 51 35 66 37 88 38 53 39 36 40 37 41 46 42 38 43 39 44 45 45
REMARK SMILES IDX 47 46 40 47 41 48 42 49 43 50 44 51 70 52 71 53 80 54 72 55
REMARK SMILES IDX 73 56 79 57 81 58 74 59 75 60 76 61 77 62 78 63 54 64 55 65
REMARK SMILES IDX 64 66 56 67 57 68 63 69 65 70 58 71 59 72 60 73 61 74 62 75
REMARK SMILES IDX 7 76 8 77 9 78 10 79 11 80 12 82 13 83 14 84 18 85 15 86
REMARK SMILES IDX 17 87 16 88 19 91 20 92 21 93 22 95 23 96 26 97 24 98 25 99
REMARK H PARENT 3 7 86 25 52 36 10 81 15 89 15 90 21 94
REMARK Flexibility Score: inf
ROOT
ATOM      1  C   UNL A   1      32.528  28.604  24.979  1.00  0.00     0.002 C 
ENDROOT
BRANCH   1   2
ATOM      2  C   UNL A   1      33.560  27.767  25.732  1.00  0.00     0.021 C 
BRANCH   2   3
ATOM      3  C   UNL A   1      33.725  28.117  27.203  1.00  0.00     0.116 C 
BRANCH   3   4
ATOM      4  N   UNL A   1      33.502  29.522  27.497  1.00  0.00    -0.352 N 
ATOM      5  O   UNL A   1      34.070  31.556  28.309  1.00  0.00    -0.269 OA
ATOM      6  C   UNL A   1      34.412  30.430  28.006  1.00  0.00     0.251 C 
ATOM      7  H   UNL A   1      32.599  29.866  27.312  1.00  0.00     0.163 HD
BRANCH   6   8
ATOM      8  C   UNL A   1      35.811  29.977  28.210  1.00  0.00     0.039 A 
ATOM      9  C   UNL A   1      36.224  29.542  29.471  1.00  0.00     0.014 A 
ATOM     10  C   UNL A   1      36.724  30.061  27.157  1.00  0.00     0.014 A 
ATOM     11  C   UNL A   1      37.577  29.357  29.719  1.00  0.00     0.010 A 
ATOM     12  C   UNL A   1      38.073  29.764  27.385  1.00  0.00     0.010 A 
ATOM     13  C   UNL A   1      38.517  29.441  28.677  1.00  0.00    -0.014 A 
BRANCH  13  14
ATOM     14  C   UNL A   1      39.933  29.097  28.973  1.00  0.00     0.031 A 
ATOM     15  C   UNL A   1      40.518  27.755  28.623  1.00  0.00     0.074 A 
ATOM     16  C   UNL A   1      40.713  30.057  29.510  1.00  0.00     0.049 A 
ATOM     17  N   UNL A   1      41.753  27.340  28.760  1.00  0.00    -0.248 NA
ATOM     18  C   UNL A   1      39.610  26.747  28.056  1.00  0.00     0.031 C 
ATOM     19  C   UNL A   1      40.245  31.386  29.919  1.00  0.00     0.029 A 
ATOM     20  N   UNL A   1      42.057  30.087  29.775  1.00  0.00    -0.354 N 
ATOM     21  C   UNL A   1      41.771  26.025  28.307  1.00  0.00     0.074 A 
ATOM     22  C   UNL A   1      40.415  25.699  27.918  1.00  0.00     0.031 C 
ATOM     23  C   UNL A   1      41.292  32.120  30.319  1.00  0.00     0.029 A 
ATOM     24  C   UNL A   1      42.491  31.295  30.269  1.00  0.00     0.049 A 
ATOM     25  H   UNL A   1      42.654  29.318  29.627  1.00  0.00     0.167 HD
ATOM     26  C   UNL A   1      42.825  25.176  28.215  1.00  0.00     0.037 A 
ATOM     27  C   UNL A   1      43.715  31.695  30.659  1.00  0.00     0.037 A 
ATOM     28  C   UNL A   1      44.174  25.514  28.601  1.00  0.00     0.049 A 
ATOM     29  C   UNL A   1      44.860  30.734  30.545  1.00  0.00     0.074 A 
ATOM     30  C   UNL A   1      45.310  24.725  28.541  1.00  0.00     0.029 A 
ATOM     31  N   UNL A   1      44.571  26.740  29.118  1.00  0.00    -0.354 N 
ATOM     32  N   UNL A   1      44.856  29.500  30.097  1.00  0.00    -0.248 NA
ATOM     33  C   UNL A   1      46.174  31.214  30.987  1.00  0.00     0.031 C 
ATOM     34  C   UNL A   1      46.386  25.461  29.054  1.00  0.00     0.029 A 
ATOM     35  C   UNL A   1      45.930  26.724  29.390  1.00  0.00     0.049 A 
ATOM     36  H   UNL A   1      43.975  27.508  29.269  1.00  0.00     0.167 HD
ATOM     37  C   UNL A   1      46.167  29.056  30.206  1.00  0.00     0.074 A 
ATOM     38  C   UNL A   1      46.942  30.167  30.723  1.00  0.00     0.031 C 
ATOM     39  C   UNL A   1      46.683  27.835  29.916  1.00  0.00     0.037 A 
BRANCH  26  40
ATOM     40  C   UNL A   1      42.572  23.792  27.676  1.00  0.00     0.058 A 
ATOM     41  C   UNL A   1      42.602  23.524  26.298  1.00  0.00     0.135 A 
ATOM     42  C   UNL A   1      42.374  22.708  28.547  1.00  0.00     0.135 A 
ATOM     43  F   UNL A   1      42.774  24.523  25.418  1.00  0.00    -0.206 F 
ATOM     44  C   UNL A   1      42.431  22.234  25.803  1.00  0.00     0.059 A 
ATOM     45  C   UNL A   1      42.224  21.406  28.075  1.00  0.00     0.059 A 
ATOM     46  F   UNL A   1      42.338  22.905  29.874  1.00  0.00    -0.206 F 
ATOM     47  C   UNL A   1      42.245  21.181  26.700  1.00  0.00     0.060 A 
BRANCH  47  48
ATOM     48  S   UNL A   1      42.050  19.511  26.039  1.00  0.00     0.124 S 
ATOM     49  O   UNL A   1      42.888  19.571  24.845  1.00  0.00    -0.237 OA
ATOM     50  O   UNL A   1      42.558  18.683  27.128  1.00  0.00    -0.237 OA
ATOM     51  O   UNL A   1      40.615  19.407  25.794  1.00  0.00    -0.744 OA
ENDBRANCH  47  48
ENDBRANCH  26  40
BRANCH  27  52
ATOM     52  C   UNL A   1      43.902  33.060  31.216  1.00  0.00     0.058 A 
ATOM     53  C   UNL A   1      43.767  33.315  32.586  1.00  0.00     0.135 A 
ATOM     54  C   UNL A   1      44.241  34.136  30.378  1.00  0.00     0.135 A 
ATOM     55  F   UNL A   1      43.445  32.320  33.427  1.00  0.00    -0.206 F 
ATOM     56  C   UNL A   1      43.937  34.594  33.108  1.00  0.00     0.059 A 
ATOM     57  C   UNL A   1      44.448  35.415  30.880  1.00  0.00     0.059 A 
ATOM     58  F   UNL A   1      44.405  33.938  29.061  1.00  0.00    -0.206 F 
ATOM     59  C   UNL A   1      44.277  35.638  32.244  1.00  0.00     0.060 A 
BRANCH  59  60
ATOM     60  S   UNL A   1      44.532  37.288  32.930  1.00  0.00     0.124 S 
ATOM     61  O   UNL A   1      44.192  38.132  31.791  1.00  0.00    -0.237 OA
ATOM     62  O   UNL A   1      43.590  37.308  34.045  1.00  0.00    -0.237 OA
ATOM     63  O   UNL A   1      45.941  37.277  33.311  1.00  0.00    -0.744 OA
ENDBRANCH  59  60
ENDBRANCH  27  52
BRANCH  39  64
ATOM     64  C   UNL A   1      48.157  27.655  30.145  1.00  0.00     0.058 A 
ATOM     65  C   UNL A   1      48.659  27.206  31.377  1.00  0.00     0.135 A 
ATOM     66  C   UNL A   1      49.078  27.937  29.124  1.00  0.00     0.135 A 
ATOM     67  F   UNL A   1      47.821  26.930  32.388  1.00  0.00    -0.206 F 
ATOM     68  C   UNL A   1      50.026  27.086  31.604  1.00  0.00     0.059 A 
ATOM     69  C   UNL A   1      50.448  27.796  29.319  1.00  0.00     0.059 A 
ATOM     70  F   UNL A   1      48.650  28.359  27.924  1.00  0.00    -0.206 F 
ATOM     71  C   UNL A   1      50.914  27.389  30.569  1.00  0.00     0.060 A 
BRANCH  71  72
ATOM     72  S   UNL A   1      52.686  27.237  30.876  1.00  0.00     0.124 S 
ATOM     73  O   UNL A   1      53.235  28.147  29.876  1.00  0.00    -0.237 OA
ATOM     74  O   UNL A   1      52.802  27.675  32.264  1.00  0.00    -0.237 OA
ATOM     75  O   UNL A   1      52.948  25.819  30.648  1.00  0.00    -0.744 OA
ENDBRANCH  71  72
ENDBRANCH  39  64
ENDBRANCH  13  14
ENDBRANCH   6   8
ENDBRANCH   3   4
ENDBRANCH   2   3
ENDBRANCH   1   2
BRANCH   1  76
ATOM     76  C   UNL A   1      31.087  28.096  25.063  1.00  0.00     0.002 C 
BRANCH  76  77
ATOM     77  C   UNL A   1      30.767  26.886  24.173  1.00  0.00     0.021 C 
BRANCH  77  78
ATOM     78  C   UNL A   1      29.923  25.826  24.871  1.00  0.00     0.116 C 
BRANCH  78  79
ATOM     79  N   UNL A   1      30.584  25.429  26.096  1.00  0.00    -0.354 N 
ATOM     80  C   UNL A   1      31.282  24.293  26.353  1.00  0.00     0.248 C 
ATOM     81  H   UNL A   1      30.519  26.068  26.842  1.00  0.00     0.163 HD
ATOM     82  O   UNL A   1      31.441  23.997  27.541  1.00  0.00    -0.272 OA
BRANCH  80  83
ATOM     83  C   UNL A   1      31.648  23.343  25.224  1.00  0.00     0.231 C 
ATOM     84  C   UNL A   1      32.053  21.939  25.750  1.00  0.00     0.296 C 
ATOM     85  N   UNL A   1      32.475  23.705  24.054  1.00  0.00    -0.302 N 
ATOM     86  N   UNL A   1      31.926  20.881  24.709  1.00  0.00    -0.343 N 
ATOM     87  C   UNL A   1      32.232  22.708  22.981  1.00  0.00     0.183 C 
ATOM     88  C   UNL A   1      32.634  21.291  23.477  1.00  0.00     0.282 C 
ATOM     89  H   UNL A   1      30.940  20.733  24.498  1.00  0.00     0.346 HD
ATOM     90  H   UNL A   1      32.341  20.017  25.059  1.00  0.00     0.346 HD
BRANCH  85  91
ATOM     91  C   UNL A   1      33.725  24.222  24.011  1.00  0.00     0.318 C 
ATOM     92  O   UNL A   1      33.978  25.189  23.270  1.00  0.00    -0.249 OA
ATOM     93  N   UNL A   1      34.809  23.890  24.685  1.00  0.00    -0.333 N 
ATOM     94  H   UNL A   1      35.560  24.222  24.141  1.00  0.00     0.165 HD
BRANCH  93  95
ATOM     95  C   UNL A   1      35.442  23.258  25.867  1.00  0.00     0.112 C 
ATOM     96  C   UNL A   1      36.955  23.499  25.712  1.00  0.00     0.056 C 
ATOM     97  C   UNL A   1      35.513  21.739  26.004  1.00  0.00     0.185 C 
ATOM     98  C   UNL A   1      37.339  22.382  24.756  1.00  0.00     0.162 C 
ATOM     99  O   UNL A   1      36.571  21.251  25.163  1.00  0.00    -0.379 OA
ENDBRANCH  93  95
ENDBRANCH  85  91
ENDBRANCH  80  83
ENDBRANCH  78  79
ENDBRANCH  77  78
ENDBRANCH  76  77
ENDBRANCH   1  76
TORSDOF 18
ENDMDL
MODEL 3
REMARK VINA RESULT:     -10.8      3.405      9.713
REMARK SMILES O=C(NCCCCCCNC(=O)[C@@H]1C[NH2+]CCN1C(=O)N[C@@H]1CCOC1)c1ccc(-c2c3nc(c(-c4c(F)cc(S(=O)(=O)[O-])cc4F)c4ccc([nH]4)c(-c4c(F)cc(S(=O)(=O)[O-])cc4F)c4nc(c(-c5c(F)cc(S(=O)(=O)[O-])cc5F)c5ccc2[nH]5)C=C4)C=C3)cc1
REMARK SMILES IDX 6 1 5 2 4 3 3 4 1 5 2 6 27 8 28 9 92 10 29 11 91 12 30 13
REMARK SMILES IDX 31 14 32 15 85 16 33 17 90 18 84 19 86 20 34 21 89 22 83 23
REMARK SMILES IDX 82 24 35 26 69 27 48 28 68 29 49 30 52 31 67 32 87 33 50 34
REMARK SMILES IDX 51 35 66 37 88 38 53 39 36 40 37 41 46 42 38 43 39 44 45 45
REMARK SMILES IDX 47 46 40 47 41 48 42 49 43 50 44 51 70 52 71 53 80 54 72 55
REMARK SMILES IDX 73 56 79 57 81 58 74 59 75 60 76 61 77 62 78 63 54 64 55 65
REMARK SMILES IDX 64 66 56 67 57 68 63 69 65 70 58 71 59 72 60 73 61 74 62 75
REMARK SMILES IDX 7 76 8 77 9 78 10 79 11 80 12 82 13 83 14 84 18 85 15 86
REMARK SMILES IDX 17 87 16 88 19 91 20 92 21 93 22 95 23 96 26 97 24 98 25 99
REMARK H PARENT 3 7 86 25 52 36 10 81 15 89 15 90 21 94
REMARK Flexibility Score: inf
ROOT
ATOM      1  C   UNL A   1      31.884  27.372  25.646  1.00  0.00     0.002 C 
ENDROOT
BRANCH   1   2
ATOM      2  C   UNL A   1      33.391  27.138  25.564  1.00  0.00     0.021 C 
BRANCH   2   3
ATOM      3  C   UNL A   1      34.214  27.866  26.615  1.00  0.00     0.116 C 
BRANCH   3   4
ATOM      4  N   UNL A   1      33.689  29.173  26.965  1.00  0.00    -0.352 N 
ATOM      5  O   UNL A   1      33.740  31.190  27.991  1.00  0.00    -0.269 OA
ATOM      6  C   UNL A   1      34.330  30.177  27.669  1.00  0.00     0.251 C 
ATOM      7  H   UNL A   1      32.771  29.367  26.667  1.00  0.00     0.163 HD
BRANCH   6   8
ATOM      8  C   UNL A   1      35.747  29.964  28.055  1.00  0.00     0.039 A 
ATOM      9  C   UNL A   1      36.761  30.167  27.117  1.00  0.00     0.014 A 
ATOM     10  C   UNL A   1      36.050  29.487  29.332  1.00  0.00     0.014 A 
ATOM     11  C   UNL A   1      38.049  29.734  27.400  1.00  0.00     0.010 A 
ATOM     12  C   UNL A   1      37.373  29.155  29.651  1.00  0.00     0.010 A 
ATOM     13  C   UNL A   1      38.379  29.246  28.676  1.00  0.00    -0.014 A 
BRANCH  13  14
ATOM     14  C   UNL A   1      39.803  28.926  28.964  1.00  0.00     0.031 A 
ATOM     15  C   UNL A   1      40.410  27.597  28.605  1.00  0.00     0.074 A 
ATOM     16  C   UNL A   1      40.567  29.897  29.503  1.00  0.00     0.049 A 
ATOM     17  N   UNL A   1      41.653  27.203  28.735  1.00  0.00    -0.248 NA
ATOM     18  C   UNL A   1      39.518  26.575  28.036  1.00  0.00     0.031 C 
ATOM     19  C   UNL A   1      40.077  31.215  29.922  1.00  0.00     0.029 A 
ATOM     20  N   UNL A   1      41.911  29.949  29.763  1.00  0.00    -0.354 N 
ATOM     21  C   UNL A   1      41.693  25.891  28.274  1.00  0.00     0.074 A 
ATOM     22  C   UNL A   1      40.341  25.543  27.889  1.00  0.00     0.031 C 
ATOM     23  C   UNL A   1      41.112  31.966  30.322  1.00  0.00     0.029 A 
ATOM     24  C   UNL A   1      42.326  31.162  30.262  1.00  0.00     0.049 A 
ATOM     25  H   UNL A   1      42.521  29.193  29.609  1.00  0.00     0.167 HD
ATOM     26  C   UNL A   1      42.761  25.062  28.173  1.00  0.00     0.037 A 
ATOM     27  C   UNL A   1      43.544  31.583  30.649  1.00  0.00     0.037 A 
ATOM     28  C   UNL A   1      44.106  25.422  28.556  1.00  0.00     0.049 A 
ATOM     29  C   UNL A   1      44.705  30.643  30.526  1.00  0.00     0.074 A 
ATOM     30  C   UNL A   1      45.256  24.655  28.487  1.00  0.00     0.029 A 
ATOM     31  N   UNL A   1      44.483  26.653  29.078  1.00  0.00    -0.354 N 
ATOM     32  N   UNL A   1      44.722  29.412  30.071  1.00  0.00    -0.248 NA
ATOM     33  C   UNL A   1      46.012  31.144  30.965  1.00  0.00     0.031 C 
ATOM     34  C   UNL A   1      46.320  25.407  28.999  1.00  0.00     0.029 A 
ATOM     35  C   UNL A   1      45.843  26.660  29.345  1.00  0.00     0.049 A 
ATOM     36  H   UNL A   1      43.873  27.409  29.235  1.00  0.00     0.167 HD
ATOM     37  C   UNL A   1      46.041  28.991  30.172  1.00  0.00     0.074 A 
ATOM     38  C   UNL A   1      46.798  30.113  30.692  1.00  0.00     0.031 C 
ATOM     39  C   UNL A   1      46.578  27.782  29.873  1.00  0.00     0.037 A 
BRANCH  26  40
ATOM     40  C   UNL A   1      42.531  23.677  27.627  1.00  0.00     0.058 A 
ATOM     41  C   UNL A   1      42.568  23.415  26.249  1.00  0.00     0.135 A 
ATOM     42  C   UNL A   1      42.349  22.586  28.493  1.00  0.00     0.135 A 
ATOM     43  F   UNL A   1      42.725  24.421  25.373  1.00  0.00    -0.206 F 
ATOM     44  C   UNL A   1      42.418  22.125  25.748  1.00  0.00     0.059 A 
ATOM     45  C   UNL A   1      42.220  21.284  28.016  1.00  0.00     0.059 A 
ATOM     46  F   UNL A   1      42.307  22.777  29.822  1.00  0.00    -0.206 F 
ATOM     47  C   UNL A   1      42.248  21.065  26.639  1.00  0.00     0.060 A 
BRANCH  47  48
ATOM     48  S   UNL A   1      42.080  19.395  25.971  1.00  0.00     0.124 S 
ATOM     49  O   UNL A   1      40.649  19.339  25.685  1.00  0.00    -0.237 OA
ATOM     50  O   UNL A   1      42.957  19.437  24.805  1.00  0.00    -0.237 OA
ATOM     51  O   UNL A   1      42.535  18.542  27.064  1.00  0.00    -0.744 OA
ENDBRANCH  47  48
ENDBRANCH  26  40
BRANCH  27  52
ATOM     52  C   UNL A   1      43.708  32.948  31.213  1.00  0.00     0.058 A 
ATOM     53  C   UNL A   1      43.846  34.069  30.384  1.00  0.00     0.135 A 
ATOM     54  C   UNL A   1      43.711  33.155  32.602  1.00  0.00     0.135 A 
ATOM     55  F   UNL A   1      43.849  33.923  29.050  1.00  0.00    -0.206 F 
ATOM     56  C   UNL A   1      44.005  35.347  30.911  1.00  0.00     0.059 A 
ATOM     57  C   UNL A   1      43.834  34.425  33.152  1.00  0.00     0.059 A 
ATOM     58  F   UNL A   1      43.558  32.116  33.438  1.00  0.00    -0.206 F 
ATOM     59  C   UNL A   1      43.998  35.514  32.298  1.00  0.00     0.060 A 
BRANCH  59  60
ATOM     60  S   UNL A   1      44.169  37.177  32.977  1.00  0.00     0.124 S 
ATOM     61  O   UNL A   1      45.387  37.046  33.766  1.00  0.00    -0.237 OA
ATOM     62  O   UNL A   1      44.272  37.994  31.772  1.00  0.00    -0.237 OA
ATOM     63  O   UNL A   1      42.937  37.354  33.740  1.00  0.00    -0.744 OA
ENDBRANCH  59  60
ENDBRANCH  27  52
BRANCH  39  64
ATOM     64  C   UNL A   1      48.056  27.626  30.096  1.00  0.00     0.058 A 
ATOM     65  C   UNL A   1      48.988  27.960  29.101  1.00  0.00     0.135 A 
ATOM     66  C   UNL A   1      48.546  27.134  31.316  1.00  0.00     0.135 A 
ATOM     67  F   UNL A   1      48.570  28.427  27.914  1.00  0.00    -0.206 F 
ATOM     68  C   UNL A   1      50.352  27.770  29.290  1.00  0.00     0.059 A 
ATOM     69  C   UNL A   1      49.908  26.963  31.539  1.00  0.00     0.059 A 
ATOM     70  F   UNL A   1      47.697  26.809  32.305  1.00  0.00    -0.206 F 
ATOM     71  C   UNL A   1      50.802  27.265  30.512  1.00  0.00     0.060 A 
BRANCH  71  72
ATOM     72  S   UNL A   1      52.575  27.015  30.745  1.00  0.00     0.124 S 
ATOM     73  O   UNL A   1      52.590  25.935  31.728  1.00  0.00    -0.237 OA
ATOM     74  O   UNL A   1      53.020  26.656  29.402  1.00  0.00    -0.237 OA
ATOM     75  O   UNL A   1      53.039  28.311  31.228  1.00  0.00    -0.744 OA
ENDBRANCH  71  72
ENDBRANCH  39  64
ENDBRANCH  13  14
ENDBRANCH   6   8
ENDBRANCH   3   4
ENDBRANCH   2   3
ENDBRANCH   1   2
BRANCH   1  76
ATOM     76  C   UNL A   1      31.112  26.369  26.508  1.00  0.00     0.002 C 
BRANCH  76  77
ATOM     77  C   UNL A   1      30.492  25.191  25.742  1.00  0.00     0.021 C 
BRANCH  77  78
ATOM     78  C   UNL A   1      30.916  23.829  26.280  1.00  0.00     0.116 C 
BRANCH  78  79
ATOM     79  N   UNL A   1      30.977  22.888  25.182  1.00  0.00    -0.354 N 
ATOM     80  C   UNL A   1      32.072  22.383  24.557  1.00  0.00     0.248 C 
ATOM     81  H   UNL A   1      30.108  22.572  24.842  1.00  0.00     0.163 HD
ATOM     82  O   UNL A   1      31.897  21.896  23.437  1.00  0.00    -0.272 OA
BRANCH  80  83
ATOM     83  C   UNL A   1      33.460  22.611  25.134  1.00  0.00     0.231 C 
ATOM     84  C   UNL A   1      34.276  23.638  24.303  1.00  0.00     0.296 C 
ATOM     85  N   UNL A   1      34.350  21.543  25.636  1.00  0.00    -0.302 N 
ATOM     86  N   UNL A   1      35.389  24.248  25.084  1.00  0.00    -0.343 N 
ATOM     87  C   UNL A   1      35.373  22.161  26.518  1.00  0.00     0.183 C 
ATOM     88  C   UNL A   1      36.211  23.191  25.711  1.00  0.00     0.282 C 
ATOM     89  H   UNL A   1      35.001  24.850  25.810  1.00  0.00     0.346 HD
ATOM     90  H   UNL A   1      35.976  24.797  24.455  1.00  0.00     0.346 HD
BRANCH  85  91
ATOM     91  C   UNL A   1      34.805  20.436  25.006  1.00  0.00     0.318 C 
ATOM     92  O   UNL A   1      36.020  20.167  25.010  1.00  0.00    -0.249 OA
ATOM     93  N   UNL A   1      34.149  19.491  24.361  1.00  0.00    -0.333 N 
ATOM     94  H   UNL A   1      34.813  19.083  23.759  1.00  0.00     0.165 HD
BRANCH  93  95
ATOM     95  C   UNL A   1      32.892  18.746  24.106  1.00  0.00     0.112 C 
ATOM     96  C   UNL A   1      32.863  17.607  25.141  1.00  0.00     0.056 C 
ATOM     97  C   UNL A   1      32.734  17.869  22.866  1.00  0.00     0.185 C 
ATOM     98  C   UNL A   1      33.755  16.573  24.475  1.00  0.00     0.162 C 
ATOM     99  O   UNL A   1      33.436  16.634  23.086  1.00  0.00    -0.379 OA
ENDBRANCH  93  95
ENDBRANCH  85  91
ENDBRANCH  80  83
ENDBRANCH  78  79
ENDBRANCH  77  78
ENDBRANCH  76  77
ENDBRANCH   1  76
TORSDOF 18
ENDMDL
