MODEL 1
REMARK VINA RESULT:      -8.8      0.000      0.000
REMARK SMILES O=C(NCCCCCCNC(=O)[C@H](c1c[nH]c2cc(OCc3ccccc3)ccc12)[NH+]1CC[NH+]([C@H]2CCS(=O)(=O)C2)CC1)c1ccc(-c2c3nc(c(-c4c(F)cc(S(=O)(=O)[O-])cc4F)c4ccc([nH]4)c(-c4c(F)cc(S(=O)(=O)[O-])cc4F)c4nc(c(-c5c(F)cc(S(=O)(=O)[O-])cc5F)c5ccc2[nH]5)C=C4)C=C3)cc1
REMARK SMILES IDX 7 1 6 2 5 3 4 4 3 5 1 6 2 7 44 9 45 10 109 11 46 12 108 13
REMARK SMILES IDX 47 14 48 15 49 16 102 17 50 18 107 19 101 20 103 21 51 22
REMARK SMILES IDX 106 23 100 24 99 25 52 27 86 28 65 29 85 30 66 31 69 32
REMARK SMILES IDX 84 33 104 34 67 35 68 36 83 38 105 39 70 40 53 41 54 42
REMARK SMILES IDX 63 43 55 44 56 45 62 46 64 47 57 48 58 49 59 50 60 51 61 52
REMARK SMILES IDX 87 53 88 54 97 55 89 56 90 57 96 58 98 59 91 60 92 61 93 62
REMARK SMILES IDX 94 63 95 64 71 65 72 66 81 67 73 68 74 69 80 70 82 71 75 72
REMARK SMILES IDX 76 73 77 74 78 75 79 76 8 77 9 78 10 79 11 80 12 82 13 83
REMARK SMILES IDX 31 84 32 85 43 86 33 88 42 89 34 90 35 92 36 93 41 94 37 95
REMARK SMILES IDX 38 96 39 97 40 98 14 99 15 100 30 101 16 102 17 103 29 104
REMARK SMILES IDX 18 106 28 107 19 108 20 109 21 110 22 111 23 112 27 113
REMARK SMILES IDX 24 114 26 115 25 116
REMARK H PARENT 3 8 103 26 69 37 10 81 31 87 34 91 16 105
REMARK Flexibility Score: inf
ROOT
ATOM      1  C   UNL A   1      41.324  35.702  28.443  1.00  0.00     0.002 C 
ENDROOT
BRANCH   1   2
ATOM      2  C   UNL A   1      42.514  36.545  28.912  1.00  0.00     0.002 C 
BRANCH   2   3
ATOM      3  C   UNL A   1      42.870  37.722  28.006  1.00  0.00     0.021 C 
BRANCH   3   4
ATOM      4  C   UNL A   1      44.215  38.365  28.313  1.00  0.00     0.116 C 
BRANCH   4   5
ATOM      5  N   UNL A   1      45.118  38.305  27.175  1.00  0.00    -0.352 N 
ATOM      6  O   UNL A   1      46.810  37.472  25.940  1.00  0.00    -0.269 OA
ATOM      7  C   UNL A   1      45.965  37.290  26.811  1.00  0.00     0.251 C 
ATOM      8  H   UNL A   1      45.122  39.097  26.591  1.00  0.00     0.163 HD
BRANCH   7   9
ATOM      9  C   UNL A   1      45.859  35.984  27.493  1.00  0.00     0.039 A 
ATOM     10  C   UNL A   1      46.556  35.747  28.683  1.00  0.00     0.014 A 
ATOM     11  C   UNL A   1      45.059  34.989  26.930  1.00  0.00     0.014 A 
ATOM     12  C   UNL A   1      46.545  34.478  29.250  1.00  0.00     0.010 A 
ATOM     13  C   UNL A   1      44.987  33.739  27.545  1.00  0.00     0.010 A 
ATOM     14  C   UNL A   1      45.744  33.468  28.697  1.00  0.00    -0.014 A 
BRANCH  14  15
ATOM     15  C   UNL A   1      45.638  32.148  29.364  1.00  0.00     0.031 A 
ATOM     16  C   UNL A   1      44.667  31.932  30.488  1.00  0.00     0.074 A 
ATOM     17  C   UNL A   1      46.471  31.161  28.984  1.00  0.00     0.049 A 
ATOM     18  N   UNL A   1      44.525  30.892  31.267  1.00  0.00    -0.248 NA
ATOM     19  C   UNL A   1      43.743  33.038  30.783  1.00  0.00     0.031 C 
ATOM     20  C   UNL A   1      47.457  31.262  27.905  1.00  0.00     0.029 A 
ATOM     21  N   UNL A   1      46.642  29.892  29.474  1.00  0.00    -0.354 N 
ATOM     22  C   UNL A   1      43.517  31.222  32.163  1.00  0.00     0.074 A 
ATOM     23  C   UNL A   1      43.099  32.572  31.845  1.00  0.00     0.031 C 
ATOM     24  C   UNL A   1      48.130  30.108  27.817  1.00  0.00     0.029 A 
ATOM     25  C   UNL A   1      47.675  29.213  28.875  1.00  0.00     0.049 A 
ATOM     26  H   UNL A   1      46.079  29.505  30.184  1.00  0.00     0.167 HD
ATOM     27  C   UNL A   1      42.993  30.466  33.159  1.00  0.00     0.037 A 
ATOM     28  C   UNL A   1      48.233  28.023  29.172  1.00  0.00     0.037 A 
ATOM     29  C   UNL A   1      43.431  29.126  33.463  1.00  0.00     0.049 A 
ATOM     30  C   UNL A   1      47.672  27.218  30.306  1.00  0.00     0.074 A 
ATOM     31  C   UNL A   1      42.943  28.259  34.423  1.00  0.00     0.029 A 
ATOM     32  N   UNL A   1      44.476  28.468  32.825  1.00  0.00    -0.354 N 
ATOM     33  N   UNL A   1      46.691  27.524  31.122  1.00  0.00    -0.248 NA
ATOM     34  C   UNL A   1      48.283  25.908  30.562  1.00  0.00     0.031 C 
ATOM     35  C   UNL A   1      43.732  27.105  34.412  1.00  0.00     0.029 A 
ATOM     36  C   UNL A   1      44.666  27.218  33.393  1.00  0.00     0.049 A 
ATOM     37  H   UNL A   1      45.002  28.836  32.079  1.00  0.00     0.167 HD
ATOM     38  C   UNL A   1      46.546  26.433  31.970  1.00  0.00     0.074 A 
ATOM     39  C   UNL A   1      47.543  25.461  31.570  1.00  0.00     0.031 C 
ATOM     40  C   UNL A   1      45.657  26.253  32.977  1.00  0.00     0.037 A 
BRANCH  27  41
ATOM     41  C   UNL A   1      41.925  31.090  34.019  1.00  0.00     0.058 A 
ATOM     42  C   UNL A   1      42.226  32.017  35.030  1.00  0.00     0.135 A 
ATOM     43  C   UNL A   1      40.575  30.750  33.831  1.00  0.00     0.135 A 
ATOM     44  F   UNL A   1      43.499  32.377  35.262  1.00  0.00    -0.206 F 
ATOM     45  C   UNL A   1      41.237  32.537  35.860  1.00  0.00     0.059 A 
ATOM     46  C   UNL A   1      39.565  31.284  34.626  1.00  0.00     0.059 A 
ATOM     47  F   UNL A   1      40.224  29.877  32.874  1.00  0.00    -0.206 F 
ATOM     48  C   UNL A   1      39.910  32.155  35.657  1.00  0.00     0.060 A 
BRANCH  48  49
ATOM     49  S   UNL A   1      38.648  32.793  36.779  1.00  0.00     0.124 S 
ATOM     50  O   UNL A   1      38.933  34.224  36.750  1.00  0.00    -0.237 OA
ATOM     51  O   UNL A   1      37.411  32.382  36.124  1.00  0.00    -0.237 OA
ATOM     52  O   UNL A   1      38.941  32.120  38.041  1.00  0.00    -0.744 OA
ENDBRANCH  48  49
ENDBRANCH  27  41
BRANCH  28  53
ATOM     53  C   UNL A   1      49.396  27.557  28.374  1.00  0.00     0.058 A 
ATOM     54  C   UNL A   1      50.708  27.872  28.753  1.00  0.00     0.135 A 
ATOM     55  C   UNL A   1      49.219  26.702  27.273  1.00  0.00     0.135 A 
ATOM     56  F   UNL A   1      50.927  28.687  29.796  1.00  0.00    -0.206 F 
ATOM     57  C   UNL A   1      51.804  27.348  28.077  1.00  0.00     0.059 A 
ATOM     58  C   UNL A   1      50.299  26.143  26.598  1.00  0.00     0.059 A 
ATOM     59  F   UNL A   1      47.982  26.354  26.885  1.00  0.00    -0.206 F 
ATOM     60  C   UNL A   1      51.589  26.473  27.010  1.00  0.00     0.060 A 
BRANCH  60  61
ATOM     61  S   UNL A   1      53.022  25.720  26.209  1.00  0.00     0.124 S 
ATOM     62  O   UNL A   1      53.251  26.633  25.096  1.00  0.00    -0.237 OA
ATOM     63  O   UNL A   1      54.017  25.751  27.277  1.00  0.00    -0.237 OA
ATOM     64  O   UNL A   1      52.545  24.388  25.847  1.00  0.00    -0.744 OA
ENDBRANCH  60  61
ENDBRANCH  28  53
BRANCH  40  65
ATOM     65  C   UNL A   1      45.670  24.933  33.699  1.00  0.00     0.058 A 
ATOM     66  C   UNL A   1      44.920  23.834  33.254  1.00  0.00     0.135 A 
ATOM     67  C   UNL A   1      46.538  24.739  34.785  1.00  0.00     0.135 A 
ATOM     68  F   UNL A   1      44.064  23.969  32.228  1.00  0.00    -0.206 F 
ATOM     69  C   UNL A   1      45.037  22.585  33.858  1.00  0.00     0.059 A 
ATOM     70  C   UNL A   1      46.692  23.494  35.386  1.00  0.00     0.059 A 
ATOM     71  F   UNL A   1      47.280  25.758  35.248  1.00  0.00    -0.206 F 
ATOM     72  C   UNL A   1      45.937  22.422  34.914  1.00  0.00     0.060 A 
BRANCH  72  73
ATOM     73  S   UNL A   1      46.149  20.776  35.624  1.00  0.00     0.124 S 
ATOM     74  O   UNL A   1      46.110  21.064  37.053  1.00  0.00    -0.237 OA
ATOM     75  O   UNL A   1      44.996  20.057  35.091  1.00  0.00    -0.237 OA
ATOM     76  O   UNL A   1      47.443  20.345  35.106  1.00  0.00    -0.744 OA
ENDBRANCH  72  73
ENDBRANCH  40  65
ENDBRANCH  14  15
ENDBRANCH   7   9
ENDBRANCH   4   5
ENDBRANCH   3   4
ENDBRANCH   2   3
ENDBRANCH   1   2
BRANCH   1  77
ATOM     77  C   UNL A   1      40.656  34.837  29.524  1.00  0.00     0.021 C 
BRANCH  77  78
ATOM     78  C   UNL A   1      39.152  34.642  29.348  1.00  0.00     0.116 C 
BRANCH  78  79
ATOM     79  N   UNL A   1      38.479  34.493  30.620  1.00  0.00    -0.351 N 
ATOM     80  C   UNL A   1      38.148  33.415  31.370  1.00  0.00     0.283 C 
ATOM     81  H   UNL A   1      38.206  35.350  31.021  1.00  0.00     0.163 HD
ATOM     82  O   UNL A   1      38.123  33.707  32.576  1.00  0.00    -0.268 OA
BRANCH  80  83
ATOM     83  C   UNL A   1      37.874  31.954  30.836  1.00  0.00     0.308 C 
BRANCH  83  84
ATOM     84  N   UNL A   1      36.584  31.740  30.081  1.00  0.00    -0.312 N 
ATOM     85  C   UNL A   1      35.355  31.586  30.870  1.00  0.00     0.325 C 
ATOM     86  C   UNL A   1      36.242  32.598  28.939  1.00  0.00     0.325 C 
ATOM     87  H   UNL A   1      36.895  30.844  29.706  1.00  0.00     0.349 HD
ATOM     88  C   UNL A   1      34.872  32.934  31.439  1.00  0.00     0.324 C 
ATOM     89  C   UNL A   1      35.486  33.921  29.266  1.00  0.00     0.324 C 
ATOM     90  N   UNL A   1      34.522  33.908  30.387  1.00  0.00    -0.322 N 
ATOM     91  H   UNL A   1      33.663  33.603  29.929  1.00  0.00     0.348 HD
BRANCH  90  92
ATOM     92  C   UNL A   1      34.198  35.219  30.982  1.00  0.00     0.200 C 
ATOM     93  C   UNL A   1      33.314  36.181  30.159  1.00  0.00     0.082 C 
ATOM     94  C   UNL A   1      33.501  35.094  32.337  1.00  0.00     0.201 C 
ATOM     95  C   UNL A   1      33.061  37.398  31.040  1.00  0.00     0.143 C 
ATOM     96  S   UNL A   1      33.001  36.769  32.711  1.00  0.00     0.156 S 
ATOM     97  O   UNL A   1      34.050  37.411  33.474  1.00  0.00    -0.229 OA
ATOM     98  O   UNL A   1      31.622  36.752  33.160  1.00  0.00    -0.229 OA
ENDBRANCH  90  92
ENDBRANCH  83  84
BRANCH  83  99
ATOM     99  C   UNL A   1      39.074  31.265  30.212  1.00  0.00     0.044 A 
ATOM    100  C   UNL A   1      40.400  31.669  30.195  1.00  0.00     0.094 A 
ATOM    101  C   UNL A   1      39.062  29.943  29.633  1.00  0.00     0.009 A 
ATOM    102  N   UNL A   1      41.159  30.688  29.615  1.00  0.00    -0.361 N 
ATOM    103  C   UNL A   1      40.383  29.584  29.366  1.00  0.00     0.050 A 
ATOM    104  C   UNL A   1      38.058  28.977  29.422  1.00  0.00     0.015 A 
ATOM    105  H   UNL A   1      42.119  30.763  29.407  1.00  0.00     0.166 HD
ATOM    106  C   UNL A   1      40.755  28.289  28.986  1.00  0.00     0.073 A 
ATOM    107  C   UNL A   1      38.414  27.671  29.060  1.00  0.00     0.047 A 
ATOM    108  C   UNL A   1      39.752  27.315  28.915  1.00  0.00     0.121 A 
BRANCH 108 109
ATOM    109  O   UNL A   1      40.232  26.035  28.814  1.00  0.00    -0.489 OA
BRANCH 109 110
ATOM    110  C   UNL A   1      41.293  25.752  27.894  1.00  0.00     0.265 C 
BRANCH 110 111
ATOM    111  C   UNL A   1      42.517  25.016  28.419  1.00  0.00    -0.011 A 
ATOM    112  C   UNL A   1      43.729  25.723  28.501  1.00  0.00     0.007 A 
ATOM    113  C   UNL A   1      42.519  23.660  28.777  1.00  0.00     0.007 A 
ATOM    114  C   UNL A   1      44.910  25.081  28.882  1.00  0.00     0.000 A 
ATOM    115  C   UNL A   1      43.706  23.012  29.130  1.00  0.00     0.000 A 
ATOM    116  C   UNL A   1      44.903  23.721  29.176  1.00  0.00     0.000 A 
ENDBRANCH 110 111
ENDBRANCH 109 110
ENDBRANCH 108 109
ENDBRANCH  83  99
ENDBRANCH  80  83
ENDBRANCH  78  79
ENDBRANCH  77  78
ENDBRANCH   1  77
TORSDOF 22
ENDMDL
MODEL 2
REMARK VINA RESULT:      -8.8      3.250     10.509
REMARK SMILES O=C(NCCCCCCNC(=O)[C@H](c1c[nH]c2cc(OCc3ccccc3)ccc12)[NH+]1CC[NH+]([C@H]2CCS(=O)(=O)C2)CC1)c1ccc(-c2c3nc(c(-c4c(F)cc(S(=O)(=O)[O-])cc4F)c4ccc([nH]4)c(-c4c(F)cc(S(=O)(=O)[O-])cc4F)c4nc(c(-c5c(F)cc(S(=O)(=O)[O-])cc5F)c5ccc2[nH]5)C=C4)C=C3)cc1
REMARK SMILES IDX 7 1 6 2 5 3 4 4 3 5 1 6 2 7 44 9 45 10 109 11 46 12 108 13
REMARK SMILES IDX 47 14 48 15 49 16 102 17 50 18 107 19 101 20 103 21 51 22
REMARK SMILES IDX 106 23 100 24 99 25 52 27 86 28 65 29 85 30 66 31 69 32
REMARK SMILES IDX 84 33 104 34 67 35 68 36 83 38 105 39 70 40 53 41 54 42
REMARK SMILES IDX 63 43 55 44 56 45 62 46 64 47 57 48 58 49 59 50 60 51 61 52
REMARK SMILES IDX 87 53 88 54 97 55 89 56 90 57 96 58 98 59 91 60 92 61 93 62
REMARK SMILES IDX 94 63 95 64 71 65 72 66 81 67 73 68 74 69 80 70 82 71 75 72
REMARK SMILES IDX 76 73 77 74 78 75 79 76 8 77 9 78 10 79 11 80 12 82 13 83
REMARK SMILES IDX 31 84 32 85 43 86 33 88 42 89 34 90 35 92 36 93 41 94 37 95
REMARK SMILES IDX 38 96 39 97 40 98 14 99 15 100 30 101 16 102 17 103 29 104
REMARK SMILES IDX 18 106 28 107 19 108 20 109 21 110 22 111 23 112 27 113
REMARK SMILES IDX 24 114 26 115 25 116
REMARK H PARENT 3 8 103 26 69 37 10 81 31 87 34 91 16 105
REMARK Flexibility Score: inf
ROOT
ATOM      1  C   UNL A   1      47.752  25.779  27.010  1.00  0.00     0.002 C 
ENDROOT
BRANCH   1   2
ATOM      2  C   UNL A   1      48.533  25.288  25.787  1.00  0.00     0.002 C 
BRANCH   2   3
ATOM      3  C   UNL A   1      49.605  26.248  25.276  1.00  0.00     0.021 C 
BRANCH   3   4
ATOM      4  C   UNL A   1      50.521  26.799  26.360  1.00  0.00     0.116 C 
BRANCH   4   5
ATOM      5  N   UNL A   1      51.170  28.033  25.948  1.00  0.00    -0.352 N 
ATOM      6  O   UNL A   1      51.305  30.250  25.559  1.00  0.00    -0.269 OA
ATOM      7  C   UNL A   1      50.749  29.324  26.142  1.00  0.00     0.251 C 
ATOM      8  H   UNL A   1      52.022  27.927  25.467  1.00  0.00     0.163 HD
BRANCH   7   9
ATOM      9  C   UNL A   1      49.609  29.582  27.045  1.00  0.00     0.039 A 
ATOM     10  C   UNL A   1      49.826  30.056  28.343  1.00  0.00     0.014 A 
ATOM     11  C   UNL A   1      48.314  29.339  26.586  1.00  0.00     0.014 A 
ATOM     12  C   UNL A   1      48.757  30.179  29.222  1.00  0.00     0.010 A 
ATOM     13  C   UNL A   1      47.235  29.538  27.447  1.00  0.00     0.010 A 
ATOM     14  C   UNL A   1      47.448  29.941  28.776  1.00  0.00    -0.014 A 
BRANCH  14  15
ATOM     15  C   UNL A   1      46.296  30.182  29.676  1.00  0.00     0.031 A 
ATOM     16  C   UNL A   1      45.563  31.492  29.650  1.00  0.00     0.074 A 
ATOM     17  C   UNL A   1      45.953  29.227  30.561  1.00  0.00     0.049 A 
ATOM     18  N   UNL A   1      44.620  31.925  30.444  1.00  0.00    -0.248 NA
ATOM     19  C   UNL A   1      45.953  32.445  28.599  1.00  0.00     0.031 C 
ATOM     20  C   UNL A   1      46.599  27.917  30.676  1.00  0.00     0.029 A 
ATOM     21  N   UNL A   1      44.999  29.216  31.546  1.00  0.00    -0.354 N 
ATOM     22  C   UNL A   1      44.318  33.210  30.012  1.00  0.00     0.074 A 
ATOM     23  C   UNL A   1      45.199  33.495  28.898  1.00  0.00     0.031 C 
ATOM     24  C   UNL A   1      46.026  27.232  31.674  1.00  0.00     0.029 A 
ATOM     25  C   UNL A   1      45.025  28.078  32.315  1.00  0.00     0.049 A 
ATOM     26  H   UNL A   1      44.358  29.950  31.687  1.00  0.00     0.167 HD
ATOM     27  C   UNL A   1      43.393  34.070  30.504  1.00  0.00     0.037 A 
ATOM     28  C   UNL A   1      44.356  27.764  33.441  1.00  0.00     0.037 A 
ATOM     29  C   UNL A   1      42.532  33.768  31.620  1.00  0.00     0.049 A 
ATOM     30  C   UNL A   1      43.368  28.744  33.999  1.00  0.00     0.074 A 
ATOM     31  C   UNL A   1      41.535  34.550  32.174  1.00  0.00     0.029 A 
ATOM     32  N   UNL A   1      42.583  32.597  32.368  1.00  0.00    -0.354 N 
ATOM     33  N   UNL A   1      43.062  29.941  33.558  1.00  0.00    -0.248 NA
ATOM     34  C   UNL A   1      42.630  28.338  35.201  1.00  0.00     0.031 C 
ATOM     35  C   UNL A   1      41.029  33.885  33.294  1.00  0.00     0.029 A 
ATOM     36  C   UNL A   1      41.655  32.651  33.396  1.00  0.00     0.049 A 
ATOM     37  H   UNL A   1      43.187  31.841  32.192  1.00  0.00     0.167 HD
ATOM     38  C   UNL A   1      42.075  30.421  34.410  1.00  0.00     0.074 A 
ATOM     39  C   UNL A   1      41.837  29.385  35.395  1.00  0.00     0.031 C 
ATOM     40  C   UNL A   1      41.419  31.607  34.366  1.00  0.00     0.037 A 
BRANCH  27  41
ATOM     41  C   UNL A   1      43.301  35.433  29.868  1.00  0.00     0.058 A 
ATOM     42  C   UNL A   1      44.161  36.484  30.225  1.00  0.00     0.135 A 
ATOM     43  C   UNL A   1      42.330  35.693  28.886  1.00  0.00     0.135 A 
ATOM     44  F   UNL A   1      45.106  36.299  31.161  1.00  0.00    -0.206 F 
ATOM     45  C   UNL A   1      44.024  37.756  29.676  1.00  0.00     0.059 A 
ATOM     46  C   UNL A   1      42.197  36.947  28.299  1.00  0.00     0.059 A 
ATOM     47  F   UNL A   1      41.485  34.725  28.497  1.00  0.00    -0.206 F 
ATOM     48  C   UNL A   1      43.030  37.981  28.722  1.00  0.00     0.060 A 
BRANCH  48  49
ATOM     49  S   UNL A   1      42.827  39.649  28.065  1.00  0.00     0.124 S 
ATOM     50  O   UNL A   1      43.781  40.397  28.878  1.00  0.00    -0.237 OA
ATOM     51  O   UNL A   1      43.191  39.479  26.662  1.00  0.00    -0.237 OA
ATOM     52  O   UNL A   1      41.421  39.946  28.315  1.00  0.00    -0.744 OA
ENDBRANCH  48  49
ENDBRANCH  27  41
BRANCH  28  53
ATOM     53  C   UNL A   1      44.632  26.461  34.099  1.00  0.00     0.058 A 
ATOM     54  C   UNL A   1      44.222  25.254  33.518  1.00  0.00     0.135 A 
ATOM     55  C   UNL A   1      45.401  26.395  35.274  1.00  0.00     0.135 A 
ATOM     56  F   UNL A   1      43.484  25.266  32.398  1.00  0.00    -0.206 F 
ATOM     57  C   UNL A   1      44.573  24.026  34.069  1.00  0.00     0.059 A 
ATOM     58  C   UNL A   1      45.787  25.180  35.829  1.00  0.00     0.059 A 
ATOM     59  F   UNL A   1      45.835  27.524  35.856  1.00  0.00    -0.206 F 
ATOM     60  C   UNL A   1      45.368  24.001  35.217  1.00  0.00     0.060 A 
BRANCH  60  61
ATOM     61  S   UNL A   1      45.901  22.400  35.862  1.00  0.00     0.124 S 
ATOM     62  O   UNL A   1      47.275  22.331  35.379  1.00  0.00    -0.237 OA
ATOM     63  O   UNL A   1      45.737  22.582  37.300  1.00  0.00    -0.237 OA
ATOM     64  O   UNL A   1      44.967  21.461  35.246  1.00  0.00    -0.744 OA
ENDBRANCH  60  61
ENDBRANCH  28  53
BRANCH  40  65
ATOM     65  C   UNL A   1      40.332  31.846  35.378  1.00  0.00     0.058 A 
ATOM     66  C   UNL A   1      39.101  31.177  35.322  1.00  0.00     0.135 A 
ATOM     67  C   UNL A   1      40.579  32.675  36.485  1.00  0.00     0.135 A 
ATOM     68  F   UNL A   1      38.809  30.383  34.279  1.00  0.00    -0.206 F 
ATOM     69  C   UNL A   1      38.154  31.315  36.333  1.00  0.00     0.059 A 
ATOM     70  C   UNL A   1      39.659  32.808  37.519  1.00  0.00     0.059 A 
ATOM     71  F   UNL A   1      41.743  33.337  36.588  1.00  0.00    -0.206 F 
ATOM     72  C   UNL A   1      38.449  32.121  37.435  1.00  0.00     0.060 A 
BRANCH  72  73
ATOM     73  S   UNL A   1      37.252  32.216  38.783  1.00  0.00     0.124 S 
ATOM     74  O   UNL A   1      37.060  30.808  39.108  1.00  0.00    -0.237 OA
ATOM     75  O   UNL A   1      37.970  33.005  39.780  1.00  0.00    -0.237 OA
ATOM     76  O   UNL A   1      36.105  32.882  38.173  1.00  0.00    -0.744 OA
ENDBRANCH  72  73
ENDBRANCH  40  65
ENDBRANCH  14  15
ENDBRANCH   7   9
ENDBRANCH   4   5
ENDBRANCH   3   4
ENDBRANCH   2   3
ENDBRANCH   1   2
BRANCH   1  77
ATOM     77  C   UNL A   1      46.594  24.877  27.463  1.00  0.00     0.021 C 
BRANCH  77  78
ATOM     78  C   UNL A   1      46.425  24.764  28.977  1.00  0.00     0.116 C 
BRANCH  78  79
ATOM     79  N   UNL A   1      45.034  24.641  29.353  1.00  0.00    -0.351 N 
ATOM     80  C   UNL A   1      43.876  24.724  28.655  1.00  0.00     0.283 C 
ATOM     81  H   UNL A   1      44.903  24.462  30.312  1.00  0.00     0.163 HD
ATOM     82  O   UNL A   1      42.996  24.020  29.176  1.00  0.00    -0.268 OA
BRANCH  80  83
ATOM     83  C   UNL A   1      43.643  25.545  27.327  1.00  0.00     0.308 C 
BRANCH  83  84
ATOM     84  N   UNL A   1      42.603  25.008  26.373  1.00  0.00    -0.312 N 
ATOM     85  C   UNL A   1      43.036  24.691  25.006  1.00  0.00     0.325 C 
ATOM     86  C   UNL A   1      41.705  23.923  26.789  1.00  0.00     0.325 C 
ATOM     87  H   UNL A   1      42.064  25.874  26.396  1.00  0.00     0.349 HD
ATOM     88  C   UNL A   1      43.848  23.381  24.957  1.00  0.00     0.324 C 
ATOM     89  C   UNL A   1      42.226  22.470  26.572  1.00  0.00     0.324 C 
ATOM     90  N   UNL A   1      43.066  22.206  25.384  1.00  0.00    -0.322 N 
ATOM     91  H   UNL A   1      42.369  21.997  24.669  1.00  0.00     0.348 HD
BRANCH  90  92
ATOM     92  C   UNL A   1      43.924  21.007  25.448  1.00  0.00     0.200 C 
ATOM     93  C   UNL A   1      43.231  19.628  25.469  1.00  0.00     0.082 C 
ATOM     94  C   UNL A   1      44.923  20.937  24.293  1.00  0.00     0.201 C 
ATOM     95  C   UNL A   1      44.340  18.585  25.436  1.00  0.00     0.143 C 
ATOM     96  S   UNL A   1      45.646  19.311  24.457  1.00  0.00     0.156 S 
ATOM     97  O   UNL A   1      46.831  19.407  25.282  1.00  0.00    -0.229 OA
ATOM     98  O   UNL A   1      45.665  18.678  23.152  1.00  0.00    -0.229 OA
ENDBRANCH  90  92
ENDBRANCH  83  84
BRANCH  83  99
ATOM     99  C   UNL A   1      43.597  27.052  27.504  1.00  0.00     0.044 A 
ATOM    100  C   UNL A   1      43.953  28.046  26.605  1.00  0.00     0.094 A 
ATOM    101  C   UNL A   1      43.011  27.737  28.631  1.00  0.00     0.009 A 
ATOM    102  N   UNL A   1      43.646  29.267  27.144  1.00  0.00    -0.361 N 
ATOM    103  C   UNL A   1      42.973  29.097  28.328  1.00  0.00     0.050 A 
ATOM    104  C   UNL A   1      42.406  27.307  29.829  1.00  0.00     0.015 A 
ATOM    105  H   UNL A   1      43.875  30.137  26.744  1.00  0.00     0.166 HD
ATOM    106  C   UNL A   1      42.286  30.029  29.115  1.00  0.00     0.073 A 
ATOM    107  C   UNL A   1      41.698  28.224  30.619  1.00  0.00     0.047 A 
ATOM    108  C   UNL A   1      41.580  29.554  30.226  1.00  0.00     0.121 A 
BRANCH 108 109
ATOM    109  O   UNL A   1      40.720  30.473  30.768  1.00  0.00    -0.489 OA
BRANCH 109 110
ATOM    110  C   UNL A   1      40.186  31.511  29.938  1.00  0.00     0.265 C 
BRANCH 110 111
ATOM    111  C   UNL A   1      38.935  32.236  30.414  1.00  0.00    -0.011 A 
ATOM    112  C   UNL A   1      38.299  33.115  29.520  1.00  0.00     0.007 A 
ATOM    113  C   UNL A   1      38.409  32.117  31.709  1.00  0.00     0.007 A 
ATOM    114  C   UNL A   1      37.205  33.883  29.925  1.00  0.00     0.000 A 
ATOM    115  C   UNL A   1      37.333  32.907  32.122  1.00  0.00     0.000 A 
ATOM    116  C   UNL A   1      36.734  33.794  31.232  1.00  0.00     0.000 A 
ENDBRANCH 110 111
ENDBRANCH 109 110
ENDBRANCH 108 109
ENDBRANCH  83  99
ENDBRANCH  80  83
ENDBRANCH  78  79
ENDBRANCH  77  78
ENDBRANCH   1  77
TORSDOF 22
ENDMDL
MODEL 3
REMARK VINA RESULT:      -8.3      5.018      9.993
REMARK SMILES O=C(NCCCCCCNC(=O)[C@H](c1c[nH]c2cc(OCc3ccccc3)ccc12)[NH+]1CC[NH+]([C@H]2CCS(=O)(=O)C2)CC1)c1ccc(-c2c3nc(c(-c4c(F)cc(S(=O)(=O)[O-])cc4F)c4ccc([nH]4)c(-c4c(F)cc(S(=O)(=O)[O-])cc4F)c4nc(c(-c5c(F)cc(S(=O)(=O)[O-])cc5F)c5ccc2[nH]5)C=C4)C=C3)cc1
REMARK SMILES IDX 7 1 6 2 5 3 4 4 3 5 1 6 2 7 44 9 45 10 109 11 46 12 108 13
REMARK SMILES IDX 47 14 48 15 49 16 102 17 50 18 107 19 101 20 103 21 51 22
REMARK SMILES IDX 106 23 100 24 99 25 52 27 86 28 65 29 85 30 66 31 69 32
REMARK SMILES IDX 84 33 104 34 67 35 68 36 83 38 105 39 70 40 53 41 54 42
REMARK SMILES IDX 63 43 55 44 56 45 62 46 64 47 57 48 58 49 59 50 60 51 61 52
REMARK SMILES IDX 87 53 88 54 97 55 89 56 90 57 96 58 98 59 91 60 92 61 93 62
REMARK SMILES IDX 94 63 95 64 71 65 72 66 81 67 73 68 74 69 80 70 82 71 75 72
REMARK SMILES IDX 76 73 77 74 78 75 79 76 8 77 9 78 10 79 11 80 12 82 13 83
REMARK SMILES IDX 31 84 32 85 43 86 33 88 42 89 34 90 35 92 36 93 41 94 37 95
REMARK SMILES IDX 38 96 39 97 40 98 14 99 15 100 30 101 16 102 17 103 29 104
REMARK SMILES IDX 18 106 28 107 19 108 20 109 21 110 22 111 23 112 27 113
REMARK SMILES IDX 24 114 26 115 25 116
REMARK H PARENT 3 8 103 26 69 37 10 81 31 87 34 91 16 105
REMARK Flexibility Score: inf
ROOT
ATOM      1  C   UNL A   1      48.224  38.704  26.162  1.00  0.00     0.002 C 
ENDROOT
BRANCH   1   2
ATOM      2  C   UNL A   1      49.565  38.539  26.885  1.00  0.00     0.002 C 
BRANCH   2   3
ATOM      3  C   UNL A   1      50.169  37.138  26.817  1.00  0.00     0.021 C 
BRANCH   3   4
ATOM      4  C   UNL A   1      50.249  36.424  28.158  1.00  0.00     0.116 C 
BRANCH   4   5
ATOM      5  N   UNL A   1      49.439  37.078  29.172  1.00  0.00    -0.352 N 
ATOM      6  O   UNL A   1      47.562  37.479  30.356  1.00  0.00    -0.269 OA
ATOM      7  C   UNL A   1      48.205  36.712  29.646  1.00  0.00     0.251 C 
ATOM      8  H   UNL A   1      49.827  37.891  29.569  1.00  0.00     0.163 HD
BRANCH   7   9
ATOM      9  C   UNL A   1      47.654  35.392  29.275  1.00  0.00     0.039 A 
ATOM     10  C   UNL A   1      47.035  35.207  28.034  1.00  0.00     0.014 A 
ATOM     11  C   UNL A   1      47.755  34.337  30.181  1.00  0.00     0.014 A 
ATOM     12  C   UNL A   1      46.414  33.997  27.745  1.00  0.00     0.010 A 
ATOM     13  C   UNL A   1      47.200  33.100  29.856  1.00  0.00     0.010 A 
ATOM     14  C   UNL A   1      46.509  32.925  28.645  1.00  0.00    -0.014 A 
BRANCH  14  15
ATOM     15  C   UNL A   1      45.949  31.600  28.291  1.00  0.00     0.031 A 
ATOM     16  C   UNL A   1      44.527  31.254  28.626  1.00  0.00     0.074 A 
ATOM     17  C   UNL A   1      46.754  30.688  27.715  1.00  0.00     0.049 A 
ATOM     18  N   UNL A   1      43.908  30.109  28.508  1.00  0.00    -0.248 NA
ATOM     19  C   UNL A   1      43.698  32.334  29.181  1.00  0.00     0.031 C 
ATOM     20  C   UNL A   1      48.154  30.916  27.348  1.00  0.00     0.029 A 
ATOM     21  N   UNL A   1      46.526  29.383  27.361  1.00  0.00    -0.354 N 
ATOM     22  C   UNL A   1      42.624  30.317  28.996  1.00  0.00     0.074 A 
ATOM     23  C   UNL A   1      42.563  31.696  29.436  1.00  0.00     0.031 C 
ATOM     24  C   UNL A   1      48.660  29.792  26.824  1.00  0.00     0.029 A 
ATOM     25  C   UNL A   1      47.645  28.745  26.885  1.00  0.00     0.049 A 
ATOM     26  H   UNL A   1      45.646  28.947  27.440  1.00  0.00     0.167 HD
ATOM     27  C   UNL A   1      41.597  29.437  29.071  1.00  0.00     0.037 A 
ATOM     28  C   UNL A   1      47.853  27.451  26.576  1.00  0.00     0.037 A 
ATOM     29  C   UNL A   1      41.683  28.066  28.634  1.00  0.00     0.049 A 
ATOM     30  C   UNL A   1      46.719  26.478  26.707  1.00  0.00     0.074 A 
ATOM     31  C   UNL A   1      40.692  27.101  28.629  1.00  0.00     0.029 A 
ATOM     32  N   UNL A   1      42.834  27.459  28.147  1.00  0.00    -0.354 N 
ATOM     33  N   UNL A   1      45.498  26.697  27.132  1.00  0.00    -0.248 NA
ATOM     34  C   UNL A   1      46.981  25.088  26.315  1.00  0.00     0.031 C 
ATOM     35  C   UNL A   1      41.259  25.895  28.202  1.00  0.00     0.029 A 
ATOM     36  C   UNL A   1      42.585  26.124  27.867  1.00  0.00     0.049 A 
ATOM     37  H   UNL A   1      43.699  27.910  28.018  1.00  0.00     0.167 HD
ATOM     38  C   UNL A   1      44.835  25.480  27.031  1.00  0.00     0.074 A 
ATOM     39  C   UNL A   1      45.794  24.528  26.508  1.00  0.00     0.031 C 
ATOM     40  C   UNL A   1      43.546  25.187  27.334  1.00  0.00     0.037 A 
BRANCH  27  41
ATOM     41  C   UNL A   1      40.310  29.919  29.690  1.00  0.00     0.058 A 
ATOM     42  C   UNL A   1      39.157  30.160  28.925  1.00  0.00     0.135 A 
ATOM     43  C   UNL A   1      40.231  30.148  31.074  1.00  0.00     0.135 A 
ATOM     44  F   UNL A   1      39.172  29.965  27.596  1.00  0.00    -0.206 F 
ATOM     45  C   UNL A   1      37.995  30.667  29.499  1.00  0.00     0.059 A 
ATOM     46  C   UNL A   1      39.068  30.621  31.675  1.00  0.00     0.059 A 
ATOM     47  F   UNL A   1      41.298  29.927  31.858  1.00  0.00    -0.206 F 
ATOM     48  C   UNL A   1      37.964  30.905  30.874  1.00  0.00     0.060 A 
BRANCH  48  49
ATOM     49  S   UNL A   1      36.470  31.617  31.592  1.00  0.00     0.124 S 
ATOM     50  O   UNL A   1      35.821  30.432  32.144  1.00  0.00    -0.237 OA
ATOM     51  O   UNL A   1      37.010  32.554  32.573  1.00  0.00    -0.237 OA
ATOM     52  O   UNL A   1      35.798  32.227  30.449  1.00  0.00    -0.744 OA
ENDBRANCH  48  49
ENDBRANCH  27  41
BRANCH  28  53
ATOM     53  C   UNL A   1      49.206  27.028  26.130  1.00  0.00     0.058 A 
ATOM     54  C   UNL A   1      49.584  27.110  24.784  1.00  0.00     0.135 A 
ATOM     55  C   UNL A   1      50.180  26.629  27.062  1.00  0.00     0.135 A 
ATOM     56  F   UNL A   1      48.688  27.483  23.858  1.00  0.00    -0.206 F 
ATOM     57  C   UNL A   1      50.882  26.823  24.375  1.00  0.00     0.059 A 
ATOM     58  C   UNL A   1      51.491  26.363  26.682  1.00  0.00     0.059 A 
ATOM     59  F   UNL A   1      49.872  26.556  28.366  1.00  0.00    -0.206 F 
ATOM     60  C   UNL A   1      51.832  26.464  25.334  1.00  0.00     0.060 A 
BRANCH  60  61
ATOM     61  S   UNL A   1      53.537  26.196  24.802  1.00  0.00     0.124 S 
ATOM     62  O   UNL A   1      53.350  25.330  23.644  1.00  0.00    -0.237 OA
ATOM     63  O   UNL A   1      53.984  27.556  24.518  1.00  0.00    -0.237 OA
ATOM     64  O   UNL A   1      54.159  25.571  25.965  1.00  0.00    -0.744 OA
ENDBRANCH  60  61
ENDBRANCH  28  53
BRANCH  40  65
ATOM     65  C   UNL A   1      43.060  23.790  27.060  1.00  0.00     0.058 A 
ATOM     66  C   UNL A   1      42.788  23.338  25.760  1.00  0.00     0.135 A 
ATOM     67  C   UNL A   1      42.977  22.861  28.109  1.00  0.00     0.135 A 
ATOM     68  F   UNL A   1      42.839  24.188  24.723  1.00  0.00    -0.206 F 
ATOM     69  C   UNL A   1      42.459  22.009  25.510  1.00  0.00     0.059 A 
ATOM     70  C   UNL A   1      42.676  21.522  27.880  1.00  0.00     0.059 A 
ATOM     71  F   UNL A   1      43.230  23.243  29.372  1.00  0.00    -0.206 F 
ATOM     72  C   UNL A   1      42.420  21.106  26.575  1.00  0.00     0.060 A 
BRANCH  72  73
ATOM     73  S   UNL A   1      42.085  19.367  26.224  1.00  0.00     0.124 S 
ATOM     74  O   UNL A   1      40.655  19.392  25.941  1.00  0.00    -0.237 OA
ATOM     75  O   UNL A   1      42.954  19.109  25.079  1.00  0.00    -0.237 OA
ATOM     76  O   UNL A   1      42.469  18.690  27.459  1.00  0.00    -0.744 OA
ENDBRANCH  72  73
ENDBRANCH  40  65
ENDBRANCH  14  15
ENDBRANCH   7   9
ENDBRANCH   4   5
ENDBRANCH   3   4
ENDBRANCH   2   3
ENDBRANCH   1   2
BRANCH   1  77
ATOM     77  C   UNL A   1      47.212  39.636  26.845  1.00  0.00     0.021 C 
BRANCH  77  78
ATOM     78  C   UNL A   1      45.938  38.951  27.334  1.00  0.00     0.116 C 
BRANCH  78  79
ATOM     79  N   UNL A   1      45.692  39.215  28.734  1.00  0.00    -0.351 N 
ATOM     80  C   UNL A   1      44.766  39.959  29.387  1.00  0.00     0.283 C 
ATOM     81  H   UNL A   1      46.327  38.763  29.336  1.00  0.00     0.163 HD
ATOM     82  O   UNL A   1      44.533  39.487  30.511  1.00  0.00    -0.268 OA
BRANCH  80  83
ATOM     83  C   UNL A   1      44.018  41.228  28.817  1.00  0.00     0.308 C 
BRANCH  83  84
ATOM     84  N   UNL A   1      44.807  42.514  28.771  1.00  0.00    -0.312 N 
ATOM     85  C   UNL A   1      44.257  43.673  29.486  1.00  0.00     0.325 C 
ATOM     86  C   UNL A   1      46.252  42.508  29.035  1.00  0.00     0.325 C 
ATOM     87  H   UNL A   1      44.683  42.612  27.763  1.00  0.00     0.349 HD
ATOM     88  C   UNL A   1      44.442  43.540  31.011  1.00  0.00     0.324 C 
ATOM     89  C   UNL A   1      46.685  42.642  30.527  1.00  0.00     0.324 C 
ATOM     90  N   UNL A   1      45.860  43.491  31.414  1.00  0.00    -0.322 N 
ATOM     91  H   UNL A   1      46.274  44.413  31.275  1.00  0.00     0.348 HD
BRANCH  90  92
ATOM     92  C   UNL A   1      45.979  43.228  32.861  1.00  0.00     0.200 C 
ATOM     93  C   UNL A   1      47.389  42.948  33.426  1.00  0.00     0.082 C 
ATOM     94  C   UNL A   1      45.423  44.368  33.714  1.00  0.00     0.201 C 
ATOM     95  C   UNL A   1      47.232  42.812  34.935  1.00  0.00     0.143 C 
ATOM     96  S   UNL A   1      45.907  43.928  35.376  1.00  0.00     0.156 S 
ATOM     97  O   UNL A   1      44.846  43.153  35.983  1.00  0.00    -0.229 OA
ATOM     98  O   UNL A   1      46.472  45.098  36.021  1.00  0.00    -0.229 OA
ENDBRANCH  90  92
ENDBRANCH  83  84
BRANCH  83  99
ATOM     99  C   UNL A   1      43.181  40.975  27.577  1.00  0.00     0.044 A 
ATOM    100  C   UNL A   1      42.007  40.248  27.451  1.00  0.00     0.094 A 
ATOM    101  C   UNL A   1      43.392  41.598  26.292  1.00  0.00     0.009 A 
ATOM    102  N   UNL A   1      41.537  40.375  26.171  1.00  0.00    -0.361 N 
ATOM    103  C   UNL A   1      42.303  41.279  25.481  1.00  0.00     0.050 A 
ATOM    104  C   UNL A   1      44.353  42.498  25.787  1.00  0.00     0.015 A 
ATOM    105  H   UNL A   1      40.764  39.889  25.801  1.00  0.00     0.166 HD
ATOM    106  C   UNL A   1      42.085  41.881  24.236  1.00  0.00     0.073 A 
ATOM    107  C   UNL A   1      44.140  43.122  24.551  1.00  0.00     0.047 A 
ATOM    108  C   UNL A   1      42.984  42.870  23.819  1.00  0.00     0.121 A 
BRANCH 108 109
ATOM    109  O   UNL A   1      42.547  43.594  22.741  1.00  0.00    -0.489 OA
BRANCH 109 110
ATOM    110  C   UNL A   1      41.921  42.915  21.645  1.00  0.00     0.265 C 
BRANCH 110 111
ATOM    111  C   UNL A   1      42.065  43.517  20.255  1.00  0.00    -0.011 A 
ATOM    112  C   UNL A   1      43.305  44.076  19.901  1.00  0.00     0.007 A 
ATOM    113  C   UNL A   1      41.018  43.591  19.324  1.00  0.00     0.007 A 
ATOM    114  C   UNL A   1      43.475  44.730  18.678  1.00  0.00     0.000 A 
ATOM    115  C   UNL A   1      41.180  44.271  18.113  1.00  0.00     0.000 A 
ATOM    116  C   UNL A   1      42.407  44.845  17.793  1.00  0.00     0.000 A 
ENDBRANCH 110 111
ENDBRANCH 109 110
ENDBRANCH 108 109
ENDBRANCH  83  99
ENDBRANCH  80  83
ENDBRANCH  78  79
ENDBRANCH  77  78
ENDBRANCH   1  77
TORSDOF 22
ENDMDL
