MODEL 1
REMARK VINA RESULT:     -11.8      0.000      0.000
REMARK SMILES O=C(NCCCCCCNC(=O)c1ccc(-c2c3nc(c(-c4c(F)cc(S(=O)(=O)[O-])cc4F)c4ccc([nH]4)c(-c4c(F)cc(S(=O)(=O)[O-])cc4F)c4nc(c(-c5c(F)cc(S(=O)(=O)[O-])cc5F)c5ccc2[nH]5)C=C4)C=C3)cc1)C1=Cc2cc(OC(F)(F)F)ccc2O[C@@H]1C(F)(F)F
REMARK SMILES IDX 7 1 6 2 5 3 4 4 3 5 1 6 2 7 79 9 80 10 93 11 81 12 92 13
REMARK SMILES IDX 82 14 91 15 83 16 90 17 89 18 94 19 95 20 96 21 97 22 84 23
REMARK SMILES IDX 85 24 86 25 87 26 88 27 8 28 9 29 10 30 11 31 12 33 13 34
REMARK SMILES IDX 14 35 78 36 15 37 77 38 16 39 17 40 18 41 71 42 19 43 76 44
REMARK SMILES IDX 70 45 72 46 20 47 75 48 69 49 68 50 21 52 55 53 34 54 54 55
REMARK SMILES IDX 35 56 38 57 53 58 73 59 36 60 37 61 52 63 74 64 39 65 22 66
REMARK SMILES IDX 23 67 32 68 24 69 25 70 31 71 33 72 26 73 27 74 28 75 29 76
REMARK SMILES IDX 30 77 56 78 57 79 66 80 58 81 59 82 65 83 67 84 60 85 61 86
REMARK SMILES IDX 62 87 63 88 64 89 40 90 41 91 50 92 42 93 43 94 49 95 51 96
REMARK SMILES IDX 44 97 45 98 46 99 47 100 48 101
REMARK H PARENT 3 8 10 32 72 51 38 62
REMARK Flexibility Score: inf
ROOT
ATOM      1  C   UNL A   1      36.912  21.990  25.912  1.00  0.00     0.002 C 
ENDROOT
BRANCH   1   2
ATOM      2  C   UNL A   1      35.402  21.722  25.966  1.00  0.00     0.002 C 
BRANCH   2   3
ATOM      3  C   UNL A   1      34.808  20.918  24.811  1.00  0.00     0.021 C 
BRANCH   3   4
ATOM      4  C   UNL A   1      33.588  21.524  24.128  1.00  0.00     0.116 C 
BRANCH   4   5
ATOM      5  N   UNL A   1      33.843  22.701  23.317  1.00  0.00    -0.352 N 
ATOM      6  O   UNL A   1      34.129  24.882  22.863  1.00  0.00    -0.270 OA
ATOM      7  C   UNL A   1      33.697  24.025  23.632  1.00  0.00     0.251 C 
ATOM      8  H   UNL A   1      34.169  22.520  22.406  1.00  0.00     0.163 HD
BRANCH   7   9
ATOM      9  C   UNL A   1      33.116  24.477  24.932  1.00  0.00     0.067 C 
ATOM     10  C   UNL A   1      33.764  25.325  25.753  1.00  0.00     0.025 C 
ATOM     11  C   UNL A   1      31.604  24.482  24.921  1.00  0.00     0.314 C 
ATOM     12  C   UNL A   1      33.126  26.669  25.751  1.00  0.00     0.021 A 
ATOM     13  O   UNL A   1      31.085  25.822  24.704  1.00  0.00    -0.475 OA
ATOM     14  C   UNL A   1      33.901  27.780  26.114  1.00  0.00     0.058 A 
ATOM     15  C   UNL A   1      31.890  26.856  25.115  1.00  0.00     0.128 A 
ATOM     16  C   UNL A   1      33.508  29.066  25.731  1.00  0.00     0.130 A 
ATOM     17  C   UNL A   1      31.489  28.139  24.757  1.00  0.00     0.051 A 
ATOM     18  C   UNL A   1      32.308  29.240  25.040  1.00  0.00     0.050 A 
BRANCH  11  19
ATOM     19  C   UNL A   1      31.009  23.829  26.179  1.00  0.00     0.429 C 
ATOM     20  F   UNL A   1      31.868  23.899  27.225  1.00  0.00    -0.167 F 
ATOM     21  F   UNL A   1      29.868  24.449  26.570  1.00  0.00    -0.167 F 
ATOM     22  F   UNL A   1      30.704  22.523  25.996  1.00  0.00    -0.167 F 
ENDBRANCH  11  19
BRANCH  16  23
ATOM     23  O   UNL A   1      34.345  30.071  26.124  1.00  0.00    -0.406 OA
BRANCH  23  24
ATOM     24  C   UNL A   1      34.344  30.413  27.504  1.00  0.00     0.573 C 
ATOM     25  F   UNL A   1      34.937  29.435  28.227  1.00  0.00    -0.132 F 
ATOM     26  F   UNL A   1      34.969  31.582  27.739  1.00  0.00    -0.132 F 
ATOM     27  F   UNL A   1      33.066  30.519  27.923  1.00  0.00    -0.132 F 
ENDBRANCH  23  24
ENDBRANCH  16  23
ENDBRANCH   7   9
ENDBRANCH   4   5
ENDBRANCH   3   4
ENDBRANCH   2   3
ENDBRANCH   1   2
BRANCH   1  28
ATOM     28  C   UNL A   1      37.353  23.425  25.610  1.00  0.00     0.021 C 
BRANCH  28  29
ATOM     29  C   UNL A   1      38.354  24.047  26.581  1.00  0.00     0.116 C 
BRANCH  29  30
ATOM     30  N   UNL A   1      39.712  24.071  26.071  1.00  0.00    -0.352 N 
ATOM     31  C   UNL A   1      40.777  24.858  26.445  1.00  0.00     0.251 C 
ATOM     32  H   UNL A   1      39.900  23.426  25.351  1.00  0.00     0.163 HD
ATOM     33  O   UNL A   1      41.818  24.805  25.799  1.00  0.00    -0.269 OA
BRANCH  31  34
ATOM     34  C   UNL A   1      40.667  25.786  27.597  1.00  0.00     0.039 A 
ATOM     35  C   UNL A   1      41.649  26.770  27.755  1.00  0.00     0.014 A 
ATOM     36  C   UNL A   1      39.634  25.683  28.534  1.00  0.00     0.014 A 
ATOM     37  C   UNL A   1      41.567  27.675  28.818  1.00  0.00     0.010 A 
ATOM     38  C   UNL A   1      39.514  26.631  29.552  1.00  0.00     0.010 A 
ATOM     39  C   UNL A   1      40.484  27.634  29.710  1.00  0.00    -0.014 A 
BRANCH  39  40
ATOM     40  C   UNL A   1      40.364  28.627  30.813  1.00  0.00     0.031 A 
ATOM     41  C   UNL A   1      41.239  28.525  32.034  1.00  0.00     0.074 A 
ATOM     42  C   UNL A   1      39.438  29.605  30.733  1.00  0.00     0.049 A 
ATOM     43  N   UNL A   1      41.267  29.288  33.098  1.00  0.00    -0.248 NA
ATOM     44  C   UNL A   1      42.197  27.409  32.074  1.00  0.00     0.031 C 
ATOM     45  C   UNL A   1      38.503  29.793  29.622  1.00  0.00     0.029 A 
ATOM     46  N   UNL A   1      39.129  30.624  31.600  1.00  0.00    -0.354 N 
ATOM     47  C   UNL A   1      42.229  28.737  33.938  1.00  0.00     0.074 A 
ATOM     48  C   UNL A   1      42.726  27.548  33.281  1.00  0.00     0.031 C 
ATOM     49  C   UNL A   1      37.749  30.879  29.860  1.00  0.00     0.029 A 
ATOM     50  C   UNL A   1      38.115  31.441  31.157  1.00  0.00     0.049 A 
ATOM     51  H   UNL A   1      39.591  30.758  32.459  1.00  0.00     0.167 HD
ATOM     52  C   UNL A   1      42.673  29.191  35.135  1.00  0.00     0.037 A 
ATOM     53  C   UNL A   1      37.541  32.517  31.728  1.00  0.00     0.037 A 
ATOM     54  C   UNL A   1      42.186  30.387  35.775  1.00  0.00     0.049 A 
ATOM     55  C   UNL A   1      38.037  32.992  33.067  1.00  0.00     0.074 A 
ATOM     56  C   UNL A   1      42.617  30.966  36.957  1.00  0.00     0.029 A 
ATOM     57  N   UNL A   1      41.153  31.181  35.298  1.00  0.00    -0.354 N 
ATOM     58  N   UNL A   1      38.999  32.502  33.812  1.00  0.00    -0.248 NA
ATOM     59  C   UNL A   1      37.373  34.171  33.642  1.00  0.00     0.031 C 
ATOM     60  C   UNL A   1      41.806  32.072  37.224  1.00  0.00     0.029 A 
ATOM     61  C   UNL A   1      40.911  32.224  36.178  1.00  0.00     0.049 A 
ATOM     62  H   UNL A   1      40.665  31.026  34.458  1.00  0.00     0.167 HD
ATOM     63  C   UNL A   1      39.076  33.329  34.929  1.00  0.00     0.074 A 
ATOM     64  C   UNL A   1      38.070  34.357  34.756  1.00  0.00     0.031 C 
ATOM     65  C   UNL A   1      39.908  33.245  35.997  1.00  0.00     0.037 A 
BRANCH  52  66
ATOM     66  C   UNL A   1      43.731  28.384  35.841  1.00  0.00     0.058 A 
ATOM     67  C   UNL A   1      43.404  27.327  36.707  1.00  0.00     0.135 A 
ATOM     68  C   UNL A   1      45.093  28.651  35.625  1.00  0.00     0.135 A 
ATOM     69  F   UNL A   1      42.120  27.032  36.961  1.00  0.00    -0.206 F 
ATOM     70  C   UNL A   1      44.388  26.593  37.363  1.00  0.00     0.059 A 
ATOM     71  C   UNL A   1      46.093  27.908  36.244  1.00  0.00     0.059 A 
ATOM     72  F   UNL A   1      45.465  29.646  34.804  1.00  0.00    -0.206 F 
ATOM     73  C   UNL A   1      45.730  26.892  37.127  1.00  0.00     0.060 A 
BRANCH  73  74
ATOM     74  S   UNL A   1      46.992  25.937  37.994  1.00  0.00     0.124 S 
ATOM     75  O   UNL A   1      47.554  25.142  36.906  1.00  0.00    -0.237 OA
ATOM     76  O   UNL A   1      47.860  26.980  38.530  1.00  0.00    -0.237 OA
ATOM     77  O   UNL A   1      46.230  25.188  38.989  1.00  0.00    -0.744 OA
ENDBRANCH  73  74
ENDBRANCH  52  66
BRANCH  53  78
ATOM     78  C   UNL A   1      36.449  33.239  31.020  1.00  0.00     0.058 A 
ATOM     79  C   UNL A   1      35.113  33.102  31.425  1.00  0.00     0.135 A 
ATOM     80  C   UNL A   1      36.719  34.094  29.940  1.00  0.00     0.135 A 
ATOM     81  F   UNL A   1      34.802  32.289  32.445  1.00  0.00    -0.206 F 
ATOM     82  C   UNL A   1      34.082  33.777  30.779  1.00  0.00     0.059 A 
ATOM     83  C   UNL A   1      35.708  34.801  29.296  1.00  0.00     0.059 A 
ATOM     84  F   UNL A   1      37.981  34.272  29.520  1.00  0.00    -0.206 F 
ATOM     85  C   UNL A   1      34.390  34.631  29.718  1.00  0.00     0.060 A 
BRANCH  85  86
ATOM     86  S   UNL A   1      33.051  35.549  28.929  1.00  0.00     0.124 S 
ATOM     87  O   UNL A   1      33.790  36.555  28.174  1.00  0.00    -0.237 OA
ATOM     88  O   UNL A   1      32.395  34.512  28.138  1.00  0.00    -0.237 OA
ATOM     89  O   UNL A   1      32.276  36.051  30.059  1.00  0.00    -0.744 OA
ENDBRANCH  85  86
ENDBRANCH  53  78
BRANCH  65  90
ATOM     90  C   UNL A   1      39.796  34.313  37.052  1.00  0.00     0.058 A 
ATOM     91  C   UNL A   1      40.434  35.557  36.919  1.00  0.00     0.135 A 
ATOM     92  C   UNL A   1      38.997  34.108  38.189  1.00  0.00     0.135 A 
ATOM     93  F   UNL A   1      41.216  35.806  35.857  1.00  0.00    -0.206 F 
ATOM     94  C   UNL A   1      40.302  36.550  37.886  1.00  0.00     0.059 A 
ATOM     95  C   UNL A   1      38.824  35.097  39.152  1.00  0.00     0.059 A 
ATOM     96  F   UNL A   1      38.356  32.941  38.363  1.00  0.00    -0.206 F 
ATOM     97  C   UNL A   1      39.491  36.311  38.997  1.00  0.00     0.060 A 
BRANCH  97  98
ATOM     98  S   UNL A   1      39.301  37.621  40.226  1.00  0.00     0.124 S 
ATOM     99  O   UNL A   1      38.329  38.494  39.578  1.00  0.00    -0.237 OA
ATOM    100  O   UNL A   1      38.818  36.886  41.391  1.00  0.00    -0.237 OA
ATOM    101  O   UNL A   1      40.650  38.167  40.353  1.00  0.00    -0.744 OA
ENDBRANCH  97  98
ENDBRANCH  65  90
ENDBRANCH  39  40
ENDBRANCH  31  34
ENDBRANCH  29  30
ENDBRANCH  28  29
ENDBRANCH   1  28
TORSDOF 19
ENDMDL
MODEL 2
REMARK VINA RESULT:     -11.8      6.592     12.189
REMARK SMILES O=C(NCCCCCCNC(=O)c1ccc(-c2c3nc(c(-c4c(F)cc(S(=O)(=O)[O-])cc4F)c4ccc([nH]4)c(-c4c(F)cc(S(=O)(=O)[O-])cc4F)c4nc(c(-c5c(F)cc(S(=O)(=O)[O-])cc5F)c5ccc2[nH]5)C=C4)C=C3)cc1)C1=Cc2cc(OC(F)(F)F)ccc2O[C@@H]1C(F)(F)F
REMARK SMILES IDX 7 1 6 2 5 3 4 4 3 5 1 6 2 7 79 9 80 10 93 11 81 12 92 13
REMARK SMILES IDX 82 14 91 15 83 16 90 17 89 18 94 19 95 20 96 21 97 22 84 23
REMARK SMILES IDX 85 24 86 25 87 26 88 27 8 28 9 29 10 30 11 31 12 33 13 34
REMARK SMILES IDX 14 35 78 36 15 37 77 38 16 39 17 40 18 41 71 42 19 43 76 44
REMARK SMILES IDX 70 45 72 46 20 47 75 48 69 49 68 50 21 52 55 53 34 54 54 55
REMARK SMILES IDX 35 56 38 57 53 58 73 59 36 60 37 61 52 63 74 64 39 65 22 66
REMARK SMILES IDX 23 67 32 68 24 69 25 70 31 71 33 72 26 73 27 74 28 75 29 76
REMARK SMILES IDX 30 77 56 78 57 79 66 80 58 81 59 82 65 83 67 84 60 85 61 86
REMARK SMILES IDX 62 87 63 88 64 89 40 90 41 91 50 92 42 93 43 94 49 95 51 96
REMARK SMILES IDX 44 97 45 98 46 99 47 100 48 101
REMARK H PARENT 3 8 10 32 72 51 38 62
REMARK Flexibility Score: inf
ROOT
ATOM      1  C   UNL A   1      34.139  29.009  27.222  1.00  0.00     0.002 C 
ENDROOT
BRANCH   1   2
ATOM      2  C   UNL A   1      33.021  28.455  26.331  1.00  0.00     0.002 C 
BRANCH   2   3
ATOM      3  C   UNL A   1      32.064  27.453  26.974  1.00  0.00     0.021 C 
BRANCH   3   4
ATOM      4  C   UNL A   1      31.139  26.703  26.025  1.00  0.00     0.116 C 
BRANCH   4   5
ATOM      5  N   UNL A   1      30.548  25.487  26.556  1.00  0.00    -0.352 N 
ATOM      6  O   UNL A   1      30.484  23.369  27.303  1.00  0.00    -0.270 OA
ATOM      7  C   UNL A   1      31.086  24.233  26.665  1.00  0.00     0.251 C 
ATOM      8  H   UNL A   1      29.625  25.578  26.886  1.00  0.00     0.163 HD
BRANCH   7   9
ATOM      9  C   UNL A   1      32.435  23.892  26.121  1.00  0.00     0.067 C 
ATOM     10  C   UNL A   1      33.103  22.785  26.497  1.00  0.00     0.025 C 
ATOM     11  C   UNL A   1      32.654  24.442  24.730  1.00  0.00     0.314 C 
ATOM     12  C   UNL A   1      33.130  21.776  25.404  1.00  0.00     0.021 A 
ATOM     13  O   UNL A   1      32.451  23.415  23.721  1.00  0.00    -0.475 OA
ATOM     14  C   UNL A   1      33.313  20.428  25.741  1.00  0.00     0.058 A 
ATOM     15  C   UNL A   1      32.681  22.121  24.121  1.00  0.00     0.128 A 
ATOM     16  C   UNL A   1      32.930  19.421  24.849  1.00  0.00     0.130 A 
ATOM     17  C   UNL A   1      32.323  21.119  23.225  1.00  0.00     0.051 A 
ATOM     18  C   UNL A   1      32.422  19.771  23.597  1.00  0.00     0.050 A 
BRANCH  11  19
ATOM     19  C   UNL A   1      34.020  25.133  24.584  1.00  0.00     0.429 C 
ATOM     20  F   UNL A   1      34.528  25.482  25.790  1.00  0.00    -0.167 F 
ATOM     21  F   UNL A   1      34.931  24.316  23.999  1.00  0.00    -0.167 F 
ATOM     22  F   UNL A   1      33.959  26.257  23.832  1.00  0.00    -0.167 F 
ENDBRANCH  11  19
BRANCH  16  23
ATOM     23  O   UNL A   1      33.139  18.144  25.287  1.00  0.00    -0.406 OA
BRANCH  23  24
ATOM     24  C   UNL A   1      34.135  17.385  24.615  1.00  0.00     0.573 C 
ATOM     25  F   UNL A   1      35.216  18.156  24.358  1.00  0.00    -0.132 F 
ATOM     26  F   UNL A   1      34.516  16.306  25.325  1.00  0.00    -0.132 F 
ATOM     27  F   UNL A   1      33.636  16.965  23.434  1.00  0.00    -0.132 F 
ENDBRANCH  23  24
ENDBRANCH  16  23
ENDBRANCH   7   9
ENDBRANCH   4   5
ENDBRANCH   3   4
ENDBRANCH   2   3
ENDBRANCH   1   2
BRANCH   1  28
ATOM     28  C   UNL A   1      34.240  30.532  27.347  1.00  0.00     0.021 C 
BRANCH  28  29
ATOM     29  C   UNL A   1      35.495  31.077  28.026  1.00  0.00     0.116 C 
BRANCH  29  30
ATOM     30  N   UNL A   1      35.401  31.103  29.473  1.00  0.00    -0.352 N 
ATOM     31  C   UNL A   1      36.309  30.688  30.420  1.00  0.00     0.251 C 
ATOM     32  H   UNL A   1      34.562  31.473  29.832  1.00  0.00     0.163 HD
ATOM     33  O   UNL A   1      35.984  30.683  31.602  1.00  0.00    -0.269 OA
BRANCH  31  34
ATOM     34  C   UNL A   1      37.661  30.222  30.021  1.00  0.00     0.039 A 
ATOM     35  C   UNL A   1      37.938  30.075  28.658  1.00  0.00     0.014 A 
ATOM     36  C   UNL A   1      38.640  29.900  30.965  1.00  0.00     0.014 A 
ATOM     37  C   UNL A   1      39.207  29.657  28.244  1.00  0.00     0.010 A 
ATOM     38  C   UNL A   1      39.927  29.552  30.549  1.00  0.00     0.010 A 
ATOM     39  C   UNL A   1      40.223  29.418  29.183  1.00  0.00    -0.014 A 
BRANCH  39  40
ATOM     40  C   UNL A   1      41.590  29.023  28.747  1.00  0.00     0.031 A 
ATOM     41  C   UNL A   1      42.700  30.040  28.693  1.00  0.00     0.074 A 
ATOM     42  C   UNL A   1      41.828  27.752  28.362  1.00  0.00     0.049 A 
ATOM     43  N   UNL A   1      43.947  29.885  28.326  1.00  0.00    -0.248 NA
ATOM     44  C   UNL A   1      42.360  31.417  29.085  1.00  0.00     0.031 C 
ATOM     45  C   UNL A   1      40.832  26.680  28.331  1.00  0.00     0.029 A 
ATOM     46  N   UNL A   1      42.979  27.146  27.923  1.00  0.00    -0.354 N 
ATOM     47  C   UNL A   1      44.534  31.142  28.427  1.00  0.00     0.074 A 
ATOM     48  C   UNL A   1      43.494  32.057  28.842  1.00  0.00     0.031 C 
ATOM     49  C   UNL A   1      41.422  25.542  27.929  1.00  0.00     0.029 A 
ATOM     50  C   UNL A   1      42.826  25.810  27.632  1.00  0.00     0.049 A 
ATOM     51  H   UNL A   1      43.835  27.623  27.826  1.00  0.00     0.167 HD
ATOM     52  C   UNL A   1      45.825  31.496  28.215  1.00  0.00     0.037 A 
ATOM     53  C   UNL A   1      43.711  24.904  27.174  1.00  0.00     0.037 A 
ATOM     54  C   UNL A   1      46.860  30.575  27.819  1.00  0.00     0.049 A 
ATOM     55  C   UNL A   1      45.135  25.325  26.927  1.00  0.00     0.074 A 
ATOM     56  C   UNL A   1      48.211  30.824  27.642  1.00  0.00     0.029 A 
ATOM     57  N   UNL A   1      46.663  29.234  27.527  1.00  0.00    -0.354 N 
ATOM     58  N   UNL A   1      45.689  26.501  27.100  1.00  0.00    -0.248 NA
ATOM     59  C   UNL A   1      46.056  24.294  26.427  1.00  0.00     0.031 C 
ATOM     60  C   UNL A   1      48.817  29.651  27.185  1.00  0.00     0.029 A 
ATOM     61  C   UNL A   1      47.859  28.651  27.138  1.00  0.00     0.049 A 
ATOM     62  H   UNL A   1      45.800  28.764  27.587  1.00  0.00     0.167 HD
ATOM     63  C   UNL A   1      47.030  26.345  26.759  1.00  0.00     0.074 A 
ATOM     64  C   UNL A   1      47.204  24.958  26.381  1.00  0.00     0.031 C 
ATOM     65  C   UNL A   1      48.024  27.267  26.764  1.00  0.00     0.037 A 
BRANCH  52  66
ATOM     66  C   UNL A   1      46.190  32.947  28.393  1.00  0.00     0.058 A 
ATOM     67  C   UNL A   1      46.101  33.870  27.338  1.00  0.00     0.135 A 
ATOM     68  C   UNL A   1      46.607  33.428  29.645  1.00  0.00     0.135 A 
ATOM     69  F   UNL A   1      45.719  33.467  26.116  1.00  0.00    -0.206 F 
ATOM     70  C   UNL A   1      46.450  35.206  27.508  1.00  0.00     0.059 A 
ATOM     71  C   UNL A   1      46.928  34.767  29.846  1.00  0.00     0.059 A 
ATOM     72  F   UNL A   1      46.706  32.593  30.692  1.00  0.00    -0.206 F 
ATOM     73  C   UNL A   1      46.864  35.645  28.766  1.00  0.00     0.060 A 
BRANCH  73  74
ATOM     74  S   UNL A   1      47.324  37.379  28.966  1.00  0.00     0.124 S 
ATOM     75  O   UNL A   1      46.063  37.964  29.415  1.00  0.00    -0.237 OA
ATOM     76  O   UNL A   1      48.382  37.309  29.968  1.00  0.00    -0.237 OA
ATOM     77  O   UNL A   1      47.756  37.774  27.629  1.00  0.00    -0.744 OA
ENDBRANCH  73  74
ENDBRANCH  52  66
BRANCH  53  78
ATOM     78  C   UNL A   1      43.282  23.497  26.946  1.00  0.00     0.058 A 
ATOM     79  C   UNL A   1      43.027  23.021  25.652  1.00  0.00     0.135 A 
ATOM     80  C   UNL A   1      43.137  22.596  28.013  1.00  0.00     0.135 A 
ATOM     81  F   UNL A   1      43.141  23.846  24.600  1.00  0.00    -0.206 F 
ATOM     82  C   UNL A   1      42.634  21.706  25.422  1.00  0.00     0.059 A 
ATOM     83  C   UNL A   1      42.773  21.269  27.806  1.00  0.00     0.059 A 
ATOM     84  F   UNL A   1      43.382  22.996  29.271  1.00  0.00    -0.206 F 
ATOM     85  C   UNL A   1      42.516  20.835  26.506  1.00  0.00     0.060 A 
BRANCH  85  86
ATOM     86  S   UNL A   1      42.066  19.115  26.190  1.00  0.00     0.124 S 
ATOM     87  O   UNL A   1      42.302  18.505  27.493  1.00  0.00    -0.237 OA
ATOM     88  O   UNL A   1      40.669  19.236  25.784  1.00  0.00    -0.237 OA
ATOM     89  O   UNL A   1      42.987  18.717  25.130  1.00  0.00    -0.744 OA
ENDBRANCH  85  86
ENDBRANCH  53  78
BRANCH  65  90
ATOM     90  C   UNL A   1      49.405  26.804  26.383  1.00  0.00     0.058 A 
ATOM     91  C   UNL A   1      50.253  26.166  27.303  1.00  0.00     0.135 A 
ATOM     92  C   UNL A   1      49.866  26.954  25.065  1.00  0.00     0.135 A 
ATOM     93  F   UNL A   1      49.868  26.002  28.577  1.00  0.00    -0.206 F 
ATOM     94  C   UNL A   1      51.518  25.715  26.934  1.00  0.00     0.059 A 
ATOM     95  C   UNL A   1      51.113  26.483  24.666  1.00  0.00     0.059 A 
ATOM     96  F   UNL A   1      49.093  27.548  24.142  1.00  0.00    -0.206 F 
ATOM     97  C   UNL A   1      51.937  25.875  25.612  1.00  0.00     0.060 A 
BRANCH  97  98
ATOM     98  S   UNL A   1      53.565  25.254  25.140  1.00  0.00     0.124 S 
ATOM     99  O   UNL A   1      53.423  23.826  25.400  1.00  0.00    -0.237 OA
ATOM    100  O   UNL A   1      53.649  25.638  23.734  1.00  0.00    -0.237 OA
ATOM    101  O   UNL A   1      54.474  25.967  26.033  1.00  0.00    -0.744 OA
ENDBRANCH  97  98
ENDBRANCH  65  90
ENDBRANCH  39  40
ENDBRANCH  31  34
ENDBRANCH  29  30
ENDBRANCH  28  29
ENDBRANCH   1  28
TORSDOF 19
ENDMDL
MODEL 3
REMARK VINA RESULT:     -11.6      2.764      8.704
REMARK SMILES O=C(NCCCCCCNC(=O)c1ccc(-c2c3nc(c(-c4c(F)cc(S(=O)(=O)[O-])cc4F)c4ccc([nH]4)c(-c4c(F)cc(S(=O)(=O)[O-])cc4F)c4nc(c(-c5c(F)cc(S(=O)(=O)[O-])cc5F)c5ccc2[nH]5)C=C4)C=C3)cc1)C1=Cc2cc(OC(F)(F)F)ccc2O[C@@H]1C(F)(F)F
REMARK SMILES IDX 7 1 6 2 5 3 4 4 3 5 1 6 2 7 79 9 80 10 93 11 81 12 92 13
REMARK SMILES IDX 82 14 91 15 83 16 90 17 89 18 94 19 95 20 96 21 97 22 84 23
REMARK SMILES IDX 85 24 86 25 87 26 88 27 8 28 9 29 10 30 11 31 12 33 13 34
REMARK SMILES IDX 14 35 78 36 15 37 77 38 16 39 17 40 18 41 71 42 19 43 76 44
REMARK SMILES IDX 70 45 72 46 20 47 75 48 69 49 68 50 21 52 55 53 34 54 54 55
REMARK SMILES IDX 35 56 38 57 53 58 73 59 36 60 37 61 52 63 74 64 39 65 22 66
REMARK SMILES IDX 23 67 32 68 24 69 25 70 31 71 33 72 26 73 27 74 28 75 29 76
REMARK SMILES IDX 30 77 56 78 57 79 66 80 58 81 59 82 65 83 67 84 60 85 61 86
REMARK SMILES IDX 62 87 63 88 64 89 40 90 41 91 50 92 42 93 43 94 49 95 51 96
REMARK SMILES IDX 44 97 45 98 46 99 47 100 48 101
REMARK H PARENT 3 8 10 32 72 51 38 62
REMARK Flexibility Score: inf
ROOT
ATOM      1  C   UNL A   1      31.679  30.958  26.485  1.00  0.00     0.002 C 
ENDROOT
BRANCH   1   2
ATOM      2  C   UNL A   1      32.833  30.195  27.147  1.00  0.00     0.002 C 
BRANCH   2   3
ATOM      3  C   UNL A   1      32.697  28.675  27.220  1.00  0.00     0.021 C 
BRANCH   3   4
ATOM      4  C   UNL A   1      31.439  28.082  26.597  1.00  0.00     0.116 C 
BRANCH   4   5
ATOM      5  N   UNL A   1      31.127  26.719  26.989  1.00  0.00    -0.352 N 
ATOM      6  O   UNL A   1      31.355  24.486  27.080  1.00  0.00    -0.270 OA
ATOM      7  C   UNL A   1      31.616  25.539  26.498  1.00  0.00     0.251 C 
ATOM      8  H   UNL A   1      30.469  26.632  27.715  1.00  0.00     0.163 HD
BRANCH   7   9
ATOM      9  C   UNL A   1      32.543  25.483  25.328  1.00  0.00     0.067 C 
ATOM     10  C   UNL A   1      33.858  25.232  25.465  1.00  0.00     0.025 C 
ATOM     11  C   UNL A   1      31.846  25.057  24.056  1.00  0.00     0.314 C 
ATOM     12  C   UNL A   1      34.202  23.872  24.969  1.00  0.00     0.021 A 
ATOM     13  O   UNL A   1      32.080  23.650  23.774  1.00  0.00    -0.475 OA
ATOM     14  C   UNL A   1      35.355  23.248  25.465  1.00  0.00     0.058 A 
ATOM     15  C   UNL A   1      33.247  23.121  24.269  1.00  0.00     0.128 A 
ATOM     16  C   UNL A   1      35.497  21.860  25.378  1.00  0.00     0.130 A 
ATOM     17  C   UNL A   1      33.401  21.743  24.160  1.00  0.00     0.051 A 
ATOM     18  C   UNL A   1      34.510  21.109  24.737  1.00  0.00     0.050 A 
BRANCH  11  19
ATOM     19  C   UNL A   1      32.212  25.954  22.862  1.00  0.00     0.429 C 
ATOM     20  F   UNL A   1      33.393  25.582  22.310  1.00  0.00    -0.167 F 
ATOM     21  F   UNL A   1      31.281  25.878  21.879  1.00  0.00    -0.167 F 
ATOM     22  F   UNL A   1      32.320  27.259  23.201  1.00  0.00    -0.167 F 
ENDBRANCH  11  19
BRANCH  16  23
ATOM     23  O   UNL A   1      36.651  21.358  25.907  1.00  0.00    -0.406 OA
BRANCH  23  24
ATOM     24  C   UNL A   1      37.676  20.988  24.994  1.00  0.00     0.573 C 
ATOM     25  F   UNL A   1      38.887  21.339  25.484  1.00  0.00    -0.132 F 
ATOM     26  F   UNL A   1      37.668  19.669  24.727  1.00  0.00    -0.132 F 
ATOM     27  F   UNL A   1      37.488  21.659  23.838  1.00  0.00    -0.132 F 
ENDBRANCH  23  24
ENDBRANCH  16  23
ENDBRANCH   7   9
ENDBRANCH   4   5
ENDBRANCH   3   4
ENDBRANCH   2   3
ENDBRANCH   1   2
BRANCH   1  28
ATOM     28  C   UNL A   1      31.621  32.471  26.719  1.00  0.00     0.021 C 
BRANCH  28  29
ATOM     29  C   UNL A   1      32.837  33.101  27.395  1.00  0.00     0.116 C 
BRANCH  29  30
ATOM     30  N   UNL A   1      32.602  34.459  27.851  1.00  0.00    -0.352 N 
ATOM     31  C   UNL A   1      33.205  35.159  28.870  1.00  0.00     0.251 C 
ATOM     32  H   UNL A   1      31.908  34.952  27.357  1.00  0.00     0.163 HD
ATOM     33  O   UNL A   1      32.773  36.264  29.177  1.00  0.00    -0.269 OA
BRANCH  31  34
ATOM     34  C   UNL A   1      34.349  34.578  29.617  1.00  0.00     0.039 A 
ATOM     35  C   UNL A   1      34.100  33.994  30.864  1.00  0.00     0.014 A 
ATOM     36  C   UNL A   1      35.656  34.628  29.125  1.00  0.00     0.014 A 
ATOM     37  C   UNL A   1      35.150  33.419  31.588  1.00  0.00     0.010 A 
ATOM     38  C   UNL A   1      36.689  33.991  29.814  1.00  0.00     0.010 A 
ATOM     39  C   UNL A   1      36.449  33.386  31.058  1.00  0.00    -0.014 A 
BRANCH  39  40
ATOM     40  C   UNL A   1      37.561  32.729  31.800  1.00  0.00     0.031 A 
ATOM     41  C   UNL A   1      38.259  31.525  31.224  1.00  0.00     0.074 A 
ATOM     42  C   UNL A   1      37.921  33.195  33.014  1.00  0.00     0.049 A 
ATOM     43  N   UNL A   1      39.235  30.814  31.730  1.00  0.00    -0.248 NA
ATOM     44  C   UNL A   1      37.786  31.044  29.917  1.00  0.00     0.031 C 
ATOM     45  C   UNL A   1      37.301  34.329  33.700  1.00  0.00     0.029 A 
ATOM     46  N   UNL A   1      38.894  32.773  33.886  1.00  0.00    -0.354 N 
ATOM     47  C   UNL A   1      39.481  29.797  30.814  1.00  0.00     0.074 A 
ATOM     48  C   UNL A   1      38.519  29.954  29.746  1.00  0.00     0.031 C 
ATOM     49  C   UNL A   1      37.929  34.533  34.870  1.00  0.00     0.029 A 
ATOM     50  C   UNL A   1      38.968  33.521  35.038  1.00  0.00     0.049 A 
ATOM     51  H   UNL A   1      39.485  32.006  33.704  1.00  0.00     0.167 HD
ATOM     52  C   UNL A   1      40.435  28.834  30.849  1.00  0.00     0.037 A 
ATOM     53  C   UNL A   1      39.774  33.404  36.111  1.00  0.00     0.037 A 
ATOM     54  C   UNL A   1      41.402  28.694  31.908  1.00  0.00     0.049 A 
ATOM     55  C   UNL A   1      40.813  32.315  36.136  1.00  0.00     0.074 A 
ATOM     56  C   UNL A   1      42.448  27.792  32.003  1.00  0.00     0.029 A 
ATOM     57  N   UNL A   1      41.437  29.466  33.061  1.00  0.00    -0.354 N 
ATOM     58  N   UNL A   1      41.080  31.409  35.227  1.00  0.00    -0.248 NA
ATOM     59  C   UNL A   1      41.663  32.236  37.333  1.00  0.00     0.031 C 
ATOM     60  C   UNL A   1      43.076  27.978  33.238  1.00  0.00     0.029 A 
ATOM     61  C   UNL A   1      42.465  29.039  33.887  1.00  0.00     0.049 A 
ATOM     62  H   UNL A   1      40.823  30.208  33.262  1.00  0.00     0.167 HD
ATOM     63  C   UNL A   1      42.149  30.670  35.727  1.00  0.00     0.074 A 
ATOM     64  C   UNL A   1      42.485  31.244  37.014  1.00  0.00     0.031 C 
ATOM     65  C   UNL A   1      42.794  29.617  35.167  1.00  0.00     0.037 A 
BRANCH  52  66
ATOM     66  C   UNL A   1      40.471  27.844  29.714  1.00  0.00     0.058 A 
ATOM     67  C   UNL A   1      39.558  26.779  29.628  1.00  0.00     0.135 A 
ATOM     68  C   UNL A   1      41.413  27.979  28.681  1.00  0.00     0.135 A 
ATOM     69  F   UNL A   1      38.642  26.593  30.590  1.00  0.00    -0.206 F 
ATOM     70  C   UNL A   1      39.605  25.864  28.581  1.00  0.00     0.059 A 
ATOM     71  C   UNL A   1      41.457  27.094  27.608  1.00  0.00     0.059 A 
ATOM     72  F   UNL A   1      42.308  28.980  28.709  1.00  0.00    -0.206 F 
ATOM     73  C   UNL A   1      40.560  26.029  27.577  1.00  0.00     0.060 A 
BRANCH  73  74
ATOM     74  S   UNL A   1      40.613  24.825  26.233  1.00  0.00     0.124 S 
ATOM     75  O   UNL A   1      39.221  24.389  26.177  1.00  0.00    -0.237 OA
ATOM     76  O   UNL A   1      41.069  25.633  25.107  1.00  0.00    -0.237 OA
ATOM     77  O   UNL A   1      41.564  23.824  26.708  1.00  0.00    -0.744 OA
ENDBRANCH  73  74
ENDBRANCH  52  66
BRANCH  53  78
ATOM     78  C   UNL A   1      39.650  34.366  37.240  1.00  0.00     0.058 A 
ATOM     79  C   UNL A   1      39.000  34.003  38.429  1.00  0.00     0.135 A 
ATOM     80  C   UNL A   1      40.194  35.657  37.163  1.00  0.00     0.135 A 
ATOM     81  F   UNL A   1      38.454  32.783  38.549  1.00  0.00    -0.206 F 
ATOM     82  C   UNL A   1      38.884  34.888  39.497  1.00  0.00     0.059 A 
ATOM     83  C   UNL A   1      40.116  36.550  38.227  1.00  0.00     0.059 A 
ATOM     84  F   UNL A   1      40.839  36.051  36.053  1.00  0.00    -0.206 F 
ATOM     85  C   UNL A   1      39.452  36.158  39.389  1.00  0.00     0.060 A 
BRANCH  85  86
ATOM     86  S   UNL A   1      39.349  37.275  40.804  1.00  0.00     0.124 S 
ATOM     87  O   UNL A   1      38.732  36.418  41.810  1.00  0.00    -0.237 OA
ATOM     88  O   UNL A   1      40.752  37.614  41.026  1.00  0.00    -0.237 OA
ATOM     89  O   UNL A   1      38.519  38.368  40.309  1.00  0.00    -0.744 OA
ENDBRANCH  85  86
ENDBRANCH  53  78
BRANCH  65  90
ATOM     90  C   UNL A   1      43.957  29.031  35.923  1.00  0.00     0.058 A 
ATOM     91  C   UNL A   1      43.808  27.923  36.773  1.00  0.00     0.135 A 
ATOM     92  C   UNL A   1      45.250  29.553  35.753  1.00  0.00     0.135 A 
ATOM     93  F   UNL A   1      42.595  27.387  36.979  1.00  0.00    -0.206 F 
ATOM     94  C   UNL A   1      44.895  27.370  37.445  1.00  0.00     0.059 A 
ATOM     95  C   UNL A   1      46.355  28.997  36.389  1.00  0.00     0.059 A 
ATOM     96  F   UNL A   1      45.453  30.606  34.944  1.00  0.00    -0.206 F 
ATOM     97  C   UNL A   1      46.165  27.912  37.243  1.00  0.00     0.060 A 
BRANCH  97  98
ATOM     98  S   UNL A   1      47.570  27.163  38.094  1.00  0.00     0.124 S 
ATOM     99  O   UNL A   1      48.527  27.009  37.004  1.00  0.00    -0.237 OA
ATOM    100  O   UNL A   1      47.903  28.173  39.094  1.00  0.00    -0.237 OA
ATOM    101  O   UNL A   1      47.021  25.920  38.628  1.00  0.00    -0.744 OA
ENDBRANCH  97  98
ENDBRANCH  65  90
ENDBRANCH  39  40
ENDBRANCH  31  34
ENDBRANCH  29  30
ENDBRANCH  28  29
ENDBRANCH   1  28
TORSDOF 19
ENDMDL
