MODEL 1
REMARK VINA RESULT:     -11.2      0.000      0.000
REMARK SMILES Cc1cc(C[NH+]2C[C@@H](C)[C@H](C)C2)oc1C(=O)NCCCCCCNC(=O)c1ccc(-c2c3nc(c(-c4c(F)cc(S(=O)(=O)[O-])cc4F)c4ccc([nH]4)c(-c4c(F)cc(S(=O)(=O)[O-])cc4F)c4nc(c(-c5c(F)cc(S(=O)(=O)[O-])cc5F)c5ccc2[nH]5)C=C4)C=C3)cc1
REMARK SMILES IDX 21 1 20 2 19 3 18 4 17 5 15 6 16 7 14 9 1 10 2 11 3 12 4 13
REMARK SMILES IDX 13 14 5 15 6 16 7 17 12 18 8 20 10 21 9 22 11 23 22 24 23 25
REMARK SMILES IDX 24 26 25 27 26 29 27 30 28 31 92 32 29 33 91 34 30 35 31 36
REMARK SMILES IDX 32 37 85 38 33 39 90 40 84 41 86 42 34 43 89 44 83 45 82 46
REMARK SMILES IDX 35 48 69 49 48 50 68 51 49 52 52 53 67 54 87 55 50 56 51 57
REMARK SMILES IDX 66 59 88 60 53 61 36 62 37 63 46 64 38 65 39 66 45 67 47 68
REMARK SMILES IDX 40 69 41 70 42 71 43 72 44 73 70 74 71 75 80 76 72 77 73 78
REMARK SMILES IDX 79 79 81 80 74 81 75 82 76 83 77 84 78 85 54 86 55 87 64 88
REMARK SMILES IDX 56 89 57 90 63 91 65 92 58 93 59 94 60 95 61 96 62 97
REMARK H PARENT 17 8 6 19 24 28 86 47 52 58
REMARK Flexibility Score: inf
ROOT
ATOM      1  C   UNL A   1      33.569  26.667  25.127  1.00  0.00     0.002 C 
ENDROOT
BRANCH   1   2
ATOM      2  C   UNL A   1      32.129  26.195  25.359  1.00  0.00     0.002 C 
BRANCH   2   3
ATOM      3  C   UNL A   1      31.215  26.108  24.133  1.00  0.00     0.021 C 
BRANCH   3   4
ATOM      4  C   UNL A   1      30.980  24.717  23.557  1.00  0.00     0.116 C 
BRANCH   4   5
ATOM      5  N   UNL A   1      31.779  24.416  22.398  1.00  0.00    -0.349 N 
ATOM      6  C   UNL A   1      32.926  23.656  22.301  1.00  0.00     0.287 C 
ATOM      7  O   UNL A   1      33.464  23.655  21.191  1.00  0.00    -0.266 OA
ATOM      8  H   UNL A   1      31.462  24.808  21.552  1.00  0.00     0.163 HD
BRANCH   6   9
ATOM      9  C   UNL A   1      33.483  22.938  23.442  1.00  0.00     0.194 A 
ATOM     10  C   UNL A   1      35.778  23.949  24.215  1.00  0.00     0.049 C 
ATOM     11  C   UNL A   1      34.617  23.027  24.253  1.00  0.00     0.001 A 
ATOM     12  C   UNL A   1      34.472  22.021  25.253  1.00  0.00     0.056 A 
ATOM     13  C   UNL A   1      33.312  21.341  24.984  1.00  0.00     0.159 A 
ATOM     14  O   UNL A   1      32.694  21.909  23.914  1.00  0.00    -0.450 OA
BRANCH  13  15
ATOM     15  C   UNL A   1      32.649  20.158  25.608  1.00  0.00     0.338 C 
BRANCH  15  16
ATOM     16  N   UNL A   1      33.364  18.888  25.441  1.00  0.00    -0.328 N 
ATOM     17  C   UNL A   1      32.676  17.730  26.011  1.00  0.00     0.266 C 
ATOM     18  C   UNL A   1      33.788  18.568  24.074  1.00  0.00     0.266 C 
ATOM     19  H   UNL A   1      34.210  19.072  25.982  1.00  0.00     0.348 HD
ATOM     20  C   UNL A   1      33.321  16.553  25.286  1.00  0.00     0.049 C 
ATOM     21  C   UNL A   1      33.429  17.095  23.860  1.00  0.00     0.049 C 
ATOM     22  C   UNL A   1      32.497  15.279  25.400  1.00  0.00     0.014 C 
ATOM     23  C   UNL A   1      34.434  16.364  22.984  1.00  0.00     0.014 C 
ENDBRANCH  15  16
ENDBRANCH  13  15
ENDBRANCH   6   9
ENDBRANCH   4   5
ENDBRANCH   3   4
ENDBRANCH   2   3
ENDBRANCH   1   2
BRANCH   1  24
ATOM     24  C   UNL A   1      33.970  28.012  25.739  1.00  0.00     0.021 C 
BRANCH  24  25
ATOM     25  C   UNL A   1      33.502  28.281  27.165  1.00  0.00     0.116 C 
BRANCH  25  26
ATOM     26  N   UNL A   1      33.390  29.694  27.474  1.00  0.00    -0.352 N 
ATOM     27  C   UNL A   1      34.315  30.548  28.021  1.00  0.00     0.251 C 
ATOM     28  H   UNL A   1      32.520  30.101  27.259  1.00  0.00     0.163 HD
ATOM     29  O   UNL A   1      33.981  31.696  28.309  1.00  0.00    -0.269 OA
BRANCH  27  30
ATOM     30  C   UNL A   1      35.698  30.092  28.295  1.00  0.00     0.039 A 
ATOM     31  C   UNL A   1      36.630  30.124  27.252  1.00  0.00     0.014 A 
ATOM     32  C   UNL A   1      36.079  29.617  29.552  1.00  0.00     0.014 A 
ATOM     33  C   UNL A   1      37.954  29.741  27.487  1.00  0.00     0.010 A 
ATOM     34  C   UNL A   1      37.414  29.298  29.803  1.00  0.00     0.010 A 
ATOM     35  C   UNL A   1      38.366  29.357  28.773  1.00  0.00    -0.014 A 
BRANCH  35  36
ATOM     36  C   UNL A   1      39.787  29.021  29.058  1.00  0.00     0.031 A 
ATOM     37  C   UNL A   1      40.709  30.057  29.643  1.00  0.00     0.074 A 
ATOM     38  C   UNL A   1      40.263  27.802  28.734  1.00  0.00     0.049 A 
ATOM     39  N   UNL A   1      41.992  29.975  29.891  1.00  0.00    -0.248 NA
ATOM     40  C   UNL A   1      40.118  31.364  29.970  1.00  0.00     0.031 C 
ATOM     41  C   UNL A   1      39.481  26.724  28.122  1.00  0.00     0.029 A 
ATOM     42  N   UNL A   1      41.520  27.265  28.862  1.00  0.00    -0.354 N 
ATOM     43  C   UNL A   1      42.363  31.220  30.387  1.00  0.00     0.074 A 
ATOM     44  C   UNL A   1      41.181  32.053  30.362  1.00  0.00     0.031 C 
ATOM     45  C   UNL A   1      40.270  25.654  27.943  1.00  0.00     0.029 A 
ATOM     46  C   UNL A   1      41.621  25.976  28.392  1.00  0.00     0.049 A 
ATOM     47  H   UNL A   1      42.277  27.757  29.253  1.00  0.00     0.167 HD
ATOM     48  C   UNL A   1      43.574  31.624  30.841  1.00  0.00     0.037 A 
ATOM     49  C   UNL A   1      42.684  25.151  28.320  1.00  0.00     0.037 A 
ATOM     50  C   UNL A   1      44.742  30.781  30.892  1.00  0.00     0.049 A 
ATOM     51  C   UNL A   1      44.017  25.621  28.835  1.00  0.00     0.074 A 
ATOM     52  C   UNL A   1      45.998  31.082  31.387  1.00  0.00     0.029 A 
ATOM     53  N   UNL A   1      44.797  29.474  30.431  1.00  0.00    -0.354 N 
ATOM     54  N   UNL A   1      44.336  26.783  29.354  1.00  0.00    -0.248 NA
ATOM     55  C   UNL A   1      45.134  24.669  28.763  1.00  0.00     0.031 C 
ATOM     56  C   UNL A   1      46.825  29.970  31.190  1.00  0.00     0.029 A 
ATOM     57  C   UNL A   1      46.071  28.961  30.616  1.00  0.00     0.049 A 
ATOM     58  H   UNL A   1      44.042  28.984  30.032  1.00  0.00     0.167 HD
ATOM     59  C   UNL A   1      45.681  26.691  29.696  1.00  0.00     0.074 A 
ATOM     60  C   UNL A   1      46.113  25.357  29.334  1.00  0.00     0.031 C 
ATOM     61  C   UNL A   1      46.484  27.627  30.260  1.00  0.00     0.037 A 
BRANCH  48  62
ATOM     62  C   UNL A   1      43.701  33.041  31.330  1.00  0.00     0.058 A 
ATOM     63  C   UNL A   1      43.480  33.380  32.675  1.00  0.00     0.135 A 
ATOM     64  C   UNL A   1      44.090  34.067  30.453  1.00  0.00     0.135 A 
ATOM     65  F   UNL A   1      43.092  32.441  33.553  1.00  0.00    -0.206 F 
ATOM     66  C   UNL A   1      43.614  34.688  33.127  1.00  0.00     0.059 A 
ATOM     67  C   UNL A   1      44.257  35.379  30.890  1.00  0.00     0.059 A 
ATOM     68  F   UNL A   1      44.314  33.800  29.157  1.00  0.00    -0.206 F 
ATOM     69  C   UNL A   1      44.003  35.681  32.227  1.00  0.00     0.060 A 
BRANCH  69  70
ATOM     70  S   UNL A   1      44.182  37.373  32.833  1.00  0.00     0.124 S 
ATOM     71  O   UNL A   1      43.076  37.458  33.782  1.00  0.00    -0.237 OA
ATOM     72  O   UNL A   1      45.518  37.356  33.418  1.00  0.00    -0.237 OA
ATOM     73  O   UNL A   1      44.037  38.182  31.628  1.00  0.00    -0.744 OA
ENDBRANCH  69  70
ENDBRANCH  48  62
BRANCH  49  74
ATOM     74  C   UNL A   1      42.527  23.783  27.755  1.00  0.00     0.058 A 
ATOM     75  C   UNL A   1      42.383  22.668  28.591  1.00  0.00     0.135 A 
ATOM     76  C   UNL A   1      42.509  23.566  26.368  1.00  0.00     0.135 A 
ATOM     77  F   UNL A   1      42.400  22.823  29.924  1.00  0.00    -0.206 F 
ATOM     78  C   UNL A   1      42.248  21.383  28.077  1.00  0.00     0.059 A 
ATOM     79  C   UNL A   1      42.349  22.295  25.828  1.00  0.00     0.059 A 
ATOM     80  F   UNL A   1      42.625  24.603  25.523  1.00  0.00    -0.206 F 
ATOM     81  C   UNL A   1      42.230  21.207  26.693  1.00  0.00     0.060 A 
BRANCH  81  82
ATOM     82  S   UNL A   1      42.009  19.540  26.032  1.00  0.00     0.124 S 
ATOM     83  O   UNL A   1      42.407  18.719  27.170  1.00  0.00    -0.237 OA
ATOM     84  O   UNL A   1      40.588  19.526  25.700  1.00  0.00    -0.237 OA
ATOM     85  O   UNL A   1      42.912  19.513  24.886  1.00  0.00    -0.744 OA
ENDBRANCH  81  82
ENDBRANCH  49  74
BRANCH  61  86
ATOM     86  C   UNL A   1      47.904  27.232  30.557  1.00  0.00     0.058 A 
ATOM     87  C   UNL A   1      48.912  27.311  29.585  1.00  0.00     0.135 A 
ATOM     88  C   UNL A   1      48.269  26.822  31.850  1.00  0.00     0.135 A 
ATOM     89  F   UNL A   1      48.614  27.691  28.332  1.00  0.00    -0.206 F 
ATOM     90  C   UNL A   1      50.230  26.978  29.878  1.00  0.00     0.059 A 
ATOM     91  C   UNL A   1      49.586  26.509  32.172  1.00  0.00     0.059 A 
ATOM     92  F   UNL A   1      47.344  26.738  32.821  1.00  0.00    -0.206 F 
ATOM     93  C   UNL A   1      50.558  26.579  31.175  1.00  0.00     0.060 A 
BRANCH  93  94
ATOM     94  S   UNL A   1      52.279  26.185  31.552  1.00  0.00     0.124 S 
ATOM     95  O   UNL A   1      52.941  26.538  30.300  1.00  0.00    -0.237 OA
ATOM     96  O   UNL A   1      52.559  27.060  32.686  1.00  0.00    -0.237 OA
ATOM     97  O   UNL A   1      52.242  24.760  31.864  1.00  0.00    -0.744 OA
ENDBRANCH  93  94
ENDBRANCH  61  86
ENDBRANCH  35  36
ENDBRANCH  27  30
ENDBRANCH  25  26
ENDBRANCH  24  25
ENDBRANCH   1  24
TORSDOF 18
ENDMDL
MODEL 2
REMARK VINA RESULT:     -10.8      1.179      2.319
REMARK SMILES Cc1cc(C[NH+]2C[C@@H](C)[C@H](C)C2)oc1C(=O)NCCCCCCNC(=O)c1ccc(-c2c3nc(c(-c4c(F)cc(S(=O)(=O)[O-])cc4F)c4ccc([nH]4)c(-c4c(F)cc(S(=O)(=O)[O-])cc4F)c4nc(c(-c5c(F)cc(S(=O)(=O)[O-])cc5F)c5ccc2[nH]5)C=C4)C=C3)cc1
REMARK SMILES IDX 21 1 20 2 19 3 18 4 17 5 15 6 16 7 14 9 1 10 2 11 3 12 4 13
REMARK SMILES IDX 13 14 5 15 6 16 7 17 12 18 8 20 10 21 9 22 11 23 22 24 23 25
REMARK SMILES IDX 24 26 25 27 26 29 27 30 28 31 92 32 29 33 91 34 30 35 31 36
REMARK SMILES IDX 32 37 85 38 33 39 90 40 84 41 86 42 34 43 89 44 83 45 82 46
REMARK SMILES IDX 35 48 69 49 48 50 68 51 49 52 52 53 67 54 87 55 50 56 51 57
REMARK SMILES IDX 66 59 88 60 53 61 36 62 37 63 46 64 38 65 39 66 45 67 47 68
REMARK SMILES IDX 40 69 41 70 42 71 43 72 44 73 70 74 71 75 80 76 72 77 73 78
REMARK SMILES IDX 79 79 81 80 74 81 75 82 76 83 77 84 78 85 54 86 55 87 64 88
REMARK SMILES IDX 56 89 57 90 63 91 65 92 58 93 59 94 60 95 61 96 62 97
REMARK H PARENT 17 8 6 19 24 28 86 47 52 58
REMARK Flexibility Score: inf
ROOT
ATOM      1  C   UNL A   1      33.706  26.406  25.523  1.00  0.00     0.002 C 
ENDROOT
BRANCH   1   2
ATOM      2  C   UNL A   1      32.814  25.307  26.110  1.00  0.00     0.002 C 
BRANCH   2   3
ATOM      3  C   UNL A   1      31.421  25.720  26.596  1.00  0.00     0.021 C 
BRANCH   3   4
ATOM      4  C   UNL A   1      30.247  24.900  26.075  1.00  0.00     0.116 C 
BRANCH   4   5
ATOM      5  N   UNL A   1      29.305  25.653  25.286  1.00  0.00    -0.349 N 
ATOM      6  C   UNL A   1      29.465  26.218  24.039  1.00  0.00     0.287 C 
ATOM      7  O   UNL A   1      28.517  26.902  23.646  1.00  0.00    -0.266 OA
ATOM      8  H   UNL A   1      28.420  25.782  25.696  1.00  0.00     0.163 HD
BRANCH   6   9
ATOM      9  C   UNL A   1      30.686  26.050  23.258  1.00  0.00     0.194 A 
ATOM     10  C   UNL A   1      31.648  28.347  22.432  1.00  0.00     0.049 C 
ATOM     11  C   UNL A   1      31.605  26.874  22.605  1.00  0.00     0.001 A 
ATOM     12  C   UNL A   1      32.625  26.015  22.102  1.00  0.00     0.056 A 
ATOM     13  C   UNL A   1      32.266  24.729  22.413  1.00  0.00     0.159 A 
ATOM     14  O   UNL A   1      31.116  24.744  23.139  1.00  0.00    -0.450 OA
BRANCH  13  15
ATOM     15  C   UNL A   1      32.867  23.395  22.113  1.00  0.00     0.338 C 
BRANCH  15  16
ATOM     16  N   UNL A   1      32.368  22.292  22.941  1.00  0.00    -0.328 N 
ATOM     17  C   UNL A   1      32.144  21.044  22.210  1.00  0.00     0.266 C 
ATOM     18  C   UNL A   1      33.140  22.003  24.154  1.00  0.00     0.266 C 
ATOM     19  H   UNL A   1      31.468  22.668  23.240  1.00  0.00     0.348 HD
ATOM     20  C   UNL A   1      32.141  19.992  23.315  1.00  0.00     0.049 C 
ATOM     21  C   UNL A   1      33.286  20.479  24.203  1.00  0.00     0.049 C 
ATOM     22  C   UNL A   1      32.338  18.583  22.774  1.00  0.00     0.014 C 
ATOM     23  C   UNL A   1      33.260  19.930  25.621  1.00  0.00     0.014 C 
ENDBRANCH  15  16
ENDBRANCH  13  15
ENDBRANCH   6   9
ENDBRANCH   4   5
ENDBRANCH   3   4
ENDBRANCH   2   3
ENDBRANCH   1   2
BRANCH   1  24
ATOM     24  C   UNL A   1      33.354  27.853  25.875  1.00  0.00     0.021 C 
BRANCH  24  25
ATOM     25  C   UNL A   1      33.522  28.262  27.334  1.00  0.00     0.116 C 
BRANCH  25  26
ATOM     26  N   UNL A   1      33.423  29.694  27.543  1.00  0.00    -0.352 N 
ATOM     27  C   UNL A   1      34.363  30.580  28.010  1.00  0.00     0.251 C 
ATOM     28  H   UNL A   1      32.551  30.090  27.317  1.00  0.00     0.163 HD
ATOM     29  O   UNL A   1      34.041  31.747  28.221  1.00  0.00    -0.269 OA
BRANCH  27  30
ATOM     30  C   UNL A   1      35.749  30.136  28.289  1.00  0.00     0.039 A 
ATOM     31  C   UNL A   1      36.678  30.152  27.244  1.00  0.00     0.014 A 
ATOM     32  C   UNL A   1      36.135  29.686  29.554  1.00  0.00     0.014 A 
ATOM     33  C   UNL A   1      38.005  29.780  27.483  1.00  0.00     0.010 A 
ATOM     34  C   UNL A   1      37.472  29.379  29.808  1.00  0.00     0.010 A 
ATOM     35  C   UNL A   1      38.422  29.422  28.775  1.00  0.00    -0.014 A 
BRANCH  35  36
ATOM     36  C   UNL A   1      39.844  29.100  29.063  1.00  0.00     0.031 A 
ATOM     37  C   UNL A   1      40.757  30.143  29.649  1.00  0.00     0.074 A 
ATOM     38  C   UNL A   1      40.332  27.884  28.739  1.00  0.00     0.049 A 
ATOM     39  N   UNL A   1      42.039  30.073  29.900  1.00  0.00    -0.248 NA
ATOM     40  C   UNL A   1      40.153  31.445  29.976  1.00  0.00     0.031 C 
ATOM     41  C   UNL A   1      39.560  26.800  28.125  1.00  0.00     0.029 A 
ATOM     42  N   UNL A   1      41.593  27.358  28.870  1.00  0.00    -0.354 N 
ATOM     43  C   UNL A   1      42.399  31.320  30.397  1.00  0.00     0.074 A 
ATOM     44  C   UNL A   1      41.209  32.143  30.370  1.00  0.00     0.031 C 
ATOM     45  C   UNL A   1      40.360  25.736  27.949  1.00  0.00     0.029 A 
ATOM     46  C   UNL A   1      41.706  26.070  28.400  1.00  0.00     0.049 A 
ATOM     47  H   UNL A   1      42.345  27.857  29.263  1.00  0.00     0.167 HD
ATOM     48  C   UNL A   1      43.605  31.735  30.854  1.00  0.00     0.037 A 
ATOM     49  C   UNL A   1      42.777  25.254  28.331  1.00  0.00     0.037 A 
ATOM     50  C   UNL A   1      44.780  30.903  30.907  1.00  0.00     0.049 A 
ATOM     51  C   UNL A   1      44.105  25.736  28.849  1.00  0.00     0.074 A 
ATOM     52  C   UNL A   1      46.032  31.214  31.405  1.00  0.00     0.029 A 
ATOM     53  N   UNL A   1      44.848  29.596  30.446  1.00  0.00    -0.354 N 
ATOM     54  N   UNL A   1      44.412  26.901  29.368  1.00  0.00    -0.248 NA
ATOM     55  C   UNL A   1      45.230  24.794  28.779  1.00  0.00     0.031 C 
ATOM     56  C   UNL A   1      46.869  30.110  31.210  1.00  0.00     0.029 A 
ATOM     57  C   UNL A   1      46.125  29.094  30.633  1.00  0.00     0.049 A 
ATOM     58  H   UNL A   1      44.098  29.099  30.045  1.00  0.00     0.167 HD
ATOM     59  C   UNL A   1      45.757  26.821  29.713  1.00  0.00     0.074 A 
ATOM     60  C   UNL A   1      46.202  25.491  29.352  1.00  0.00     0.031 C 
ATOM     61  C   UNL A   1      46.551  27.763  30.278  1.00  0.00     0.037 A 
BRANCH  48  62
ATOM     62  C   UNL A   1      43.718  33.153  31.342  1.00  0.00     0.058 A 
ATOM     63  C   UNL A   1      43.445  33.497  32.676  1.00  0.00     0.135 A 
ATOM     64  C   UNL A   1      44.147  34.175  30.479  1.00  0.00     0.135 A 
ATOM     65  F   UNL A   1      43.018  32.563  33.542  1.00  0.00    -0.206 F 
ATOM     66  C   UNL A   1      43.567  34.807  33.130  1.00  0.00     0.059 A 
ATOM     67  C   UNL A   1      44.302  35.487  30.919  1.00  0.00     0.059 A 
ATOM     68  F   UNL A   1      44.422  33.903  29.193  1.00  0.00    -0.206 F 
ATOM     69  C   UNL A   1      43.996  35.795  32.243  1.00  0.00     0.060 A 
BRANCH  69  70
ATOM     70  S   UNL A   1      44.158  37.488  32.850  1.00  0.00     0.124 S 
ATOM     71  O   UNL A   1      45.575  37.537  33.196  1.00  0.00    -0.237 OA
ATOM     72  O   UNL A   1      43.762  38.276  31.688  1.00  0.00    -0.237 OA
ATOM     73  O   UNL A   1      43.235  37.533  33.979  1.00  0.00    -0.744 OA
ENDBRANCH  69  70
ENDBRANCH  48  62
BRANCH  49  74
ATOM     74  C   UNL A   1      42.633  23.886  27.765  1.00  0.00     0.058 A 
ATOM     75  C   UNL A   1      42.482  22.771  28.601  1.00  0.00     0.135 A 
ATOM     76  C   UNL A   1      42.636  23.667  26.378  1.00  0.00     0.135 A 
ATOM     77  F   UNL A   1      42.479  22.928  29.934  1.00  0.00    -0.206 F 
ATOM     78  C   UNL A   1      42.358  21.484  28.086  1.00  0.00     0.059 A 
ATOM     79  C   UNL A   1      42.488  22.394  25.838  1.00  0.00     0.059 A 
ATOM     80  F   UNL A   1      42.759  24.703  25.534  1.00  0.00    -0.206 F 
ATOM     81  C   UNL A   1      42.361  21.306  26.702  1.00  0.00     0.060 A 
BRANCH  81  82
ATOM     82  S   UNL A   1      42.156  19.638  26.041  1.00  0.00     0.124 S 
ATOM     83  O   UNL A   1      42.533  18.820  27.188  1.00  0.00    -0.237 OA
ATOM     84  O   UNL A   1      40.741  19.621  25.682  1.00  0.00    -0.237 OA
ATOM     85  O   UNL A   1      43.080  19.611  24.912  1.00  0.00    -0.744 OA
ENDBRANCH  81  82
ENDBRANCH  49  74
BRANCH  61  86
ATOM     86  C   UNL A   1      47.974  27.381  30.579  1.00  0.00     0.058 A 
ATOM     87  C   UNL A   1      48.318  26.670  31.739  1.00  0.00     0.135 A 
ATOM     88  C   UNL A   1      48.997  27.683  29.665  1.00  0.00     0.135 A 
ATOM     89  F   UNL A   1      47.378  26.363  32.647  1.00  0.00    -0.206 F 
ATOM     90  C   UNL A   1      49.631  26.289  31.993  1.00  0.00     0.059 A 
ATOM     91  C   UNL A   1      50.313  27.289  29.887  1.00  0.00     0.059 A 
ATOM     92  F   UNL A   1      48.720  28.353  28.535  1.00  0.00    -0.206 F 
ATOM     93  C   UNL A   1      50.622  26.602  31.060  1.00  0.00     0.060 A 
BRANCH  93  94
ATOM     94  S   UNL A   1      52.317  26.069  31.383  1.00  0.00     0.124 S 
ATOM     95  O   UNL A   1      52.099  24.776  32.025  1.00  0.00    -0.237 OA
ATOM     96  O   UNL A   1      52.891  26.023  30.043  1.00  0.00    -0.237 OA
ATOM     97  O   UNL A   1      52.844  27.119  32.249  1.00  0.00    -0.744 OA
ENDBRANCH  93  94
ENDBRANCH  61  86
ENDBRANCH  35  36
ENDBRANCH  27  30
ENDBRANCH  25  26
ENDBRANCH  24  25
ENDBRANCH   1  24
TORSDOF 18
ENDMDL
MODEL 3
REMARK VINA RESULT:     -10.8      4.832     10.668
REMARK SMILES Cc1cc(C[NH+]2C[C@@H](C)[C@H](C)C2)oc1C(=O)NCCCCCCNC(=O)c1ccc(-c2c3nc(c(-c4c(F)cc(S(=O)(=O)[O-])cc4F)c4ccc([nH]4)c(-c4c(F)cc(S(=O)(=O)[O-])cc4F)c4nc(c(-c5c(F)cc(S(=O)(=O)[O-])cc5F)c5ccc2[nH]5)C=C4)C=C3)cc1
REMARK SMILES IDX 21 1 20 2 19 3 18 4 17 5 15 6 16 7 14 9 1 10 2 11 3 12 4 13
REMARK SMILES IDX 13 14 5 15 6 16 7 17 12 18 8 20 10 21 9 22 11 23 22 24 23 25
REMARK SMILES IDX 24 26 25 27 26 29 27 30 28 31 92 32 29 33 91 34 30 35 31 36
REMARK SMILES IDX 32 37 85 38 33 39 90 40 84 41 86 42 34 43 89 44 83 45 82 46
REMARK SMILES IDX 35 48 69 49 48 50 68 51 49 52 52 53 67 54 87 55 50 56 51 57
REMARK SMILES IDX 66 59 88 60 53 61 36 62 37 63 46 64 38 65 39 66 45 67 47 68
REMARK SMILES IDX 40 69 41 70 42 71 43 72 44 73 70 74 71 75 80 76 72 77 73 78
REMARK SMILES IDX 79 79 81 80 74 81 75 82 76 83 77 84 78 85 54 86 55 87 64 88
REMARK SMILES IDX 56 89 57 90 63 91 65 92 58 93 59 94 60 95 61 96 62 97
REMARK H PARENT 17 8 6 19 24 28 86 47 52 58
REMARK Flexibility Score: inf
ROOT
ATOM      1  C   UNL A   1      36.584  23.364  24.847  1.00  0.00     0.002 C 
ENDROOT
BRANCH   1   2
ATOM      2  C   UNL A   1      35.109  23.510  25.237  1.00  0.00     0.002 C 
BRANCH   2   3
ATOM      3  C   UNL A   1      34.686  22.951  26.599  1.00  0.00     0.021 C 
BRANCH   3   4
ATOM      4  C   UNL A   1      33.648  21.834  26.584  1.00  0.00     0.116 C 
BRANCH   4   5
ATOM      5  N   UNL A   1      32.370  22.209  27.132  1.00  0.00    -0.349 N 
ATOM      6  C   UNL A   1      31.429  23.086  26.634  1.00  0.00     0.287 C 
ATOM      7  O   UNL A   1      30.464  23.296  27.373  1.00  0.00    -0.266 OA
ATOM      8  H   UNL A   1      32.134  21.777  27.984  1.00  0.00     0.163 HD
BRANCH   6   9
ATOM      9  C   UNL A   1      31.586  23.746  25.342  1.00  0.00     0.194 A 
ATOM     10  C   UNL A   1      31.767  22.021  23.373  1.00  0.00     0.049 C 
ATOM     11  C   UNL A   1      31.712  23.362  24.006  1.00  0.00     0.001 A 
ATOM     12  C   UNL A   1      31.748  24.567  23.246  1.00  0.00     0.056 A 
ATOM     13  C   UNL A   1      31.700  25.611  24.133  1.00  0.00     0.159 A 
ATOM     14  O   UNL A   1      31.569  25.125  25.396  1.00  0.00    -0.450 OA
BRANCH  13  15
ATOM     15  C   UNL A   1      31.770  27.094  23.976  1.00  0.00     0.338 C 
BRANCH  15  16
ATOM     16  N   UNL A   1      31.876  27.845  25.232  1.00  0.00    -0.328 N 
ATOM     17  C   UNL A   1      33.203  27.803  25.848  1.00  0.00     0.266 C 
ATOM     18  C   UNL A   1      31.413  29.235  25.188  1.00  0.00     0.266 C 
ATOM     19  H   UNL A   1      31.221  27.329  25.820  1.00  0.00     0.348 HD
ATOM     20  C   UNL A   1      33.188  29.009  26.783  1.00  0.00     0.049 C 
ATOM     21  C   UNL A   1      32.479  30.054  25.922  1.00  0.00     0.049 C 
ATOM     22  C   UNL A   1      34.586  29.418  27.223  1.00  0.00     0.014 C 
ATOM     23  C   UNL A   1      31.893  31.220  26.702  1.00  0.00     0.014 C 
ENDBRANCH  15  16
ENDBRANCH  13  15
ENDBRANCH   6   9
ENDBRANCH   4   5
ENDBRANCH   3   4
ENDBRANCH   2   3
ENDBRANCH   1   2
BRANCH   1  24
ATOM     24  C   UNL A   1      37.579  23.079  25.974  1.00  0.00     0.021 C 
BRANCH  24  25
ATOM     25  C   UNL A   1      38.494  24.228  26.384  1.00  0.00     0.116 C 
BRANCH  25  26
ATOM     26  N   UNL A   1      39.899  23.953  26.151  1.00  0.00    -0.352 N 
ATOM     27  C   UNL A   1      41.012  24.590  26.642  1.00  0.00     0.251 C 
ATOM     28  H   UNL A   1      40.083  23.195  25.549  1.00  0.00     0.163 HD
ATOM     29  O   UNL A   1      42.124  24.268  26.229  1.00  0.00    -0.269 OA
BRANCH  27  30
ATOM     30  C   UNL A   1      40.883  25.679  27.639  1.00  0.00     0.039 A 
ATOM     31  C   UNL A   1      39.767  25.681  28.483  1.00  0.00     0.014 A 
ATOM     32  C   UNL A   1      41.829  26.701  27.736  1.00  0.00     0.014 A 
ATOM     33  C   UNL A   1      39.636  26.669  29.463  1.00  0.00     0.010 A 
ATOM     34  C   UNL A   1      41.732  27.648  28.756  1.00  0.00     0.010 A 
ATOM     35  C   UNL A   1      40.634  27.643  29.631  1.00  0.00    -0.014 A 
BRANCH  35  36
ATOM     36  C   UNL A   1      40.548  28.654  30.718  1.00  0.00     0.031 A 
ATOM     37  C   UNL A   1      41.426  28.537  31.935  1.00  0.00     0.074 A 
ATOM     38  C   UNL A   1      39.636  29.644  30.639  1.00  0.00     0.049 A 
ATOM     39  N   UNL A   1      41.444  29.276  33.015  1.00  0.00    -0.248 NA
ATOM     40  C   UNL A   1      42.397  27.431  31.951  1.00  0.00     0.031 C 
ATOM     41  C   UNL A   1      38.696  29.841  29.531  1.00  0.00     0.029 A 
ATOM     42  N   UNL A   1      39.339  30.664  31.508  1.00  0.00    -0.354 N 
ATOM     43  C   UNL A   1      42.411  28.718  33.843  1.00  0.00     0.074 A 
ATOM     44  C   UNL A   1      42.927  27.551  33.160  1.00  0.00     0.031 C 
ATOM     45  C   UNL A   1      37.942  30.922  29.781  1.00  0.00     0.029 A 
ATOM     46  C   UNL A   1      38.314  31.475  31.079  1.00  0.00     0.049 A 
ATOM     47  H   UNL A   1      39.815  30.802  32.358  1.00  0.00     0.167 HD
ATOM     48  C   UNL A   1      42.845  29.150  35.051  1.00  0.00     0.037 A 
ATOM     49  C   UNL A   1      37.733  32.539  31.670  1.00  0.00     0.037 A 
ATOM     50  C   UNL A   1      42.349  30.329  35.715  1.00  0.00     0.049 A 
ATOM     51  C   UNL A   1      38.235  33.002  33.010  1.00  0.00     0.074 A 
ATOM     52  C   UNL A   1      42.764  30.880  36.913  1.00  0.00     0.029 A 
ATOM     53  N   UNL A   1      41.329  31.139  35.236  1.00  0.00    -0.354 N 
ATOM     54  N   UNL A   1      39.191  32.494  33.752  1.00  0.00    -0.248 NA
ATOM     55  C   UNL A   1      37.587  34.185  33.592  1.00  0.00     0.031 C 
ATOM     56  C   UNL A   1      41.970  32.000  37.180  1.00  0.00     0.029 A 
ATOM     57  C   UNL A   1      41.091  32.175  36.124  1.00  0.00     0.049 A 
ATOM     58  H   UNL A   1      40.847  30.997  34.389  1.00  0.00     0.167 HD
ATOM     59  C   UNL A   1      39.278  33.312  34.873  1.00  0.00     0.074 A 
ATOM     60  C   UNL A   1      38.284  34.353  34.707  1.00  0.00     0.031 C 
ATOM     61  C   UNL A   1      40.106  33.211  35.941  1.00  0.00     0.037 A 
BRANCH  48  62
ATOM     62  C   UNL A   1      43.917  28.348  35.738  1.00  0.00     0.058 A 
ATOM     63  C   UNL A   1      43.603  27.306  36.626  1.00  0.00     0.135 A 
ATOM     64  C   UNL A   1      45.274  28.593  35.473  1.00  0.00     0.135 A 
ATOM     65  F   UNL A   1      42.322  27.037  36.927  1.00  0.00    -0.206 F 
ATOM     66  C   UNL A   1      44.595  26.555  37.247  1.00  0.00     0.059 A 
ATOM     67  C   UNL A   1      46.283  27.836  36.062  1.00  0.00     0.059 A 
ATOM     68  F   UNL A   1      45.631  29.578  34.633  1.00  0.00    -0.206 F 
ATOM     69  C   UNL A   1      45.933  26.827  36.958  1.00  0.00     0.060 A 
BRANCH  69  70
ATOM     70  S   UNL A   1      47.209  25.837  37.766  1.00  0.00     0.124 S 
ATOM     71  O   UNL A   1      47.629  24.962  36.675  1.00  0.00    -0.237 OA
ATOM     72  O   UNL A   1      48.178  26.849  38.175  1.00  0.00    -0.237 OA
ATOM     73  O   UNL A   1      46.492  25.182  38.854  1.00  0.00    -0.744 OA
ENDBRANCH  69  70
ENDBRANCH  48  62
BRANCH  49  74
ATOM     74  C   UNL A   1      36.620  33.252  30.986  1.00  0.00     0.058 A 
ATOM     75  C   UNL A   1      35.286  33.035  31.359  1.00  0.00     0.135 A 
ATOM     76  C   UNL A   1      36.869  34.170  29.953  1.00  0.00     0.135 A 
ATOM     77  F   UNL A   1      34.997  32.163  32.338  1.00  0.00    -0.206 F 
ATOM     78  C   UNL A   1      34.235  33.686  30.722  1.00  0.00     0.059 A 
ATOM     79  C   UNL A   1      35.837  34.852  29.318  1.00  0.00     0.059 A 
ATOM     80  F   UNL A   1      38.129  34.427  29.571  1.00  0.00    -0.206 F 
ATOM     81  C   UNL A   1      34.522  34.595  29.702  1.00  0.00     0.060 A 
BRANCH  81  82
ATOM     82  S   UNL A   1      33.154  35.468  28.909  1.00  0.00     0.124 S 
ATOM     83  O   UNL A   1      32.453  36.023  30.061  1.00  0.00    -0.237 OA
ATOM     84  O   UNL A   1      33.853  36.430  28.062  1.00  0.00    -0.237 OA
ATOM     85  O   UNL A   1      32.453  34.408  28.192  1.00  0.00    -0.744 OA
ENDBRANCH  81  82
ENDBRANCH  49  74
BRANCH  61  86
ATOM     86  C   UNL A   1      40.004  34.273  37.000  1.00  0.00     0.058 A 
ATOM     87  C   UNL A   1      40.787  35.436  36.957  1.00  0.00     0.135 A 
ATOM     88  C   UNL A   1      39.069  34.149  38.041  1.00  0.00     0.135 A 
ATOM     89  F   UNL A   1      41.700  35.601  35.987  1.00  0.00    -0.206 F 
ATOM     90  C   UNL A   1      40.662  36.431  37.921  1.00  0.00     0.059 A 
ATOM     91  C   UNL A   1      38.908  35.143  39.001  1.00  0.00     0.059 A 
ATOM     92  F   UNL A   1      38.287  33.060  38.123  1.00  0.00    -0.206 F 
ATOM     93  C   UNL A   1      39.718  36.276  38.939  1.00  0.00     0.060 A 
BRANCH  93  94
ATOM     94  S   UNL A   1      39.539  37.592  40.163  1.00  0.00     0.124 S 
ATOM     95  O   UNL A   1      39.866  36.888  41.399  1.00  0.00    -0.237 OA
ATOM     96  O   UNL A   1      40.521  38.573  39.713  1.00  0.00    -0.237 OA
ATOM     97  O   UNL A   1      38.145  38.000  40.022  1.00  0.00    -0.744 OA
ENDBRANCH  93  94
ENDBRANCH  61  86
ENDBRANCH  35  36
ENDBRANCH  27  30
ENDBRANCH  25  26
ENDBRANCH  24  25
ENDBRANCH   1  24
TORSDOF 18
ENDMDL
