MODEL 1
REMARK VINA RESULT:     -12.4      0.000      0.000
REMARK SMILES CCc1ccc(C(=O)NCCCCCCNC(=O)c2ccc(-c3c4nc(c(-c5c(F)cc(S(=O)(=O)[O-])cc5F)c5ccc([nH]5)c(-c5c(F)cc(S(=O)(=O)[O-])cc5F)c5nc(c(-c6c(F)cc(S(=O)(=O)[O-])cc6F)c6ccc3[nH]6)C=C5)C=C4)cc2)cc1S(=O)(=O)Nc1ccc(F)c(F)c1F
REMARK SMILES IDX 12 1 11 2 10 3 9 4 7 5 8 6 6 8 3 9 4 10 86 11 5 12 85 13
REMARK SMILES IDX 2 14 1 15 87 16 88 17 89 18 90 19 91 21 92 22 98 23 93 24
REMARK SMILES IDX 96 25 99 26 94 27 97 28 95 29 13 30 14 31 15 32 16 33 17 34
REMARK SMILES IDX 18 36 19 37 20 38 84 39 21 40 83 41 22 42 23 43 24 44 77 45
REMARK SMILES IDX 25 46 82 47 76 48 78 49 26 50 81 51 75 52 74 53 27 55 61 56
REMARK SMILES IDX 40 57 60 58 41 59 44 60 59 61 79 62 42 63 43 64 58 66 80 67
REMARK SMILES IDX 45 68 28 69 29 70 38 71 30 72 31 73 37 74 39 75 32 76 33 77
REMARK SMILES IDX 34 78 35 79 36 80 62 81 63 82 72 83 64 84 65 85 71 86 73 87
REMARK SMILES IDX 66 88 67 89 68 90 69 91 70 92 46 93 47 94 56 95 48 96 49 97
REMARK SMILES IDX 55 98 57 99 50 100 51 101 52 102 53 103 54 104
REMARK H PARENT 9 7 90 20 16 35 78 54 44 65
REMARK Flexibility Score: inf
ROOT
ATOM      1  C   UNL A   1      35.718  23.125  25.464  1.00  0.00     0.002 C 
ENDROOT
BRANCH   1   2
ATOM      2  C   UNL A   1      35.410  21.712  25.986  1.00  0.00     0.021 C 
BRANCH   2   3
ATOM      3  C   UNL A   1      35.520  20.646  24.897  1.00  0.00     0.116 C 
BRANCH   3   4
ATOM      4  N   UNL A   1      34.514  19.626  25.142  1.00  0.00    -0.352 N 
ATOM      5  C   UNL A   1      33.156  19.685  25.288  1.00  0.00     0.251 C 
ATOM      6  O   UNL A   1      32.565  18.671  25.661  1.00  0.00    -0.269 OA
ATOM      7  H   UNL A   1      34.883  18.716  25.219  1.00  0.00     0.163 HD
BRANCH   5   8
ATOM      8  C   UNL A   1      32.368  20.866  24.863  1.00  0.00     0.041 A 
ATOM      9  C   UNL A   1      31.331  23.300  23.841  1.00  0.00    -0.028 A 
ATOM     10  C   UNL A   1      31.780  22.268  22.991  1.00  0.00     0.006 A 
ATOM     11  C   UNL A   1      31.257  23.017  25.225  1.00  0.00     0.091 A 
ATOM     12  C   UNL A   1      32.307  21.084  23.491  1.00  0.00     0.014 A 
ATOM     13  C   UNL A   1      31.753  21.781  25.713  1.00  0.00     0.036 A 
BRANCH   9  14
ATOM     14  C   UNL A   1      30.966  24.614  23.201  1.00  0.00     0.033 C 
ATOM     15  C   UNL A   1      32.057  25.418  22.496  1.00  0.00     0.009 C 
ENDBRANCH   9  14
BRANCH  11  16
ATOM     16  S   UNL A   1      30.720  24.091  26.567  1.00  0.00     0.262 S 
ATOM     17  O   UNL A   1      29.335  23.803  26.838  1.00  0.00    -0.201 OA
ATOM     18  O   UNL A   1      31.716  23.879  27.607  1.00  0.00    -0.201 OA
BRANCH  16  19
ATOM     19  N   UNL A   1      30.894  25.701  26.191  1.00  0.00    -0.277 N 
ATOM     20  H   UNL A   1      30.153  26.106  25.685  1.00  0.00     0.180 HD
BRANCH  19  21
ATOM     21  C   UNL A   1      31.978  26.569  26.507  1.00  0.00     0.088 A 
ATOM     22  C   UNL A   1      33.178  26.272  25.835  1.00  0.00     0.033 A 
ATOM     23  C   UNL A   1      31.894  27.756  27.245  1.00  0.00     0.185 A 
ATOM     24  C   UNL A   1      34.227  27.194  25.811  1.00  0.00     0.045 A 
ATOM     25  C   UNL A   1      32.951  28.662  27.237  1.00  0.00     0.196 A 
ATOM     26  F   UNL A   1      30.769  28.114  27.874  1.00  0.00    -0.201 F 
ATOM     27  C   UNL A   1      34.097  28.393  26.500  1.00  0.00     0.162 A 
ATOM     28  F   UNL A   1      32.830  29.837  27.872  1.00  0.00    -0.200 F 
ATOM     29  F   UNL A   1      35.071  29.308  26.408  1.00  0.00    -0.204 F 
ENDBRANCH  19  21
ENDBRANCH  16  19
ENDBRANCH  11  16
ENDBRANCH   5   8
ENDBRANCH   3   4
ENDBRANCH   2   3
ENDBRANCH   1   2
BRANCH   1  30
ATOM     30  C   UNL A   1      36.899  23.814  26.157  1.00  0.00     0.002 C 
BRANCH  30  31
ATOM     31  C   UNL A   1      38.260  23.174  25.878  1.00  0.00     0.021 C 
BRANCH  31  32
ATOM     32  C   UNL A   1      39.345  23.563  26.876  1.00  0.00     0.116 C 
BRANCH  32  33
ATOM     33  N   UNL A   1      40.625  23.769  26.218  1.00  0.00    -0.352 N 
ATOM     34  C   UNL A   1      41.481  24.835  26.324  1.00  0.00     0.251 C 
ATOM     35  H   UNL A   1      40.917  23.047  25.616  1.00  0.00     0.163 HD
ATOM     36  O   UNL A   1      42.406  24.965  25.528  1.00  0.00    -0.269 OA
BRANCH  34  37
ATOM     37  C   UNL A   1      41.275  25.828  27.398  1.00  0.00     0.039 A 
ATOM     38  C   UNL A   1      40.208  25.659  28.284  1.00  0.00     0.014 A 
ATOM     39  C   UNL A   1      42.128  26.929  27.521  1.00  0.00     0.014 A 
ATOM     40  C   UNL A   1      40.020  26.577  29.318  1.00  0.00     0.010 A 
ATOM     41  C   UNL A   1      41.978  27.806  28.590  1.00  0.00     0.010 A 
ATOM     42  C   UNL A   1      40.913  27.646  29.489  1.00  0.00    -0.014 A 
BRANCH  42  43
ATOM     43  C   UNL A   1      40.739  28.621  30.594  1.00  0.00     0.031 A 
ATOM     44  C   UNL A   1      41.594  28.519  31.827  1.00  0.00     0.074 A 
ATOM     45  C   UNL A   1      39.770  29.552  30.514  1.00  0.00     0.049 A 
ATOM     46  N   UNL A   1      41.559  29.239  32.919  1.00  0.00    -0.248 NA
ATOM     47  C   UNL A   1      42.599  27.444  31.850  1.00  0.00     0.031 C 
ATOM     48  C   UNL A   1      38.839  29.708  29.395  1.00  0.00     0.029 A 
ATOM     49  N   UNL A   1      39.398  30.533  31.396  1.00  0.00    -0.354 N 
ATOM     50  C   UNL A   1      42.517  28.694  33.763  1.00  0.00     0.074 A 
ATOM     51  C   UNL A   1      43.083  27.552  33.078  1.00  0.00     0.031 C 
ATOM     52  C   UNL A   1      38.013  30.735  29.651  1.00  0.00     0.029 A 
ATOM     53  C   UNL A   1      38.336  31.290  30.963  1.00  0.00     0.049 A 
ATOM     54  H   UNL A   1      39.848  30.682  32.260  1.00  0.00     0.167 HD
ATOM     55  C   UNL A   1      42.906  29.118  34.990  1.00  0.00     0.037 A 
ATOM     56  C   UNL A   1      37.693  32.314  31.555  1.00  0.00     0.037 A 
ATOM     57  C   UNL A   1      42.357  30.273  35.651  1.00  0.00     0.049 A 
ATOM     58  C   UNL A   1      38.164  32.794  32.900  1.00  0.00     0.074 A 
ATOM     59  C   UNL A   1      42.733  30.833  36.859  1.00  0.00     0.029 A 
ATOM     60  N   UNL A   1      41.312  31.041  35.161  1.00  0.00    -0.354 N 
ATOM     61  N   UNL A   1      39.126  32.317  33.653  1.00  0.00    -0.248 NA
ATOM     62  C   UNL A   1      37.472  33.958  33.470  1.00  0.00     0.031 C 
ATOM     63  C   UNL A   1      41.887  31.920  37.117  1.00  0.00     0.029 A 
ATOM     64  C   UNL A   1      41.015  32.061  36.051  1.00  0.00     0.049 A 
ATOM     65  H   UNL A   1      40.848  30.885  34.307  1.00  0.00     0.167 HD
ATOM     66  C   UNL A   1      39.170  33.133  34.778  1.00  0.00     0.074 A 
ATOM     67  C   UNL A   1      38.144  34.141  34.599  1.00  0.00     0.031 C 
ATOM     68  C   UNL A   1      39.987  33.055  35.858  1.00  0.00     0.037 A 
BRANCH  55  69
ATOM     69  C   UNL A   1      43.973  28.319  35.689  1.00  0.00     0.058 A 
ATOM     70  C   UNL A   1      45.339  28.552  35.461  1.00  0.00     0.135 A 
ATOM     71  C   UNL A   1      43.625  27.305  36.595  1.00  0.00     0.135 A 
ATOM     72  F   UNL A   1      45.728  29.501  34.595  1.00  0.00    -0.206 F 
ATOM     73  C   UNL A   1      46.322  27.775  36.067  1.00  0.00     0.059 A 
ATOM     74  C   UNL A   1      44.593  26.534  37.236  1.00  0.00     0.059 A 
ATOM     75  F   UNL A   1      42.336  27.042  36.855  1.00  0.00    -0.206 F 
ATOM     76  C   UNL A   1      45.938  26.762  36.947  1.00  0.00     0.060 A 
BRANCH  76  77
ATOM     77  S   UNL A   1      47.220  25.742  37.704  1.00  0.00     0.124 S 
ATOM     78  O   UNL A   1      47.410  26.417  38.984  1.00  0.00    -0.237 OA
ATOM     79  O   UNL A   1      46.581  24.431  37.769  1.00  0.00    -0.237 OA
ATOM     80  O   UNL A   1      48.334  25.846  36.767  1.00  0.00    -0.744 OA
ENDBRANCH  76  77
ENDBRANCH  55  69
BRANCH  56  81
ATOM     81  C   UNL A   1      36.561  32.969  30.852  1.00  0.00     0.058 A 
ATOM     82  C   UNL A   1      35.238  32.773  31.277  1.00  0.00     0.135 A 
ATOM     83  C   UNL A   1      36.780  33.851  29.783  1.00  0.00     0.135 A 
ATOM     84  F   UNL A   1      34.978  31.935  32.292  1.00  0.00    -0.206 F 
ATOM     85  C   UNL A   1      34.173  33.429  30.669  1.00  0.00     0.059 A 
ATOM     86  C   UNL A   1      35.734  34.534  29.171  1.00  0.00     0.059 A 
ATOM     87  F   UNL A   1      38.030  34.085  29.351  1.00  0.00    -0.206 F 
ATOM     88  C   UNL A   1      34.432  34.315  29.621  1.00  0.00     0.060 A 
BRANCH  88  89
ATOM     89  S   UNL A   1      33.052  35.229  28.897  1.00  0.00     0.124 S 
ATOM     90  O   UNL A   1      32.229  35.496  30.070  1.00  0.00    -0.237 OA
ATOM     91  O   UNL A   1      33.723  36.384  28.310  1.00  0.00    -0.237 OA
ATOM     92  O   UNL A   1      32.493  34.284  27.935  1.00  0.00    -0.744 OA
ENDBRANCH  88  89
ENDBRANCH  56  81
BRANCH  68  93
ATOM     93  C   UNL A   1      39.820  34.102  36.924  1.00  0.00     0.058 A 
ATOM     94  C   UNL A   1      39.084  33.851  38.092  1.00  0.00     0.135 A 
ATOM     95  C   UNL A   1      40.447  35.351  36.797  1.00  0.00     0.135 A 
ATOM     96  F   UNL A   1      38.460  32.675  38.259  1.00  0.00    -0.206 F 
ATOM     97  C   UNL A   1      38.956  34.813  39.088  1.00  0.00     0.059 A 
ATOM     98  C   UNL A   1      40.354  36.318  37.792  1.00  0.00     0.059 A 
ATOM     99  F   UNL A   1      41.172  35.636  35.704  1.00  0.00    -0.206 F 
ATOM    100  C   UNL A   1      39.596  36.045  38.930  1.00  0.00     0.060 A 
BRANCH 100 101
ATOM    101  S   UNL A   1      39.449  37.275  40.243  1.00  0.00     0.124 S 
ATOM    102  O   UNL A   1      38.643  36.558  41.226  1.00  0.00    -0.237 OA
ATOM    103  O   UNL A   1      40.842  37.506  40.613  1.00  0.00    -0.237 OA
ATOM    104  O   UNL A   1      38.788  38.396  39.585  1.00  0.00    -0.744 OA
ENDBRANCH 100 101
ENDBRANCH  68  93
ENDBRANCH  42  43
ENDBRANCH  34  37
ENDBRANCH  32  33
ENDBRANCH  31  32
ENDBRANCH  30  31
ENDBRANCH   1  30
TORSDOF 20
ENDMDL
MODEL 2
REMARK VINA RESULT:     -12.1      6.676     11.857
REMARK SMILES CCc1ccc(C(=O)NCCCCCCNC(=O)c2ccc(-c3c4nc(c(-c5c(F)cc(S(=O)(=O)[O-])cc5F)c5ccc([nH]5)c(-c5c(F)cc(S(=O)(=O)[O-])cc5F)c5nc(c(-c6c(F)cc(S(=O)(=O)[O-])cc6F)c6ccc3[nH]6)C=C5)C=C4)cc2)cc1S(=O)(=O)Nc1ccc(F)c(F)c1F
REMARK SMILES IDX 12 1 11 2 10 3 9 4 7 5 8 6 6 8 3 9 4 10 86 11 5 12 85 13
REMARK SMILES IDX 2 14 1 15 87 16 88 17 89 18 90 19 91 21 92 22 98 23 93 24
REMARK SMILES IDX 96 25 99 26 94 27 97 28 95 29 13 30 14 31 15 32 16 33 17 34
REMARK SMILES IDX 18 36 19 37 20 38 84 39 21 40 83 41 22 42 23 43 24 44 77 45
REMARK SMILES IDX 25 46 82 47 76 48 78 49 26 50 81 51 75 52 74 53 27 55 61 56
REMARK SMILES IDX 40 57 60 58 41 59 44 60 59 61 79 62 42 63 43 64 58 66 80 67
REMARK SMILES IDX 45 68 28 69 29 70 38 71 30 72 31 73 37 74 39 75 32 76 33 77
REMARK SMILES IDX 34 78 35 79 36 80 62 81 63 82 72 83 64 84 65 85 71 86 73 87
REMARK SMILES IDX 66 88 67 89 68 90 69 91 70 92 46 93 47 94 56 95 48 96 49 97
REMARK SMILES IDX 55 98 57 99 50 100 51 101 52 102 53 103 54 104
REMARK H PARENT 9 7 90 20 16 35 78 54 44 65
REMARK Flexibility Score: inf
ROOT
ATOM      1  C   UNL A   1      32.508  27.463  25.526  1.00  0.00     0.002 C 
ENDROOT
BRANCH   1   2
ATOM      2  C   UNL A   1      32.804  28.236  24.230  1.00  0.00     0.021 C 
BRANCH   2   3
ATOM      3  C   UNL A   1      34.007  27.676  23.474  1.00  0.00     0.116 C 
BRANCH   3   4
ATOM      4  N   UNL A   1      33.583  27.303  22.135  1.00  0.00    -0.352 N 
ATOM      5  C   UNL A   1      33.135  26.127  21.602  1.00  0.00     0.251 C 
ATOM      6  O   UNL A   1      33.004  26.052  20.380  1.00  0.00    -0.269 OA
ATOM      7  H   UNL A   1      33.628  28.042  21.485  1.00  0.00     0.163 HD
BRANCH   5   8
ATOM      8  C   UNL A   1      32.657  25.010  22.450  1.00  0.00     0.041 A 
ATOM      9  C   UNL A   1      31.569  23.265  24.404  1.00  0.00    -0.028 A 
ATOM     10  C   UNL A   1      30.752  24.102  23.618  1.00  0.00     0.006 A 
ATOM     11  C   UNL A   1      32.943  23.198  24.071  1.00  0.00     0.091 A 
ATOM     12  C   UNL A   1      31.285  24.972  22.675  1.00  0.00     0.014 A 
ATOM     13  C   UNL A   1      33.461  24.057  23.069  1.00  0.00     0.036 A 
BRANCH   9  14
ATOM     14  C   UNL A   1      30.910  22.511  25.529  1.00  0.00     0.033 C 
ATOM     15  C   UNL A   1      30.781  23.188  26.893  1.00  0.00     0.009 C 
ENDBRANCH   9  14
BRANCH  11  16
ATOM     16  S   UNL A   1      34.245  22.229  24.852  1.00  0.00     0.262 S 
ATOM     17  O   UNL A   1      34.251  22.545  26.257  1.00  0.00    -0.201 OA
ATOM     18  O   UNL A   1      33.974  20.865  24.422  1.00  0.00    -0.201 OA
BRANCH  16  19
ATOM     19  N   UNL A   1      35.741  22.547  24.199  1.00  0.00    -0.277 N 
ATOM     20  H   UNL A   1      35.750  22.790  23.245  1.00  0.00     0.180 HD
BRANCH  19  21
ATOM     21  C   UNL A   1      37.010  22.514  24.844  1.00  0.00     0.088 A 
ATOM     22  C   UNL A   1      37.358  23.704  25.510  1.00  0.00     0.033 A 
ATOM     23  C   UNL A   1      37.812  21.380  25.026  1.00  0.00     0.185 A 
ATOM     24  C   UNL A   1      38.415  23.727  26.422  1.00  0.00     0.045 A 
ATOM     25  C   UNL A   1      38.880  21.414  25.919  1.00  0.00     0.196 A 
ATOM     26  F   UNL A   1      37.514  20.210  24.451  1.00  0.00    -0.201 F 
ATOM     27  C   UNL A   1      39.158  22.572  26.632  1.00  0.00     0.162 A 
ATOM     28  F   UNL A   1      39.588  20.300  26.156  1.00  0.00    -0.200 F 
ATOM     29  F   UNL A   1      40.118  22.574  27.567  1.00  0.00    -0.204 F 
ENDBRANCH  19  21
ENDBRANCH  16  19
ENDBRANCH  11  16
ENDBRANCH   5   8
ENDBRANCH   3   4
ENDBRANCH   2   3
ENDBRANCH   1   2
BRANCH   1  30
ATOM     30  C   UNL A   1      33.495  27.736  26.667  1.00  0.00     0.002 C 
BRANCH  30  31
ATOM     31  C   UNL A   1      33.998  29.179  26.739  1.00  0.00     0.021 C 
BRANCH  31  32
ATOM     32  C   UNL A   1      35.364  29.328  27.399  1.00  0.00     0.116 C 
BRANCH  32  33
ATOM     33  N   UNL A   1      35.249  29.851  28.750  1.00  0.00    -0.352 N 
ATOM     34  C   UNL A   1      36.192  29.866  29.746  1.00  0.00     0.251 C 
ATOM     35  H   UNL A   1      34.378  30.247  28.982  1.00  0.00     0.163 HD
ATOM     36  O   UNL A   1      35.866  30.129  30.900  1.00  0.00    -0.269 OA
BRANCH  34  37
ATOM     37  C   UNL A   1      37.598  29.554  29.420  1.00  0.00     0.039 A 
ATOM     38  C   UNL A   1      38.457  29.143  30.442  1.00  0.00     0.014 A 
ATOM     39  C   UNL A   1      38.068  29.679  28.109  1.00  0.00     0.014 A 
ATOM     40  C   UNL A   1      39.781  28.821  30.140  1.00  0.00     0.010 A 
ATOM     41  C   UNL A   1      39.368  29.295  27.800  1.00  0.00     0.010 A 
ATOM     42  C   UNL A   1      40.241  28.877  28.815  1.00  0.00    -0.014 A 
BRANCH  42  43
ATOM     43  C   UNL A   1      41.640  28.520  28.473  1.00  0.00     0.031 A 
ATOM     44  C   UNL A   1      42.701  29.585  28.444  1.00  0.00     0.074 A 
ATOM     45  C   UNL A   1      41.938  27.255  28.126  1.00  0.00     0.049 A 
ATOM     46  N   UNL A   1      43.964  29.484  28.120  1.00  0.00    -0.248 NA
ATOM     47  C   UNL A   1      42.279  30.950  28.796  1.00  0.00     0.031 C 
ATOM     48  C   UNL A   1      40.980  26.149  28.056  1.00  0.00     0.029 A 
ATOM     49  N   UNL A   1      43.129  26.687  27.751  1.00  0.00    -0.354 N 
ATOM     50  C   UNL A   1      44.481  30.771  28.207  1.00  0.00     0.074 A 
ATOM     51  C   UNL A   1      43.384  31.643  28.566  1.00  0.00     0.031 C 
ATOM     52  C   UNL A   1      41.624  25.033  27.678  1.00  0.00     0.029 A 
ATOM     53  C   UNL A   1      43.032  25.349  27.451  1.00  0.00     0.049 A 
ATOM     54  H   UNL A   1      43.975  27.190  27.701  1.00  0.00     0.167 HD
ATOM     55  C   UNL A   1      45.758  31.185  28.024  1.00  0.00     0.037 A 
ATOM     56  C   UNL A   1      43.969  24.476  27.037  1.00  0.00     0.037 A 
ATOM     57  C   UNL A   1      46.849  30.305  27.695  1.00  0.00     0.049 A 
ATOM     58  C   UNL A   1      45.388  24.947  26.876  1.00  0.00     0.074 A 
ATOM     59  C   UNL A   1      48.192  30.609  27.564  1.00  0.00     0.029 A 
ATOM     60  N   UNL A   1      46.719  28.947  27.441  1.00  0.00    -0.354 N 
ATOM     61  N   UNL A   1      45.878  26.153  27.038  1.00  0.00    -0.248 NA
ATOM     62  C   UNL A   1      46.383  23.938  26.489  1.00  0.00     0.031 C 
ATOM     63  C   UNL A   1      48.869  29.441  27.192  1.00  0.00     0.029 A 
ATOM     64  C   UNL A   1      47.955  28.402  27.135  1.00  0.00     0.049 A 
ATOM     65  H   UNL A   1      45.873  28.445  27.473  1.00  0.00     0.167 HD
ATOM     66  C   UNL A   1      47.242  26.047  26.793  1.00  0.00     0.074 A 
ATOM     67  C   UNL A   1      47.500  24.654  26.482  1.00  0.00     0.031 C 
ATOM     68  C   UNL A   1      48.194  27.013  26.824  1.00  0.00     0.037 A 
BRANCH  55  69
ATOM     69  C   UNL A   1      46.034  32.658  28.173  1.00  0.00     0.058 A 
ATOM     70  C   UNL A   1      45.932  33.542  27.088  1.00  0.00     0.135 A 
ATOM     71  C   UNL A   1      46.409  33.189  29.418  1.00  0.00     0.135 A 
ATOM     72  F   UNL A   1      45.590  33.086  25.873  1.00  0.00    -0.206 F 
ATOM     73  C   UNL A   1      46.240  34.893  27.218  1.00  0.00     0.059 A 
ATOM     74  C   UNL A   1      46.694  34.543  29.577  1.00  0.00     0.059 A 
ATOM     75  F   UNL A   1      46.517  32.391  30.490  1.00  0.00    -0.206 F 
ATOM     76  C   UNL A   1      46.629  35.382  28.465  1.00  0.00     0.060 A 
BRANCH  76  77
ATOM     77  S   UNL A   1      47.056  37.130  28.615  1.00  0.00     0.124 S 
ATOM     78  O   UNL A   1      48.400  37.054  29.179  1.00  0.00    -0.237 OA
ATOM     79  O   UNL A   1      46.974  37.593  27.233  1.00  0.00    -0.237 OA
ATOM     80  O   UNL A   1      46.028  37.655  29.509  1.00  0.00    -0.744 OA
ENDBRANCH  76  77
ENDBRANCH  55  69
BRANCH  56  81
ATOM     81  C   UNL A   1      43.589  23.063  26.785  1.00  0.00     0.058 A 
ATOM     82  C   UNL A   1      43.581  22.539  25.483  1.00  0.00     0.135 A 
ATOM     83  C   UNL A   1      43.288  22.191  27.842  1.00  0.00     0.135 A 
ATOM     84  F   UNL A   1      43.857  23.336  24.439  1.00  0.00    -0.206 F 
ATOM     85  C   UNL A   1      43.288  21.202  25.237  1.00  0.00     0.059 A 
ATOM     86  C   UNL A   1      43.012  20.845  27.624  1.00  0.00     0.059 A 
ATOM     87  F   UNL A   1      43.300  22.640  29.107  1.00  0.00    -0.206 F 
ATOM     88  C   UNL A   1      43.014  20.360  26.317  1.00  0.00     0.060 A 
BRANCH  88  89
ATOM     89  S   UNL A   1      42.723  18.606  25.996  1.00  0.00     0.124 S 
ATOM     90  O   UNL A   1      41.302  18.598  25.672  1.00  0.00    -0.237 OA
ATOM     91  O   UNL A   1      43.633  18.342  24.885  1.00  0.00    -0.237 OA
ATOM     92  O   UNL A   1      43.087  17.969  27.258  1.00  0.00    -0.744 OA
ENDBRANCH  88  89
ENDBRANCH  56  81
BRANCH  68  93
ATOM     93  C   UNL A   1      49.608  26.596  26.536  1.00  0.00     0.058 A 
ATOM     94  C   UNL A   1      50.476  26.185  27.559  1.00  0.00     0.135 A 
ATOM     95  C   UNL A   1      50.084  26.559  25.216  1.00  0.00     0.135 A 
ATOM     96  F   UNL A   1      50.072  26.209  28.840  1.00  0.00    -0.206 F 
ATOM     97  C   UNL A   1      51.777  25.774  27.285  1.00  0.00     0.059 A 
ATOM     98  C   UNL A   1      51.371  26.127  24.917  1.00  0.00     0.059 A 
ATOM     99  F   UNL A   1      49.289  26.932  24.200  1.00  0.00    -0.206 F 
ATOM    100  C   UNL A   1      52.215  25.747  25.960  1.00  0.00     0.060 A 
BRANCH 100 101
ATOM    101  S   UNL A   1      53.894  25.181  25.612  1.00  0.00     0.124 S 
ATOM    102  O   UNL A   1      54.476  26.360  24.980  1.00  0.00    -0.237 OA
ATOM    103  O   UNL A   1      54.400  24.862  26.944  1.00  0.00    -0.237 OA
ATOM    104  O   UNL A   1      53.690  24.033  24.736  1.00  0.00    -0.744 OA
ENDBRANCH 100 101
ENDBRANCH  68  93
ENDBRANCH  42  43
ENDBRANCH  34  37
ENDBRANCH  32  33
ENDBRANCH  31  32
ENDBRANCH  30  31
ENDBRANCH   1  30
TORSDOF 20
ENDMDL
MODEL 3
REMARK VINA RESULT:     -12.1      6.559     11.218
REMARK SMILES CCc1ccc(C(=O)NCCCCCCNC(=O)c2ccc(-c3c4nc(c(-c5c(F)cc(S(=O)(=O)[O-])cc5F)c5ccc([nH]5)c(-c5c(F)cc(S(=O)(=O)[O-])cc5F)c5nc(c(-c6c(F)cc(S(=O)(=O)[O-])cc6F)c6ccc3[nH]6)C=C5)C=C4)cc2)cc1S(=O)(=O)Nc1ccc(F)c(F)c1F
REMARK SMILES IDX 12 1 11 2 10 3 9 4 7 5 8 6 6 8 3 9 4 10 86 11 5 12 85 13
REMARK SMILES IDX 2 14 1 15 87 16 88 17 89 18 90 19 91 21 92 22 98 23 93 24
REMARK SMILES IDX 96 25 99 26 94 27 97 28 95 29 13 30 14 31 15 32 16 33 17 34
REMARK SMILES IDX 18 36 19 37 20 38 84 39 21 40 83 41 22 42 23 43 24 44 77 45
REMARK SMILES IDX 25 46 82 47 76 48 78 49 26 50 81 51 75 52 74 53 27 55 61 56
REMARK SMILES IDX 40 57 60 58 41 59 44 60 59 61 79 62 42 63 43 64 58 66 80 67
REMARK SMILES IDX 45 68 28 69 29 70 38 71 30 72 31 73 37 74 39 75 32 76 33 77
REMARK SMILES IDX 34 78 35 79 36 80 62 81 63 82 72 83 64 84 65 85 71 86 73 87
REMARK SMILES IDX 66 88 67 89 68 90 69 91 70 92 46 93 47 94 56 95 48 96 49 97
REMARK SMILES IDX 55 98 57 99 50 100 51 101 52 102 53 103 54 104
REMARK H PARENT 9 7 90 20 16 35 78 54 44 65
REMARK Flexibility Score: inf
ROOT
ATOM      1  C   UNL A   1      32.437  27.319  25.674  1.00  0.00     0.002 C 
ENDROOT
BRANCH   1   2
ATOM      2  C   UNL A   1      32.792  27.994  24.339  1.00  0.00     0.021 C 
BRANCH   2   3
ATOM      3  C   UNL A   1      34.041  27.396  23.692  1.00  0.00     0.116 C 
BRANCH   3   4
ATOM      4  N   UNL A   1      33.719  27.015  22.327  1.00  0.00    -0.352 N 
ATOM      5  C   UNL A   1      33.225  25.862  21.782  1.00  0.00     0.251 C 
ATOM      6  O   UNL A   1      33.208  25.757  20.556  1.00  0.00    -0.269 OA
ATOM      7  H   UNL A   1      33.892  27.724  21.666  1.00  0.00     0.163 HD
BRANCH   5   8
ATOM      8  C   UNL A   1      32.570  24.819  22.606  1.00  0.00     0.041 A 
ATOM      9  C   UNL A   1      31.256  23.221  24.547  1.00  0.00    -0.028 A 
ATOM     10  C   UNL A   1      30.591  24.263  23.868  1.00  0.00     0.006 A 
ATOM     11  C   UNL A   1      32.558  22.885  24.108  1.00  0.00     0.091 A 
ATOM     12  C   UNL A   1      31.240  25.060  22.932  1.00  0.00     0.014 A 
ATOM     13  C   UNL A   1      33.186  23.679  23.114  1.00  0.00     0.036 A 
BRANCH   9  14
ATOM     14  C   UNL A   1      30.521  22.553  25.679  1.00  0.00     0.033 C 
ATOM     15  C   UNL A   1      30.679  23.112  27.092  1.00  0.00     0.009 C 
ENDBRANCH   9  14
BRANCH  11  16
ATOM     16  S   UNL A   1      33.666  21.612  24.737  1.00  0.00     0.262 S 
ATOM     17  O   UNL A   1      33.588  21.629  26.175  1.00  0.00    -0.201 OA
ATOM     18  O   UNL A   1      33.275  20.415  24.008  1.00  0.00    -0.201 OA
BRANCH  16  19
ATOM     19  N   UNL A   1      35.239  21.857  24.258  1.00  0.00    -0.277 N 
ATOM     20  H   UNL A   1      35.404  21.815  23.289  1.00  0.00     0.180 HD
BRANCH  19  21
ATOM     21  C   UNL A   1      36.378  22.119  25.071  1.00  0.00     0.088 A 
ATOM     22  C   UNL A   1      37.296  21.056  25.150  1.00  0.00     0.033 A 
ATOM     23  C   UNL A   1      36.737  23.361  25.611  1.00  0.00     0.185 A 
ATOM     24  C   UNL A   1      38.582  21.261  25.654  1.00  0.00     0.045 A 
ATOM     25  C   UNL A   1      38.013  23.555  26.134  1.00  0.00     0.196 A 
ATOM     26  F   UNL A   1      35.925  24.421  25.534  1.00  0.00    -0.201 F 
ATOM     27  C   UNL A   1      38.936  22.518  26.127  1.00  0.00     0.162 A 
ATOM     28  F   UNL A   1      38.380  24.770  26.567  1.00  0.00    -0.200 F 
ATOM     29  F   UNL A   1      40.194  22.733  26.535  1.00  0.00    -0.204 F 
ENDBRANCH  19  21
ENDBRANCH  16  19
ENDBRANCH  11  16
ENDBRANCH   5   8
ENDBRANCH   3   4
ENDBRANCH   2   3
ENDBRANCH   1   2
BRANCH   1  30
ATOM     30  C   UNL A   1      33.318  27.743  26.854  1.00  0.00     0.002 C 
BRANCH  30  31
ATOM     31  C   UNL A   1      33.948  29.129  26.710  1.00  0.00     0.021 C 
BRANCH  31  32
ATOM     32  C   UNL A   1      35.319  29.259  27.364  1.00  0.00     0.116 C 
BRANCH  32  33
ATOM     33  N   UNL A   1      35.213  29.729  28.736  1.00  0.00    -0.352 N 
ATOM     34  C   UNL A   1      36.177  29.753  29.711  1.00  0.00     0.251 C 
ATOM     35  H   UNL A   1      34.331  30.077  29.000  1.00  0.00     0.163 HD
ATOM     36  O   UNL A   1      35.867  29.962  30.880  1.00  0.00    -0.269 OA
BRANCH  34  37
ATOM     37  C   UNL A   1      37.588  29.518  29.343  1.00  0.00     0.039 A 
ATOM     38  C   UNL A   1      38.430  28.879  30.256  1.00  0.00     0.014 A 
ATOM     39  C   UNL A   1      38.078  29.938  28.102  1.00  0.00     0.014 A 
ATOM     40  C   UNL A   1      39.758  28.628  29.908  1.00  0.00     0.010 A 
ATOM     41  C   UNL A   1      39.383  29.629  27.733  1.00  0.00     0.010 A 
ATOM     42  C   UNL A   1      40.239  28.984  28.638  1.00  0.00    -0.014 A 
BRANCH  42  43
ATOM     43  C   UNL A   1      41.642  28.708  28.244  1.00  0.00     0.031 A 
ATOM     44  C   UNL A   1      42.050  27.317  27.844  1.00  0.00     0.074 A 
ATOM     45  C   UNL A   1      42.558  29.692  28.312  1.00  0.00     0.049 A 
ATOM     46  N   UNL A   1      43.234  26.865  27.519  1.00  0.00    -0.248 NA
ATOM     47  C   UNL A   1      40.995  26.293  27.839  1.00  0.00     0.031 C 
ATOM     48  C   UNL A   1      42.293  31.065  28.746  1.00  0.00     0.029 A 
ATOM     49  N   UNL A   1      43.901  29.685  28.030  1.00  0.00    -0.354 N 
ATOM     50  C   UNL A   1      43.070  25.504  27.293  1.00  0.00     0.074 A 
ATOM     51  C   UNL A   1      41.683  25.195  27.566  1.00  0.00     0.031 C 
ATOM     52  C   UNL A   1      43.433  31.773  28.687  1.00  0.00     0.029 A 
ATOM     53  C   UNL A   1      44.514  30.898  28.240  1.00  0.00     0.049 A 
ATOM     54  H   UNL A   1      44.381  28.888  27.709  1.00  0.00     0.167 HD
ATOM     55  C   UNL A   1      43.987  24.598  26.876  1.00  0.00     0.037 A 
ATOM     56  C   UNL A   1      45.801  31.263  28.091  1.00  0.00     0.037 A 
ATOM     57  C   UNL A   1      45.358  24.921  26.579  1.00  0.00     0.049 A 
ATOM     58  C   UNL A   1      46.796  30.252  27.591  1.00  0.00     0.074 A 
ATOM     59  C   UNL A   1      46.348  24.096  26.077  1.00  0.00     0.029 A 
ATOM     60  N   UNL A   1      45.933  26.171  26.761  1.00  0.00    -0.354 N 
ATOM     61  N   UNL A   1      46.609  28.985  27.306  1.00  0.00    -0.248 NA
ATOM     62  C   UNL A   1      48.171  30.722  27.380  1.00  0.00     0.031 C 
ATOM     63  C   UNL A   1      47.533  24.838  25.992  1.00  0.00     0.029 A 
ATOM     64  C   UNL A   1      47.270  26.136  26.400  1.00  0.00     0.049 A 
ATOM     65  H   UNL A   1      45.460  26.966  27.098  1.00  0.00     0.167 HD
ATOM     66  C   UNL A   1      47.837  28.509  26.863  1.00  0.00     0.074 A 
ATOM     67  C   UNL A   1      48.757  29.629  26.908  1.00  0.00     0.031 C 
ATOM     68  C   UNL A   1      48.172  27.260  26.455  1.00  0.00     0.037 A 
BRANCH  55  69
ATOM     69  C   UNL A   1      43.528  23.172  26.724  1.00  0.00     0.058 A 
ATOM     70  C   UNL A   1      43.280  22.354  27.837  1.00  0.00     0.135 A 
ATOM     71  C   UNL A   1      43.339  22.617  25.448  1.00  0.00     0.135 A 
ATOM     72  F   UNL A   1      43.456  22.829  29.080  1.00  0.00    -0.206 F 
ATOM     73  C   UNL A   1      42.908  21.020  27.692  1.00  0.00     0.059 A 
ATOM     74  C   UNL A   1      42.939  21.293  25.280  1.00  0.00     0.059 A 
ATOM     75  F   UNL A   1      43.558  23.355  24.349  1.00  0.00    -0.206 F 
ATOM     76  C   UNL A   1      42.749  20.497  26.408  1.00  0.00     0.060 A 
BRANCH  76  77
ATOM     77  S   UNL A   1      42.296  18.758  26.232  1.00  0.00     0.124 S 
ATOM     78  O   UNL A   1      43.280  18.300  25.257  1.00  0.00    -0.237 OA
ATOM     79  O   UNL A   1      42.467  18.250  27.590  1.00  0.00    -0.237 OA
ATOM     80  O   UNL A   1      40.918  18.813  25.757  1.00  0.00    -0.744 OA
ENDBRANCH  76  77
ENDBRANCH  55  69
BRANCH  56  81
ATOM     81  C   UNL A   1      46.201  32.662  28.387  1.00  0.00     0.058 A 
ATOM     82  C   UNL A   1      46.163  33.649  27.390  1.00  0.00     0.135 A 
ATOM     83  C   UNL A   1      46.568  33.055  29.683  1.00  0.00     0.135 A 
ATOM     84  F   UNL A   1      45.824  33.320  26.135  1.00  0.00    -0.206 F 
ATOM     85  C   UNL A   1      46.475  34.976  27.667  1.00  0.00     0.059 A 
ATOM     86  C   UNL A   1      46.864  34.380  29.990  1.00  0.00     0.059 A 
ATOM     87  F   UNL A   1      46.601  32.151  30.675  1.00  0.00    -0.206 F 
ATOM     88  C   UNL A   1      46.815  35.334  28.973  1.00  0.00     0.060 A 
BRANCH  88  89
ATOM     89  S   UNL A   1      47.130  37.074  29.341  1.00  0.00     0.124 S 
ATOM     90  O   UNL A   1      48.331  36.988  30.164  1.00  0.00    -0.237 OA
ATOM     91  O   UNL A   1      47.307  37.643  28.009  1.00  0.00    -0.237 OA
ATOM     92  O   UNL A   1      45.917  37.494  30.037  1.00  0.00    -0.744 OA
ENDBRANCH  88  89
ENDBRANCH  56  81
BRANCH  68  93
ATOM     93  C   UNL A   1      49.588  27.040  26.002  1.00  0.00     0.058 A 
ATOM     94  C   UNL A   1      50.608  26.713  26.909  1.00  0.00     0.135 A 
ATOM     95  C   UNL A   1      49.918  27.108  24.639  1.00  0.00     0.135 A 
ATOM     96  F   UNL A   1      50.346  26.641  28.224  1.00  0.00    -0.206 F 
ATOM     97  C   UNL A   1      51.911  26.482  26.482  1.00  0.00     0.059 A 
ATOM     98  C   UNL A   1      51.209  26.856  24.187  1.00  0.00     0.059 A 
ATOM     99  F   UNL A   1      48.976  27.407  23.730  1.00  0.00    -0.206 F 
ATOM    100  C   UNL A   1      52.202  26.556  25.118  1.00  0.00     0.060 A 
BRANCH 100 101
ATOM    101  S   UNL A   1      53.891  26.224  24.572  1.00  0.00     0.124 S 
ATOM    102  O   UNL A   1      53.902  24.766  24.524  1.00  0.00    -0.237 OA
ATOM    103  O   UNL A   1      53.941  26.901  23.280  1.00  0.00    -0.237 OA
ATOM    104  O   UNL A   1      54.710  26.826  25.619  1.00  0.00    -0.744 OA
ENDBRANCH 100 101
ENDBRANCH  68  93
ENDBRANCH  42  43
ENDBRANCH  34  37
ENDBRANCH  32  33
ENDBRANCH  31  32
ENDBRANCH  30  31
ENDBRANCH   1  30
TORSDOF 20
ENDMDL
