MODEL 1
REMARK VINA RESULT:      -8.7      0.000      0.000
REMARK SMILES O=C(CCCCCN1C(=O)/C(=C/c2cccc(O)c2)SC1=S)NCCCCCCNC(=O)c1ccc(-c2c3nc(c(-c4c(F)cc(S(=O)(=O)[O-])cc4F)c4ccc([nH]4)c(-c4c(F)cc(S(=O)(=O)[O-])cc4F)c4nc(c(-c5c(F)cc(S(=O)(=O)[O-])cc5F)c5ccc2[nH]5)C=C4)C=C3)cc1
REMARK SMILES IDX 24 1 23 2 1 3 2 4 3 6 4 7 5 8 6 9 7 10 8 11 9 12 21 13 10 14
REMARK SMILES IDX 11 15 20 16 22 17 12 18 13 19 14 20 19 21 15 22 17 23 16 24
REMARK SMILES IDX 18 25 25 27 26 28 27 29 28 30 29 31 30 32 31 33 32 35 33 36
REMARK SMILES IDX 34 37 98 38 35 39 97 40 36 41 37 42 38 43 91 44 39 45 96 46
REMARK SMILES IDX 90 47 92 48 40 49 95 50 89 51 88 52 41 54 75 55 54 56 74 57
REMARK SMILES IDX 55 58 58 59 73 60 93 61 56 62 57 63 72 65 94 66 59 67 42 68
REMARK SMILES IDX 43 69 52 70 44 71 45 72 51 73 53 74 46 75 47 76 48 77 49 78
REMARK SMILES IDX 50 79 76 80 77 81 86 82 78 83 79 84 85 85 87 86 80 87 81 88
REMARK SMILES IDX 82 89 83 90 84 91 60 92 61 93 70 94 62 95 63 96 69 97 71 98
REMARK SMILES IDX 64 99 65 100 66 101 67 102 68 103
REMARK H PARENT 23 5 18 26 30 34 92 53 58 64
REMARK Flexibility Score: inf
ROOT
ATOM      1  C   UNL A   1      37.829  30.619  33.521  1.00  0.00     0.116 C 
ENDROOT
BRANCH   1   2
ATOM      2  N   UNL A   1      38.824  29.679  33.054  1.00  0.00    -0.356 N 
ATOM      3  O   UNL A   1      40.155  29.675  34.926  1.00  0.00    -0.275 OA
ATOM      4  C   UNL A   1      39.892  29.256  33.805  1.00  0.00     0.219 C 
ATOM      5  H   UNL A   1      38.729  29.319  32.143  1.00  0.00     0.163 HD
BRANCH   4   6
ATOM      6  C   UNL A   1      40.746  28.216  33.106  1.00  0.00     0.100 C 
BRANCH   6   7
ATOM      7  C   UNL A   1      42.183  28.161  33.628  1.00  0.00     0.010 C 
BRANCH   7   8
ATOM      8  C   UNL A   1      43.214  27.461  32.736  1.00  0.00     0.002 C 
BRANCH   8   9
ATOM      9  C   UNL A   1      44.041  26.353  33.403  1.00  0.00     0.022 C 
BRANCH   9  10
ATOM     10  C   UNL A   1      43.284  25.512  34.445  1.00  0.00     0.127 C 
BRANCH  10  11
ATOM     11  N   UNL A   1      44.181  24.749  35.315  1.00  0.00    -0.293 N 
ATOM     12  C   UNL A   1      44.800  23.621  34.796  1.00  0.00     0.266 C 
ATOM     13  C   UNL A   1      44.484  25.066  36.623  1.00  0.00     0.148 C 
ATOM     14  O   UNL A   1      44.785  23.261  33.630  1.00  0.00    -0.268 OA
ATOM     15  C   UNL A   1      45.490  22.877  35.878  1.00  0.00     0.081 C 
ATOM     16  S   UNL A   1      45.485  23.800  37.324  1.00  0.00    -0.054 SA
ATOM     17  S   UNL A   1      44.032  26.410  37.501  1.00  0.00    -0.052 S 
ATOM     18  C   UNL A   1      45.978  21.647  35.675  1.00  0.00     0.029 C 
BRANCH  18  19
ATOM     19  C   UNL A   1      46.613  20.800  36.688  1.00  0.00    -0.021 A 
ATOM     20  C   UNL A   1      47.877  21.113  37.207  1.00  0.00     0.008 A 
ATOM     21  C   UNL A   1      45.931  19.680  37.170  1.00  0.00     0.054 A 
ATOM     22  C   UNL A   1      48.466  20.294  38.172  1.00  0.00     0.004 A 
ATOM     23  C   UNL A   1      46.525  18.872  38.135  1.00  0.00     0.116 A 
ATOM     24  C   UNL A   1      47.789  19.166  38.637  1.00  0.00     0.046 A 
BRANCH  23  25
ATOM     25  O   UNL A   1      45.824  17.786  38.570  1.00  0.00    -0.508 OA
ATOM     26  H   UNL A   1      45.035  17.905  39.062  1.00  0.00     0.293 HD
ENDBRANCH  23  25
ENDBRANCH  18  19
ENDBRANCH  10  11
ENDBRANCH   9  10
ENDBRANCH   8   9
ENDBRANCH   7   8
ENDBRANCH   6   7
ENDBRANCH   4   6
ENDBRANCH   1   2
BRANCH   1  27
ATOM     27  C   UNL A   1      38.101  32.017  32.967  1.00  0.00     0.021 C 
BRANCH  27  28
ATOM     28  C   UNL A   1      37.223  32.425  31.772  1.00  0.00     0.002 C 
BRANCH  28  29
ATOM     29  C   UNL A   1      35.733  32.102  31.908  1.00  0.00     0.002 C 
BRANCH  29  30
ATOM     30  C   UNL A   1      34.812  32.883  30.970  1.00  0.00     0.021 C 
BRANCH  30  31
ATOM     31  C   UNL A   1      35.183  32.813  29.491  1.00  0.00     0.116 C 
BRANCH  31  32
ATOM     32  N   UNL A   1      34.339  31.892  28.745  1.00  0.00    -0.352 N 
ATOM     33  C   UNL A   1      34.664  30.686  28.169  1.00  0.00     0.251 C 
ATOM     34  H   UNL A   1      33.401  32.171  28.637  1.00  0.00     0.163 HD
ATOM     35  O   UNL A   1      33.858  30.119  27.438  1.00  0.00    -0.269 OA
BRANCH  33  36
ATOM     36  C   UNL A   1      36.000  30.093  28.403  1.00  0.00     0.039 A 
ATOM     37  C   UNL A   1      36.966  30.189  27.399  1.00  0.00     0.014 A 
ATOM     38  C   UNL A   1      36.305  29.462  29.612  1.00  0.00     0.014 A 
ATOM     39  C   UNL A   1      38.262  29.726  27.638  1.00  0.00     0.010 A 
ATOM     40  C   UNL A   1      37.616  29.067  29.876  1.00  0.00     0.010 A 
ATOM     41  C   UNL A   1      38.610  29.205  28.896  1.00  0.00    -0.014 A 
BRANCH  41  42
ATOM     42  C   UNL A   1      40.018  28.850  29.216  1.00  0.00     0.031 A 
ATOM     43  C   UNL A   1      40.940  29.859  29.842  1.00  0.00     0.074 A 
ATOM     44  C   UNL A   1      40.486  27.634  28.872  1.00  0.00     0.049 A 
ATOM     45  N   UNL A   1      42.212  29.747  30.132  1.00  0.00    -0.248 NA
ATOM     46  C   UNL A   1      40.365  31.175  30.159  1.00  0.00     0.031 C 
ATOM     47  C   UNL A   1      39.707  26.588  28.207  1.00  0.00     0.029 A 
ATOM     48  N   UNL A   1      41.733  27.076  29.016  1.00  0.00    -0.354 N 
ATOM     49  C   UNL A   1      42.589  30.974  30.664  1.00  0.00     0.074 A 
ATOM     50  C   UNL A   1      41.428  31.835  30.598  1.00  0.00     0.031 C 
ATOM     51  C   UNL A   1      40.486  25.514  28.013  1.00  0.00     0.029 A 
ATOM     52  C   UNL A   1      41.832  25.807  28.496  1.00  0.00     0.049 A 
ATOM     53  H   UNL A   1      42.484  27.541  29.451  1.00  0.00     0.167 HD
ATOM     54  C   UNL A   1      43.786  31.342  31.183  1.00  0.00     0.037 A 
ATOM     55  C   UNL A   1      42.889  24.977  28.400  1.00  0.00     0.037 A 
ATOM     56  C   UNL A   1      44.940  30.480  31.239  1.00  0.00     0.049 A 
ATOM     57  C   UNL A   1      44.216  25.411  28.956  1.00  0.00     0.074 A 
ATOM     58  C   UNL A   1      46.184  30.740  31.788  1.00  0.00     0.029 A 
ATOM     59  N   UNL A   1      44.999  29.196  30.713  1.00  0.00    -0.354 N 
ATOM     60  N   UNL A   1      44.536  26.548  29.529  1.00  0.00    -0.248 NA
ATOM     61  C   UNL A   1      45.324  24.452  28.861  1.00  0.00     0.031 C 
ATOM     62  C   UNL A   1      47.010  29.638  31.543  1.00  0.00     0.029 A 
ATOM     63  C   UNL A   1      46.267  28.665  30.895  1.00  0.00     0.049 A 
ATOM     64  H   UNL A   1      44.250  28.731  30.276  1.00  0.00     0.167 HD
ATOM     65  C   UNL A   1      45.879  26.437  29.872  1.00  0.00     0.074 A 
ATOM     66  C   UNL A   1      46.304  25.112  29.463  1.00  0.00     0.031 C 
ATOM     67  C   UNL A   1      46.685  27.350  30.470  1.00  0.00     0.037 A 
BRANCH  54  68
ATOM     68  C   UNL A   1      43.905  32.744  31.721  1.00  0.00     0.058 A 
ATOM     69  C   UNL A   1      43.678  33.036  33.078  1.00  0.00     0.135 A 
ATOM     70  C   UNL A   1      44.252  33.812  30.877  1.00  0.00     0.135 A 
ATOM     71  F   UNL A   1      43.334  32.058  33.932  1.00  0.00    -0.206 F 
ATOM     72  C   UNL A   1      43.739  34.338  33.564  1.00  0.00     0.059 A 
ATOM     73  C   UNL A   1      44.353  35.117  31.349  1.00  0.00     0.059 A 
ATOM     74  F   UNL A   1      44.488  33.593  29.574  1.00  0.00    -0.206 F 
ATOM     75  C   UNL A   1      44.070  35.374  32.690  1.00  0.00     0.060 A 
BRANCH  75  76
ATOM     76  S   UNL A   1      44.110  37.061  33.331  1.00  0.00     0.124 S 
ATOM     77  O   UNL A   1      42.716  37.259  33.713  1.00  0.00    -0.237 OA
ATOM     78  O   UNL A   1      45.060  36.954  34.434  1.00  0.00    -0.237 OA
ATOM     79  O   UNL A   1      44.566  37.848  32.189  1.00  0.00    -0.744 OA
ENDBRANCH  75  76
ENDBRANCH  54  68
BRANCH  55  80
ATOM     80  C   UNL A   1      42.718  23.651  27.747  1.00  0.00     0.058 A 
ATOM     81  C   UNL A   1      42.889  23.494  26.364  1.00  0.00     0.135 A 
ATOM     82  C   UNL A   1      42.435  22.503  28.506  1.00  0.00     0.135 A 
ATOM     83  F   UNL A   1      43.150  24.563  25.595  1.00  0.00    -0.206 F 
ATOM     84  C   UNL A   1      42.790  22.248  25.756  1.00  0.00     0.059 A 
ATOM     85  C   UNL A   1      42.359  21.243  27.924  1.00  0.00     0.059 A 
ATOM     86  F   UNL A   1      42.277  22.598  29.835  1.00  0.00    -0.206 F 
ATOM     87  C   UNL A   1      42.536  21.124  26.546  1.00  0.00     0.060 A 
BRANCH  87  88
ATOM     88  S   UNL A   1      42.501  19.500  25.758  1.00  0.00     0.124 S 
ATOM     89  O   UNL A   1      41.097  19.387  25.379  1.00  0.00    -0.237 OA
ATOM     90  O   UNL A   1      43.447  19.674  24.660  1.00  0.00    -0.237 OA
ATOM     91  O   UNL A   1      42.943  18.601  26.820  1.00  0.00    -0.744 OA
ENDBRANCH  87  88
ENDBRANCH  55  80
BRANCH  67  92
ATOM     92  C   UNL A   1      48.114  26.950  30.726  1.00  0.00     0.058 A 
ATOM     93  C   UNL A   1      49.139  27.255  29.816  1.00  0.00     0.135 A 
ATOM     94  C   UNL A   1      48.472  26.303  31.920  1.00  0.00     0.135 A 
ATOM     95  F   UNL A   1      48.853  27.865  28.655  1.00  0.00    -0.206 F 
ATOM     96  C   UNL A   1      50.464  26.917  30.072  1.00  0.00     0.059 A 
ATOM     97  C   UNL A   1      49.794  25.982  32.211  1.00  0.00     0.059 A 
ATOM     98  F   UNL A   1      47.534  25.994  32.829  1.00  0.00    -0.206 F 
ATOM     99  C   UNL A   1      50.783  26.284  31.275  1.00  0.00     0.060 A 
BRANCH  99 100
ATOM    100  S   UNL A   1      52.512  25.888  31.611  1.00  0.00     0.124 S 
ATOM    101  O   UNL A   1      52.856  26.893  32.611  1.00  0.00    -0.237 OA
ATOM    102  O   UNL A   1      52.427  24.514  32.096  1.00  0.00    -0.237 OA
ATOM    103  O   UNL A   1      53.158  26.049  30.312  1.00  0.00    -0.744 OA
ENDBRANCH  99 100
ENDBRANCH  67  92
ENDBRANCH  41  42
ENDBRANCH  33  36
ENDBRANCH  31  32
ENDBRANCH  30  31
ENDBRANCH  29  30
ENDBRANCH  28  29
ENDBRANCH  27  28
ENDBRANCH   1  27
TORSDOF 23
ENDMDL
MODEL 2
REMARK VINA RESULT:      -8.2      1.142      8.021
REMARK SMILES O=C(CCCCCN1C(=O)/C(=C/c2cccc(O)c2)SC1=S)NCCCCCCNC(=O)c1ccc(-c2c3nc(c(-c4c(F)cc(S(=O)(=O)[O-])cc4F)c4ccc([nH]4)c(-c4c(F)cc(S(=O)(=O)[O-])cc4F)c4nc(c(-c5c(F)cc(S(=O)(=O)[O-])cc5F)c5ccc2[nH]5)C=C4)C=C3)cc1
REMARK SMILES IDX 24 1 23 2 1 3 2 4 3 6 4 7 5 8 6 9 7 10 8 11 9 12 21 13 10 14
REMARK SMILES IDX 11 15 20 16 22 17 12 18 13 19 14 20 19 21 15 22 17 23 16 24
REMARK SMILES IDX 18 25 25 27 26 28 27 29 28 30 29 31 30 32 31 33 32 35 33 36
REMARK SMILES IDX 34 37 98 38 35 39 97 40 36 41 37 42 38 43 91 44 39 45 96 46
REMARK SMILES IDX 90 47 92 48 40 49 95 50 89 51 88 52 41 54 75 55 54 56 74 57
REMARK SMILES IDX 55 58 58 59 73 60 93 61 56 62 57 63 72 65 94 66 59 67 42 68
REMARK SMILES IDX 43 69 52 70 44 71 45 72 51 73 53 74 46 75 47 76 48 77 49 78
REMARK SMILES IDX 50 79 76 80 77 81 86 82 78 83 79 84 85 85 87 86 80 87 81 88
REMARK SMILES IDX 82 89 83 90 84 91 60 92 61 93 70 94 62 95 63 96 69 97 71 98
REMARK SMILES IDX 64 99 65 100 66 101 67 102 68 103
REMARK H PARENT 23 5 18 26 30 34 92 53 58 64
REMARK Flexibility Score: inf
ROOT
ATOM      1  C   UNL A   1      38.184  30.784  32.983  1.00  0.00     0.116 C 
ENDROOT
BRANCH   1   2
ATOM      2  N   UNL A   1      39.370  30.316  33.668  1.00  0.00    -0.356 N 
ATOM      3  O   UNL A   1      39.720  28.415  32.427  1.00  0.00    -0.275 OA
ATOM      4  C   UNL A   1      40.063  29.185  33.316  1.00  0.00     0.219 C 
ATOM      5  H   UNL A   1      39.699  30.840  34.433  1.00  0.00     0.163 HD
BRANCH   4   6
ATOM      6  C   UNL A   1      41.307  28.956  34.153  1.00  0.00     0.100 C 
BRANCH   6   7
ATOM      7  C   UNL A   1      41.221  29.572  35.550  1.00  0.00     0.010 C 
BRANCH   7   8
ATOM      8  C   UNL A   1      42.487  29.503  36.413  1.00  0.00     0.002 C 
BRANCH   8   9
ATOM      9  C   UNL A   1      43.450  28.349  36.104  1.00  0.00     0.022 C 
BRANCH   9  10
ATOM     10  C   UNL A   1      43.133  27.025  36.818  1.00  0.00     0.127 C 
BRANCH  10  11
ATOM     11  N   UNL A   1      44.133  25.989  36.558  1.00  0.00    -0.293 N 
ATOM     12  C   UNL A   1      43.905  25.100  35.517  1.00  0.00     0.266 C 
ATOM     13  C   UNL A   1      45.311  25.823  37.256  1.00  0.00     0.148 C 
ATOM     14  O   UNL A   1      43.009  25.170  34.691  1.00  0.00    -0.268 OA
ATOM     15  C   UNL A   1      44.912  24.011  35.549  1.00  0.00     0.081 C 
ATOM     16  S   UNL A   1      46.134  24.371  36.698  1.00  0.00    -0.054 SA
ATOM     17  S   UNL A   1      45.953  26.785  38.458  1.00  0.00    -0.052 S 
ATOM     18  C   UNL A   1      44.781  22.920  34.785  1.00  0.00     0.029 C 
BRANCH  18  19
ATOM     19  C   UNL A   1      45.676  21.760  34.788  1.00  0.00    -0.021 A 
ATOM     20  C   UNL A   1      47.042  21.896  34.504  1.00  0.00     0.008 A 
ATOM     21  C   UNL A   1      45.165  20.501  35.115  1.00  0.00     0.054 A 
ATOM     22  C   UNL A   1      47.879  20.779  34.513  1.00  0.00     0.004 A 
ATOM     23  C   UNL A   1      46.009  19.395  35.126  1.00  0.00     0.116 A 
ATOM     24  C   UNL A   1      47.361  19.521  34.822  1.00  0.00     0.046 A 
BRANCH  23  25
ATOM     25  O   UNL A   1      45.464  18.186  35.443  1.00  0.00    -0.508 OA
ATOM     26  H   UNL A   1      45.309  17.551  34.771  1.00  0.00     0.293 HD
ENDBRANCH  23  25
ENDBRANCH  18  19
ENDBRANCH  10  11
ENDBRANCH   9  10
ENDBRANCH   8   9
ENDBRANCH   7   8
ENDBRANCH   6   7
ENDBRANCH   4   6
ENDBRANCH   1   2
BRANCH   1  27
ATOM     27  C   UNL A   1      38.290  32.277  32.674  1.00  0.00     0.021 C 
BRANCH  27  28
ATOM     28  C   UNL A   1      37.117  32.860  31.870  1.00  0.00     0.002 C 
BRANCH  28  29
ATOM     29  C   UNL A   1      35.818  32.051  31.919  1.00  0.00     0.002 C 
BRANCH  29  30
ATOM     30  C   UNL A   1      34.686  32.588  31.042  1.00  0.00     0.021 C 
BRANCH  30  31
ATOM     31  C   UNL A   1      34.979  32.603  29.544  1.00  0.00     0.116 C 
BRANCH  31  32
ATOM     32  N   UNL A   1      34.171  31.645  28.806  1.00  0.00    -0.352 N 
ATOM     33  C   UNL A   1      34.553  30.479  28.186  1.00  0.00     0.251 C 
ATOM     34  H   UNL A   1      33.212  31.863  28.740  1.00  0.00     0.163 HD
ATOM     35  O   UNL A   1      33.759  29.875  27.471  1.00  0.00    -0.269 OA
BRANCH  33  36
ATOM     36  C   UNL A   1      35.934  29.972  28.354  1.00  0.00     0.039 A 
ATOM     37  C   UNL A   1      36.835  30.107  27.296  1.00  0.00     0.014 A 
ATOM     38  C   UNL A   1      36.343  29.386  29.555  1.00  0.00     0.014 A 
ATOM     39  C   UNL A   1      38.169  29.728  27.470  1.00  0.00     0.010 A 
ATOM     40  C   UNL A   1      37.688  29.076  29.751  1.00  0.00     0.010 A 
ATOM     41  C   UNL A   1      38.617  29.254  28.715  1.00  0.00    -0.014 A 
BRANCH  41  42
ATOM     42  C   UNL A   1      40.059  28.992  28.962  1.00  0.00     0.031 A 
ATOM     43  C   UNL A   1      40.662  27.653  28.637  1.00  0.00     0.074 A 
ATOM     44  C   UNL A   1      40.812  29.942  29.551  1.00  0.00     0.049 A 
ATOM     45  N   UNL A   1      41.882  27.225  28.843  1.00  0.00    -0.248 NA
ATOM     46  C   UNL A   1      39.770  26.655  28.027  1.00  0.00     0.031 C 
ATOM     47  C   UNL A   1      40.330  31.261  29.967  1.00  0.00     0.029 A 
ATOM     48  N   UNL A   1      42.135  29.943  29.919  1.00  0.00    -0.354 N 
ATOM     49  C   UNL A   1      41.905  25.912  28.388  1.00  0.00     0.074 A 
ATOM     50  C   UNL A   1      40.561  25.594  27.955  1.00  0.00     0.031 C 
ATOM     51  C   UNL A   1      41.342  31.946  30.520  1.00  0.00     0.029 A 
ATOM     52  C   UNL A   1      42.533  31.104  30.539  1.00  0.00     0.049 A 
ATOM     53  H   UNL A   1      42.740  29.185  29.753  1.00  0.00     0.167 HD
ATOM     54  C   UNL A   1      42.955  25.058  28.315  1.00  0.00     0.037 A 
ATOM     55  C   UNL A   1      43.717  31.447  31.083  1.00  0.00     0.037 A 
ATOM     56  C   UNL A   1      44.290  25.380  28.755  1.00  0.00     0.049 A 
ATOM     57  C   UNL A   1      44.864  30.478  31.017  1.00  0.00     0.074 A 
ATOM     58  C   UNL A   1      45.432  24.604  28.681  1.00  0.00     0.029 A 
ATOM     59  N   UNL A   1      44.658  26.571  29.369  1.00  0.00    -0.354 N 
ATOM     60  N   UNL A   1      44.890  29.267  30.512  1.00  0.00    -0.248 NA
ATOM     61  C   UNL A   1      46.143  30.919  31.589  1.00  0.00     0.031 C 
ATOM     62  C   UNL A   1      46.477  25.300  29.299  1.00  0.00     0.029 A 
ATOM     63  C   UNL A   1      46.002  26.536  29.707  1.00  0.00     0.049 A 
ATOM     64  H   UNL A   1      44.053  27.329  29.538  1.00  0.00     0.167 HD
ATOM     65  C   UNL A   1      46.189  28.805  30.694  1.00  0.00     0.074 A 
ATOM     66  C   UNL A   1      46.925  29.878  31.336  1.00  0.00     0.031 C 
ATOM     67  C   UNL A   1      46.722  27.604  30.360  1.00  0.00     0.037 A 
BRANCH  54  68
ATOM     68  C   UNL A   1      42.693  23.688  27.746  1.00  0.00     0.058 A 
ATOM     69  C   UNL A   1      42.497  22.570  28.576  1.00  0.00     0.135 A 
ATOM     70  C   UNL A   1      42.635  23.484  26.358  1.00  0.00     0.135 A 
ATOM     71  F   UNL A   1      42.550  22.700  29.911  1.00  0.00    -0.206 F 
ATOM     72  C   UNL A   1      42.305  21.295  28.050  1.00  0.00     0.059 A 
ATOM     73  C   UNL A   1      42.410  22.225  25.811  1.00  0.00     0.059 A 
ATOM     74  F   UNL A   1      42.808  24.515  25.516  1.00  0.00    -0.206 F 
ATOM     75  C   UNL A   1      42.270  21.132  26.665  1.00  0.00     0.060 A 
BRANCH  75  76
ATOM     76  S   UNL A   1      42.055  19.467  26.001  1.00  0.00     0.124 S 
ATOM     77  O   UNL A   1      42.489  18.647  27.127  1.00  0.00    -0.237 OA
ATOM     78  O   UNL A   1      40.626  19.430  25.704  1.00  0.00    -0.237 OA
ATOM     79  O   UNL A   1      42.935  19.450  24.836  1.00  0.00    -0.744 OA
ENDBRANCH  75  76
ENDBRANCH  54  68
BRANCH  55  80
ATOM     80  C   UNL A   1      43.862  32.778  31.733  1.00  0.00     0.058 A 
ATOM     81  C   UNL A   1      44.184  33.920  30.987  1.00  0.00     0.135 A 
ATOM     82  C   UNL A   1      43.625  32.939  33.108  1.00  0.00     0.135 A 
ATOM     83  F   UNL A   1      44.429  33.816  29.672  1.00  0.00    -0.206 F 
ATOM     84  C   UNL A   1      44.262  35.177  31.578  1.00  0.00     0.059 A 
ATOM     85  C   UNL A   1      43.670  34.189  33.716  1.00  0.00     0.059 A 
ATOM     86  F   UNL A   1      43.300  31.879  33.864  1.00  0.00    -0.206 F 
ATOM     87  C   UNL A   1      43.991  35.303  32.943  1.00  0.00     0.060 A 
BRANCH  87  88
ATOM     88  S   UNL A   1      44.006  36.952  33.680  1.00  0.00     0.124 S 
ATOM     89  O   UNL A   1      45.279  36.945  34.392  1.00  0.00    -0.237 OA
ATOM     90  O   UNL A   1      43.938  37.812  32.503  1.00  0.00    -0.237 OA
ATOM     91  O   UNL A   1      42.812  36.956  34.519  1.00  0.00    -0.744 OA
ENDBRANCH  87  88
ENDBRANCH  55  80
BRANCH  67  92
ATOM     92  C   UNL A   1      48.176  27.378  30.677  1.00  0.00     0.058 A 
ATOM     93  C   UNL A   1      49.186  27.648  29.739  1.00  0.00     0.135 A 
ATOM     94  C   UNL A   1      48.570  26.939  31.952  1.00  0.00     0.135 A 
ATOM     95  F   UNL A   1      48.867  28.061  28.503  1.00  0.00    -0.206 F 
ATOM     96  C   UNL A   1      50.532  27.473  30.047  1.00  0.00     0.059 A 
ATOM     97  C   UNL A   1      49.911  26.786  32.292  1.00  0.00     0.059 A 
ATOM     98  F   UNL A   1      47.647  26.673  32.890  1.00  0.00    -0.206 F 
ATOM     99  C   UNL A   1      50.884  27.046  31.329  1.00  0.00     0.060 A 
BRANCH  99 100
ATOM    100  S   UNL A   1      52.636  26.863  31.726  1.00  0.00     0.124 S 
ATOM    101  O   UNL A   1      53.268  27.510  30.582  1.00  0.00    -0.237 OA
ATOM    102  O   UNL A   1      52.742  27.574  32.997  1.00  0.00    -0.237 OA
ATOM    103  O   UNL A   1      52.818  25.417  31.809  1.00  0.00    -0.744 OA
ENDBRANCH  99 100
ENDBRANCH  67  92
ENDBRANCH  41  42
ENDBRANCH  33  36
ENDBRANCH  31  32
ENDBRANCH  30  31
ENDBRANCH  29  30
ENDBRANCH  28  29
ENDBRANCH  27  28
ENDBRANCH   1  27
TORSDOF 23
ENDMDL
MODEL 3
REMARK VINA RESULT:      -8.1      5.780     12.472
REMARK SMILES O=C(CCCCCN1C(=O)/C(=C/c2cccc(O)c2)SC1=S)NCCCCCCNC(=O)c1ccc(-c2c3nc(c(-c4c(F)cc(S(=O)(=O)[O-])cc4F)c4ccc([nH]4)c(-c4c(F)cc(S(=O)(=O)[O-])cc4F)c4nc(c(-c5c(F)cc(S(=O)(=O)[O-])cc5F)c5ccc2[nH]5)C=C4)C=C3)cc1
REMARK SMILES IDX 24 1 23 2 1 3 2 4 3 6 4 7 5 8 6 9 7 10 8 11 9 12 21 13 10 14
REMARK SMILES IDX 11 15 20 16 22 17 12 18 13 19 14 20 19 21 15 22 17 23 16 24
REMARK SMILES IDX 18 25 25 27 26 28 27 29 28 30 29 31 30 32 31 33 32 35 33 36
REMARK SMILES IDX 34 37 98 38 35 39 97 40 36 41 37 42 38 43 91 44 39 45 96 46
REMARK SMILES IDX 90 47 92 48 40 49 95 50 89 51 88 52 41 54 75 55 54 56 74 57
REMARK SMILES IDX 55 58 58 59 73 60 93 61 56 62 57 63 72 65 94 66 59 67 42 68
REMARK SMILES IDX 43 69 52 70 44 71 45 72 51 73 53 74 46 75 47 76 48 77 49 78
REMARK SMILES IDX 50 79 76 80 77 81 86 82 78 83 79 84 85 85 87 86 80 87 81 88
REMARK SMILES IDX 82 89 83 90 84 91 60 92 61 93 70 94 62 95 63 96 69 97 71 98
REMARK SMILES IDX 64 99 65 100 66 101 67 102 68 103
REMARK H PARENT 23 5 18 26 30 34 92 53 58 64
REMARK Flexibility Score: inf
ROOT
ATOM      1  C   UNL A   1      35.680  23.206  24.052  1.00  0.00     0.116 C 
ENDROOT
BRANCH   1   2
ATOM      2  N   UNL A   1      35.033  24.499  24.104  1.00  0.00    -0.356 N 
ATOM      3  O   UNL A   1      33.663  24.237  22.279  1.00  0.00    -0.275 OA
ATOM      4  C   UNL A   1      34.052  24.901  23.232  1.00  0.00     0.219 C 
ATOM      5  H   UNL A   1      35.311  25.128  24.807  1.00  0.00     0.163 HD
BRANCH   4   6
ATOM      6  C   UNL A   1      33.491  26.274  23.547  1.00  0.00     0.100 C 
BRANCH   6   7
ATOM      7  C   UNL A   1      34.072  26.889  24.822  1.00  0.00     0.010 C 
BRANCH   7   8
ATOM      8  C   UNL A   1      33.137  27.784  25.643  1.00  0.00     0.002 C 
BRANCH   8   9
ATOM      9  C   UNL A   1      31.635  27.620  25.370  1.00  0.00     0.022 C 
BRANCH   9  10
ATOM     10  C   UNL A   1      30.925  26.568  26.239  1.00  0.00     0.127 C 
BRANCH  10  11
ATOM     11  N   UNL A   1      30.929  25.237  25.631  1.00  0.00    -0.293 N 
ATOM     12  C   UNL A   1      31.464  24.183  26.357  1.00  0.00     0.266 C 
ATOM     13  C   UNL A   1      30.425  24.927  24.385  1.00  0.00     0.148 C 
ATOM     14  O   UNL A   1      31.817  24.217  27.526  1.00  0.00    -0.268 OA
ATOM     15  C   UNL A   1      31.569  22.977  25.501  1.00  0.00     0.081 C 
ATOM     16  S   UNL A   1      30.770  23.244  24.006  1.00  0.00    -0.054 SA
ATOM     17  S   UNL A   1      29.599  25.911  23.321  1.00  0.00    -0.052 S 
ATOM     18  C   UNL A   1      32.248  21.895  25.902  1.00  0.00     0.029 C 
BRANCH  18  19
ATOM     19  C   UNL A   1      32.471  20.682  25.111  1.00  0.00    -0.021 A 
ATOM     20  C   UNL A   1      32.288  20.677  23.722  1.00  0.00     0.008 A 
ATOM     21  C   UNL A   1      32.909  19.519  25.750  1.00  0.00     0.054 A 
ATOM     22  C   UNL A   1      32.506  19.512  22.985  1.00  0.00     0.004 A 
ATOM     23  C   UNL A   1      33.128  18.364  25.006  1.00  0.00     0.116 A 
ATOM     24  C   UNL A   1      32.925  18.347  23.629  1.00  0.00     0.046 A 
BRANCH  23  25
ATOM     25  O   UNL A   1      33.548  17.251  25.673  1.00  0.00    -0.508 OA
ATOM     26  H   UNL A   1      33.708  17.292  26.596  1.00  0.00     0.293 HD
ENDBRANCH  23  25
ENDBRANCH  18  19
ENDBRANCH  10  11
ENDBRANCH   9  10
ENDBRANCH   8   9
ENDBRANCH   7   8
ENDBRANCH   6   7
ENDBRANCH   4   6
ENDBRANCH   1   2
BRANCH   1  27
ATOM     27  C   UNL A   1      36.958  23.205  24.890  1.00  0.00     0.021 C 
BRANCH  27  28
ATOM     28  C   UNL A   1      37.646  21.837  25.027  1.00  0.00     0.002 C 
BRANCH  28  29
ATOM     29  C   UNL A   1      38.940  21.828  25.845  1.00  0.00     0.002 C 
BRANCH  29  30
ATOM     30  C   UNL A   1      39.263  23.140  26.562  1.00  0.00     0.021 C 
BRANCH  30  31
ATOM     31  C   UNL A   1      40.698  23.266  27.064  1.00  0.00     0.116 C 
BRANCH  31  32
ATOM     32  N   UNL A   1      41.572  23.921  26.102  1.00  0.00    -0.352 N 
ATOM     33  C   UNL A   1      41.948  25.242  26.026  1.00  0.00     0.251 C 
ATOM     34  H   UNL A   1      41.949  23.335  25.406  1.00  0.00     0.163 HD
ATOM     35  O   UNL A   1      42.568  25.648  25.048  1.00  0.00    -0.269 OA
BRANCH  33  36
ATOM     36  C   UNL A   1      41.572  26.179  27.109  1.00  0.00     0.039 A 
ATOM     37  C   UNL A   1      40.564  25.809  28.002  1.00  0.00     0.014 A 
ATOM     38  C   UNL A   1      42.223  27.407  27.255  1.00  0.00     0.014 A 
ATOM     39  C   UNL A   1      40.265  26.633  29.089  1.00  0.00     0.010 A 
ATOM     40  C   UNL A   1      41.974  28.193  28.379  1.00  0.00     0.010 A 
ATOM     41  C   UNL A   1      41.001  27.809  29.314  1.00  0.00    -0.014 A 
BRANCH  41  42
ATOM     42  C   UNL A   1      40.800  28.617  30.546  1.00  0.00     0.031 A 
ATOM     43  C   UNL A   1      39.753  29.695  30.594  1.00  0.00     0.074 A 
ATOM     44  C   UNL A   1      41.616  28.425  31.601  1.00  0.00     0.049 A 
ATOM     45  N   UNL A   1      39.480  30.538  31.558  1.00  0.00    -0.248 NA
ATOM     46  C   UNL A   1      38.923  29.866  29.392  1.00  0.00     0.031 C 
ATOM     47  C   UNL A   1      42.708  27.450  31.656  1.00  0.00     0.029 A 
ATOM     48  N   UNL A   1      41.670  29.050  32.823  1.00  0.00    -0.354 N 
ATOM     49  C   UNL A   1      38.449  31.338  31.080  1.00  0.00     0.074 A 
ATOM     50  C   UNL A   1      38.190  30.921  29.719  1.00  0.00     0.031 C 
ATOM     51  C   UNL A   1      43.313  27.533  32.850  1.00  0.00     0.029 A 
ATOM     52  C   UNL A   1      42.685  28.595  33.630  1.00  0.00     0.049 A 
ATOM     53  H   UNL A   1      41.040  29.757  33.094  1.00  0.00     0.167 HD
ATOM     54  C   UNL A   1      37.764  32.314  31.726  1.00  0.00     0.037 A 
ATOM     55  C   UNL A   1      43.082  28.998  34.853  1.00  0.00     0.037 A 
ATOM     56  C   UNL A   1      38.033  32.728  33.080  1.00  0.00     0.049 A 
ATOM     57  C   UNL A   1      42.329  30.100  35.544  1.00  0.00     0.074 A 
ATOM     58  C   UNL A   1      37.367  33.673  33.840  1.00  0.00     0.029 A 
ATOM     59  N   UNL A   1      39.063  32.236  33.872  1.00  0.00    -0.354 N 
ATOM     60  N   UNL A   1      41.304  30.794  35.109  1.00  0.00    -0.248 NA
ATOM     61  C   UNL A   1      42.779  30.471  36.892  1.00  0.00     0.031 C 
ATOM     62  C   UNL A   1      38.027  33.792  35.069  1.00  0.00     0.029 A 
ATOM     63  C   UNL A   1      39.070  32.880  35.099  1.00  0.00     0.049 A 
ATOM     64  H   UNL A   1      39.695  31.531  33.600  1.00  0.00     0.167 HD
ATOM     65  C   UNL A   1      40.978  31.677  36.133  1.00  0.00     0.074 A 
ATOM     66  C   UNL A   1      41.903  31.413  37.218  1.00  0.00     0.031 C 
ATOM     67  C   UNL A   1      40.004  32.620  36.168  1.00  0.00     0.037 A 
BRANCH  54  68
ATOM     68  C   UNL A   1      36.664  33.006  30.964  1.00  0.00     0.058 A 
ATOM     69  C   UNL A   1      36.943  33.944  29.954  1.00  0.00     0.135 A 
ATOM     70  C   UNL A   1      35.314  32.731  31.239  1.00  0.00     0.135 A 
ATOM     71  F   UNL A   1      38.213  34.255  29.652  1.00  0.00    -0.206 F 
ATOM     72  C   UNL A   1      35.926  34.620  29.285  1.00  0.00     0.059 A 
ATOM     73  C   UNL A   1      34.282  33.369  30.559  1.00  0.00     0.059 A 
ATOM     74  F   UNL A   1      34.987  31.839  32.188  1.00  0.00    -0.206 F 
ATOM     75  C   UNL A   1      34.598  34.330  29.600  1.00  0.00     0.060 A 
BRANCH  75  76
ATOM     76  S   UNL A   1      33.294  35.242  28.747  1.00  0.00     0.124 S 
ATOM     77  O   UNL A   1      32.634  34.175  28.002  1.00  0.00    -0.237 OA
ATOM     78  O   UNL A   1      32.530  35.806  29.855  1.00  0.00    -0.237 OA
ATOM     79  O   UNL A   1      34.029  36.210  27.939  1.00  0.00    -0.744 OA
ENDBRANCH  75  76
ENDBRANCH  54  68
BRANCH  55  80
ATOM     80  C   UNL A   1      44.256  28.342  35.492  1.00  0.00     0.058 A 
ATOM     81  C   UNL A   1      44.108  27.182  36.265  1.00  0.00     0.135 A 
ATOM     82  C   UNL A   1      45.556  28.834  35.291  1.00  0.00     0.135 A 
ATOM     83  F   UNL A   1      42.885  26.678  36.493  1.00  0.00    -0.206 F 
ATOM     84  C   UNL A   1      45.207  26.529  36.814  1.00  0.00     0.059 A 
ATOM     85  C   UNL A   1      46.671  28.184  35.807  1.00  0.00     0.059 A 
ATOM     86  F   UNL A   1      45.752  29.933  34.547  1.00  0.00    -0.206 F 
ATOM     87  C   UNL A   1      46.487  27.031  36.570  1.00  0.00     0.060 A 
BRANCH  87  88
ATOM     88  S   UNL A   1      47.911  26.124  37.212  1.00  0.00     0.124 S 
ATOM     89  O   UNL A   1      48.966  27.127  37.116  1.00  0.00    -0.237 OA
ATOM     90  O   UNL A   1      47.472  25.786  38.562  1.00  0.00    -0.237 OA
ATOM     91  O   UNL A   1      48.029  24.993  36.297  1.00  0.00    -0.744 OA
ENDBRANCH  87  88
ENDBRANCH  55  80
BRANCH  67  92
ATOM     92  C   UNL A   1      39.879  33.439  37.425  1.00  0.00     0.058 A 
ATOM     93  C   UNL A   1      40.660  34.588  37.638  1.00  0.00     0.135 A 
ATOM     94  C   UNL A   1      38.930  33.105  38.405  1.00  0.00     0.135 A 
ATOM     95  F   UNL A   1      41.589  34.949  36.739  1.00  0.00    -0.206 F 
ATOM     96  C   UNL A   1      40.516  35.363  38.784  1.00  0.00     0.059 A 
ATOM     97  C   UNL A   1      38.748  33.883  39.544  1.00  0.00     0.059 A 
ATOM     98  F   UNL A   1      38.152  32.022  38.250  1.00  0.00    -0.206 F 
ATOM     99  C   UNL A   1      39.554  35.005  39.730  1.00  0.00     0.060 A 
BRANCH  99 100
ATOM    100  S   UNL A   1      39.352  36.045  41.192  1.00  0.00     0.124 S 
ATOM    101  O   UNL A   1      39.614  37.373  40.648  1.00  0.00    -0.237 OA
ATOM    102  O   UNL A   1      37.969  35.777  41.574  1.00  0.00    -0.237 OA
ATOM    103  O   UNL A   1      40.361  35.534  42.116  1.00  0.00    -0.744 OA
ENDBRANCH  99 100
ENDBRANCH  67  92
ENDBRANCH  41  42
ENDBRANCH  33  36
ENDBRANCH  31  32
ENDBRANCH  30  31
ENDBRANCH  29  30
ENDBRANCH  28  29
ENDBRANCH  27  28
ENDBRANCH   1  27
TORSDOF 23
ENDMDL
