MODEL 1
REMARK VINA RESULT:     -12.7      0.000      0.000
REMARK SMILES Cc1ccc(Nc2c(F)cccc2I)c(CC(=O)NCCCCCCNC(=O)c2ccc(-c3c4nc(c(-c5c(F)cc(S(=O)(=O)[O-])cc5F)c5ccc([nH]5)c(-c5c(F)cc(S(=O)(=O)[O-])cc5F)c5nc(c(-c6c(F)cc(S(=O)(=O)[O-])cc6F)c6ccc3[nH]6)C=C5)C=C4)cc2)c1
REMARK SMILES IDX 22 1 21 2 20 3 19 4 17 5 18 6 16 8 15 9 1 10 2 11 3 12 95 13
REMARK SMILES IDX 4 14 5 15 6 16 7 18 8 19 13 20 9 21 10 22 12 23 14 24 11 25
REMARK SMILES IDX 23 26 24 27 25 28 26 29 27 30 28 32 29 33 30 34 94 35 31 36
REMARK SMILES IDX 93 37 32 38 33 39 34 40 87 41 35 42 92 43 86 44 88 45 36 46
REMARK SMILES IDX 91 47 85 48 84 49 37 51 71 52 50 53 70 54 51 55 54 56 69 57
REMARK SMILES IDX 89 58 52 59 53 60 68 62 90 63 55 64 38 65 39 66 48 67 40 68
REMARK SMILES IDX 41 69 47 70 49 71 42 72 43 73 44 74 45 75 46 76 72 77 73 78
REMARK SMILES IDX 82 79 74 80 75 81 81 82 83 83 76 84 77 85 78 86 79 87 80 88
REMARK SMILES IDX 56 89 57 90 66 91 58 92 59 93 65 94 67 95 60 96 61 97 62 98
REMARK SMILES IDX 63 99 64 100
REMARK H PARENT 19 7 6 17 26 31 88 50 54 61
REMARK Flexibility Score: inf
ROOT
ATOM      1  C   UNL A   1      32.138  28.251  24.945  1.00  0.00     0.002 C 
ENDROOT
BRANCH   1   2
ATOM      2  C   UNL A   1      32.500  27.040  25.815  1.00  0.00     0.021 C 
BRANCH   2   3
ATOM      3  C   UNL A   1      31.311  26.258  26.379  1.00  0.00     0.116 C 
BRANCH   3   4
ATOM      4  N   UNL A   1      31.720  25.061  27.085  1.00  0.00    -0.356 N 
ATOM      5  C   UNL A   1      31.539  23.756  26.738  1.00  0.00     0.224 C 
ATOM      6  O   UNL A   1      31.911  22.878  27.521  1.00  0.00    -0.275 OA
ATOM      7  H   UNL A   1      32.194  25.211  27.934  1.00  0.00     0.163 HD
BRANCH   5   8
ATOM      8  C   UNL A   1      30.889  23.381  25.419  1.00  0.00     0.137 C 
BRANCH   8   9
ATOM      9  C   UNL A   1      31.778  23.558  24.207  1.00  0.00    -0.015 A 
ATOM     10  C   UNL A   1      31.923  26.026  21.281  1.00  0.00     0.044 C 
ATOM     11  C   UNL A   1      32.251  24.889  22.202  1.00  0.00    -0.051 A 
ATOM     12  C   UNL A   1      33.303  24.029  21.903  1.00  0.00     0.005 A 
ATOM     13  C   UNL A   1      31.512  24.661  23.364  1.00  0.00     0.009 A 
ATOM     14  C   UNL A   1      33.600  22.955  22.748  1.00  0.00     0.026 A 
ATOM     15  C   UNL A   1      32.846  22.684  23.902  1.00  0.00     0.042 A 
BRANCH  15  16
ATOM     16  N   UNL A   1      33.170  21.597  24.743  1.00  0.00    -0.352 N 
ATOM     17  H   UNL A   1      32.449  21.312  25.351  1.00  0.00     0.167 HD
BRANCH  16  18
ATOM     18  C   UNL A   1      34.371  20.857  24.848  1.00  0.00     0.088 A 
ATOM     19  C   UNL A   1      35.595  21.473  25.153  1.00  0.00     0.147 A 
ATOM     20  C   UNL A   1      34.397  19.474  24.580  1.00  0.00     0.040 A 
ATOM     21  F   UNL A   1      35.644  22.783  25.446  1.00  0.00    -0.205 F 
ATOM     22  C   UNL A   1      36.792  20.757  25.199  1.00  0.00     0.041 A 
ATOM     23  C   UNL A   1      35.596  18.748  24.622  1.00  0.00     0.017 A 
ATOM     24  I   UNL A   1      32.661  18.414  24.046  1.00  0.00    -0.042 I 
ATOM     25  C   UNL A   1      36.794  19.392  24.931  1.00  0.00     0.004 A 
ENDBRANCH  16  18
ENDBRANCH  15  16
ENDBRANCH   8   9
ENDBRANCH   5   8
ENDBRANCH   3   4
ENDBRANCH   2   3
ENDBRANCH   1   2
BRANCH   1  26
ATOM     26  C   UNL A   1      32.921  29.545  25.208  1.00  0.00     0.002 C 
BRANCH  26  27
ATOM     27  C   UNL A   1      33.189  29.898  26.673  1.00  0.00     0.021 C 
BRANCH  27  28
ATOM     28  C   UNL A   1      34.635  29.673  27.110  1.00  0.00     0.116 C 
BRANCH  28  29
ATOM     29  N   UNL A   1      35.283  30.905  27.545  1.00  0.00    -0.352 N 
ATOM     30  C   UNL A   1      36.519  31.076  28.144  1.00  0.00     0.251 C 
ATOM     31  H   UNL A   1      34.769  31.731  27.392  1.00  0.00     0.163 HD
ATOM     32  O   UNL A   1      36.888  32.153  28.542  1.00  0.00    -0.269 OA
BRANCH  30  33
ATOM     33  C   UNL A   1      37.412  29.893  28.209  1.00  0.00     0.039 A 
ATOM     34  C   UNL A   1      37.435  29.158  29.400  1.00  0.00     0.014 A 
ATOM     35  C   UNL A   1      38.337  29.649  27.197  1.00  0.00     0.014 A 
ATOM     36  C   UNL A   1      38.501  28.295  29.650  1.00  0.00     0.010 A 
ATOM     37  C   UNL A   1      39.424  28.841  27.474  1.00  0.00     0.010 A 
ATOM     38  C   UNL A   1      39.537  28.207  28.723  1.00  0.00    -0.014 A 
BRANCH  38  39
ATOM     39  C   UNL A   1      40.839  27.606  29.009  1.00  0.00     0.031 A 
ATOM     40  C   UNL A   1      41.106  26.176  28.717  1.00  0.00     0.074 A 
ATOM     41  C   UNL A   1      41.861  28.403  29.393  1.00  0.00     0.049 A 
ATOM     42  N   UNL A   1      42.207  25.571  29.014  1.00  0.00    -0.248 NA
ATOM     43  C   UNL A   1      40.109  25.282  28.130  1.00  0.00     0.031 C 
ATOM     44  C   UNL A   1      43.289  28.128  29.277  1.00  0.00     0.029 A 
ATOM     45  N   UNL A   1      41.795  29.544  30.198  1.00  0.00    -0.354 N 
ATOM     46  C   UNL A   1      42.189  24.344  28.401  1.00  0.00     0.074 A 
ATOM     47  C   UNL A   1      40.821  24.159  27.988  1.00  0.00     0.031 C 
ATOM     48  C   UNL A   1      43.956  28.893  30.152  1.00  0.00     0.029 A 
ATOM     49  C   UNL A   1      42.971  29.564  30.978  1.00  0.00     0.049 A 
ATOM     50  H   UNL A   1      41.068  30.208  30.216  1.00  0.00     0.167 HD
ATOM     51  C   UNL A   1      43.367  23.690  28.196  1.00  0.00     0.037 A 
ATOM     52  C   UNL A   1      42.904  29.459  32.340  1.00  0.00     0.037 A 
ATOM     53  C   UNL A   1      44.422  24.215  29.065  1.00  0.00     0.049 A 
ATOM     54  C   UNL A   1      43.532  28.207  32.920  1.00  0.00     0.074 A 
ATOM     55  C   UNL A   1      45.565  24.974  28.895  1.00  0.00     0.029 A 
ATOM     56  N   UNL A   1      44.228  24.122  30.435  1.00  0.00    -0.354 N 
ATOM     57  N   UNL A   1      44.152  27.295  32.222  1.00  0.00    -0.248 NA
ATOM     58  C   UNL A   1      43.437  27.850  34.338  1.00  0.00     0.031 C 
ATOM     59  C   UNL A   1      45.987  25.425  30.186  1.00  0.00     0.029 A 
ATOM     60  C   UNL A   1      45.121  24.908  31.134  1.00  0.00     0.049 A 
ATOM     61  H   UNL A   1      43.537  23.562  30.859  1.00  0.00     0.167 HD
ATOM     62  C   UNL A   1      44.435  26.227  33.029  1.00  0.00     0.074 A 
ATOM     63  C   UNL A   1      44.009  26.634  34.356  1.00  0.00     0.031 C 
ATOM     64  C   UNL A   1      44.941  25.050  32.568  1.00  0.00     0.037 A 
BRANCH  51  65
ATOM     65  C   UNL A   1      43.602  22.654  27.115  1.00  0.00     0.058 A 
ATOM     66  C   UNL A   1      42.989  21.383  27.197  1.00  0.00     0.135 A 
ATOM     67  C   UNL A   1      44.531  22.789  26.056  1.00  0.00     0.135 A 
ATOM     68  F   UNL A   1      42.107  21.102  28.167  1.00  0.00    -0.206 F 
ATOM     69  C   UNL A   1      43.286  20.336  26.315  1.00  0.00     0.059 A 
ATOM     70  C   UNL A   1      44.800  21.778  25.133  1.00  0.00     0.059 A 
ATOM     71  F   UNL A   1      45.290  23.880  25.902  1.00  0.00    -0.206 F 
ATOM     72  C   UNL A   1      44.198  20.542  25.287  1.00  0.00     0.060 A 
BRANCH  72  73
ATOM     73  S   UNL A   1      44.635  19.188  24.180  1.00  0.00     0.124 S 
ATOM     74  O   UNL A   1      43.635  18.184  24.531  1.00  0.00    -0.237 OA
ATOM     75  O   UNL A   1      44.492  19.797  22.862  1.00  0.00    -0.237 OA
ATOM     76  O   UNL A   1      46.005  18.864  24.567  1.00  0.00    -0.744 OA
ENDBRANCH  72  73
ENDBRANCH  51  65
BRANCH  52  77
ATOM     77  C   UNL A   1      41.735  30.182  32.908  1.00  0.00     0.058 A 
ATOM     78  C   UNL A   1      41.859  31.575  33.078  1.00  0.00     0.135 A 
ATOM     79  C   UNL A   1      40.443  29.644  32.839  1.00  0.00     0.135 A 
ATOM     80  F   UNL A   1      43.077  32.134  33.172  1.00  0.00    -0.206 F 
ATOM     81  C   UNL A   1      40.759  32.417  32.992  1.00  0.00     0.059 A 
ATOM     82  C   UNL A   1      39.323  30.471  32.766  1.00  0.00     0.059 A 
ATOM     83  F   UNL A   1      40.267  28.323  32.682  1.00  0.00    -0.206 F 
ATOM     84  C   UNL A   1      39.506  31.855  32.761  1.00  0.00     0.060 A 
BRANCH  84  85
ATOM     85  S   UNL A   1      38.172  32.960  32.243  1.00  0.00     0.124 S 
ATOM     86  O   UNL A   1      38.666  33.453  30.962  1.00  0.00    -0.237 OA
ATOM     87  O   UNL A   1      37.043  32.035  32.174  1.00  0.00    -0.237 OA
ATOM     88  O   UNL A   1      38.115  33.942  33.319  1.00  0.00    -0.744 OA
ENDBRANCH  84  85
ENDBRANCH  52  77
BRANCH  64  89
ATOM     89  C   UNL A   1      45.267  23.920  33.490  1.00  0.00     0.058 A 
ATOM     90  C   UNL A   1      46.568  23.743  33.987  1.00  0.00     0.135 A 
ATOM     91  C   UNL A   1      44.323  22.927  33.807  1.00  0.00     0.135 A 
ATOM     92  F   UNL A   1      47.528  24.643  33.718  1.00  0.00    -0.206 F 
ATOM     93  C   UNL A   1      46.917  22.638  34.761  1.00  0.00     0.059 A 
ATOM     94  C   UNL A   1      44.656  21.798  34.551  1.00  0.00     0.059 A 
ATOM     95  F   UNL A   1      43.044  23.043  33.413  1.00  0.00    -0.206 F 
ATOM     96  C   UNL A   1      45.954  21.667  35.034  1.00  0.00     0.060 A 
BRANCH  96  97
ATOM     97  S   UNL A   1      46.411  20.203  35.984  1.00  0.00     0.124 S 
ATOM     98  O   UNL A   1      47.831  20.415  36.248  1.00  0.00    -0.237 OA
ATOM     99  O   UNL A   1      45.530  20.320  37.142  1.00  0.00    -0.237 OA
ATOM    100  O   UNL A   1      46.109  19.106  35.069  1.00  0.00    -0.744 OA
ENDBRANCH  96  97
ENDBRANCH  64  89
ENDBRANCH  38  39
ENDBRANCH  30  33
ENDBRANCH  28  29
ENDBRANCH  27  28
ENDBRANCH  26  27
ENDBRANCH   1  26
TORSDOF 19
ENDMDL
MODEL 2
REMARK VINA RESULT:     -12.6      2.440      3.288
REMARK SMILES Cc1ccc(Nc2c(F)cccc2I)c(CC(=O)NCCCCCCNC(=O)c2ccc(-c3c4nc(c(-c5c(F)cc(S(=O)(=O)[O-])cc5F)c5ccc([nH]5)c(-c5c(F)cc(S(=O)(=O)[O-])cc5F)c5nc(c(-c6c(F)cc(S(=O)(=O)[O-])cc6F)c6ccc3[nH]6)C=C5)C=C4)cc2)c1
REMARK SMILES IDX 22 1 21 2 20 3 19 4 17 5 18 6 16 8 15 9 1 10 2 11 3 12 95 13
REMARK SMILES IDX 4 14 5 15 6 16 7 18 8 19 13 20 9 21 10 22 12 23 14 24 11 25
REMARK SMILES IDX 23 26 24 27 25 28 26 29 27 30 28 32 29 33 30 34 94 35 31 36
REMARK SMILES IDX 93 37 32 38 33 39 34 40 87 41 35 42 92 43 86 44 88 45 36 46
REMARK SMILES IDX 91 47 85 48 84 49 37 51 71 52 50 53 70 54 51 55 54 56 69 57
REMARK SMILES IDX 89 58 52 59 53 60 68 62 90 63 55 64 38 65 39 66 48 67 40 68
REMARK SMILES IDX 41 69 47 70 49 71 42 72 43 73 44 74 45 75 46 76 72 77 73 78
REMARK SMILES IDX 82 79 74 80 75 81 81 82 83 83 76 84 77 85 78 86 79 87 80 88
REMARK SMILES IDX 56 89 57 90 66 91 58 92 59 93 65 94 67 95 60 96 61 97 62 98
REMARK SMILES IDX 63 99 64 100
REMARK H PARENT 19 7 6 17 26 31 88 50 54 61
REMARK Flexibility Score: inf
ROOT
ATOM      1  C   UNL A   1      33.935  28.710  24.584  1.00  0.00     0.002 C 
ENDROOT
BRANCH   1   2
ATOM      2  C   UNL A   1      34.294  28.313  23.145  1.00  0.00     0.021 C 
BRANCH   2   3
ATOM      3  C   UNL A   1      33.122  28.273  22.163  1.00  0.00     0.116 C 
BRANCH   3   4
ATOM      4  N   UNL A   1      33.055  27.024  21.431  1.00  0.00    -0.356 N 
ATOM      5  C   UNL A   1      33.154  25.749  21.898  1.00  0.00     0.224 C 
ATOM      6  O   UNL A   1      33.134  24.818  21.088  1.00  0.00    -0.275 OA
ATOM      7  H   UNL A   1      32.921  27.110  20.460  1.00  0.00     0.163 HD
BRANCH   5   8
ATOM      8  C   UNL A   1      33.288  25.469  23.383  1.00  0.00     0.137 C 
BRANCH   8   9
ATOM      9  C   UNL A   1      31.978  25.455  24.142  1.00  0.00    -0.015 A 
ATOM     10  C   UNL A   1      28.591  27.200  23.745  1.00  0.00     0.044 C 
ATOM     11  C   UNL A   1      29.686  26.321  24.269  1.00  0.00    -0.051 A 
ATOM     12  C   UNL A   1      29.490  25.574  25.426  1.00  0.00     0.005 A 
ATOM     13  C   UNL A   1      30.921  26.237  23.623  1.00  0.00     0.009 A 
ATOM     14  C   UNL A   1      30.515  24.768  25.931  1.00  0.00     0.026 A 
ATOM     15  C   UNL A   1      31.777  24.698  25.318  1.00  0.00     0.042 A 
BRANCH  15  16
ATOM     16  N   UNL A   1      32.795  23.872  25.842  1.00  0.00    -0.352 N 
ATOM     17  H   UNL A   1      33.316  24.268  26.579  1.00  0.00     0.167 HD
BRANCH  16  18
ATOM     18  C   UNL A   1      33.182  22.563  25.472  1.00  0.00     0.088 A 
ATOM     19  C   UNL A   1      32.252  21.514  25.381  1.00  0.00     0.147 A 
ATOM     20  C   UNL A   1      34.535  22.242  25.248  1.00  0.00     0.040 A 
ATOM     21  F   UNL A   1      30.942  21.750  25.556  1.00  0.00    -0.205 F 
ATOM     22  C   UNL A   1      32.638  20.209  25.075  1.00  0.00     0.041 A 
ATOM     23  C   UNL A   1      34.931  20.931  24.943  1.00  0.00     0.017 A 
ATOM     24  I   UNL A   1      36.060  23.682  25.409  1.00  0.00    -0.042 I 
ATOM     25  C   UNL A   1      33.980  19.915  24.857  1.00  0.00     0.004 A 
ENDBRANCH  16  18
ENDBRANCH  15  16
ENDBRANCH   8   9
ENDBRANCH   5   8
ENDBRANCH   3   4
ENDBRANCH   2   3
ENDBRANCH   1   2
BRANCH   1  26
ATOM     26  C   UNL A   1      32.524  29.269  24.810  1.00  0.00     0.002 C 
BRANCH  26  27
ATOM     27  C   UNL A   1      31.860  28.934  26.148  1.00  0.00     0.021 C 
BRANCH  27  28
ATOM     28  C   UNL A   1      32.736  29.225  27.364  1.00  0.00     0.116 C 
BRANCH  28  29
ATOM     29  N   UNL A   1      33.083  30.638  27.474  1.00  0.00    -0.352 N 
ATOM     30  C   UNL A   1      34.254  31.214  27.936  1.00  0.00     0.251 C 
ATOM     31  H   UNL A   1      32.388  31.269  27.181  1.00  0.00     0.163 HD
ATOM     32  O   UNL A   1      34.365  32.409  28.064  1.00  0.00    -0.269 OA
BRANCH  30  33
ATOM     33  C   UNL A   1      35.400  30.311  28.198  1.00  0.00     0.039 A 
ATOM     34  C   UNL A   1      35.565  29.824  29.500  1.00  0.00     0.014 A 
ATOM     35  C   UNL A   1      36.385  30.119  27.231  1.00  0.00     0.014 A 
ATOM     36  C   UNL A   1      36.798  29.300  29.884  1.00  0.00     0.010 A 
ATOM     37  C   UNL A   1      37.625  29.657  27.631  1.00  0.00     0.010 A 
ATOM     38  C   UNL A   1      37.851  29.299  28.971  1.00  0.00    -0.014 A 
BRANCH  38  39
ATOM     39  C   UNL A   1      39.250  29.087  29.340  1.00  0.00     0.031 A 
ATOM     40  C   UNL A   1      39.932  27.802  29.056  1.00  0.00     0.074 A 
ATOM     41  C   UNL A   1      39.975  30.133  29.797  1.00  0.00     0.049 A 
ATOM     42  N   UNL A   1      41.140  27.528  29.422  1.00  0.00    -0.248 NA
ATOM     43  C   UNL A   1      39.272  26.676  28.396  1.00  0.00     0.031 C 
ATOM     44  C   UNL A   1      41.426  30.280  29.775  1.00  0.00     0.029 A 
ATOM     45  N   UNL A   1      39.534  31.186  30.604  1.00  0.00    -0.354 N 
ATOM     46  C   UNL A   1      41.513  26.364  28.800  1.00  0.00     0.074 A 
ATOM     47  C   UNL A   1      40.284  25.807  28.294  1.00  0.00     0.031 C 
ATOM     48  C   UNL A   1      41.790  31.180  30.699  1.00  0.00     0.029 A 
ATOM     49  C   UNL A   1      40.605  31.520  31.462  1.00  0.00     0.049 A 
ATOM     50  H   UNL A   1      38.648  31.614  30.578  1.00  0.00     0.167 HD
ATOM     51  C   UNL A   1      42.839  26.079  28.670  1.00  0.00     0.037 A 
ATOM     52  C   UNL A   1      40.486  31.365  32.816  1.00  0.00     0.037 A 
ATOM     53  C   UNL A   1      43.643  26.860  29.612  1.00  0.00     0.049 A 
ATOM     54  C   UNL A   1      41.408  30.329  33.427  1.00  0.00     0.074 A 
ATOM     55  C   UNL A   1      44.529  27.917  29.524  1.00  0.00     0.029 A 
ATOM     56  N   UNL A   1      43.399  26.679  30.965  1.00  0.00    -0.354 N 
ATOM     57  N   UNL A   1      42.306  29.650  32.766  1.00  0.00    -0.248 NA
ATOM     58  C   UNL A   1      41.332  29.923  34.833  1.00  0.00     0.031 C 
ATOM     59  C   UNL A   1      44.723  28.436  30.844  1.00  0.00     0.029 A 
ATOM     60  C   UNL A   1      43.984  27.669  31.727  1.00  0.00     0.049 A 
ATOM     61  H   UNL A   1      42.872  25.935  31.337  1.00  0.00     0.167 HD
ATOM     62  C   UNL A   1      42.832  28.687  33.582  1.00  0.00     0.074 A 
ATOM     63  C   UNL A   1      42.225  28.920  34.880  1.00  0.00     0.031 C 
ATOM     64  C   UNL A   1      43.682  27.716  33.147  1.00  0.00     0.037 A 
BRANCH  51  65
ATOM     65  C   UNL A   1      43.428  25.181  27.599  1.00  0.00     0.058 A 
ATOM     66  C   UNL A   1      44.237  24.079  27.955  1.00  0.00     0.135 A 
ATOM     67  C   UNL A   1      43.362  25.434  26.209  1.00  0.00     0.135 A 
ATOM     68  F   UNL A   1      44.413  23.737  29.240  1.00  0.00    -0.206 F 
ATOM     69  C   UNL A   1      44.930  23.307  27.014  1.00  0.00     0.059 A 
ATOM     70  C   UNL A   1      43.999  24.646  25.251  1.00  0.00     0.059 A 
ATOM     71  F   UNL A   1      42.742  26.507  25.703  1.00  0.00    -0.206 F 
ATOM     72  C   UNL A   1      44.809  23.602  25.661  1.00  0.00     0.060 A 
BRANCH  72  73
ATOM     73  S   UNL A   1      45.741  22.656  24.442  1.00  0.00     0.124 S 
ATOM     74  O   UNL A   1      44.680  22.183  23.559  1.00  0.00    -0.237 OA
ATOM     75  O   UNL A   1      46.639  23.659  23.881  1.00  0.00    -0.237 OA
ATOM     76  O   UNL A   1      46.392  21.623  25.243  1.00  0.00    -0.744 OA
ENDBRANCH  72  73
ENDBRANCH  51  65
BRANCH  52  77
ATOM     77  C   UNL A   1      39.126  31.709  33.308  1.00  0.00     0.058 A 
ATOM     78  C   UNL A   1      38.824  33.076  33.467  1.00  0.00     0.135 A 
ATOM     79  C   UNL A   1      38.056  30.814  33.176  1.00  0.00     0.135 A 
ATOM     80  F   UNL A   1      39.816  33.969  33.620  1.00  0.00    -0.206 F 
ATOM     81  C   UNL A   1      37.532  33.556  33.310  1.00  0.00     0.059 A 
ATOM     82  C   UNL A   1      36.748  31.274  33.031  1.00  0.00     0.059 A 
ATOM     83  F   UNL A   1      38.286  29.501  33.028  1.00  0.00    -0.206 F 
ATOM     84  C   UNL A   1      36.514  32.650  33.018  1.00  0.00     0.060 A 
BRANCH  84  85
ATOM     85  S   UNL A   1      34.946  33.316  32.413  1.00  0.00     0.124 S 
ATOM     86  O   UNL A   1      34.135  33.335  33.624  1.00  0.00    -0.237 OA
ATOM     87  O   UNL A   1      35.364  34.622  31.908  1.00  0.00    -0.237 OA
ATOM     88  O   UNL A   1      34.543  32.350  31.397  1.00  0.00    -0.744 OA
ENDBRANCH  84  85
ENDBRANCH  52  77
BRANCH  64  89
ATOM     89  C   UNL A   1      44.260  26.702  34.081  1.00  0.00     0.058 A 
ATOM     90  C   UNL A   1      45.636  26.672  34.357  1.00  0.00     0.135 A 
ATOM     91  C   UNL A   1      43.477  25.670  34.630  1.00  0.00     0.135 A 
ATOM     92  F   UNL A   1      46.451  27.617  33.858  1.00  0.00    -0.206 F 
ATOM     93  C   UNL A   1      46.209  25.672  35.139  1.00  0.00     0.059 A 
ATOM     94  C   UNL A   1      44.032  24.642  35.388  1.00  0.00     0.059 A 
ATOM     95  F   UNL A   1      42.146  25.650  34.456  1.00  0.00    -0.206 F 
ATOM     96  C   UNL A   1      45.400  24.657  35.646  1.00  0.00     0.060 A 
BRANCH  96  97
ATOM     97  S   UNL A   1      46.141  23.324  36.610  1.00  0.00     0.124 S 
ATOM     98  O   UNL A   1      47.566  23.474  36.333  1.00  0.00    -0.237 OA
ATOM     99  O   UNL A   1      45.722  23.675  37.963  1.00  0.00    -0.237 OA
ATOM    100  O   UNL A   1      45.525  22.126  36.048  1.00  0.00    -0.744 OA
ENDBRANCH  96  97
ENDBRANCH  64  89
ENDBRANCH  38  39
ENDBRANCH  30  33
ENDBRANCH  28  29
ENDBRANCH  27  28
ENDBRANCH  26  27
ENDBRANCH   1  26
TORSDOF 19
ENDMDL
MODEL 3
REMARK VINA RESULT:     -12.5      1.709      2.320
REMARK SMILES Cc1ccc(Nc2c(F)cccc2I)c(CC(=O)NCCCCCCNC(=O)c2ccc(-c3c4nc(c(-c5c(F)cc(S(=O)(=O)[O-])cc5F)c5ccc([nH]5)c(-c5c(F)cc(S(=O)(=O)[O-])cc5F)c5nc(c(-c6c(F)cc(S(=O)(=O)[O-])cc6F)c6ccc3[nH]6)C=C5)C=C4)cc2)c1
REMARK SMILES IDX 22 1 21 2 20 3 19 4 17 5 18 6 16 8 15 9 1 10 2 11 3 12 95 13
REMARK SMILES IDX 4 14 5 15 6 16 7 18 8 19 13 20 9 21 10 22 12 23 14 24 11 25
REMARK SMILES IDX 23 26 24 27 25 28 26 29 27 30 28 32 29 33 30 34 94 35 31 36
REMARK SMILES IDX 93 37 32 38 33 39 34 40 87 41 35 42 92 43 86 44 88 45 36 46
REMARK SMILES IDX 91 47 85 48 84 49 37 51 71 52 50 53 70 54 51 55 54 56 69 57
REMARK SMILES IDX 89 58 52 59 53 60 68 62 90 63 55 64 38 65 39 66 48 67 40 68
REMARK SMILES IDX 41 69 47 70 49 71 42 72 43 73 44 74 45 75 46 76 72 77 73 78
REMARK SMILES IDX 82 79 74 80 75 81 81 82 83 83 76 84 77 85 78 86 79 87 80 88
REMARK SMILES IDX 56 89 57 90 66 91 58 92 59 93 65 94 67 95 60 96 61 97 62 98
REMARK SMILES IDX 63 99 64 100
REMARK H PARENT 19 7 6 17 26 31 88 50 54 61
REMARK Flexibility Score: inf
ROOT
ATOM      1  C   UNL A   1      31.101  28.505  24.982  1.00  0.00     0.002 C 
ENDROOT
BRANCH   1   2
ATOM      2  C   UNL A   1      31.702  27.223  25.576  1.00  0.00     0.021 C 
BRANCH   2   3
ATOM      3  C   UNL A   1      30.691  26.227  26.146  1.00  0.00     0.116 C 
BRANCH   3   4
ATOM      4  N   UNL A   1      31.325  25.160  26.894  1.00  0.00    -0.356 N 
ATOM      5  C   UNL A   1      31.328  23.821  26.644  1.00  0.00     0.224 C 
ATOM      6  O   UNL A   1      31.882  23.069  27.452  1.00  0.00    -0.275 OA
ATOM      7  H   UNL A   1      31.823  25.442  27.695  1.00  0.00     0.163 HD
BRANCH   5   8
ATOM      8  C   UNL A   1      30.664  23.256  25.403  1.00  0.00     0.137 C 
BRANCH   8   9
ATOM      9  C   UNL A   1      31.518  23.304  24.154  1.00  0.00    -0.015 A 
ATOM     10  C   UNL A   1      32.304  25.954  21.502  1.00  0.00     0.044 C 
ATOM     11  C   UNL A   1      32.301  24.667  22.271  1.00  0.00    -0.051 A 
ATOM     12  C   UNL A   1      33.026  23.574  21.807  1.00  0.00     0.005 A 
ATOM     13  C   UNL A   1      31.572  24.531  23.454  1.00  0.00     0.009 A 
ATOM     14  C   UNL A   1      33.011  22.365  22.510  1.00  0.00     0.026 A 
ATOM     15  C   UNL A   1      32.254  22.194  23.681  1.00  0.00     0.042 A 
BRANCH  15  16
ATOM     16  N   UNL A   1      32.260  20.966  24.378  1.00  0.00    -0.352 N 
ATOM     17  H   UNL A   1      31.534  20.856  25.035  1.00  0.00     0.167 HD
BRANCH  16  18
ATOM     18  C   UNL A   1      33.147  19.870  24.278  1.00  0.00     0.088 A 
ATOM     19  C   UNL A   1      32.771  18.667  23.659  1.00  0.00     0.147 A 
ATOM     20  C   UNL A   1      34.429  19.918  24.861  1.00  0.00     0.040 A 
ATOM     21  F   UNL A   1      31.575  18.556  23.059  1.00  0.00    -0.205 F 
ATOM     22  C   UNL A   1      33.622  17.562  23.611  1.00  0.00     0.041 A 
ATOM     23  C   UNL A   1      35.289  18.810  24.819  1.00  0.00     0.017 A 
ATOM     24  I   UNL A   1      35.122  21.622  25.881  1.00  0.00    -0.042 I 
ATOM     25  C   UNL A   1      34.884  17.633  24.194  1.00  0.00     0.004 A 
ENDBRANCH  16  18
ENDBRANCH  15  16
ENDBRANCH   8   9
ENDBRANCH   5   8
ENDBRANCH   3   4
ENDBRANCH   2   3
ENDBRANCH   1   2
BRANCH   1  26
ATOM     26  C   UNL A   1      31.754  29.828  25.402  1.00  0.00     0.002 C 
BRANCH  26  27
ATOM     27  C   UNL A   1      31.986  30.033  26.901  1.00  0.00     0.021 C 
BRANCH  27  28
ATOM     28  C   UNL A   1      33.459  30.068  27.301  1.00  0.00     0.116 C 
BRANCH  28  29
ATOM     29  N   UNL A   1      33.821  31.305  27.984  1.00  0.00    -0.352 N 
ATOM     30  C   UNL A   1      34.918  31.569  28.787  1.00  0.00     0.251 C 
ATOM     31  H   UNL A   1      33.198  32.057  27.858  1.00  0.00     0.163 HD
ATOM     32  O   UNL A   1      35.038  32.618  29.371  1.00  0.00    -0.269 OA
BRANCH  30  33
ATOM     33  C   UNL A   1      35.983  30.539  28.843  1.00  0.00     0.039 A 
ATOM     34  C   UNL A   1      36.135  29.820  30.035  1.00  0.00     0.014 A 
ATOM     35  C   UNL A   1      36.921  30.436  27.820  1.00  0.00     0.014 A 
ATOM     36  C   UNL A   1      37.324  29.134  30.273  1.00  0.00     0.010 A 
ATOM     37  C   UNL A   1      38.124  29.807  28.084  1.00  0.00     0.010 A 
ATOM     38  C   UNL A   1      38.349  29.202  29.332  1.00  0.00    -0.014 A 
BRANCH  38  39
ATOM     39  C   UNL A   1      39.732  28.811  29.603  1.00  0.00     0.031 A 
ATOM     40  C   UNL A   1      40.234  27.464  29.236  1.00  0.00     0.074 A 
ATOM     41  C   UNL A   1      40.605  29.744  30.044  1.00  0.00     0.049 A 
ATOM     42  N   UNL A   1      41.420  27.035  29.514  1.00  0.00    -0.248 NA
ATOM     43  C   UNL A   1      39.403  26.452  28.586  1.00  0.00     0.031 C 
ATOM     44  C   UNL A   1      42.060  29.716  29.932  1.00  0.00     0.029 A 
ATOM     45  N   UNL A   1      40.346  30.810  30.910  1.00  0.00    -0.354 N 
ATOM     46  C   UNL A   1      41.609  25.859  28.833  1.00  0.00     0.074 A 
ATOM     47  C   UNL A   1      40.293  25.473  28.392  1.00  0.00     0.031 C 
ATOM     48  C   UNL A   1      42.586  30.531  30.858  1.00  0.00     0.029 A 
ATOM     49  C   UNL A   1      41.500  30.980  31.706  1.00  0.00     0.049 A 
ATOM     50  H   UNL A   1      39.519  31.342  30.955  1.00  0.00     0.167 HD
ATOM     51  C   UNL A   1      42.881  25.422  28.609  1.00  0.00     0.037 A 
ATOM     52  C   UNL A   1      41.445  30.789  33.059  1.00  0.00     0.037 A 
ATOM     53  C   UNL A   1      43.829  26.065  29.520  1.00  0.00     0.049 A 
ATOM     54  C   UNL A   1      42.270  29.628  33.577  1.00  0.00     0.074 A 
ATOM     55  C   UNL A   1      44.831  27.011  29.408  1.00  0.00     0.029 A 
ATOM     56  N   UNL A   1      43.648  25.863  30.880  1.00  0.00    -0.354 N 
ATOM     57  N   UNL A   1      43.036  28.872  32.839  1.00  0.00    -0.248 NA
ATOM     58  C   UNL A   1      42.231  29.180  34.972  1.00  0.00     0.031 C 
ATOM     59  C   UNL A   1      45.166  27.452  30.727  1.00  0.00     0.029 A 
ATOM     60  C   UNL A   1      44.395  26.745  31.633  1.00  0.00     0.049 A 
ATOM     61  H   UNL A   1      43.058  25.173  31.262  1.00  0.00     0.167 HD
ATOM     62  C   UNL A   1      43.490  27.822  33.589  1.00  0.00     0.074 A 
ATOM     63  C   UNL A   1      42.996  28.077  34.930  1.00  0.00     0.031 C 
ATOM     64  C   UNL A   1      44.187  26.774  33.070  1.00  0.00     0.037 A 
BRANCH  51  65
ATOM     65  C   UNL A   1      43.289  24.502  27.475  1.00  0.00     0.058 A 
ATOM     66  C   UNL A   1      43.038  23.114  27.554  1.00  0.00     0.135 A 
ATOM     67  C   UNL A   1      44.062  24.895  26.357  1.00  0.00     0.135 A 
ATOM     68  F   UNL A   1      42.340  22.595  28.575  1.00  0.00    -0.206 F 
ATOM     69  C   UNL A   1      43.525  22.197  26.614  1.00  0.00     0.059 A 
ATOM     70  C   UNL A   1      44.510  24.006  25.379  1.00  0.00     0.059 A 
ATOM     71  F   UNL A   1      44.496  26.149  26.188  1.00  0.00    -0.206 F 
ATOM     72  C   UNL A   1      44.266  22.652  25.530  1.00  0.00     0.060 A 
BRANCH  72  73
ATOM     73  S   UNL A   1      44.949  21.479  24.344  1.00  0.00     0.124 S 
ATOM     74  O   UNL A   1      44.586  22.098  23.073  1.00  0.00    -0.237 OA
ATOM     75  O   UNL A   1      46.370  21.486  24.675  1.00  0.00    -0.237 OA
ATOM     76  O   UNL A   1      44.247  20.237  24.656  1.00  0.00    -0.744 OA
ENDBRANCH  72  73
ENDBRANCH  51  65
BRANCH  52  77
ATOM     77  C   UNL A   1      40.170  31.274  33.650  1.00  0.00     0.058 A 
ATOM     78  C   UNL A   1      40.049  32.660  33.872  1.00  0.00     0.135 A 
ATOM     79  C   UNL A   1      38.992  30.521  33.557  1.00  0.00     0.135 A 
ATOM     80  F   UNL A   1      41.150  33.420  33.991  1.00  0.00    -0.206 F 
ATOM     81  C   UNL A   1      38.818  33.299  33.815  1.00  0.00     0.059 A 
ATOM     82  C   UNL A   1      37.744  31.141  33.511  1.00  0.00     0.059 A 
ATOM     83  F   UNL A   1      39.049  29.197  33.350  1.00  0.00    -0.206 F 
ATOM     84  C   UNL A   1      37.681  32.535  33.560  1.00  0.00     0.060 A 
BRANCH  84  85
ATOM     85  S   UNL A   1      36.173  33.409  33.079  1.00  0.00     0.124 S 
ATOM     86  O   UNL A   1      36.641  34.240  31.976  1.00  0.00    -0.237 OA
ATOM     87  O   UNL A   1      35.303  32.295  32.708  1.00  0.00    -0.237 OA
ATOM     88  O   UNL A   1      35.798  34.121  34.294  1.00  0.00    -0.744 OA
ENDBRANCH  84  85
ENDBRANCH  52  77
BRANCH  64  89
ATOM     89  C   UNL A   1      44.693  25.663  33.933  1.00  0.00     0.058 A 
ATOM     90  C   UNL A   1      43.806  24.803  34.601  1.00  0.00     0.135 A 
ATOM     91  C   UNL A   1      46.064  25.502  34.205  1.00  0.00     0.135 A 
ATOM     92  F   UNL A   1      42.482  24.903  34.402  1.00  0.00    -0.206 F 
ATOM     93  C   UNL A   1      44.255  23.830  35.492  1.00  0.00     0.059 A 
ATOM     94  C   UNL A   1      46.533  24.559  35.115  1.00  0.00     0.059 A 
ATOM     95  F   UNL A   1      46.982  26.250  33.573  1.00  0.00    -0.206 F 
ATOM     96  C   UNL A   1      45.621  23.719  35.747  1.00  0.00     0.060 A 
BRANCH  96  97
ATOM     97  S   UNL A   1      46.207  22.503  36.945  1.00  0.00     0.124 S 
ATOM     98  O   UNL A   1      45.679  21.247  36.420  1.00  0.00    -0.237 OA
ATOM     99  O   UNL A   1      47.653  22.669  36.845  1.00  0.00    -0.237 OA
ATOM    100  O   UNL A   1      45.603  22.953  38.196  1.00  0.00    -0.744 OA
ENDBRANCH  96  97
ENDBRANCH  64  89
ENDBRANCH  38  39
ENDBRANCH  30  33
ENDBRANCH  28  29
ENDBRANCH  27  28
ENDBRANCH  26  27
ENDBRANCH   1  26
TORSDOF 19
ENDMDL
