MODEL 1
REMARK VINA RESULT:     -12.1      0.000      0.000
REMARK SMILES CC1CCN(C(=O)N[C@]2(C(=O)NCCCCCCNC(=O)c3ccc(-c4c5nc(c(-c6c(F)cc(S(=O)(=O)[O-])cc6F)c6ccc([nH]6)c(-c6c(F)cc(S(=O)(=O)[O-])cc6F)c6nc(c(-c7c(F)cc(S(=O)(=O)[O-])cc7F)c7ccc4[nH]7)C=C6)C=C5)cc3)CCSC2)CC1
REMARK SMILES IDX 16 1 15 2 14 3 13 4 12 5 10 6 11 7 9 9 88 10 91 11 89 12
REMARK SMILES IDX 90 13 8 14 1 15 2 16 3 17 93 18 4 19 92 20 5 21 6 22 7 23
REMARK SMILES IDX 17 25 18 26 19 27 20 28 21 30 22 31 23 32 87 33 24 34 86 35
REMARK SMILES IDX 25 36 26 37 27 38 80 39 28 40 85 41 79 42 81 43 29 44 84 45
REMARK SMILES IDX 78 46 77 47 30 49 64 50 43 51 63 52 44 53 47 54 62 55 82 56
REMARK SMILES IDX 45 57 46 58 61 60 83 61 48 62 31 63 32 64 41 65 33 66 34 67
REMARK SMILES IDX 40 68 42 69 35 70 36 71 37 72 38 73 39 74 65 75 66 76 75 77
REMARK SMILES IDX 67 78 68 79 74 80 76 81 69 82 70 83 71 84 72 85 73 86 49 87
REMARK SMILES IDX 50 88 59 89 51 90 52 91 58 92 60 93 53 94 54 95 55 96 56 97
REMARK SMILES IDX 57 98
REMARK H PARENT 12 8 8 24 19 29 81 48 47 59
REMARK Flexibility Score: inf
ROOT
ATOM      1  C   UNL A   1      40.097  21.441  26.113  1.00  0.00     0.002 C 
ENDROOT
BRANCH   1   2
ATOM      2  C   UNL A   1      38.744  22.146  26.160  1.00  0.00     0.002 C 
BRANCH   2   3
ATOM      3  C   UNL A   1      37.741  21.832  25.046  1.00  0.00     0.021 C 
BRANCH   3   4
ATOM      4  C   UNL A   1      36.335  21.332  25.412  1.00  0.00     0.116 C 
BRANCH   4   5
ATOM      5  N   UNL A   1      35.622  22.092  26.421  1.00  0.00    -0.354 N 
ATOM      6  C   UNL A   1      34.322  22.162  26.810  1.00  0.00     0.246 C 
ATOM      7  O   UNL A   1      34.150  22.628  27.948  1.00  0.00    -0.272 OA
ATOM      8  H   UNL A   1      36.211  22.688  26.939  1.00  0.00     0.163 HD
BRANCH   6   9
ATOM      9  C   UNL A   1      33.093  21.673  25.986  1.00  0.00     0.130 C 
ATOM     10  C   UNL A   1      33.021  21.838  24.456  1.00  0.00     0.050 C 
ATOM     11  C   UNL A   1      33.065  20.144  26.306  1.00  0.00     0.108 C 
ATOM     12  C   UNL A   1      32.558  20.553  23.785  1.00  0.00     0.072 C 
ATOM     13  S   UNL A   1      33.328  19.259  24.754  1.00  0.00    -0.159 SA
BRANCH   9  14
ATOM     14  N   UNL A   1      31.876  22.319  26.580  1.00  0.00    -0.323 N 
ATOM     15  C   UNL A   1      34.154  28.026  26.505  1.00  0.00     0.008 C 
ATOM     16  C   UNL A   1      33.135  27.092  25.854  1.00  0.00    -0.011 C 
ATOM     17  C   UNL A   1      31.864  26.927  26.700  1.00  0.00     0.025 C 
ATOM     18  C   UNL A   1      33.764  25.718  25.629  1.00  0.00     0.025 C 
ATOM     19  C   UNL A   1      30.915  25.862  26.119  1.00  0.00     0.121 C 
ATOM     20  C   UNL A   1      32.753  24.784  24.967  1.00  0.00     0.121 C 
ATOM     21  N   UNL A   1      31.619  24.596  25.855  1.00  0.00    -0.325 N 
ATOM     22  C   UNL A   1      31.197  23.477  26.510  1.00  0.00     0.318 C 
ATOM     23  O   UNL A   1      30.130  23.466  27.138  1.00  0.00    -0.249 OA
ATOM     24  H   UNL A   1      31.441  21.706  27.216  1.00  0.00     0.166 HD
ENDBRANCH   9  14
ENDBRANCH   6   9
ENDBRANCH   4   5
ENDBRANCH   3   4
ENDBRANCH   2   3
ENDBRANCH   1   2
BRANCH   1  25
ATOM     25  C   UNL A   1      40.945  21.602  27.371  1.00  0.00     0.021 C 
BRANCH  25  26
ATOM     26  C   UNL A   1      41.472  23.010  27.601  1.00  0.00     0.116 C 
BRANCH  26  27
ATOM     27  N   UNL A   1      41.556  23.784  26.374  1.00  0.00    -0.352 N 
ATOM     28  C   UNL A   1      41.445  25.150  26.231  1.00  0.00     0.251 C 
ATOM     29  H   UNL A   1      41.712  23.272  25.548  1.00  0.00     0.163 HD
ATOM     30  O   UNL A   1      41.380  25.659  25.124  1.00  0.00    -0.269 OA
BRANCH  28  31
ATOM     31  C   UNL A   1      41.372  25.979  27.453  1.00  0.00     0.039 A 
ATOM     32  C   UNL A   1      42.403  26.882  27.723  1.00  0.00     0.014 A 
ATOM     33  C   UNL A   1      40.251  25.910  28.286  1.00  0.00     0.014 A 
ATOM     34  C   UNL A   1      42.277  27.761  28.800  1.00  0.00     0.010 A 
ATOM     35  C   UNL A   1      40.095  26.838  29.309  1.00  0.00     0.010 A 
ATOM     36  C   UNL A   1      41.108  27.770  29.579  1.00  0.00    -0.014 A 
BRANCH  36  37
ATOM     37  C   UNL A   1      40.928  28.744  30.686  1.00  0.00     0.031 A 
ATOM     38  C   UNL A   1      41.798  28.658  31.911  1.00  0.00     0.074 A 
ATOM     39  C   UNL A   1      39.944  29.662  30.616  1.00  0.00     0.049 A 
ATOM     40  N   UNL A   1      41.761  29.378  33.002  1.00  0.00    -0.248 NA
ATOM     41  C   UNL A   1      42.827  27.605  31.921  1.00  0.00     0.031 C 
ATOM     42  C   UNL A   1      38.999  29.807  29.507  1.00  0.00     0.029 A 
ATOM     43  N   UNL A   1      39.568  30.642  31.501  1.00  0.00    -0.354 N 
ATOM     44  C   UNL A   1      42.747  28.859  33.832  1.00  0.00     0.074 A 
ATOM     45  C   UNL A   1      43.327  27.727  33.142  1.00  0.00     0.031 C 
ATOM     46  C   UNL A   1      38.169  30.831  29.766  1.00  0.00     0.029 A 
ATOM     47  C   UNL A   1      38.498  31.393  31.073  1.00  0.00     0.049 A 
ATOM     48  H   UNL A   1      40.020  30.792  32.362  1.00  0.00     0.167 HD
ATOM     49  C   UNL A   1      43.152  29.301  35.045  1.00  0.00     0.037 A 
ATOM     50  C   UNL A   1      37.854  32.417  31.667  1.00  0.00     0.037 A 
ATOM     51  C   UNL A   1      42.589  30.445  35.712  1.00  0.00     0.049 A 
ATOM     52  C   UNL A   1      38.328  32.898  33.012  1.00  0.00     0.074 A 
ATOM     53  C   UNL A   1      42.970  31.013  36.915  1.00  0.00     0.029 A 
ATOM     54  N   UNL A   1      41.525  31.197  35.234  1.00  0.00    -0.354 N 
ATOM     55  N   UNL A   1      39.309  32.439  33.752  1.00  0.00    -0.248 NA
ATOM     56  C   UNL A   1      37.613  34.039  33.600  1.00  0.00     0.031 C 
ATOM     57  C   UNL A   1      42.109  32.082  37.185  1.00  0.00     0.029 A 
ATOM     58  C   UNL A   1      41.224  32.211  36.128  1.00  0.00     0.049 A 
ATOM     59  H   UNL A   1      41.054  31.033  34.386  1.00  0.00     0.167 HD
ATOM     60  C   UNL A   1      39.347  33.251  34.879  1.00  0.00     0.074 A 
ATOM     61  C   UNL A   1      38.296  34.236  34.720  1.00  0.00     0.031 C 
ATOM     62  C   UNL A   1      40.178  33.189  35.949  1.00  0.00     0.037 A 
BRANCH  49  63
ATOM     63  C   UNL A   1      44.261  28.547  35.726  1.00  0.00     0.058 A 
ATOM     64  C   UNL A   1      43.997  27.522  36.649  1.00  0.00     0.135 A 
ATOM     65  C   UNL A   1      45.605  28.835  35.436  1.00  0.00     0.135 A 
ATOM     66  F   UNL A   1      42.731  27.216  36.976  1.00  0.00    -0.206 F 
ATOM     67  C   UNL A   1      45.024  26.831  37.284  1.00  0.00     0.059 A 
ATOM     68  C   UNL A   1      46.648  28.137  36.037  1.00  0.00     0.059 A 
ATOM     69  F   UNL A   1      45.915  29.806  34.562  1.00  0.00    -0.206 F 
ATOM     70  C   UNL A   1      46.348  27.148  36.972  1.00  0.00     0.060 A 
BRANCH  70  71
ATOM     71  S   UNL A   1      47.668  26.244  37.807  1.00  0.00     0.124 S 
ATOM     72  O   UNL A   1      48.619  26.049  36.717  1.00  0.00    -0.237 OA
ATOM     73  O   UNL A   1      48.080  27.181  38.848  1.00  0.00    -0.237 OA
ATOM     74  O   UNL A   1      47.003  25.035  38.284  1.00  0.00    -0.744 OA
ENDBRANCH  70  71
ENDBRANCH  49  63
BRANCH  50  75
ATOM     75  C   UNL A   1      36.712  33.074  30.977  1.00  0.00     0.058 A 
ATOM     76  C   UNL A   1      35.391  32.835  31.382  1.00  0.00     0.135 A 
ATOM     77  C   UNL A   1      36.918  33.970  29.917  1.00  0.00     0.135 A 
ATOM     78  F   UNL A   1      35.142  31.982  32.387  1.00  0.00    -0.206 F 
ATOM     79  C   UNL A   1      34.313  33.448  30.753  1.00  0.00     0.059 A 
ATOM     80  C   UNL A   1      35.857  34.614  29.287  1.00  0.00     0.059 A 
ATOM     81  F   UNL A   1      38.165  34.248  29.503  1.00  0.00    -0.206 F 
ATOM     82  C   UNL A   1      34.557  34.340  29.707  1.00  0.00     0.060 A 
BRANCH  82  83
ATOM     83  S   UNL A   1      33.154  35.173  28.934  1.00  0.00     0.124 S 
ATOM     84  O   UNL A   1      32.307  35.453  30.087  1.00  0.00    -0.237 OA
ATOM     85  O   UNL A   1      33.790  36.331  28.312  1.00  0.00    -0.237 OA
ATOM     86  O   UNL A   1      32.643  34.173  28.001  1.00  0.00    -0.744 OA
ENDBRANCH  82  83
ENDBRANCH  50  75
BRANCH  62  87
ATOM     87  C   UNL A   1      40.013  34.232  37.018  1.00  0.00     0.058 A 
ATOM     88  C   UNL A   1      40.708  35.450  36.973  1.00  0.00     0.135 A 
ATOM     89  C   UNL A   1      39.098  34.036  38.065  1.00  0.00     0.135 A 
ATOM     90  F   UNL A   1      41.598  35.685  35.997  1.00  0.00    -0.206 F 
ATOM     91  C   UNL A   1      40.514  36.431  37.940  1.00  0.00     0.059 A 
ATOM     92  C   UNL A   1      38.869  35.014  39.028  1.00  0.00     0.059 A 
ATOM     93  F   UNL A   1      38.400  32.891  38.148  1.00  0.00    -0.206 F 
ATOM     94  C   UNL A   1      39.589  36.205  38.962  1.00  0.00     0.060 A 
BRANCH  94  95
ATOM     95  S   UNL A   1      39.315  37.505  40.184  1.00  0.00     0.124 S 
ATOM     96  O   UNL A   1      40.627  38.142  40.235  1.00  0.00    -0.237 OA
ATOM     97  O   UNL A   1      38.251  38.292  39.570  1.00  0.00    -0.237 OA
ATOM     98  O   UNL A   1      38.928  36.767  41.383  1.00  0.00    -0.744 OA
ENDBRANCH  94  95
ENDBRANCH  62  87
ENDBRANCH  36  37
ENDBRANCH  28  31
ENDBRANCH  26  27
ENDBRANCH  25  26
ENDBRANCH   1  25
TORSDOF 17
ENDMDL
MODEL 2
REMARK VINA RESULT:     -12.0      6.633     11.896
REMARK SMILES CC1CCN(C(=O)N[C@]2(C(=O)NCCCCCCNC(=O)c3ccc(-c4c5nc(c(-c6c(F)cc(S(=O)(=O)[O-])cc6F)c6ccc([nH]6)c(-c6c(F)cc(S(=O)(=O)[O-])cc6F)c6nc(c(-c7c(F)cc(S(=O)(=O)[O-])cc7F)c7ccc4[nH]7)C=C6)C=C5)cc3)CCSC2)CC1
REMARK SMILES IDX 16 1 15 2 14 3 13 4 12 5 10 6 11 7 9 9 88 10 91 11 89 12
REMARK SMILES IDX 90 13 8 14 1 15 2 16 3 17 93 18 4 19 92 20 5 21 6 22 7 23
REMARK SMILES IDX 17 25 18 26 19 27 20 28 21 30 22 31 23 32 87 33 24 34 86 35
REMARK SMILES IDX 25 36 26 37 27 38 80 39 28 40 85 41 79 42 81 43 29 44 84 45
REMARK SMILES IDX 78 46 77 47 30 49 64 50 43 51 63 52 44 53 47 54 62 55 82 56
REMARK SMILES IDX 45 57 46 58 61 60 83 61 48 62 31 63 32 64 41 65 33 66 34 67
REMARK SMILES IDX 40 68 42 69 35 70 36 71 37 72 38 73 39 74 65 75 66 76 75 77
REMARK SMILES IDX 67 78 68 79 74 80 76 81 69 82 70 83 71 84 72 85 73 86 49 87
REMARK SMILES IDX 50 88 59 89 51 90 52 91 58 92 60 93 53 94 54 95 55 96 56 97
REMARK SMILES IDX 57 98
REMARK H PARENT 12 8 8 24 19 29 81 48 47 59
REMARK Flexibility Score: inf
ROOT
ATOM      1  C   UNL A   1      34.302  31.806  28.064  1.00  0.00     0.002 C 
ENDROOT
BRANCH   1   2
ATOM      2  C   UNL A   1      34.291  30.380  27.522  1.00  0.00     0.002 C 
BRANCH   2   3
ATOM      3  C   UNL A   1      32.938  29.781  27.128  1.00  0.00     0.021 C 
BRANCH   3   4
ATOM      4  C   UNL A   1      32.506  29.791  25.652  1.00  0.00     0.116 C 
BRANCH   4   5
ATOM      5  N   UNL A   1      33.469  29.283  24.694  1.00  0.00    -0.354 N 
ATOM      6  C   UNL A   1      33.368  28.688  23.477  1.00  0.00     0.246 C 
ATOM      7  O   UNL A   1      34.402  28.740  22.791  1.00  0.00    -0.272 OA
ATOM      8  H   UNL A   1      34.401  29.393  24.992  1.00  0.00     0.163 HD
BRANCH   6   9
ATOM      9  C   UNL A   1      32.089  28.019  22.889  1.00  0.00     0.130 C 
ATOM     10  C   UNL A   1      31.043  27.332  23.787  1.00  0.00     0.050 C 
ATOM     11  C   UNL A   1      31.391  29.216  22.166  1.00  0.00     0.108 C 
ATOM     12  C   UNL A   1      29.630  27.751  23.406  1.00  0.00     0.072 C 
ATOM     13  S   UNL A   1      29.797  29.480  22.972  1.00  0.00    -0.159 SA
BRANCH   9  14
ATOM     14  N   UNL A   1      32.542  27.025  21.860  1.00  0.00    -0.323 N 
ATOM     15  C   UNL A   1      36.317  23.972  25.627  1.00  0.00     0.008 C 
ATOM     16  C   UNL A   1      34.989  23.893  24.876  1.00  0.00    -0.011 C 
ATOM     17  C   UNL A   1      35.174  23.563  23.386  1.00  0.00     0.025 C 
ATOM     18  C   UNL A   1      34.245  25.221  25.001  1.00  0.00     0.025 C 
ATOM     19  C   UNL A   1      33.849  23.645  22.606  1.00  0.00     0.121 C 
ATOM     20  C   UNL A   1      32.911  25.143  24.262  1.00  0.00     0.121 C 
ATOM     21  N   UNL A   1      33.158  24.922  22.847  1.00  0.00    -0.325 N 
ATOM     22  C   UNL A   1      32.922  25.738  21.781  1.00  0.00     0.318 C 
ATOM     23  O   UNL A   1      33.084  25.339  20.620  1.00  0.00    -0.249 OA
ATOM     24  H   UNL A   1      32.568  27.444  20.969  1.00  0.00     0.166 HD
ENDBRANCH   9  14
ENDBRANCH   6   9
ENDBRANCH   4   5
ENDBRANCH   3   4
ENDBRANCH   2   3
ENDBRANCH   1   2
BRANCH   1  25
ATOM     25  C   UNL A   1      35.656  32.505  27.999  1.00  0.00     0.021 C 
BRANCH  25  26
ATOM     26  C   UNL A   1      36.370  32.623  29.336  1.00  0.00     0.116 C 
BRANCH  26  27
ATOM     27  N   UNL A   1      35.985  31.579  30.270  1.00  0.00    -0.352 N 
ATOM     28  C   UNL A   1      36.691  30.443  30.602  1.00  0.00     0.251 C 
ATOM     29  H   UNL A   1      35.118  31.697  30.720  1.00  0.00     0.163 HD
ATOM     30  O   UNL A   1      36.184  29.568  31.285  1.00  0.00    -0.269 OA
BRANCH  28  31
ATOM     31  C   UNL A   1      38.068  30.297  30.080  1.00  0.00     0.039 A 
ATOM     32  C   UNL A   1      39.142  30.382  30.968  1.00  0.00     0.014 A 
ATOM     33  C   UNL A   1      38.282  30.004  28.730  1.00  0.00     0.014 A 
ATOM     34  C   UNL A   1      40.433  30.112  30.508  1.00  0.00     0.010 A 
ATOM     35  C   UNL A   1      39.557  29.661  28.294  1.00  0.00     0.010 A 
ATOM     36  C   UNL A   1      40.645  29.716  29.177  1.00  0.00    -0.014 A 
BRANCH  36  37
ATOM     37  C   UNL A   1      42.002  29.359  28.688  1.00  0.00     0.031 A 
ATOM     38  C   UNL A   1      42.296  27.950  28.250  1.00  0.00     0.074 A 
ATOM     39  C   UNL A   1      42.981  30.286  28.698  1.00  0.00     0.049 A 
ATOM     40  N   UNL A   1      43.426  27.431  27.846  1.00  0.00    -0.248 NA
ATOM     41  C   UNL A   1      41.179  26.992  28.301  1.00  0.00     0.031 C 
ATOM     42  C   UNL A   1      42.833  31.669  29.154  1.00  0.00     0.029 A 
ATOM     43  N   UNL A   1      44.298  30.200  28.322  1.00  0.00    -0.354 N 
ATOM     44  C   UNL A   1      43.161  26.087  27.608  1.00  0.00     0.074 A 
ATOM     45  C   UNL A   1      41.779  25.859  27.968  1.00  0.00     0.031 C 
ATOM     46  C   UNL A   1      44.005  32.309  29.008  1.00  0.00     0.029 A 
ATOM     47  C   UNL A   1      44.996  31.375  28.482  1.00  0.00     0.049 A 
ATOM     48  H   UNL A   1      44.706  29.376  27.972  1.00  0.00     0.167 HD
ATOM     49  C   UNL A   1      43.986  25.137  27.109  1.00  0.00     0.037 A 
ATOM     50  C   UNL A   1      46.289  31.665  28.236  1.00  0.00     0.037 A 
ATOM     51  C   UNL A   1      45.352  25.379  26.725  1.00  0.00     0.049 A 
ATOM     52  C   UNL A   1      47.185  30.595  27.672  1.00  0.00     0.074 A 
ATOM     53  C   UNL A   1      46.253  24.500  26.151  1.00  0.00     0.029 A 
ATOM     54  N   UNL A   1      46.015  26.589  26.877  1.00  0.00    -0.354 N 
ATOM     55  N   UNL A   1      46.899  29.347  27.387  1.00  0.00    -0.248 NA
ATOM     56  C   UNL A   1      48.576  30.974  27.389  1.00  0.00     0.031 C 
ATOM     57  C   UNL A   1      47.473  25.165  25.994  1.00  0.00     0.029 A 
ATOM     58  C   UNL A   1      47.319  26.473  26.425  1.00  0.00     0.049 A 
ATOM     59  H   UNL A   1      45.617  27.407  27.251  1.00  0.00     0.167 HD
ATOM     60  C   UNL A   1      48.065  28.799  26.866  1.00  0.00     0.074 A 
ATOM     61  C   UNL A   1      49.059  29.854  26.867  1.00  0.00     0.031 C 
ATOM     62  C   UNL A   1      48.292  27.537  26.426  1.00  0.00     0.037 A 
BRANCH  49  63
ATOM     63  C   UNL A   1      43.429  23.749  26.943  1.00  0.00     0.058 A 
ATOM     64  C   UNL A   1      43.308  22.870  28.032  1.00  0.00     0.135 A 
ATOM     65  C   UNL A   1      42.988  23.300  25.688  1.00  0.00     0.135 A 
ATOM     66  F   UNL A   1      43.728  23.242  29.252  1.00  0.00    -0.206 F 
ATOM     67  C   UNL A   1      42.800  21.584  27.876  1.00  0.00     0.059 A 
ATOM     68  C   UNL A   1      42.450  22.028  25.514  1.00  0.00     0.059 A 
ATOM     69  F   UNL A   1      43.082  24.099  24.613  1.00  0.00    -0.206 F 
ATOM     70  C   UNL A   1      42.376  21.172  26.612  1.00  0.00     0.060 A 
BRANCH  70  71
ATOM     71  S   UNL A   1      41.723  19.499  26.426  1.00  0.00     0.124 S 
ATOM     72  O   UNL A   1      42.421  19.048  25.227  1.00  0.00    -0.237 OA
ATOM     73  O   UNL A   1      42.131  18.864  27.675  1.00  0.00    -0.237 OA
ATOM     74  O   UNL A   1      40.286  19.711  26.274  1.00  0.00    -0.744 OA
ENDBRANCH  70  71
ENDBRANCH  49  63
BRANCH  50  75
ATOM     75  C   UNL A   1      46.802  33.037  28.492  1.00  0.00     0.058 A 
ATOM     76  C   UNL A   1      47.386  33.370  29.723  1.00  0.00     0.135 A 
ATOM     77  C   UNL A   1      46.741  34.035  27.507  1.00  0.00     0.135 A 
ATOM     78  F   UNL A   1      47.462  32.453  30.699  1.00  0.00    -0.206 F 
ATOM     79  C   UNL A   1      47.878  34.646  29.976  1.00  0.00     0.059 A 
ATOM     80  C   UNL A   1      47.248  35.312  27.727  1.00  0.00     0.059 A 
ATOM     81  F   UNL A   1      46.208  33.762  26.305  1.00  0.00    -0.206 F 
ATOM     82  C   UNL A   1      47.807  35.611  28.968  1.00  0.00     0.060 A 
BRANCH  82  83
ATOM     83  S   UNL A   1      48.499  37.248  29.286  1.00  0.00     0.124 S 
ATOM     84  O   UNL A   1      48.130  37.457  30.681  1.00  0.00    -0.237 OA
ATOM     85  O   UNL A   1      49.920  37.036  29.025  1.00  0.00    -0.237 OA
ATOM     86  O   UNL A   1      47.812  38.096  28.316  1.00  0.00    -0.744 OA
ENDBRANCH  82  83
ENDBRANCH  50  75
BRANCH  62  87
ATOM     87  C   UNL A   1      49.657  27.230  25.874  1.00  0.00     0.058 A 
ATOM     88  C   UNL A   1      50.677  26.706  26.682  1.00  0.00     0.135 A 
ATOM     89  C   UNL A   1      49.924  27.402  24.507  1.00  0.00     0.135 A 
ATOM     90  F   UNL A   1      50.476  26.528  27.997  1.00  0.00    -0.206 F 
ATOM     91  C   UNL A   1      51.923  26.379  26.155  1.00  0.00     0.059 A 
ATOM     92  C   UNL A   1      51.153  27.057  23.954  1.00  0.00     0.059 A 
ATOM     93  F   UNL A   1      48.978  27.891  23.689  1.00  0.00    -0.206 F 
ATOM     94  C   UNL A   1      52.150  26.555  24.789  1.00  0.00     0.060 A 
BRANCH  94  95
ATOM     95  S   UNL A   1      53.756  26.086  24.110  1.00  0.00     0.124 S 
ATOM     96  O   UNL A   1      54.037  24.856  24.845  1.00  0.00    -0.237 OA
ATOM     97  O   UNL A   1      53.460  25.922  22.691  1.00  0.00    -0.237 OA
ATOM     98  O   UNL A   1      54.609  27.223  24.439  1.00  0.00    -0.744 OA
ENDBRANCH  94  95
ENDBRANCH  62  87
ENDBRANCH  36  37
ENDBRANCH  28  31
ENDBRANCH  26  27
ENDBRANCH  25  26
ENDBRANCH   1  25
TORSDOF 17
ENDMDL
MODEL 3
REMARK VINA RESULT:     -11.9      6.420     11.912
REMARK SMILES CC1CCN(C(=O)N[C@]2(C(=O)NCCCCCCNC(=O)c3ccc(-c4c5nc(c(-c6c(F)cc(S(=O)(=O)[O-])cc6F)c6ccc([nH]6)c(-c6c(F)cc(S(=O)(=O)[O-])cc6F)c6nc(c(-c7c(F)cc(S(=O)(=O)[O-])cc7F)c7ccc4[nH]7)C=C6)C=C5)cc3)CCSC2)CC1
REMARK SMILES IDX 16 1 15 2 14 3 13 4 12 5 10 6 11 7 9 9 88 10 91 11 89 12
REMARK SMILES IDX 90 13 8 14 1 15 2 16 3 17 93 18 4 19 92 20 5 21 6 22 7 23
REMARK SMILES IDX 17 25 18 26 19 27 20 28 21 30 22 31 23 32 87 33 24 34 86 35
REMARK SMILES IDX 25 36 26 37 27 38 80 39 28 40 85 41 79 42 81 43 29 44 84 45
REMARK SMILES IDX 78 46 77 47 30 49 64 50 43 51 63 52 44 53 47 54 62 55 82 56
REMARK SMILES IDX 45 57 46 58 61 60 83 61 48 62 31 63 32 64 41 65 33 66 34 67
REMARK SMILES IDX 40 68 42 69 35 70 36 71 37 72 38 73 39 74 65 75 66 76 75 77
REMARK SMILES IDX 67 78 68 79 74 80 76 81 69 82 70 83 71 84 72 85 73 86 49 87
REMARK SMILES IDX 50 88 59 89 51 90 52 91 58 92 60 93 53 94 54 95 55 96 56 97
REMARK SMILES IDX 57 98
REMARK H PARENT 12 8 8 24 19 29 81 48 47 59
REMARK Flexibility Score: inf
ROOT
ATOM      1  C   UNL A   1      34.925  29.344  27.645  1.00  0.00     0.002 C 
ENDROOT
BRANCH   1   2
ATOM      2  C   UNL A   1      33.649  28.591  27.279  1.00  0.00     0.002 C 
BRANCH   2   3
ATOM      3  C   UNL A   1      32.410  29.423  26.932  1.00  0.00     0.021 C 
BRANCH   3   4
ATOM      4  C   UNL A   1      32.196  29.893  25.484  1.00  0.00     0.116 C 
BRANCH   4   5
ATOM      5  N   UNL A   1      33.169  29.440  24.508  1.00  0.00    -0.354 N 
ATOM      6  C   UNL A   1      33.080  28.839  23.293  1.00  0.00     0.246 C 
ATOM      7  O   UNL A   1      34.096  28.952  22.587  1.00  0.00    -0.272 OA
ATOM      8  H   UNL A   1      34.098  29.606  24.788  1.00  0.00     0.163 HD
BRANCH   6   9
ATOM      9  C   UNL A   1      31.831  28.096  22.729  1.00  0.00     0.130 C 
ATOM     10  C   UNL A   1      30.824  27.382  23.650  1.00  0.00     0.050 C 
ATOM     11  C   UNL A   1      31.072  29.241  21.983  1.00  0.00     0.108 C 
ATOM     12  C   UNL A   1      29.391  27.723  23.269  1.00  0.00     0.072 C 
ATOM     13  S   UNL A   1      29.471  29.447  22.793  1.00  0.00    -0.159 SA
BRANCH   9  14
ATOM     14  N   UNL A   1      32.326  27.101  21.720  1.00  0.00    -0.323 N 
ATOM     15  C   UNL A   1      36.053  24.142  25.608  1.00  0.00     0.008 C 
ATOM     16  C   UNL A   1      34.746  24.035  24.825  1.00  0.00    -0.011 C 
ATOM     17  C   UNL A   1      34.974  23.696  23.344  1.00  0.00     0.025 C 
ATOM     18  C   UNL A   1      33.978  25.352  24.920  1.00  0.00     0.025 C 
ATOM     19  C   UNL A   1      33.668  23.749  22.530  1.00  0.00     0.121 C 
ATOM     20  C   UNL A   1      32.664  25.246  24.148  1.00  0.00     0.121 C 
ATOM     21  N   UNL A   1      32.950  25.017  22.742  1.00  0.00    -0.325 N 
ATOM     22  C   UNL A   1      32.728  25.820  21.663  1.00  0.00     0.318 C 
ATOM     23  O   UNL A   1      32.926  25.413  20.509  1.00  0.00    -0.249 OA
ATOM     24  H   UNL A   1      32.367  27.513  20.827  1.00  0.00     0.166 HD
ENDBRANCH   9  14
ENDBRANCH   6   9
ENDBRANCH   4   5
ENDBRANCH   3   4
ENDBRANCH   2   3
ENDBRANCH   1   2
BRANCH   1  25
ATOM     25  C   UNL A   1      34.770  30.859  27.734  1.00  0.00     0.021 C 
BRANCH  25  26
ATOM     26  C   UNL A   1      35.766  31.542  28.659  1.00  0.00     0.116 C 
BRANCH  26  27
ATOM     27  N   UNL A   1      35.546  31.216  30.057  1.00  0.00    -0.352 N 
ATOM     28  C   UNL A   1      36.430  30.625  30.934  1.00  0.00     0.251 C 
ATOM     29  H   UNL A   1      34.661  31.445  30.422  1.00  0.00     0.163 HD
ATOM     30  O   UNL A   1      36.066  30.265  32.041  1.00  0.00    -0.269 OA
BRANCH  28  31
ATOM     31  C   UNL A   1      37.823  30.409  30.484  1.00  0.00     0.039 A 
ATOM     32  C   UNL A   1      38.817  30.188  31.439  1.00  0.00     0.014 A 
ATOM     33  C   UNL A   1      38.122  30.355  29.119  1.00  0.00     0.014 A 
ATOM     34  C   UNL A   1      40.105  29.851  31.020  1.00  0.00     0.010 A 
ATOM     35  C   UNL A   1      39.385  29.944  28.708  1.00  0.00     0.010 A 
ATOM     36  C   UNL A   1      40.390  29.692  29.653  1.00  0.00    -0.014 A 
BRANCH  36  37
ATOM     37  C   UNL A   1      41.737  29.267  29.192  1.00  0.00     0.031 A 
ATOM     38  C   UNL A   1      42.860  30.267  29.134  1.00  0.00     0.074 A 
ATOM     39  C   UNL A   1      41.931  28.002  28.769  1.00  0.00     0.049 A 
ATOM     40  N   UNL A   1      44.086  30.105  28.710  1.00  0.00    -0.248 NA
ATOM     41  C   UNL A   1      42.555  31.635  29.583  1.00  0.00     0.031 C 
ATOM     42  C   UNL A   1      40.905  26.958  28.723  1.00  0.00     0.029 A 
ATOM     43  N   UNL A   1      43.055  27.382  28.286  1.00  0.00    -0.354 N 
ATOM     44  C   UNL A   1      44.694  31.349  28.829  1.00  0.00     0.074 A 
ATOM     45  C   UNL A   1      43.686  32.268  29.309  1.00  0.00     0.031 C 
ATOM     46  C   UNL A   1      41.454  25.821  28.264  1.00  0.00     0.029 A 
ATOM     47  C   UNL A   1      42.858  26.063  27.948  1.00  0.00     0.049 A 
ATOM     48  H   UNL A   1      43.922  27.838  28.189  1.00  0.00     0.167 HD
ATOM     49  C   UNL A   1      45.982  31.689  28.587  1.00  0.00     0.037 A 
ATOM     50  C   UNL A   1      43.712  25.153  27.440  1.00  0.00     0.037 A 
ATOM     51  C   UNL A   1      46.987  30.762  28.137  1.00  0.00     0.049 A 
ATOM     52  C   UNL A   1      45.142  25.551  27.188  1.00  0.00     0.074 A 
ATOM     53  C   UNL A   1      48.334  30.992  27.922  1.00  0.00     0.029 A 
ATOM     54  N   UNL A   1      46.755  29.428  27.832  1.00  0.00    -0.354 N 
ATOM     55  N   UNL A   1      45.717  26.715  27.372  1.00  0.00    -0.248 NA
ATOM     56  C   UNL A   1      46.039  24.511  26.665  1.00  0.00     0.031 C 
ATOM     57  C   UNL A   1      48.908  29.808  27.446  1.00  0.00     0.029 A 
ATOM     58  C   UNL A   1      47.930  28.828  27.412  1.00  0.00     0.049 A 
ATOM     59  H   UNL A   1      45.884  28.977  27.903  1.00  0.00     0.167 HD
ATOM     60  C   UNL A   1      47.049  26.541  27.016  1.00  0.00     0.074 A 
ATOM     61  C   UNL A   1      47.197  25.157  26.612  1.00  0.00     0.031 C 
ATOM     62  C   UNL A   1      48.060  27.446  27.022  1.00  0.00     0.037 A 
BRANCH  49  63
ATOM     63  C   UNL A   1      46.377  33.123  28.811  1.00  0.00     0.058 A 
ATOM     64  C   UNL A   1      46.896  33.561  30.040  1.00  0.00     0.135 A 
ATOM     65  C   UNL A   1      46.261  34.067  27.777  1.00  0.00     0.135 A 
ATOM     66  F   UNL A   1      47.014  32.705  31.067  1.00  0.00    -0.206 F 
ATOM     67  C   UNL A   1      47.253  34.889  30.248  1.00  0.00     0.059 A 
ATOM     68  C   UNL A   1      46.639  35.395  27.953  1.00  0.00     0.059 A 
ATOM     69  F   UNL A   1      45.770  33.703  26.581  1.00  0.00    -0.206 F 
ATOM     70  C   UNL A   1      47.119  35.800  29.198  1.00  0.00     0.060 A 
BRANCH  70  71
ATOM     71  S   UNL A   1      47.585  37.520  29.486  1.00  0.00     0.124 S 
ATOM     72  O   UNL A   1      46.357  38.059  30.061  1.00  0.00    -0.237 OA
ATOM     73  O   UNL A   1      48.712  37.390  30.403  1.00  0.00    -0.237 OA
ATOM     74  O   UNL A   1      47.920  38.008  28.151  1.00  0.00    -0.744 OA
ENDBRANCH  70  71
ENDBRANCH  49  63
BRANCH  50  75
ATOM     75  C   UNL A   1      43.243  23.768  27.166  1.00  0.00     0.058 A 
ATOM     76  C   UNL A   1      42.951  23.351  25.860  1.00  0.00     0.135 A 
ATOM     77  C   UNL A   1      43.099  22.829  28.200  1.00  0.00     0.135 A 
ATOM     78  F   UNL A   1      43.068  24.214  24.839  1.00  0.00    -0.206 F 
ATOM     79  C   UNL A   1      42.519  22.058  25.586  1.00  0.00     0.059 A 
ATOM     80  C   UNL A   1      42.691  21.523  27.948  1.00  0.00     0.059 A 
ATOM     81  F   UNL A   1      43.383  23.173  29.466  1.00  0.00    -0.206 F 
ATOM     82  C   UNL A   1      42.395  21.149  26.639  1.00  0.00     0.060 A 
BRANCH  82  83
ATOM     83  S   UNL A   1      41.888  19.456  26.267  1.00  0.00     0.124 S 
ATOM     84  O   UNL A   1      42.327  18.748  27.463  1.00  0.00    -0.237 OA
ATOM     85  O   UNL A   1      40.445  19.598  26.101  1.00  0.00    -0.237 OA
ATOM     86  O   UNL A   1      42.624  19.148  25.044  1.00  0.00    -0.744 OA
ENDBRANCH  82  83
ENDBRANCH  50  75
BRANCH  62  87
ATOM     87  C   UNL A   1      49.424  26.964  26.615  1.00  0.00     0.058 A 
ATOM     88  C   UNL A   1      49.886  27.087  25.296  1.00  0.00     0.135 A 
ATOM     89  C   UNL A   1      50.304  26.433  27.572  1.00  0.00     0.135 A 
ATOM     90  F   UNL A   1      49.082  27.581  24.341  1.00  0.00    -0.206 F 
ATOM     91  C   UNL A   1      51.168  26.682  24.935  1.00  0.00     0.059 A 
ATOM     92  C   UNL A   1      51.599  26.048  27.239  1.00  0.00     0.059 A 
ATOM     93  F   UNL A   1      49.915  26.304  28.851  1.00  0.00    -0.206 F 
ATOM     94  C   UNL A   1      52.018  26.168  25.916  1.00  0.00     0.060 A 
BRANCH  94  95
ATOM     95  S   UNL A   1      53.693  25.689  25.444  1.00  0.00     0.124 S 
ATOM     96  O   UNL A   1      53.433  24.684  24.417  1.00  0.00    -0.237 OA
ATOM     97  O   UNL A   1      54.257  26.949  24.969  1.00  0.00    -0.237 OA
ATOM     98  O   UNL A   1      54.265  25.183  26.688  1.00  0.00    -0.744 OA
ENDBRANCH  94  95
ENDBRANCH  62  87
ENDBRANCH  36  37
ENDBRANCH  28  31
ENDBRANCH  26  27
ENDBRANCH  25  26
ENDBRANCH   1  25
TORSDOF 17
ENDMDL
