MODEL 1
REMARK VINA RESULT:     -12.1      0.000      0.000
REMARK SMILES Cc1nc(C)c(C(=O)N2CCC([C@H](C)C(=O)NCCCCCCNC(=O)c3ccc(-c4c5nc(c(-c6c(F)cc(S(=O)(=O)[O-])cc6F)c6ccc([nH]6)c(-c6c(F)cc(S(=O)(=O)[O-])cc6F)c6nc(c(-c7c(F)cc(S(=O)(=O)[O-])cc7F)c7ccc4[nH]7)C=C6)C=C5)cc3)CC2)s1
REMARK SMILES IDX 21 1 20 2 19 3 18 4 17 5 15 6 16 7 13 9 14 10 12 11 7 12
REMARK SMILES IDX 8 13 9 14 10 15 94 16 11 17 93 18 6 19 1 20 2 21 3 22 95 23
REMARK SMILES IDX 4 24 5 25 22 26 23 27 24 28 25 29 26 31 27 32 28 33 92 34
REMARK SMILES IDX 29 35 91 36 30 37 31 38 32 39 85 40 33 41 90 42 84 43 86 44
REMARK SMILES IDX 34 45 89 46 83 47 82 48 35 50 69 51 48 52 68 53 49 54 52 55
REMARK SMILES IDX 67 56 87 57 50 58 51 59 66 61 88 62 53 63 36 64 37 65 46 66
REMARK SMILES IDX 38 67 39 68 45 69 47 70 40 71 41 72 42 73 43 74 44 75 70 76
REMARK SMILES IDX 71 77 80 78 72 79 73 80 79 81 81 82 74 83 75 84 76 85 77 86
REMARK SMILES IDX 78 87 54 88 55 89 64 90 56 91 57 92 63 93 65 94 58 95 59 96
REMARK SMILES IDX 60 97 61 98 62 99
REMARK H PARENT 17 8 24 30 86 49 52 60
REMARK Flexibility Score: inf
ROOT
ATOM      1  C   UNL A   1      32.995  29.049  26.982  1.00  0.00     0.002 C 
ENDROOT
BRANCH   1   2
ATOM      2  C   UNL A   1      32.537  29.743  25.696  1.00  0.00     0.002 C 
BRANCH   2   3
ATOM      3  C   UNL A   1      31.272  29.167  25.058  1.00  0.00     0.021 C 
BRANCH   3   4
ATOM      4  C   UNL A   1      31.248  29.229  23.541  1.00  0.00     0.116 C 
BRANCH   4   5
ATOM      5  N   UNL A   1      32.561  29.091  22.953  1.00  0.00    -0.356 N 
ATOM      6  C   UNL A   1      33.185  27.979  22.487  1.00  0.00     0.223 C 
ATOM      7  O   UNL A   1      34.276  28.126  21.928  1.00  0.00    -0.275 OA
ATOM      8  H   UNL A   1      33.079  29.925  22.882  1.00  0.00     0.163 HD
BRANCH   6   9
ATOM      9  C   UNL A   1      32.574  26.580  22.632  1.00  0.00     0.078 C 
ATOM     10  C   UNL A   1      31.684  26.241  21.429  1.00  0.00     0.018 C 
BRANCH   9  11
ATOM     11  C   UNL A   1      33.526  25.452  23.154  1.00  0.00     0.005 C 
ATOM     12  C   UNL A   1      33.744  21.943  25.401  1.00  0.00     0.265 C 
ATOM     13  O   UNL A   1      33.039  22.194  26.381  1.00  0.00    -0.268 OA
ATOM     14  N   UNL A   1      34.134  22.988  24.561  1.00  0.00    -0.338 N 
ATOM     15  C   UNL A   1      34.564  24.238  25.150  1.00  0.00     0.120 C 
ATOM     16  C   UNL A   1      34.097  22.939  23.107  1.00  0.00     0.120 C 
ATOM     17  C   UNL A   1      33.702  25.401  24.686  1.00  0.00     0.026 C 
ATOM     18  C   UNL A   1      33.213  24.059  22.556  1.00  0.00     0.026 C 
BRANCH  12  19
ATOM     19  C   UNL A   1      34.270  20.612  25.131  1.00  0.00     0.115 A 
ATOM     20  C   UNL A   1      34.358  16.889  23.998  1.00  0.00     0.079 C 
ATOM     21  C   UNL A   1      34.560  18.292  24.446  1.00  0.00     0.091 A 
ATOM     22  N   UNL A   1      35.732  18.840  24.665  1.00  0.00    -0.246 NA
ATOM     23  S   UNL A   1      33.220  19.318  24.681  1.00  0.00    -0.113 S 
ATOM     24  C   UNL A   1      35.586  20.187  24.992  1.00  0.00     0.061 A 
ATOM     25  C   UNL A   1      36.842  20.980  25.112  1.00  0.00     0.068 C 
ENDBRANCH  12  19
ENDBRANCH   9  11
ENDBRANCH   6   9
ENDBRANCH   4   5
ENDBRANCH   3   4
ENDBRANCH   2   3
ENDBRANCH   1   2
BRANCH   1  26
ATOM     26  C   UNL A   1      34.452  28.581  26.996  1.00  0.00     0.021 C 
BRANCH  26  27
ATOM     27  C   UNL A   1      35.458  29.625  27.465  1.00  0.00     0.116 C 
BRANCH  27  28
ATOM     28  N   UNL A   1      35.292  29.959  28.870  1.00  0.00    -0.352 N 
ATOM     29  C   UNL A   1      36.217  29.922  29.883  1.00  0.00     0.251 C 
ATOM     30  H   UNL A   1      34.390  30.253  29.132  1.00  0.00     0.163 HD
ATOM     31  O   UNL A   1      35.859  30.068  31.049  1.00  0.00    -0.269 OA
BRANCH  29  32
ATOM     32  C   UNL A   1      37.639  29.684  29.563  1.00  0.00     0.039 A 
ATOM     33  C   UNL A   1      38.516  29.341  30.594  1.00  0.00     0.014 A 
ATOM     34  C   UNL A   1      38.102  29.789  28.248  1.00  0.00     0.014 A 
ATOM     35  C   UNL A   1      39.847  29.045  30.297  1.00  0.00     0.010 A 
ATOM     36  C   UNL A   1      39.409  29.421  27.944  1.00  0.00     0.010 A 
ATOM     37  C   UNL A   1      40.296  29.049  28.965  1.00  0.00    -0.014 A 
BRANCH  37  38
ATOM     38  C   UNL A   1      41.689  28.665  28.621  1.00  0.00     0.031 A 
ATOM     39  C   UNL A   1      42.770  29.710  28.574  1.00  0.00     0.074 A 
ATOM     40  C   UNL A   1      41.962  27.389  28.285  1.00  0.00     0.049 A 
ATOM     41  N   UNL A   1      44.024  29.585  28.225  1.00  0.00    -0.248 NA
ATOM     42  C   UNL A   1      42.384  31.082  28.941  1.00  0.00     0.031 C 
ATOM     43  C   UNL A   1      40.987  26.297  28.244  1.00  0.00     0.029 A 
ATOM     44  N   UNL A   1      43.138  26.795  27.898  1.00  0.00    -0.354 N 
ATOM     45  C   UNL A   1      44.573  30.859  28.315  1.00  0.00     0.074 A 
ATOM     46  C   UNL A   1      43.503  31.752  28.700  1.00  0.00     0.031 C 
ATOM     47  C   UNL A   1      41.606  25.166  27.873  1.00  0.00     0.029 A 
ATOM     48  C   UNL A   1      43.011  25.457  27.607  1.00  0.00     0.049 A 
ATOM     49  H   UNL A   1      43.991  27.280  27.836  1.00  0.00     0.167 HD
ATOM     50  C   UNL A   1      45.856  31.244  28.116  1.00  0.00     0.037 A 
ATOM     51  C   UNL A   1      43.920  24.567  27.161  1.00  0.00     0.037 A 
ATOM     52  C   UNL A   1      46.918  30.341  27.752  1.00  0.00     0.049 A 
ATOM     53  C   UNL A   1      45.339  25.020  26.941  1.00  0.00     0.074 A 
ATOM     54  C   UNL A   1      48.264  30.620  27.590  1.00  0.00     0.029 A 
ATOM     55  N   UNL A   1      46.755  28.988  27.488  1.00  0.00    -0.354 N 
ATOM     56  N   UNL A   1      45.857  26.214  27.103  1.00  0.00    -0.248 NA
ATOM     57  C   UNL A   1      46.298  24.006  26.484  1.00  0.00     0.031 C 
ATOM     58  C   UNL A   1      48.904  29.449  27.172  1.00  0.00     0.029 A 
ATOM     59  C   UNL A   1      47.971  28.425  27.135  1.00  0.00     0.049 A 
ATOM     60  H   UNL A   1      45.902  28.501  27.542  1.00  0.00     0.167 HD
ATOM     61  C   UNL A   1      47.207  26.089  26.795  1.00  0.00     0.074 A 
ATOM     62  C   UNL A   1      47.428  24.700  26.449  1.00  0.00     0.031 C 
ATOM     63  C   UNL A   1      48.177  27.037  26.800  1.00  0.00     0.037 A 
BRANCH  50  64
ATOM     64  C   UNL A   1      46.183  32.703  28.282  1.00  0.00     0.058 A 
ATOM     65  C   UNL A   1      46.087  33.611  27.214  1.00  0.00     0.135 A 
ATOM     66  C   UNL A   1      46.565  33.210  29.535  1.00  0.00     0.135 A 
ATOM     67  F   UNL A   1      45.740  33.181  25.991  1.00  0.00    -0.206 F 
ATOM     68  C   UNL A   1      46.389  34.959  27.373  1.00  0.00     0.059 A 
ATOM     69  C   UNL A   1      46.841  34.561  29.726  1.00  0.00     0.059 A 
ATOM     70  F   UNL A   1      46.674  32.390  30.592  1.00  0.00    -0.206 F 
ATOM     71  C   UNL A   1      46.766  35.426  28.635  1.00  0.00     0.060 A 
BRANCH  71  72
ATOM     72  S   UNL A   1      47.150  37.179  28.824  1.00  0.00     0.124 S 
ATOM     73  O   UNL A   1      46.247  37.781  27.849  1.00  0.00    -0.237 OA
ATOM     74  O   UNL A   1      46.822  37.420  30.225  1.00  0.00    -0.237 OA
ATOM     75  O   UNL A   1      48.570  37.254  28.494  1.00  0.00    -0.744 OA
ENDBRANCH  71  72
ENDBRANCH  50  64
BRANCH  51  76
ATOM     76  C   UNL A   1      43.516  23.158  26.907  1.00  0.00     0.058 A 
ATOM     77  C   UNL A   1      43.424  22.656  25.599  1.00  0.00     0.135 A 
ATOM     78  C   UNL A   1      43.229  22.280  27.963  1.00  0.00     0.135 A 
ATOM     79  F   UNL A   1      43.682  23.457  24.554  1.00  0.00    -0.206 F 
ATOM     80  C   UNL A   1      43.046  21.342  25.347  1.00  0.00     0.059 A 
ATOM     81  C   UNL A   1      42.876  20.952  27.738  1.00  0.00     0.059 A 
ATOM     82  F   UNL A   1      43.316  22.704  29.233  1.00  0.00    -0.206 F 
ATOM     83  C   UNL A   1      42.776  20.496  26.425  1.00  0.00     0.060 A 
BRANCH  83  84
ATOM     84  S   UNL A   1      42.328  18.779  26.084  1.00  0.00     0.124 S 
ATOM     85  O   UNL A   1      42.535  18.159  27.388  1.00  0.00    -0.237 OA
ATOM     86  O   UNL A   1      40.941  18.906  25.650  1.00  0.00    -0.237 OA
ATOM     87  O   UNL A   1      43.271  18.385  25.043  1.00  0.00    -0.744 OA
ENDBRANCH  83  84
ENDBRANCH  51  76
BRANCH  63  88
ATOM     88  C   UNL A   1      49.576  26.605  26.456  1.00  0.00     0.058 A 
ATOM     89  C   UNL A   1      50.410  25.975  27.393  1.00  0.00     0.135 A 
ATOM     90  C   UNL A   1      50.066  26.766  25.149  1.00  0.00     0.135 A 
ATOM     91  F   UNL A   1      49.994  25.803  28.658  1.00  0.00    -0.206 F 
ATOM     92  C   UNL A   1      51.686  25.539  27.052  1.00  0.00     0.059 A 
ATOM     93  C   UNL A   1      51.326  26.310  24.778  1.00  0.00     0.059 A 
ATOM     94  F   UNL A   1      49.306  27.353  24.210  1.00  0.00    -0.206 F 
ATOM     95  C   UNL A   1      52.133  25.706  25.740  1.00  0.00     0.060 A 
BRANCH  95  96
ATOM     96  S   UNL A   1      53.774  25.093  25.302  1.00  0.00     0.124 S 
ATOM     97  O   UNL A   1      53.947  25.647  23.963  1.00  0.00    -0.237 OA
ATOM     98  O   UNL A   1      54.613  25.679  26.343  1.00  0.00    -0.237 OA
ATOM     99  O   UNL A   1      53.625  23.643  25.367  1.00  0.00    -0.744 OA
ENDBRANCH  95  96
ENDBRANCH  63  88
ENDBRANCH  37  38
ENDBRANCH  29  32
ENDBRANCH  27  28
ENDBRANCH  26  27
ENDBRANCH   1  26
TORSDOF 18
ENDMDL
MODEL 2
REMARK VINA RESULT:     -12.0      6.678     12.233
REMARK SMILES Cc1nc(C)c(C(=O)N2CCC([C@H](C)C(=O)NCCCCCCNC(=O)c3ccc(-c4c5nc(c(-c6c(F)cc(S(=O)(=O)[O-])cc6F)c6ccc([nH]6)c(-c6c(F)cc(S(=O)(=O)[O-])cc6F)c6nc(c(-c7c(F)cc(S(=O)(=O)[O-])cc7F)c7ccc4[nH]7)C=C6)C=C5)cc3)CC2)s1
REMARK SMILES IDX 21 1 20 2 19 3 18 4 17 5 15 6 16 7 13 9 14 10 12 11 7 12
REMARK SMILES IDX 8 13 9 14 10 15 94 16 11 17 93 18 6 19 1 20 2 21 3 22 95 23
REMARK SMILES IDX 4 24 5 25 22 26 23 27 24 28 25 29 26 31 27 32 28 33 92 34
REMARK SMILES IDX 29 35 91 36 30 37 31 38 32 39 85 40 33 41 90 42 84 43 86 44
REMARK SMILES IDX 34 45 89 46 83 47 82 48 35 50 69 51 48 52 68 53 49 54 52 55
REMARK SMILES IDX 67 56 87 57 50 58 51 59 66 61 88 62 53 63 36 64 37 65 46 66
REMARK SMILES IDX 38 67 39 68 45 69 47 70 40 71 41 72 42 73 43 74 44 75 70 76
REMARK SMILES IDX 71 77 80 78 72 79 73 80 79 81 81 82 74 83 75 84 76 85 77 86
REMARK SMILES IDX 78 87 54 88 55 89 64 90 56 91 57 92 63 93 65 94 58 95 59 96
REMARK SMILES IDX 60 97 61 98 62 99
REMARK H PARENT 17 8 24 30 86 49 52 60
REMARK Flexibility Score: inf
ROOT
ATOM      1  C   UNL A   1      37.112  23.517  24.845  1.00  0.00     0.002 C 
ENDROOT
BRANCH   1   2
ATOM      2  C   UNL A   1      36.781  22.254  24.043  1.00  0.00     0.002 C 
BRANCH   2   3
ATOM      3  C   UNL A   1      37.011  20.934  24.780  1.00  0.00     0.021 C 
BRANCH   3   4
ATOM      4  C   UNL A   1      35.784  20.045  24.875  1.00  0.00     0.116 C 
BRANCH   4   5
ATOM      5  N   UNL A   1      34.803  20.543  25.813  1.00  0.00    -0.356 N 
ATOM      6  C   UNL A   1      33.628  21.181  25.575  1.00  0.00     0.223 C 
ATOM      7  O   UNL A   1      32.900  21.420  26.542  1.00  0.00    -0.275 OA
ATOM      8  H   UNL A   1      35.019  20.399  26.763  1.00  0.00     0.163 HD
BRANCH   6   9
ATOM      9  C   UNL A   1      33.197  21.593  24.162  1.00  0.00     0.078 C 
ATOM     10  C   UNL A   1      32.306  20.519  23.524  1.00  0.00     0.018 C 
BRANCH   9  11
ATOM     11  C   UNL A   1      32.762  23.085  23.972  1.00  0.00     0.005 C 
ATOM     12  C   UNL A   1      31.098  26.418  25.852  1.00  0.00     0.265 C 
ATOM     13  O   UNL A   1      30.174  25.935  26.510  1.00  0.00    -0.268 OA
ATOM     14  N   UNL A   1      31.712  25.636  24.870  1.00  0.00    -0.338 N 
ATOM     15  C   UNL A   1      30.886  24.821  24.006  1.00  0.00     0.120 C 
ATOM     16  C   UNL A   1      33.150  25.534  24.672  1.00  0.00     0.120 C 
ATOM     17  C   UNL A   1      31.248  23.348  24.111  1.00  0.00     0.026 C 
ATOM     18  C   UNL A   1      33.607  24.081  24.802  1.00  0.00     0.026 C 
BRANCH  12  19
ATOM     19  C   UNL A   1      31.520  27.805  25.988  1.00  0.00     0.115 A 
ATOM     20  C   UNL A   1      33.365  30.933  27.389  1.00  0.00     0.079 C 
ATOM     21  C   UNL A   1      32.597  29.880  26.674  1.00  0.00     0.091 A 
ATOM     22  N   UNL A   1      32.013  30.046  25.512  1.00  0.00    -0.246 NA
ATOM     23  S   UNL A   1      32.455  28.319  27.344  1.00  0.00    -0.113 S 
ATOM     24  C   UNL A   1      31.450  28.850  25.073  1.00  0.00     0.061 A 
ATOM     25  C   UNL A   1      30.889  28.847  23.692  1.00  0.00     0.068 C 
ENDBRANCH  12  19
ENDBRANCH   9  11
ENDBRANCH   6   9
ENDBRANCH   4   5
ENDBRANCH   3   4
ENDBRANCH   2   3
ENDBRANCH   1   2
BRANCH   1  26
ATOM     26  C   UNL A   1      37.899  23.290  26.138  1.00  0.00     0.021 C 
BRANCH  26  27
ATOM     27  C   UNL A   1      38.765  24.465  26.578  1.00  0.00     0.116 C 
BRANCH  27  28
ATOM     28  N   UNL A   1      40.094  24.421  25.992  1.00  0.00    -0.352 N 
ATOM     29  C   UNL A   1      41.194  25.187  26.285  1.00  0.00     0.251 C 
ATOM     30  H   UNL A   1      40.224  23.748  25.285  1.00  0.00     0.163 HD
ATOM     31  O   UNL A   1      42.189  25.135  25.566  1.00  0.00    -0.269 OA
BRANCH  29  32
ATOM     32  C   UNL A   1      41.164  26.088  27.455  1.00  0.00     0.039 A 
ATOM     33  C   UNL A   1      42.021  27.190  27.483  1.00  0.00     0.014 A 
ATOM     34  C   UNL A   1      40.284  25.851  28.516  1.00  0.00     0.014 A 
ATOM     35  C   UNL A   1      41.955  28.088  28.549  1.00  0.00     0.010 A 
ATOM     36  C   UNL A   1      40.167  26.786  29.539  1.00  0.00     0.010 A 
ATOM     37  C   UNL A   1      41.004  27.913  29.568  1.00  0.00    -0.014 A 
BRANCH  37  38
ATOM     38  C   UNL A   1      40.868  28.897  30.671  1.00  0.00     0.031 A 
ATOM     39  C   UNL A   1      41.736  28.784  31.895  1.00  0.00     0.074 A 
ATOM     40  C   UNL A   1      39.916  29.848  30.600  1.00  0.00     0.049 A 
ATOM     41  N   UNL A   1      41.717  29.500  32.990  1.00  0.00    -0.248 NA
ATOM     42  C   UNL A   1      42.740  27.708  31.900  1.00  0.00     0.031 C 
ATOM     43  C   UNL A   1      38.980  30.027  29.486  1.00  0.00     0.029 A 
ATOM     44  N   UNL A   1      39.567  30.837  31.485  1.00  0.00    -0.354 N 
ATOM     45  C   UNL A   1      42.690  28.954  33.818  1.00  0.00     0.074 A 
ATOM     46  C   UNL A   1      43.246  27.815  33.122  1.00  0.00     0.031 C 
ATOM     47  C   UNL A   1      38.178  31.069  29.748  1.00  0.00     0.029 A 
ATOM     48  C   UNL A   1      38.510  31.609  31.063  1.00  0.00     0.049 A 
ATOM     49  H   UNL A   1      40.029  30.981  32.342  1.00  0.00     0.167 HD
ATOM     50  C   UNL A   1      43.098  29.377  35.038  1.00  0.00     0.037 A 
ATOM     51  C   UNL A   1      37.869  32.627  31.671  1.00  0.00     0.037 A 
ATOM     52  C   UNL A   1      42.551  30.526  35.713  1.00  0.00     0.049 A 
ATOM     53  C   UNL A   1      38.336  33.075  33.030  1.00  0.00     0.074 A 
ATOM     54  C   UNL A   1      42.939  31.076  36.923  1.00  0.00     0.029 A 
ATOM     55  N   UNL A   1      41.497  31.296  35.244  1.00  0.00    -0.354 N 
ATOM     56  N   UNL A   1      39.309  32.594  33.767  1.00  0.00    -0.248 NA
ATOM     57  C   UNL A   1      37.625  34.208  33.638  1.00  0.00     0.031 C 
ATOM     58  C   UNL A   1      42.082  32.143  37.211  1.00  0.00     0.029 A 
ATOM     59  C   UNL A   1      41.201  32.299  36.153  1.00  0.00     0.049 A 
ATOM     60  H   UNL A   1      41.027  31.151  34.391  1.00  0.00     0.167 HD
ATOM     61  C   UNL A   1      39.344  33.382  34.913  1.00  0.00     0.074 A 
ATOM     62  C   UNL A   1      38.304  34.378  34.765  1.00  0.00     0.031 C 
ATOM     63  C   UNL A   1      40.165  33.290  35.988  1.00  0.00     0.037 A 
BRANCH  50  64
ATOM     64  C   UNL A   1      44.185  28.594  35.724  1.00  0.00     0.058 A 
ATOM     65  C   UNL A   1      43.894  27.544  36.611  1.00  0.00     0.135 A 
ATOM     66  C   UNL A   1      45.537  28.874  35.466  1.00  0.00     0.135 A 
ATOM     67  F   UNL A   1      42.620  27.241  36.907  1.00  0.00    -0.206 F 
ATOM     68  C   UNL A   1      44.902  26.822  37.242  1.00  0.00     0.059 A 
ATOM     69  C   UNL A   1      46.562  28.143  36.060  1.00  0.00     0.059 A 
ATOM     70  F   UNL A   1      45.874  29.866  34.627  1.00  0.00    -0.206 F 
ATOM     71  C   UNL A   1      46.235  27.130  36.960  1.00  0.00     0.060 A 
BRANCH  71  72
ATOM     72  S   UNL A   1      47.530  26.180  37.784  1.00  0.00     0.124 S 
ATOM     73  O   UNL A   1      47.637  25.015  36.910  1.00  0.00    -0.237 OA
ATOM     74  O   UNL A   1      48.661  27.102  37.752  1.00  0.00    -0.237 OA
ATOM     75  O   UNL A   1      46.973  25.921  39.107  1.00  0.00    -0.744 OA
ENDBRANCH  71  72
ENDBRANCH  50  64
BRANCH  51  76
ATOM     76  C   UNL A   1      36.726  33.295  30.992  1.00  0.00     0.058 A 
ATOM     77  C   UNL A   1      36.935  34.160  29.907  1.00  0.00     0.135 A 
ATOM     78  C   UNL A   1      35.402  33.071  31.403  1.00  0.00     0.135 A 
ATOM     79  F   UNL A   1      38.181  34.413  29.480  1.00  0.00    -0.206 F 
ATOM     80  C   UNL A   1      35.875  34.793  29.265  1.00  0.00     0.059 A 
ATOM     81  C   UNL A   1      34.323  33.669  30.757  1.00  0.00     0.059 A 
ATOM     82  F   UNL A   1      35.147  32.241  32.426  1.00  0.00    -0.206 F 
ATOM     83  C   UNL A   1      34.572  34.538  29.696  1.00  0.00     0.060 A 
BRANCH  83  84
ATOM     84  S   UNL A   1      33.203  35.333  28.826  1.00  0.00     0.124 S 
ATOM     85  O   UNL A   1      33.909  36.302  27.994  1.00  0.00    -0.237 OA
ATOM     86  O   UNL A   1      32.596  34.209  28.120  1.00  0.00    -0.237 OA
ATOM     87  O   UNL A   1      32.399  35.896  29.905  1.00  0.00    -0.744 OA
ENDBRANCH  83  84
ENDBRANCH  51  76
BRANCH  63  88
ATOM     88  C   UNL A   1      40.002  34.313  37.079  1.00  0.00     0.058 A 
ATOM     89  C   UNL A   1      40.572  35.593  36.988  1.00  0.00     0.135 A 
ATOM     90  C   UNL A   1      39.208  34.029  38.203  1.00  0.00     0.135 A 
ATOM     91  F   UNL A   1      41.345  35.914  35.939  1.00  0.00    -0.206 F 
ATOM     92  C   UNL A   1      40.377  36.547  37.982  1.00  0.00     0.059 A 
ATOM     93  C   UNL A   1      38.975  34.978  39.193  1.00  0.00     0.059 A 
ATOM     94  F   UNL A   1      38.631  32.824  38.336  1.00  0.00    -0.206 F 
ATOM     95  C   UNL A   1      39.572  36.231  39.078  1.00  0.00     0.060 A 
BRANCH  95  96
ATOM     96  S   UNL A   1      39.292  37.495  40.337  1.00  0.00     0.124 S 
ATOM     97  O   UNL A   1      38.430  38.433  39.625  1.00  0.00    -0.237 OA
ATOM     98  O   UNL A   1      38.654  36.732  41.406  1.00  0.00    -0.237 OA
ATOM     99  O   UNL A   1      40.635  37.980  40.637  1.00  0.00    -0.744 OA
ENDBRANCH  95  96
ENDBRANCH  63  88
ENDBRANCH  37  38
ENDBRANCH  29  32
ENDBRANCH  27  28
ENDBRANCH  26  27
ENDBRANCH   1  26
TORSDOF 18
ENDMDL
MODEL 3
REMARK VINA RESULT:     -11.9      6.388      8.488
REMARK SMILES Cc1nc(C)c(C(=O)N2CCC([C@H](C)C(=O)NCCCCCCNC(=O)c3ccc(-c4c5nc(c(-c6c(F)cc(S(=O)(=O)[O-])cc6F)c6ccc([nH]6)c(-c6c(F)cc(S(=O)(=O)[O-])cc6F)c6nc(c(-c7c(F)cc(S(=O)(=O)[O-])cc7F)c7ccc4[nH]7)C=C6)C=C5)cc3)CC2)s1
REMARK SMILES IDX 21 1 20 2 19 3 18 4 17 5 15 6 16 7 13 9 14 10 12 11 7 12
REMARK SMILES IDX 8 13 9 14 10 15 94 16 11 17 93 18 6 19 1 20 2 21 3 22 95 23
REMARK SMILES IDX 4 24 5 25 22 26 23 27 24 28 25 29 26 31 27 32 28 33 92 34
REMARK SMILES IDX 29 35 91 36 30 37 31 38 32 39 85 40 33 41 90 42 84 43 86 44
REMARK SMILES IDX 34 45 89 46 83 47 82 48 35 50 69 51 48 52 68 53 49 54 52 55
REMARK SMILES IDX 67 56 87 57 50 58 51 59 66 61 88 62 53 63 36 64 37 65 46 66
REMARK SMILES IDX 38 67 39 68 45 69 47 70 40 71 41 72 42 73 43 74 44 75 70 76
REMARK SMILES IDX 71 77 80 78 72 79 73 80 79 81 81 82 74 83 75 84 76 85 77 86
REMARK SMILES IDX 78 87 54 88 55 89 64 90 56 91 57 92 63 93 65 94 58 95 59 96
REMARK SMILES IDX 60 97 61 98 62 99
REMARK H PARENT 17 8 24 30 86 49 52 60
REMARK Flexibility Score: inf
ROOT
ATOM      1  C   UNL A   1      31.723  31.170  26.277  1.00  0.00     0.002 C 
ENDROOT
BRANCH   1   2
ATOM      2  C   UNL A   1      32.433  30.224  27.251  1.00  0.00     0.002 C 
BRANCH   2   3
ATOM      3  C   UNL A   1      33.890  29.911  26.912  1.00  0.00     0.021 C 
BRANCH   3   4
ATOM      4  C   UNL A   1      34.088  28.646  26.095  1.00  0.00     0.116 C 
BRANCH   4   5
ATOM      5  N   UNL A   1      34.027  28.884  24.670  1.00  0.00    -0.356 N 
ATOM      6  C   UNL A   1      32.986  28.723  23.813  1.00  0.00     0.223 C 
ATOM      7  O   UNL A   1      33.142  29.094  22.646  1.00  0.00    -0.275 OA
ATOM      8  H   UNL A   1      34.862  29.208  24.262  1.00  0.00     0.163 HD
BRANCH   6   9
ATOM      9  C   UNL A   1      31.651  28.112  24.258  1.00  0.00     0.078 C 
ATOM     10  C   UNL A   1      30.468  28.951  23.756  1.00  0.00     0.018 C 
BRANCH   9  11
ATOM     11  C   UNL A   1      31.522  26.556  24.141  1.00  0.00     0.005 C 
ATOM     12  C   UNL A   1      33.556  23.023  23.254  1.00  0.00     0.265 C 
ATOM     13  O   UNL A   1      34.227  23.327  22.265  1.00  0.00    -0.268 OA
ATOM     14  N   UNL A   1      32.532  23.877  23.669  1.00  0.00    -0.338 N 
ATOM     15  C   UNL A   1      31.668  24.470  22.671  1.00  0.00     0.120 C 
ATOM     16  C   UNL A   1      32.288  24.269  25.049  1.00  0.00     0.120 C 
ATOM     17  C   UNL A   1      31.715  25.989  22.719  1.00  0.00     0.026 C 
ATOM     18  C   UNL A   1      32.358  25.790  25.194  1.00  0.00     0.026 C 
BRANCH  12  19
ATOM     19  C   UNL A   1      33.724  21.760  23.961  1.00  0.00     0.115 A 
ATOM     20  C   UNL A   1      33.053  18.093  25.080  1.00  0.00     0.079 C 
ATOM     21  C   UNL A   1      33.513  19.472  24.772  1.00  0.00     0.091 A 
ATOM     22  N   UNL A   1      34.670  19.969  25.140  1.00  0.00    -0.246 NA
ATOM     23  S   UNL A   1      32.528  20.520  23.858  1.00  0.00    -0.113 S 
ATOM     24  C   UNL A   1      34.835  21.253  24.626  1.00  0.00     0.061 A 
ATOM     25  C   UNL A   1      36.171  21.883  24.827  1.00  0.00     0.068 C 
ENDBRANCH  12  19
ENDBRANCH   9  11
ENDBRANCH   6   9
ENDBRANCH   4   5
ENDBRANCH   3   4
ENDBRANCH   2   3
ENDBRANCH   1   2
BRANCH   1  26
ATOM     26  C   UNL A   1      31.558  32.613  26.761  1.00  0.00     0.021 C 
BRANCH  26  27
ATOM     27  C   UNL A   1      32.699  33.136  27.626  1.00  0.00     0.116 C 
BRANCH  27  28
ATOM     28  N   UNL A   1      32.543  34.543  27.954  1.00  0.00    -0.352 N 
ATOM     29  C   UNL A   1      33.162  35.275  28.936  1.00  0.00     0.251 C 
ATOM     30  H   UNL A   1      31.903  35.041  27.395  1.00  0.00     0.163 HD
ATOM     31  O   UNL A   1      32.778  36.415  29.187  1.00  0.00    -0.269 OA
BRANCH  29  32
ATOM     32  C   UNL A   1      34.275  34.677  29.699  1.00  0.00     0.039 A 
ATOM     33  C   UNL A   1      34.028  34.186  30.983  1.00  0.00     0.014 A 
ATOM     34  C   UNL A   1      35.556  34.591  29.145  1.00  0.00     0.014 A 
ATOM     35  C   UNL A   1      35.053  33.555  31.689  1.00  0.00     0.010 A 
ATOM     36  C   UNL A   1      36.555  33.896  29.819  1.00  0.00     0.010 A 
ATOM     37  C   UNL A   1      36.315  33.374  31.100  1.00  0.00    -0.014 A 
BRANCH  37  38
ATOM     38  C   UNL A   1      37.396  32.640  31.805  1.00  0.00     0.031 A 
ATOM     39  C   UNL A   1      37.917  33.146  33.123  1.00  0.00     0.074 A 
ATOM     40  C   UNL A   1      37.954  31.560  31.224  1.00  0.00     0.049 A 
ATOM     41  N   UNL A   1      38.900  32.687  33.853  1.00  0.00    -0.248 NA
ATOM     42  C   UNL A   1      37.263  34.340  33.681  1.00  0.00     0.031 C 
ATOM     43  C   UNL A   1      37.569  31.004  29.924  1.00  0.00     0.029 A 
ATOM     44  N   UNL A   1      38.974  30.742  31.643  1.00  0.00    -0.354 N 
ATOM     45  C   UNL A   1      38.994  33.542  34.945  1.00  0.00     0.074 A 
ATOM     46  C   UNL A   1      38.002  34.578  34.755  1.00  0.00     0.031 C 
ATOM     47  C   UNL A   1      38.329  29.929  29.662  1.00  0.00     0.029 A 
ATOM     48  C   UNL A   1      39.284  29.743  30.750  1.00  0.00     0.049 A 
ATOM     49  H   UNL A   1      39.440  30.858  32.502  1.00  0.00     0.167 HD
ATOM     50  C   UNL A   1      39.817  33.459  36.017  1.00  0.00     0.037 A 
ATOM     51  C   UNL A   1      40.238  28.792  30.794  1.00  0.00     0.037 A 
ATOM     52  C   UNL A   1      40.787  32.411  36.205  1.00  0.00     0.049 A 
ATOM     53  C   UNL A   1      41.146  28.723  31.993  1.00  0.00     0.074 A 
ATOM     54  C   UNL A   1      41.625  32.200  37.286  1.00  0.00     0.029 A 
ATOM     55  N   UNL A   1      41.056  31.404  35.288  1.00  0.00    -0.354 N 
ATOM     56  N   UNL A   1      41.171  29.497  33.053  1.00  0.00    -0.248 NA
ATOM     57  C   UNL A   1      42.150  27.651  32.007  1.00  0.00     0.031 C 
ATOM     58  C   UNL A   1      42.439  31.100  36.999  1.00  0.00     0.029 A 
ATOM     59  C   UNL A   1      42.067  30.586  35.767  1.00  0.00     0.049 A 
ATOM     60  H   UNL A   1      40.597  31.289  34.425  1.00  0.00     0.167 HD
ATOM     61  C   UNL A   1      42.173  28.988  33.872  1.00  0.00     0.074 A 
ATOM     62  C   UNL A   1      42.722  27.834  33.190  1.00  0.00     0.031 C 
ATOM     63  C   UNL A   1      42.598  29.434  35.079  1.00  0.00     0.037 A 
BRANCH  50  64
ATOM     64  C   UNL A   1      39.708  34.530  37.069  1.00  0.00     0.058 A 
ATOM     65  C   UNL A   1      40.380  35.758  36.949  1.00  0.00     0.135 A 
ATOM     66  C   UNL A   1      38.893  34.341  38.197  1.00  0.00     0.135 A 
ATOM     67  F   UNL A   1      41.185  35.988  35.899  1.00  0.00    -0.206 F 
ATOM     68  C   UNL A   1      40.275  36.745  37.923  1.00  0.00     0.059 A 
ATOM     69  C   UNL A   1      38.746  35.328  39.168  1.00  0.00     0.059 A 
ATOM     70  F   UNL A   1      38.226  33.188  38.364  1.00  0.00    -0.206 F 
ATOM     71  C   UNL A   1      39.455  36.520  39.030  1.00  0.00     0.060 A 
BRANCH  71  72
ATOM     72  S   UNL A   1      39.327  37.814  40.283  1.00  0.00     0.124 S 
ATOM     73  O   UNL A   1      38.287  38.667  39.714  1.00  0.00    -0.237 OA
ATOM     74  O   UNL A   1      38.947  37.059  41.473  1.00  0.00    -0.237 OA
ATOM     75  O   UNL A   1      40.666  38.393  40.312  1.00  0.00    -0.744 OA
ENDBRANCH  71  72
ENDBRANCH  50  64
BRANCH  51  76
ATOM     76  C   UNL A   1      40.374  27.824  29.671  1.00  0.00     0.058 A 
ATOM     77  C   UNL A   1      41.379  27.976  28.703  1.00  0.00     0.135 A 
ATOM     78  C   UNL A   1      39.515  26.721  29.553  1.00  0.00     0.135 A 
ATOM     79  F   UNL A   1      42.222  29.018  28.768  1.00  0.00    -0.206 F 
ATOM     80  C   UNL A   1      41.515  27.079  27.648  1.00  0.00     0.059 A 
ATOM     81  C   UNL A   1      39.650  25.794  28.523  1.00  0.00     0.059 A 
ATOM     82  F   UNL A   1      38.547  26.521  30.461  1.00  0.00    -0.206 F 
ATOM     83  C   UNL A   1      40.646  25.989  27.569  1.00  0.00     0.060 A 
BRANCH  83  84
ATOM     84  S   UNL A   1      40.863  24.809  26.218  1.00  0.00     0.124 S 
ATOM     85  O   UNL A   1      41.206  25.693  25.109  1.00  0.00    -0.237 OA
ATOM     86  O   UNL A   1      41.942  23.965  26.719  1.00  0.00    -0.237 OA
ATOM     87  O   UNL A   1      39.559  24.161  26.126  1.00  0.00    -0.744 OA
ENDBRANCH  83  84
ENDBRANCH  51  76
BRANCH  63  88
ATOM     88  C   UNL A   1      43.688  28.656  35.766  1.00  0.00     0.058 A 
ATOM     89  C   UNL A   1      45.042  28.997  35.628  1.00  0.00     0.135 A 
ATOM     90  C   UNL A   1      43.365  27.593  36.626  1.00  0.00     0.135 A 
ATOM     91  F   UNL A   1      45.407  29.999  34.813  1.00  0.00    -0.206 F 
ATOM     92  C   UNL A   1      46.039  28.298  36.302  1.00  0.00     0.059 A 
ATOM     93  C   UNL A   1      44.342  26.902  37.334  1.00  0.00     0.059 A 
ATOM     94  F   UNL A   1      42.084  27.231  36.802  1.00  0.00    -0.206 F 
ATOM     95  C   UNL A   1      45.678  27.256  37.158  1.00  0.00     0.060 A 
BRANCH  95  96
ATOM     96  S   UNL A   1      46.979  26.389  38.062  1.00  0.00     0.124 S 
ATOM     97  O   UNL A   1      46.498  26.487  39.436  1.00  0.00    -0.237 OA
ATOM     98  O   UNL A   1      46.935  25.057  37.467  1.00  0.00    -0.237 OA
ATOM     99  O   UNL A   1      48.178  27.164  37.759  1.00  0.00    -0.744 OA
ENDBRANCH  95  96
ENDBRANCH  63  88
ENDBRANCH  37  38
ENDBRANCH  29  32
ENDBRANCH  27  28
ENDBRANCH  26  27
ENDBRANCH   1  26
TORSDOF 18
ENDMDL
