MODEL 1
REMARK VINA RESULT:     -12.6      0.000      0.000
REMARK SMILES O=C(NCCCCCCNC(=O)[C@H]1[NH2+][C@@H](c2cc(Br)ccc2O)[C@@H]2C(=O)N(c3ccccc3)C(=O)[C@H]21)c1ccc(-c2c3nc(c(-c4c(F)cc(S(=O)(=O)[O-])cc4F)c4ccc([nH]4)c(-c4c(F)cc(S(=O)(=O)[O-])cc4F)c4nc(c(-c5c(F)cc(S(=O)(=O)[O-])cc5F)c5ccc2[nH]5)C=C4)C=C3)cc1
REMARK SMILES IDX 6 1 5 2 4 3 3 4 1 5 2 6 37 8 38 9 102 10 39 11 101 12 40 13
REMARK SMILES IDX 41 14 42 15 95 16 43 17 100 18 94 19 96 20 44 21 99 22 93 23
REMARK SMILES IDX 92 24 45 26 79 27 58 28 78 29 59 30 62 31 77 32 97 33 60 34
REMARK SMILES IDX 61 35 76 37 98 38 63 39 46 40 47 41 56 42 48 43 49 44 55 45
REMARK SMILES IDX 57 46 50 47 51 48 52 49 53 50 54 51 80 52 81 53 90 54 82 55
REMARK SMILES IDX 83 56 89 57 91 58 84 59 85 60 86 61 87 62 88 63 64 64 65 65
REMARK SMILES IDX 74 66 66 67 67 68 73 69 75 70 68 71 69 72 70 73 71 74 72 75
REMARK SMILES IDX 7 76 8 77 9 78 10 79 11 80 12 82 13 83 14 84 36 85 15 86
REMARK SMILES IDX 24 89 34 90 25 91 27 92 35 93 26 94 16 95 17 96 22 97 18 98
REMARK SMILES IDX 21 99 19 100 20 101 23 102 28 104 29 105 33 106 30 107
REMARK SMILES IDX 32 108 31 109
REMARK H PARENT 3 7 96 25 62 36 10 81 14 87 14 88 23 103
REMARK Flexibility Score: inf
ROOT
ATOM      1  C   UNL A   1      40.675  22.340  27.577  1.00  0.00     0.002 C 
ENDROOT
BRANCH   1   2
ATOM      2  C   UNL A   1      42.187  22.265  27.778  1.00  0.00     0.021 C 
BRANCH   2   3
ATOM      3  C   UNL A   1      42.929  23.549  27.432  1.00  0.00     0.116 C 
BRANCH   3   4
ATOM      4  N   UNL A   1      42.393  24.184  26.241  1.00  0.00    -0.352 N 
ATOM      5  O   UNL A   1      41.112  25.661  25.111  1.00  0.00    -0.269 OA
ATOM      6  C   UNL A   1      41.669  25.348  26.158  1.00  0.00     0.251 C 
ATOM      7  H   UNL A   1      42.570  23.724  25.389  1.00  0.00     0.163 HD
BRANCH   6   8
ATOM      8  C   UNL A   1      41.563  26.207  27.355  1.00  0.00     0.039 A 
ATOM      9  C   UNL A   1      42.505  27.216  27.580  1.00  0.00     0.014 A 
ATOM     10  C   UNL A   1      40.518  25.999  28.257  1.00  0.00     0.014 A 
ATOM     11  C   UNL A   1      42.462  27.951  28.757  1.00  0.00     0.010 A 
ATOM     12  C   UNL A   1      40.426  26.799  29.398  1.00  0.00     0.010 A 
ATOM     13  C   UNL A   1      41.398  27.779  29.656  1.00  0.00    -0.014 A 
BRANCH  13  14
ATOM     14  C   UNL A   1      41.237  28.732  30.780  1.00  0.00     0.031 A 
ATOM     15  C   UNL A   1      42.071  28.627  32.023  1.00  0.00     0.074 A 
ATOM     16  C   UNL A   1      40.289  29.684  30.664  1.00  0.00     0.049 A 
ATOM     17  N   UNL A   1      42.007  29.347  33.113  1.00  0.00    -0.248 NA
ATOM     18  C   UNL A   1      43.106  27.582  32.056  1.00  0.00     0.031 C 
ATOM     19  C   UNL A   1      39.409  29.856  29.503  1.00  0.00     0.029 A 
ATOM     20  N   UNL A   1      39.895  30.676  31.523  1.00  0.00    -0.354 N 
ATOM     21  C   UNL A   1      42.967  28.829  33.973  1.00  0.00     0.074 A 
ATOM     22  C   UNL A   1      43.602  27.728  33.280  1.00  0.00     0.031 C 
ATOM     23  C   UNL A   1      38.591  30.895  29.716  1.00  0.00     0.029 A 
ATOM     24  C   UNL A   1      38.835  31.416  31.054  1.00  0.00     0.049 A 
ATOM     25  H   UNL A   1      40.328  30.842  32.392  1.00  0.00     0.167 HD
ATOM     26  C   UNL A   1      43.280  29.240  35.225  1.00  0.00     0.037 A 
ATOM     27  C   UNL A   1      38.104  32.376  31.650  1.00  0.00     0.037 A 
ATOM     28  C   UNL A   1      42.647  30.354  35.887  1.00  0.00     0.049 A 
ATOM     29  C   UNL A   1      38.456  32.784  33.051  1.00  0.00     0.074 A 
ATOM     30  C   UNL A   1      42.952  30.904  37.120  1.00  0.00     0.029 A 
ATOM     31  N   UNL A   1      41.571  31.073  35.386  1.00  0.00    -0.354 N 
ATOM     32  N   UNL A   1      39.425  32.341  33.816  1.00  0.00    -0.248 NA
ATOM     33  C   UNL A   1      37.613  33.811  33.676  1.00  0.00     0.031 C 
ATOM     34  C   UNL A   1      42.020  31.909  37.394  1.00  0.00     0.029 A 
ATOM     35  C   UNL A   1      41.170  32.027  36.307  1.00  0.00     0.049 A 
ATOM     36  H   UNL A   1      41.154  30.927  34.506  1.00  0.00     0.167 HD
ATOM     37  C   UNL A   1      39.314  33.042  35.010  1.00  0.00     0.074 A 
ATOM     38  C   UNL A   1      38.203  33.958  34.855  1.00  0.00     0.031 C 
ATOM     39  C   UNL A   1      40.060  32.931  36.135  1.00  0.00     0.037 A 
BRANCH  26  40
ATOM     40  C   UNL A   1      44.333  28.486  35.989  1.00  0.00     0.058 A 
ATOM     41  C   UNL A   1      45.690  28.832  35.923  1.00  0.00     0.135 A 
ATOM     42  C   UNL A   1      43.958  27.473  36.889  1.00  0.00     0.135 A 
ATOM     43  F   UNL A   1      46.106  29.783  35.072  1.00  0.00    -0.206 F 
ATOM     44  C   UNL A   1      46.640  28.200  36.722  1.00  0.00     0.059 A 
ATOM     45  C   UNL A   1      44.886  26.845  37.714  1.00  0.00     0.059 A 
ATOM     46  F   UNL A   1      42.671  27.102  36.991  1.00  0.00    -0.206 F 
ATOM     47  C   UNL A   1      46.226  27.214  37.621  1.00  0.00     0.060 A 
BRANCH  47  48
ATOM     48  S   UNL A   1      47.466  26.441  38.683  1.00  0.00     0.124 S 
ATOM     49  O   UNL A   1      47.102  26.974  39.993  1.00  0.00    -0.237 OA
ATOM     50  O   UNL A   1      47.204  25.020  38.483  1.00  0.00    -0.237 OA
ATOM     51  O   UNL A   1      48.731  26.925  38.140  1.00  0.00    -0.744 OA
ENDBRANCH  47  48
ENDBRANCH  26  40
BRANCH  27  52
ATOM     52  C   UNL A   1      36.937  32.969  30.944  1.00  0.00     0.058 A 
ATOM     53  C   UNL A   1      37.082  34.087  30.111  1.00  0.00     0.135 A 
ATOM     54  C   UNL A   1      35.650  32.427  31.094  1.00  0.00     0.135 A 
ATOM     55  F   UNL A   1      38.291  34.641  29.937  1.00  0.00    -0.206 F 
ATOM     56  C   UNL A   1      35.989  34.666  29.476  1.00  0.00     0.059 A 
ATOM     57  C   UNL A   1      34.547  32.967  30.442  1.00  0.00     0.059 A 
ATOM     58  F   UNL A   1      35.460  31.343  31.863  1.00  0.00    -0.206 F 
ATOM     59  C   UNL A   1      34.724  34.099  29.650  1.00  0.00     0.060 A 
BRANCH  59  60
ATOM     60  S   UNL A   1      33.313  34.853  28.814  1.00  0.00     0.124 S 
ATOM     61  O   UNL A   1      33.946  35.972  28.127  1.00  0.00    -0.237 OA
ATOM     62  O   UNL A   1      32.842  33.764  27.965  1.00  0.00    -0.237 OA
ATOM     63  O   UNL A   1      32.422  35.209  29.915  1.00  0.00    -0.744 OA
ENDBRANCH  59  60
ENDBRANCH  27  52
BRANCH  39  64
ATOM     64  C   UNL A   1      39.706  33.828  37.288  1.00  0.00     0.058 A 
ATOM     65  C   UNL A   1      38.839  33.403  38.307  1.00  0.00     0.135 A 
ATOM     66  C   UNL A   1      40.291  35.098  37.409  1.00  0.00     0.135 A 
ATOM     67  F   UNL A   1      38.242  32.202  38.229  1.00  0.00    -0.206 F 
ATOM     68  C   UNL A   1      38.559  34.209  39.404  1.00  0.00     0.059 A 
ATOM     69  C   UNL A   1      40.048  35.909  38.512  1.00  0.00     0.059 A 
ATOM     70  F   UNL A   1      41.130  35.551  36.463  1.00  0.00    -0.206 F 
ATOM     71  C   UNL A   1      39.177  35.457  39.502  1.00  0.00     0.060 A 
BRANCH  71  72
ATOM     72  S   UNL A   1      38.853  36.465  40.963  1.00  0.00     0.124 S 
ATOM     73  O   UNL A   1      37.824  35.683  41.641  1.00  0.00    -0.237 OA
ATOM     74  O   UNL A   1      40.159  36.496  41.616  1.00  0.00    -0.237 OA
ATOM     75  O   UNL A   1      38.406  37.739  40.407  1.00  0.00    -0.744 OA
ENDBRANCH  71  72
ENDBRANCH  39  64
ENDBRANCH  13  14
ENDBRANCH   6   8
ENDBRANCH   3   4
ENDBRANCH   2   3
ENDBRANCH   1   2
BRANCH   1  76
ATOM     76  C   UNL A   1      40.097  21.262  26.658  1.00  0.00     0.002 C 
BRANCH  76  77
ATOM     77  C   UNL A   1      38.898  21.697  25.804  1.00  0.00     0.021 C 
BRANCH  77  78
ATOM     78  C   UNL A   1      38.508  23.166  25.941  1.00  0.00     0.116 C 
BRANCH  78  79
ATOM     79  N   UNL A   1      37.607  23.552  24.879  1.00  0.00    -0.351 N 
ATOM     80  C   UNL A   1      36.257  23.534  24.832  1.00  0.00     0.279 C 
ATOM     81  H   UNL A   1      38.045  23.880  24.059  1.00  0.00     0.163 HD
ATOM     82  O   UNL A   1      35.732  23.852  23.763  1.00  0.00    -0.268 OA
BRANCH  80  83
ATOM     83  C   UNL A   1      35.420  23.202  26.085  1.00  0.00     0.286 C 
ATOM     84  N   UNL A   1      34.314  24.223  26.230  1.00  0.00    -0.328 N 
ATOM     85  C   UNL A   1      34.618  21.940  26.039  1.00  0.00     0.166 C 
ATOM     86  C   UNL A   1      33.034  23.616  25.712  1.00  0.00     0.231 C 
ATOM     87  H   UNL A   1      34.542  25.058  25.690  1.00  0.00     0.347 HD
ATOM     88  H   UNL A   1      34.205  24.486  27.210  1.00  0.00     0.347 HD
ATOM     89  C   UNL A   1      33.496  22.316  25.100  1.00  0.00     0.161 C 
ATOM     90  C   UNL A   1      34.961  20.595  25.499  1.00  0.00     0.244 C 
ATOM     91  C   UNL A   1      32.739  21.027  25.091  1.00  0.00     0.244 C 
ATOM     92  N   UNL A   1      33.731  20.042  25.134  1.00  0.00    -0.250 N 
ATOM     93  O   UNL A   1      36.078  20.111  25.489  1.00  0.00    -0.273 OA
ATOM     94  O   UNL A   1      31.528  20.920  25.014  1.00  0.00    -0.273 OA
BRANCH  86  95
ATOM     95  C   UNL A   1      32.308  24.581  24.791  1.00  0.00     0.053 A 
ATOM     96  C   UNL A   1      32.982  25.647  24.164  1.00  0.00     0.029 A 
ATOM     97  C   UNL A   1      30.920  24.501  24.609  1.00  0.00     0.124 A 
ATOM     98  C   UNL A   1      32.294  26.594  23.408  1.00  0.00     0.018 A 
ATOM     99  C   UNL A   1      30.229  25.445  23.844  1.00  0.00     0.048 A 
ATOM    100  Br  UNL A   1      33.241  28.029  22.621  1.00  0.00    -0.051 Br
ATOM    101  C   UNL A   1      30.917  26.500  23.247  1.00  0.00     0.019 A 
BRANCH  97 102
ATOM    102  O   UNL A   1      30.229  23.483  25.201  1.00  0.00    -0.507 OA
ATOM    103  H   UNL A   1      29.683  23.655  25.943  1.00  0.00     0.293 HD
ENDBRANCH  97 102
ENDBRANCH  86  95
BRANCH  92 104
ATOM    104  C   UNL A   1      33.510  18.664  24.878  1.00  0.00     0.052 A 
ATOM    105  C   UNL A   1      32.737  17.883  25.751  1.00  0.00     0.027 A 
ATOM    106  C   UNL A   1      34.066  18.041  23.752  1.00  0.00     0.027 A 
ATOM    107  C   UNL A   1      32.519  16.524  25.499  1.00  0.00     0.002 A 
ATOM    108  C   UNL A   1      33.875  16.675  23.518  1.00  0.00     0.002 A 
ATOM    109  C   UNL A   1      33.097  15.918  24.388  1.00  0.00     0.000 A 
ENDBRANCH  92 104
ENDBRANCH  80  83
ENDBRANCH  78  79
ENDBRANCH  77  78
ENDBRANCH  76  77
ENDBRANCH   1  76
TORSDOF 19
ENDMDL
MODEL 2
REMARK VINA RESULT:     -12.6      0.538      7.879
REMARK SMILES O=C(NCCCCCCNC(=O)[C@H]1[NH2+][C@@H](c2cc(Br)ccc2O)[C@@H]2C(=O)N(c3ccccc3)C(=O)[C@H]21)c1ccc(-c2c3nc(c(-c4c(F)cc(S(=O)(=O)[O-])cc4F)c4ccc([nH]4)c(-c4c(F)cc(S(=O)(=O)[O-])cc4F)c4nc(c(-c5c(F)cc(S(=O)(=O)[O-])cc5F)c5ccc2[nH]5)C=C4)C=C3)cc1
REMARK SMILES IDX 6 1 5 2 4 3 3 4 1 5 2 6 37 8 38 9 102 10 39 11 101 12 40 13
REMARK SMILES IDX 41 14 42 15 95 16 43 17 100 18 94 19 96 20 44 21 99 22 93 23
REMARK SMILES IDX 92 24 45 26 79 27 58 28 78 29 59 30 62 31 77 32 97 33 60 34
REMARK SMILES IDX 61 35 76 37 98 38 63 39 46 40 47 41 56 42 48 43 49 44 55 45
REMARK SMILES IDX 57 46 50 47 51 48 52 49 53 50 54 51 80 52 81 53 90 54 82 55
REMARK SMILES IDX 83 56 89 57 91 58 84 59 85 60 86 61 87 62 88 63 64 64 65 65
REMARK SMILES IDX 74 66 66 67 67 68 73 69 75 70 68 71 69 72 70 73 71 74 72 75
REMARK SMILES IDX 7 76 8 77 9 78 10 79 11 80 12 82 13 83 14 84 36 85 15 86
REMARK SMILES IDX 24 89 34 90 25 91 27 92 35 93 26 94 16 95 17 96 22 97 18 98
REMARK SMILES IDX 21 99 19 100 20 101 23 102 28 104 29 105 33 106 30 107
REMARK SMILES IDX 32 108 31 109
REMARK H PARENT 3 7 96 25 62 36 10 81 14 87 14 88 23 103
REMARK Flexibility Score: inf
ROOT
ATOM      1  C   UNL A   1      40.734  22.399  27.641  1.00  0.00     0.002 C 
ENDROOT
BRANCH   1   2
ATOM      2  C   UNL A   1      42.261  22.418  27.640  1.00  0.00     0.021 C 
BRANCH   2   3
ATOM      3  C   UNL A   1      42.870  23.801  27.460  1.00  0.00     0.116 C 
BRANCH   3   4
ATOM      4  N   UNL A   1      42.373  24.465  26.267  1.00  0.00    -0.352 N 
ATOM      5  O   UNL A   1      41.090  25.932  25.128  1.00  0.00    -0.269 OA
ATOM      6  C   UNL A   1      41.602  25.598  26.190  1.00  0.00     0.251 C 
ATOM      7  H   UNL A   1      42.618  24.050  25.409  1.00  0.00     0.163 HD
BRANCH   6   8
ATOM      8  C   UNL A   1      41.391  26.398  27.414  1.00  0.00     0.039 A 
ATOM      9  C   UNL A   1      42.228  27.483  27.697  1.00  0.00     0.014 A 
ATOM     10  C   UNL A   1      40.352  26.060  28.283  1.00  0.00     0.014 A 
ATOM     11  C   UNL A   1      42.091  28.167  28.897  1.00  0.00     0.010 A 
ATOM     12  C   UNL A   1      40.162  26.805  29.449  1.00  0.00     0.010 A 
ATOM     13  C   UNL A   1      41.031  27.862  29.765  1.00  0.00    -0.014 A 
BRANCH  13  14
ATOM     14  C   UNL A   1      40.757  28.753  30.917  1.00  0.00     0.031 A 
ATOM     15  C   UNL A   1      39.658  29.774  30.875  1.00  0.00     0.074 A 
ATOM     16  C   UNL A   1      41.553  28.641  31.999  1.00  0.00     0.049 A 
ATOM     17  N   UNL A   1      39.334  30.664  31.777  1.00  0.00    -0.248 NA
ATOM     18  C   UNL A   1      38.814  29.809  29.670  1.00  0.00     0.031 C 
ATOM     19  C   UNL A   1      42.666  27.694  32.129  1.00  0.00     0.029 A 
ATOM     20  N   UNL A   1      41.564  29.325  33.187  1.00  0.00    -0.354 N 
ATOM     21  C   UNL A   1      38.273  31.384  31.244  1.00  0.00     0.074 A 
ATOM     22  C   UNL A   1      38.006  30.830  29.933  1.00  0.00     0.031 C 
ATOM     23  C   UNL A   1      43.241  27.847  33.330  1.00  0.00     0.029 A 
ATOM     24  C   UNL A   1      42.588  28.949  34.025  1.00  0.00     0.049 A 
ATOM     25  H   UNL A   1      40.903  30.017  33.418  1.00  0.00     0.167 HD
ATOM     26  C   UNL A   1      37.593  32.413  31.803  1.00  0.00     0.037 A 
ATOM     27  C   UNL A   1      42.993  29.462  35.201  1.00  0.00     0.037 A 
ATOM     28  C   UNL A   1      37.865  32.934  33.120  1.00  0.00     0.049 A 
ATOM     29  C   UNL A   1      42.238  30.626  35.776  1.00  0.00     0.074 A 
ATOM     30  C   UNL A   1      37.177  33.916  33.812  1.00  0.00     0.029 A 
ATOM     31  N   UNL A   1      38.916  32.536  33.935  1.00  0.00    -0.354 N 
ATOM     32  N   UNL A   1      41.182  31.237  35.296  1.00  0.00    -0.248 NA
ATOM     33  C   UNL A   1      42.732  31.177  37.044  1.00  0.00     0.031 C 
ATOM     34  C   UNL A   1      37.850  34.159  35.012  1.00  0.00     0.029 A 
ATOM     35  C   UNL A   1      38.923  33.287  35.098  1.00  0.00     0.049 A 
ATOM     36  H   UNL A   1      39.561  31.824  33.717  1.00  0.00     0.167 HD
ATOM     37  C   UNL A   1      40.879  32.240  36.208  1.00  0.00     0.074 A 
ATOM     38  C   UNL A   1      41.846  32.135  37.282  1.00  0.00     0.031 C 
ATOM     39  C   UNL A   1      39.895  33.169  36.157  1.00  0.00     0.037 A 
BRANCH  26  40
ATOM     40  C   UNL A   1      36.502  33.074  31.006  1.00  0.00     0.058 A 
ATOM     41  C   UNL A   1      35.147  32.928  31.337  1.00  0.00     0.135 A 
ATOM     42  C   UNL A   1      36.830  33.959  29.965  1.00  0.00     0.135 A 
ATOM     43  F   UNL A   1      34.776  32.087  32.315  1.00  0.00    -0.206 F 
ATOM     44  C   UNL A   1      34.155  33.635  30.663  1.00  0.00     0.059 A 
ATOM     45  C   UNL A   1      35.858  34.694  29.293  1.00  0.00     0.059 A 
ATOM     46  F   UNL A   1      38.113  34.135  29.607  1.00  0.00    -0.206 F 
ATOM     47  C   UNL A   1      34.522  34.523  29.648  1.00  0.00     0.060 A 
BRANCH  47  48
ATOM     48  S   UNL A   1      33.224  35.468  28.820  1.00  0.00     0.124 S 
ATOM     49  O   UNL A   1      32.446  35.953  29.955  1.00  0.00    -0.237 OA
ATOM     50  O   UNL A   1      33.990  36.480  28.099  1.00  0.00    -0.237 OA
ATOM     51  O   UNL A   1      32.559  34.474  27.983  1.00  0.00    -0.744 OA
ENDBRANCH  47  48
ENDBRANCH  26  40
BRANCH  27  52
ATOM     52  C   UNL A   1      44.201  28.918  35.875  1.00  0.00     0.058 A 
ATOM     53  C   UNL A   1      45.475  29.447  35.625  1.00  0.00     0.135 A 
ATOM     54  C   UNL A   1      44.102  27.851  36.783  1.00  0.00     0.135 A 
ATOM     55  F   UNL A   1      45.621  30.466  34.765  1.00  0.00    -0.206 F 
ATOM     56  C   UNL A   1      46.612  28.919  36.227  1.00  0.00     0.059 A 
ATOM     57  C   UNL A   1      45.220  27.328  37.424  1.00  0.00     0.059 A 
ATOM     58  F   UNL A   1      42.904  27.322  37.075  1.00  0.00    -0.206 F 
ATOM     59  C   UNL A   1      46.473  27.856  37.124  1.00  0.00     0.060 A 
BRANCH  59  60
ATOM     60  S   UNL A   1      47.954  27.184  37.907  1.00  0.00     0.124 S 
ATOM     61  O   UNL A   1      49.009  27.796  37.108  1.00  0.00    -0.237 OA
ATOM     62  O   UNL A   1      47.825  27.671  39.276  1.00  0.00    -0.237 OA
ATOM     63  O   UNL A   1      47.794  25.742  37.745  1.00  0.00    -0.744 OA
ENDBRANCH  59  60
ENDBRANCH  27  52
BRANCH  39  64
ATOM     64  C   UNL A   1      39.806  34.143  37.297  1.00  0.00     0.058 A 
ATOM     65  C   UNL A   1      40.446  35.390  37.246  1.00  0.00     0.135 A 
ATOM     66  C   UNL A   1      39.019  33.853  38.423  1.00  0.00     0.135 A 
ATOM     67  F   UNL A   1      41.223  35.709  36.197  1.00  0.00    -0.206 F 
ATOM     68  C   UNL A   1      40.316  36.316  38.275  1.00  0.00     0.059 A 
ATOM     69  C   UNL A   1      38.850  34.776  39.450  1.00  0.00     0.059 A 
ATOM     70  F   UNL A   1      38.383  32.674  38.520  1.00  0.00    -0.206 F 
ATOM     71  C   UNL A   1      39.506  36.003  39.368  1.00  0.00     0.060 A 
BRANCH  71  72
ATOM     72  S   UNL A   1      39.295  37.239  40.665  1.00  0.00     0.124 S 
ATOM     73  O   UNL A   1      40.644  37.784  40.778  1.00  0.00    -0.237 OA
ATOM     74  O   UNL A   1      38.296  38.132  40.084  1.00  0.00    -0.237 OA
ATOM     75  O   UNL A   1      38.838  36.458  41.810  1.00  0.00    -0.744 OA
ENDBRANCH  71  72
ENDBRANCH  39  64
ENDBRANCH  13  14
ENDBRANCH   6   8
ENDBRANCH   3   4
ENDBRANCH   2   3
ENDBRANCH   1   2
BRANCH   1  76
ATOM     76  C   UNL A   1      40.107  21.296  26.787  1.00  0.00     0.002 C 
BRANCH  76  77
ATOM     77  C   UNL A   1      39.011  21.757  25.816  1.00  0.00     0.021 C 
BRANCH  77  78
ATOM     78  C   UNL A   1      38.533  23.193  26.016  1.00  0.00     0.116 C 
BRANCH  78  79
ATOM     79  N   UNL A   1      37.659  23.591  24.937  1.00  0.00    -0.351 N 
ATOM     80  C   UNL A   1      36.311  23.589  24.862  1.00  0.00     0.279 C 
ATOM     81  H   UNL A   1      38.118  23.915  24.127  1.00  0.00     0.163 HD
ATOM     82  O   UNL A   1      35.812  23.915  23.782  1.00  0.00    -0.268 OA
BRANCH  80  83
ATOM     83  C   UNL A   1      35.444  23.264  26.095  1.00  0.00     0.286 C 
ATOM     84  N   UNL A   1      34.337  24.289  26.211  1.00  0.00    -0.328 N 
ATOM     85  C   UNL A   1      34.639  22.004  26.036  1.00  0.00     0.166 C 
ATOM     86  C   UNL A   1      33.068  23.682  25.665  1.00  0.00     0.231 C 
ATOM     87  H   UNL A   1      34.580  25.120  25.673  1.00  0.00     0.347 HD
ATOM     88  H   UNL A   1      34.206  24.556  27.187  1.00  0.00     0.347 HD
ATOM     89  C   UNL A   1      33.540  22.379  25.069  1.00  0.00     0.161 C 
ATOM     90  C   UNL A   1      34.991  20.656  25.510  1.00  0.00     0.244 C 
ATOM     91  C   UNL A   1      32.781  21.092  25.048  1.00  0.00     0.244 C 
ATOM     92  N   UNL A   1      33.768  20.105  25.118  1.00  0.00    -0.250 N 
ATOM     93  O   UNL A   1      36.107  20.169  25.528  1.00  0.00    -0.273 OA
ATOM     94  O   UNL A   1      31.572  20.988  24.943  1.00  0.00    -0.273 OA
BRANCH  86  95
ATOM     95  C   UNL A   1      32.366  24.645  24.724  1.00  0.00     0.053 A 
ATOM     96  C   UNL A   1      33.055  25.713  24.116  1.00  0.00     0.029 A 
ATOM     97  C   UNL A   1      30.984  24.563  24.502  1.00  0.00     0.124 A 
ATOM     98  C   UNL A   1      32.387  26.659  23.340  1.00  0.00     0.018 A 
ATOM     99  C   UNL A   1      30.313  25.505  23.718  1.00  0.00     0.048 A 
ATOM    100  Br  UNL A   1      33.353  28.095  22.579  1.00  0.00    -0.051 Br
ATOM    101  C   UNL A   1      31.015  26.561  23.140  1.00  0.00     0.019 A 
BRANCH  97 102
ATOM    102  O   UNL A   1      30.278  23.543  25.075  1.00  0.00    -0.507 OA
ATOM    103  H   UNL A   1      30.717  22.913  25.613  1.00  0.00     0.293 HD
ENDBRANCH  97 102
ENDBRANCH  86  95
BRANCH  92 104
ATOM    104  C   UNL A   1      33.550  18.726  24.863  1.00  0.00     0.052 A 
ATOM    105  C   UNL A   1      33.931  18.149  23.642  1.00  0.00     0.027 A 
ATOM    106  C   UNL A   1      32.936  17.904  25.818  1.00  0.00     0.027 A 
ATOM    107  C   UNL A   1      33.716  16.790  23.390  1.00  0.00     0.002 A 
ATOM    108  C   UNL A   1      32.691  16.552  25.552  1.00  0.00     0.002 A 
ATOM    109  C   UNL A   1      33.086  15.994  24.341  1.00  0.00     0.000 A 
ENDBRANCH  92 104
ENDBRANCH  80  83
ENDBRANCH  78  79
ENDBRANCH  77  78
ENDBRANCH  76  77
ENDBRANCH   1  76
TORSDOF 19
ENDMDL
MODEL 3
REMARK VINA RESULT:     -11.8      5.721     12.299
REMARK SMILES O=C(NCCCCCCNC(=O)[C@H]1[NH2+][C@@H](c2cc(Br)ccc2O)[C@@H]2C(=O)N(c3ccccc3)C(=O)[C@H]21)c1ccc(-c2c3nc(c(-c4c(F)cc(S(=O)(=O)[O-])cc4F)c4ccc([nH]4)c(-c4c(F)cc(S(=O)(=O)[O-])cc4F)c4nc(c(-c5c(F)cc(S(=O)(=O)[O-])cc5F)c5ccc2[nH]5)C=C4)C=C3)cc1
REMARK SMILES IDX 6 1 5 2 4 3 3 4 1 5 2 6 37 8 38 9 102 10 39 11 101 12 40 13
REMARK SMILES IDX 41 14 42 15 95 16 43 17 100 18 94 19 96 20 44 21 99 22 93 23
REMARK SMILES IDX 92 24 45 26 79 27 58 28 78 29 59 30 62 31 77 32 97 33 60 34
REMARK SMILES IDX 61 35 76 37 98 38 63 39 46 40 47 41 56 42 48 43 49 44 55 45
REMARK SMILES IDX 57 46 50 47 51 48 52 49 53 50 54 51 80 52 81 53 90 54 82 55
REMARK SMILES IDX 83 56 89 57 91 58 84 59 85 60 86 61 87 62 88 63 64 64 65 65
REMARK SMILES IDX 74 66 66 67 67 68 73 69 75 70 68 71 69 72 70 73 71 74 72 75
REMARK SMILES IDX 7 76 8 77 9 78 10 79 11 80 12 82 13 83 14 84 36 85 15 86
REMARK SMILES IDX 24 89 34 90 25 91 27 92 35 93 26 94 16 95 17 96 22 97 18 98
REMARK SMILES IDX 21 99 19 100 20 101 23 102 28 104 29 105 33 106 30 107
REMARK SMILES IDX 32 108 31 109
REMARK H PARENT 3 7 96 25 62 36 10 81 14 87 14 88 23 103
REMARK Flexibility Score: inf
ROOT
ATOM      1  C   UNL A   1      37.001  33.704  28.730  1.00  0.00     0.002 C 
ENDROOT
BRANCH   1   2
ATOM      2  C   UNL A   1      35.513  33.513  28.443  1.00  0.00     0.021 C 
BRANCH   2   3
ATOM      3  C   UNL A   1      34.801  32.586  29.417  1.00  0.00     0.116 C 
BRANCH   3   4
ATOM      4  N   UNL A   1      34.009  31.580  28.732  1.00  0.00    -0.352 N 
ATOM      5  O   UNL A   1      33.691  29.782  27.403  1.00  0.00    -0.269 OA
ATOM      6  C   UNL A   1      34.448  30.436  28.112  1.00  0.00     0.251 C 
ATOM      7  H   UNL A   1      33.038  31.738  28.708  1.00  0.00     0.163 HD
BRANCH   6   8
ATOM      8  C   UNL A   1      35.851  30.017  28.306  1.00  0.00     0.039 A 
ATOM      9  C   UNL A   1      36.784  30.194  27.278  1.00  0.00     0.014 A 
ATOM     10  C   UNL A   1      36.234  29.443  29.519  1.00  0.00     0.014 A 
ATOM     11  C   UNL A   1      38.076  29.705  27.427  1.00  0.00     0.010 A 
ATOM     12  C   UNL A   1      37.556  29.031  29.698  1.00  0.00     0.010 A 
ATOM     13  C   UNL A   1      38.485  29.157  28.652  1.00  0.00    -0.014 A 
BRANCH  13  14
ATOM     14  C   UNL A   1      39.921  28.863  28.871  1.00  0.00     0.031 A 
ATOM     15  C   UNL A   1      40.521  27.545  28.478  1.00  0.00     0.074 A 
ATOM     16  C   UNL A   1      40.672  29.811  29.467  1.00  0.00     0.049 A 
ATOM     17  N   UNL A   1      41.744  27.117  28.659  1.00  0.00    -0.248 NA
ATOM     18  C   UNL A   1      39.642  26.578  27.802  1.00  0.00     0.031 C 
ATOM     19  C   UNL A   1      40.176  31.121  29.909  1.00  0.00     0.029 A 
ATOM     20  N   UNL A   1      41.997  29.828  29.818  1.00  0.00    -0.354 N 
ATOM     21  C   UNL A   1      41.778  25.826  28.149  1.00  0.00     0.074 A 
ATOM     22  C   UNL A   1      40.450  25.534  27.652  1.00  0.00     0.031 C 
ATOM     23  C   UNL A   1      41.184  31.814  30.456  1.00  0.00     0.029 A 
ATOM     24  C   UNL A   1      42.375  30.976  30.473  1.00  0.00     0.049 A 
ATOM     25  H   UNL A   1      42.617  29.089  29.619  1.00  0.00     0.167 HD
ATOM     26  C   UNL A   1      42.827  24.969  28.106  1.00  0.00     0.037 A 
ATOM     27  C   UNL A   1      43.536  31.305  31.067  1.00  0.00     0.037 A 
ATOM     28  C   UNL A   1      44.147  25.291  28.590  1.00  0.00     0.049 A 
ATOM     29  C   UNL A   1      44.668  30.318  31.032  1.00  0.00     0.074 A 
ATOM     30  C   UNL A   1      45.297  24.525  28.513  1.00  0.00     0.029 A 
ATOM     31  N   UNL A   1      44.490  26.459  29.256  1.00  0.00    -0.354 N 
ATOM     32  N   UNL A   1      44.707  29.135  30.467  1.00  0.00    -0.248 NA
ATOM     33  C   UNL A   1      45.906  30.701  31.721  1.00  0.00     0.031 C 
ATOM     34  C   UNL A   1      46.317  25.198  29.191  1.00  0.00     0.029 A 
ATOM     35  C   UNL A   1      45.820  26.411  29.639  1.00  0.00     0.049 A 
ATOM     36  H   UNL A   1      43.878  27.210  29.430  1.00  0.00     0.167 HD
ATOM     37  C   UNL A   1      45.977  28.636  30.725  1.00  0.00     0.074 A 
ATOM     38  C   UNL A   1      46.685  29.657  31.471  1.00  0.00     0.031 C 
ATOM     39  C   UNL A   1      46.508  27.438  30.382  1.00  0.00     0.037 A 
BRANCH  26  40
ATOM     40  C   UNL A   1      42.609  23.592  27.545  1.00  0.00     0.058 A 
ATOM     41  C   UNL A   1      42.718  23.322  26.173  1.00  0.00     0.135 A 
ATOM     42  C   UNL A   1      42.401  22.504  28.411  1.00  0.00     0.135 A 
ATOM     43  F   UNL A   1      42.905  24.324  25.299  1.00  0.00    -0.206 F 
ATOM     44  C   UNL A   1      42.628  22.024  25.678  1.00  0.00     0.059 A 
ATOM     45  C   UNL A   1      42.331  21.196  27.942  1.00  0.00     0.059 A 
ATOM     46  F   UNL A   1      42.288  22.706  29.733  1.00  0.00    -0.206 F 
ATOM     47  C   UNL A   1      42.443  20.966  26.572  1.00  0.00     0.060 A 
BRANCH  47  48
ATOM     48  S   UNL A   1      42.378  19.285  25.915  1.00  0.00     0.124 S 
ATOM     49  O   UNL A   1      43.313  19.371  24.798  1.00  0.00    -0.237 OA
ATOM     50  O   UNL A   1      42.825  18.489  27.054  1.00  0.00    -0.237 OA
ATOM     51  O   UNL A   1      40.976  19.115  25.548  1.00  0.00    -0.744 OA
ENDBRANCH  47  48
ENDBRANCH  26  40
BRANCH  27  52
ATOM     52  C   UNL A   1      43.663  32.597  31.792  1.00  0.00     0.058 A 
ATOM     53  C   UNL A   1      43.512  32.668  33.184  1.00  0.00     0.135 A 
ATOM     54  C   UNL A   1      43.935  33.789  31.101  1.00  0.00     0.135 A 
ATOM     55  F   UNL A   1      43.251  31.556  33.888  1.00  0.00    -0.206 F 
ATOM     56  C   UNL A   1      43.596  33.879  33.863  1.00  0.00     0.059 A 
ATOM     57  C   UNL A   1      44.057  35.007  31.762  1.00  0.00     0.059 A 
ATOM     58  F   UNL A   1      44.109  33.773  29.771  1.00  0.00    -0.206 F 
ATOM     59  C   UNL A   1      43.867  35.044  33.140  1.00  0.00     0.060 A 
BRANCH  59  60
ATOM     60  S   UNL A   1      43.982  36.609  34.032  1.00  0.00     0.124 S 
ATOM     61  O   UNL A   1      43.106  37.462  33.238  1.00  0.00    -0.237 OA
ATOM     62  O   UNL A   1      43.491  36.244  35.357  1.00  0.00    -0.237 OA
ATOM     63  O   UNL A   1      45.405  36.928  33.966  1.00  0.00    -0.744 OA
ENDBRANCH  59  60
ENDBRANCH  27  52
BRANCH  39  64
ATOM     64  C   UNL A   1      47.924  27.165  30.802  1.00  0.00     0.058 A 
ATOM     65  C   UNL A   1      48.216  26.404  31.944  1.00  0.00     0.135 A 
ATOM     66  C   UNL A   1      48.999  27.613  30.017  1.00  0.00     0.135 A 
ATOM     67  F   UNL A   1      47.223  25.967  32.736  1.00  0.00    -0.206 F 
ATOM     68  C   UNL A   1      49.525  26.101  32.300  1.00  0.00     0.059 A 
ATOM     69  C   UNL A   1      50.315  27.296  30.338  1.00  0.00     0.059 A 
ATOM     70  F   UNL A   1      48.774  28.342  28.912  1.00  0.00    -0.206 F 
ATOM     71  C   UNL A   1      50.568  26.544  31.483  1.00  0.00     0.060 A 
BRANCH  71  72
ATOM     72  S   UNL A   1      52.258  26.088  31.922  1.00  0.00     0.124 S 
ATOM     73  O   UNL A   1      52.462  26.853  33.148  1.00  0.00    -0.237 OA
ATOM     74  O   UNL A   1      52.157  24.641  32.087  1.00  0.00    -0.237 OA
ATOM     75  O   UNL A   1      53.040  26.530  30.772  1.00  0.00    -0.744 OA
ENDBRANCH  71  72
ENDBRANCH  39  64
ENDBRANCH  13  14
ENDBRANCH   6   8
ENDBRANCH   3   4
ENDBRANCH   2   3
ENDBRANCH   1   2
BRANCH   1  76
ATOM     76  C   UNL A   1      37.352  33.868  30.210  1.00  0.00     0.002 C 
BRANCH  76  77
ATOM     77  C   UNL A   1      37.467  32.562  31.008  1.00  0.00     0.021 C 
BRANCH  77  78
ATOM     78  C   UNL A   1      36.918  32.623  32.431  1.00  0.00     0.116 C 
BRANCH  78  79
ATOM     79  N   UNL A   1      36.936  31.312  33.038  1.00  0.00    -0.351 N 
ATOM     80  C   UNL A   1      37.979  30.521  33.371  1.00  0.00     0.279 C 
ATOM     81  H   UNL A   1      36.049  30.935  33.241  1.00  0.00     0.163 HD
ATOM     82  O   UNL A   1      37.710  29.402  33.815  1.00  0.00    -0.268 OA
BRANCH  80  83
ATOM     83  C   UNL A   1      39.431  31.029  33.267  1.00  0.00     0.286 C 
ATOM     84  N   UNL A   1      39.622  32.191  34.218  1.00  0.00    -0.328 N 
ATOM     85  C   UNL A   1      40.502  30.104  33.753  1.00  0.00     0.166 C 
ATOM     86  C   UNL A   1      40.318  31.682  35.456  1.00  0.00     0.231 C 
ATOM     87  H   UNL A   1      38.715  32.583  34.470  1.00  0.00     0.347 HD
ATOM     88  H   UNL A   1      40.183  32.919  33.774  1.00  0.00     0.347 HD
ATOM     89  C   UNL A   1      40.331  30.187  35.252  1.00  0.00     0.161 C 
ATOM     90  C   UNL A   1      40.651  28.631  33.596  1.00  0.00     0.244 C 
ATOM     91  C   UNL A   1      41.413  29.247  35.676  1.00  0.00     0.244 C 
ATOM     92  N   UNL A   1      41.390  28.234  34.713  1.00  0.00    -0.250 N 
ATOM     93  O   UNL A   1      40.265  27.988  32.636  1.00  0.00    -0.273 OA
ATOM     94  O   UNL A   1      42.099  29.366  36.676  1.00  0.00    -0.273 OA
BRANCH  86  95
ATOM     95  C   UNL A   1      39.634  32.191  36.712  1.00  0.00     0.053 A 
ATOM     96  C   UNL A   1      40.358  32.837  37.734  1.00  0.00     0.029 A 
ATOM     97  C   UNL A   1      38.272  31.952  36.942  1.00  0.00     0.124 A 
ATOM     98  C   UNL A   1      39.748  33.206  38.932  1.00  0.00     0.018 A 
ATOM     99  C   UNL A   1      37.656  32.329  38.140  1.00  0.00     0.048 A 
ATOM    100  Br  UNL A   1      40.775  34.033  40.287  1.00  0.00    -0.051 Br
ATOM    101  C   UNL A   1      38.399  32.952  39.141  1.00  0.00     0.019 A 
BRANCH  97 102
ATOM    102  O   UNL A   1      37.534  31.328  35.977  1.00  0.00    -0.507 OA
ATOM    103  H   UNL A   1      37.030  30.567  36.190  1.00  0.00     0.293 HD
ENDBRANCH  97 102
ENDBRANCH  86  95
BRANCH  92 104
ATOM    104  C   UNL A   1      42.057  26.988  34.838  1.00  0.00     0.052 A 
ATOM    105  C   UNL A   1      43.306  26.773  34.234  1.00  0.00     0.027 A 
ATOM    106  C   UNL A   1      41.483  25.931  35.559  1.00  0.00     0.027 A 
ATOM    107  C   UNL A   1      43.963  25.546  34.358  1.00  0.00     0.002 A 
ATOM    108  C   UNL A   1      42.126  24.693  35.655  1.00  0.00     0.002 A 
ATOM    109  C   UNL A   1      43.368  24.502  35.060  1.00  0.00     0.000 A 
ENDBRANCH  92 104
ENDBRANCH  80  83
ENDBRANCH  78  79
ENDBRANCH  77  78
ENDBRANCH  76  77
ENDBRANCH   1  76
TORSDOF 19
ENDMDL
