MODEL 1
REMARK VINA RESULT:      -9.1      0.000      0.000
REMARK SMILES CCN(Cc1ccc(Br)s1)C(=O)C[N@@H+](C)CC(=O)NCCCCCCNC(=O)c1ccc(-c2c3nc(c(-c4c(F)cc(S(=O)(=O)[O-])cc4F)c4ccc([nH]4)c(-c4c(F)cc(S(=O)(=O)[O-])cc4F)c4nc(c(-c5c(F)cc(S(=O)(=O)[O-])cc5F)c5ccc2[nH]5)C=C4)C=C3)cc1
REMARK SMILES IDX 21 1 20 2 19 3 17 4 18 5 16 7 14 8 15 9 13 11 11 12 12 13
REMARK SMILES IDX 3 14 2 15 1 16 4 17 5 18 6 19 10 20 7 21 8 22 9 23 22 24
REMARK SMILES IDX 23 25 24 26 25 27 26 28 27 29 28 31 29 32 30 33 94 34 31 35
REMARK SMILES IDX 93 36 32 37 33 38 34 39 87 40 35 41 92 42 86 43 88 44 36 45
REMARK SMILES IDX 91 46 85 47 84 48 37 50 71 51 50 52 70 53 51 54 54 55 69 56
REMARK SMILES IDX 89 57 52 58 53 59 68 61 90 62 55 63 38 64 39 65 48 66 40 67
REMARK SMILES IDX 41 68 47 69 49 70 42 71 43 72 44 73 45 74 46 75 72 76 73 77
REMARK SMILES IDX 82 78 74 79 75 80 81 81 83 82 76 83 77 84 78 85 79 86 80 87
REMARK SMILES IDX 56 88 57 89 66 90 58 91 59 92 65 93 67 94 60 95 61 96 62 97
REMARK SMILES IDX 63 98 64 99
REMARK H PARENT 19 6 14 10 26 30 88 49 54 60
REMARK Flexibility Score: inf
ROOT
ATOM      1  C   UNL A   1      34.463  31.779  27.708  1.00  0.00     0.021 C 
ENDROOT
BRANCH   1   2
ATOM      2  C   UNL A   1      35.152  30.414  27.783  1.00  0.00     0.116 C 
BRANCH   2   3
ATOM      3  N   UNL A   1      34.174  29.373  28.005  1.00  0.00    -0.351 N 
ATOM      4  C   UNL A   1      33.409  28.683  27.114  1.00  0.00     0.275 C 
ATOM      5  O   UNL A   1      32.560  27.918  27.577  1.00  0.00    -0.269 OA
ATOM      6  H   UNL A   1      34.039  29.122  28.948  1.00  0.00     0.163 HD
BRANCH   4   7
ATOM      7  C   UNL A   1      33.633  28.800  25.602  1.00  0.00     0.363 C 
BRANCH   7   8
ATOM      8  N   UNL A   1      32.673  29.629  24.843  1.00  0.00    -0.322 N 
ATOM      9  C   UNL A   1      31.728  30.372  25.653  1.00  0.00     0.333 C 
ATOM     10  H   UNL A   1      33.287  30.327  24.423  1.00  0.00     0.348 HD
BRANCH   8  11
ATOM     11  C   UNL A   1      32.015  28.945  23.715  1.00  0.00     0.363 C 
BRANCH  11  12
ATOM     12  C   UNL A   1      31.446  27.577  24.116  1.00  0.00     0.278 C 
ATOM     13  O   UNL A   1      30.605  27.512  25.019  1.00  0.00    -0.268 OA
BRANCH  12  14
ATOM     14  N   UNL A   1      31.843  26.434  23.420  1.00  0.00    -0.333 N 
BRANCH  14  15
ATOM     15  C   UNL A   1      33.011  26.555  22.552  1.00  0.00     0.116 C 
ATOM     16  C   UNL A   1      32.790  25.868  21.210  1.00  0.00     0.027 C 
ENDBRANCH  14  15
BRANCH  14  17
ATOM     17  C   UNL A   1      31.117  25.160  23.392  1.00  0.00     0.166 C 
BRANCH  17  18
ATOM     18  C   UNL A   1      31.737  24.102  24.268  1.00  0.00     0.025 A 
ATOM     19  C   UNL A   1      31.645  22.728  24.108  1.00  0.00     0.018 A 
ATOM     20  S   UNL A   1      32.705  24.488  25.637  1.00  0.00    -0.131 S 
ATOM     21  C   UNL A   1      32.235  22.006  25.188  1.00  0.00     0.028 A 
ATOM     22  C   UNL A   1      32.820  22.859  26.087  1.00  0.00     0.070 A 
ATOM     23  Br  UNL A   1      33.670  22.284  27.653  1.00  0.00    -0.039 Br
ENDBRANCH  17  18
ENDBRANCH  14  17
ENDBRANCH  12  14
ENDBRANCH  11  12
ENDBRANCH   8  11
ENDBRANCH   7   8
ENDBRANCH   4   7
ENDBRANCH   2   3
ENDBRANCH   1   2
BRANCH   1  24
ATOM     24  C   UNL A   1      34.836  32.735  28.842  1.00  0.00     0.002 C 
BRANCH  24  25
ATOM     25  C   UNL A   1      35.253  34.137  28.391  1.00  0.00     0.002 C 
BRANCH  25  26
ATOM     26  C   UNL A   1      34.202  35.232  28.604  1.00  0.00     0.021 C 
BRANCH  26  27
ATOM     27  C   UNL A   1      32.918  34.767  29.286  1.00  0.00     0.116 C 
BRANCH  27  28
ATOM     28  N   UNL A   1      32.576  35.603  30.427  1.00  0.00    -0.352 N 
ATOM     29  C   UNL A   1      33.059  35.567  31.711  1.00  0.00     0.251 C 
ATOM     30  H   UNL A   1      31.901  36.296  30.251  1.00  0.00     0.163 HD
ATOM     31  O   UNL A   1      32.492  36.200  32.596  1.00  0.00    -0.269 OA
BRANCH  29  32
ATOM     32  C   UNL A   1      34.252  34.754  32.027  1.00  0.00     0.039 A 
ATOM     33  C   UNL A   1      35.519  35.314  31.842  1.00  0.00     0.014 A 
ATOM     34  C   UNL A   1      34.122  33.442  32.492  1.00  0.00     0.014 A 
ATOM     35  C   UNL A   1      36.655  34.577  32.185  1.00  0.00     0.010 A 
ATOM     36  C   UNL A   1      35.253  32.734  32.892  1.00  0.00     0.010 A 
ATOM     37  C   UNL A   1      36.529  33.294  32.743  1.00  0.00    -0.014 A 
BRANCH  37  38
ATOM     38  C   UNL A   1      37.722  32.537  33.201  1.00  0.00     0.031 A 
ATOM     39  C   UNL A   1      38.423  32.919  34.474  1.00  0.00     0.074 A 
ATOM     40  C   UNL A   1      38.215  31.551  32.428  1.00  0.00     0.049 A 
ATOM     41  N   UNL A   1      39.512  32.419  34.999  1.00  0.00    -0.248 NA
ATOM     42  C   UNL A   1      37.839  34.029  35.243  1.00  0.00     0.031 C 
ATOM     43  C   UNL A   1      37.657  31.128  31.142  1.00  0.00     0.029 A 
ATOM     44  N   UNL A   1      39.306  30.737  32.600  1.00  0.00    -0.354 N 
ATOM     45  C   UNL A   1      39.750  33.153  36.153  1.00  0.00     0.074 A 
ATOM     46  C   UNL A   1      38.722  34.172  36.222  1.00  0.00     0.031 C 
ATOM     47  C   UNL A   1      38.402  30.128  30.646  1.00  0.00     0.029 A 
ATOM     48  C   UNL A   1      39.509  29.861  31.561  1.00  0.00     0.049 A 
ATOM     49  H   UNL A   1      39.888  30.778  33.393  1.00  0.00     0.167 HD
ATOM     50  C   UNL A   1      40.720  32.982  37.084  1.00  0.00     0.037 A 
ATOM     51  C   UNL A   1      40.481  28.951  31.359  1.00  0.00     0.037 A 
ATOM     52  C   UNL A   1      41.734  31.961  37.013  1.00  0.00     0.049 A 
ATOM     53  C   UNL A   1      41.547  28.773  32.402  1.00  0.00     0.074 A 
ATOM     54  C   UNL A   1      42.724  31.664  37.932  1.00  0.00     0.029 A 
ATOM     55  N   UNL A   1      41.892  31.074  35.957  1.00  0.00    -0.354 N 
ATOM     56  N   UNL A   1      41.715  29.428  33.526  1.00  0.00    -0.248 NA
ATOM     57  C   UNL A   1      42.552  27.730  32.155  1.00  0.00     0.031 C 
ATOM     58  C   UNL A   1      43.508  30.628  37.412  1.00  0.00     0.029 A 
ATOM     59  C   UNL A   1      42.979  30.247  36.189  1.00  0.00     0.049 A 
ATOM     60  H   UNL A   1      41.315  31.039  35.159  1.00  0.00     0.167 HD
ATOM     61  C   UNL A   1      42.838  28.871  34.126  1.00  0.00     0.074 A 
ATOM     62  C   UNL A   1      43.297  27.813  33.249  1.00  0.00     0.031 C 
ATOM     63  C   UNL A   1      43.434  29.208  35.297  1.00  0.00     0.037 A 
BRANCH  50  64
ATOM     64  C   UNL A   1      40.725  33.928  38.255  1.00  0.00     0.058 A 
ATOM     65  C   UNL A   1      39.930  33.699  39.391  1.00  0.00     0.135 A 
ATOM     66  C   UNL A   1      41.529  35.079  38.242  1.00  0.00     0.135 A 
ATOM     67  F   UNL A   1      39.134  32.619  39.450  1.00  0.00    -0.206 F 
ATOM     68  C   UNL A   1      39.892  34.601  40.447  1.00  0.00     0.059 A 
ATOM     69  C   UNL A   1      41.529  35.981  39.303  1.00  0.00     0.059 A 
ATOM     70  F   UNL A   1      42.312  35.347  37.186  1.00  0.00    -0.206 F 
ATOM     71  C   UNL A   1      40.689  35.745  40.391  1.00  0.00     0.060 A 
BRANCH  71  72
ATOM     72  S   UNL A   1      40.602  36.927  41.752  1.00  0.00     0.124 S 
ATOM     73  O   UNL A   1      41.712  37.820  41.431  1.00  0.00    -0.237 OA
ATOM     74  O   UNL A   1      39.267  37.494  41.592  1.00  0.00    -0.237 OA
ATOM     75  O   UNL A   1      40.788  36.094  42.936  1.00  0.00    -0.744 OA
ENDBRANCH  71  72
ENDBRANCH  50  64
BRANCH  51  76
ATOM     76  C   UNL A   1      40.467  28.135  30.117  1.00  0.00     0.058 A 
ATOM     77  C   UNL A   1      41.381  28.380  29.081  1.00  0.00     0.135 A 
ATOM     78  C   UNL A   1      39.584  27.055  29.969  1.00  0.00     0.135 A 
ATOM     79  F   UNL A   1      42.241  29.406  29.175  1.00  0.00    -0.206 F 
ATOM     80  C   UNL A   1      41.424  27.579  27.945  1.00  0.00     0.059 A 
ATOM     81  C   UNL A   1      39.622  26.226  28.852  1.00  0.00     0.059 A 
ATOM     82  F   UNL A   1      38.703  26.770  30.942  1.00  0.00    -0.206 F 
ATOM     83  C   UNL A   1      40.546  26.498  27.844  1.00  0.00     0.060 A 
BRANCH  83  84
ATOM     84  S   UNL A   1      40.673  25.407  26.410  1.00  0.00     0.124 S 
ATOM     85  O   UNL A   1      41.658  24.433  26.868  1.00  0.00    -0.237 OA
ATOM     86  O   UNL A   1      39.305  24.918  26.276  1.00  0.00    -0.237 OA
ATOM     87  O   UNL A   1      41.117  26.304  25.347  1.00  0.00    -0.744 OA
ENDBRANCH  83  84
ENDBRANCH  51  76
BRANCH  63  88
ATOM     88  C   UNL A   1      44.652  28.422  35.701  1.00  0.00     0.058 A 
ATOM     89  C   UNL A   1      44.547  27.264  36.488  1.00  0.00     0.135 A 
ATOM     90  C   UNL A   1      45.928  28.802  35.256  1.00  0.00     0.135 A 
ATOM     91  F   UNL A   1      43.351  26.863  36.945  1.00  0.00    -0.206 F 
ATOM     92  C   UNL A   1      45.670  26.520  36.836  1.00  0.00     0.059 A 
ATOM     93  C   UNL A   1      47.061  28.059  35.571  1.00  0.00     0.059 A 
ATOM     94  F   UNL A   1      46.080  29.897  34.494  1.00  0.00    -0.206 F 
ATOM     95  C   UNL A   1      46.923  26.925  36.371  1.00  0.00     0.060 A 
BRANCH  95  96
ATOM     96  S   UNL A   1      48.367  25.930  36.800  1.00  0.00     0.124 S 
ATOM     97  O   UNL A   1      47.751  24.654  37.150  1.00  0.00    -0.237 OA
ATOM     98  O   UNL A   1      49.137  25.942  35.560  1.00  0.00    -0.237 OA
ATOM     99  O   UNL A   1      48.967  26.664  37.910  1.00  0.00    -0.744 OA
ENDBRANCH  95  96
ENDBRANCH  63  88
ENDBRANCH  37  38
ENDBRANCH  29  32
ENDBRANCH  27  28
ENDBRANCH  26  27
ENDBRANCH  25  26
ENDBRANCH  24  25
ENDBRANCH   1  24
TORSDOF 23
ENDMDL
MODEL 2
REMARK VINA RESULT:      -9.0      1.729      2.468
REMARK SMILES CCN(Cc1ccc(Br)s1)C(=O)C[N@@H+](C)CC(=O)NCCCCCCNC(=O)c1ccc(-c2c3nc(c(-c4c(F)cc(S(=O)(=O)[O-])cc4F)c4ccc([nH]4)c(-c4c(F)cc(S(=O)(=O)[O-])cc4F)c4nc(c(-c5c(F)cc(S(=O)(=O)[O-])cc5F)c5ccc2[nH]5)C=C4)C=C3)cc1
REMARK SMILES IDX 21 1 20 2 19 3 17 4 18 5 16 7 14 8 15 9 13 11 11 12 12 13
REMARK SMILES IDX 3 14 2 15 1 16 4 17 5 18 6 19 10 20 7 21 8 22 9 23 22 24
REMARK SMILES IDX 23 25 24 26 25 27 26 28 27 29 28 31 29 32 30 33 94 34 31 35
REMARK SMILES IDX 93 36 32 37 33 38 34 39 87 40 35 41 92 42 86 43 88 44 36 45
REMARK SMILES IDX 91 46 85 47 84 48 37 50 71 51 50 52 70 53 51 54 54 55 69 56
REMARK SMILES IDX 89 57 52 58 53 59 68 61 90 62 55 63 38 64 39 65 48 66 40 67
REMARK SMILES IDX 41 68 47 69 49 70 42 71 43 72 44 73 45 74 46 75 72 76 73 77
REMARK SMILES IDX 82 78 74 79 75 80 81 81 83 82 76 83 77 84 78 85 79 86 80 87
REMARK SMILES IDX 56 88 57 89 66 90 58 91 59 92 65 93 67 94 60 95 61 96 62 97
REMARK SMILES IDX 63 98 64 99
REMARK H PARENT 19 6 14 10 26 30 88 49 54 60
REMARK Flexibility Score: inf
ROOT
ATOM      1  C   UNL A   1      35.193  32.008  27.936  1.00  0.00     0.021 C 
ENDROOT
BRANCH   1   2
ATOM      2  C   UNL A   1      34.311  30.761  28.046  1.00  0.00     0.116 C 
BRANCH   2   3
ATOM      3  N   UNL A   1      33.198  30.854  27.128  1.00  0.00    -0.351 N 
ATOM      4  C   UNL A   1      32.382  29.881  26.638  1.00  0.00     0.275 C 
ATOM      5  O   UNL A   1      31.571  30.214  25.769  1.00  0.00    -0.269 OA
ATOM      6  H   UNL A   1      33.000  31.764  26.806  1.00  0.00     0.163 HD
BRANCH   4   7
ATOM      7  C   UNL A   1      32.419  28.449  27.184  1.00  0.00     0.363 C 
BRANCH   7   8
ATOM      8  N   UNL A   1      33.347  27.505  26.530  1.00  0.00    -0.322 N 
ATOM      9  C   UNL A   1      34.025  28.022  25.358  1.00  0.00     0.333 C 
ATOM     10  H   UNL A   1      34.069  27.395  27.242  1.00  0.00     0.348 HD
BRANCH   8  11
ATOM     11  C   UNL A   1      32.804  26.154  26.301  1.00  0.00     0.363 C 
BRANCH  11  12
ATOM     12  C   UNL A   1      31.349  26.187  25.810  1.00  0.00     0.278 C 
ATOM     13  O   UNL A   1      30.444  26.435  26.615  1.00  0.00    -0.268 OA
BRANCH  12  14
ATOM     14  N   UNL A   1      31.073  25.992  24.456  1.00  0.00    -0.333 N 
BRANCH  14  15
ATOM     15  C   UNL A   1      30.534  24.691  24.068  1.00  0.00     0.116 C 
ATOM     16  C   UNL A   1      31.463  23.960  23.106  1.00  0.00     0.027 C 
ENDBRANCH  14  15
BRANCH  14  17
ATOM     17  C   UNL A   1      31.392  26.934  23.379  1.00  0.00     0.166 C 
BRANCH  17  18
ATOM     18  C   UNL A   1      30.269  27.891  23.073  1.00  0.00     0.025 A 
ATOM     19  C   UNL A   1      28.932  27.742  23.409  1.00  0.00     0.018 A 
ATOM     20  S   UNL A   1      30.522  29.377  22.244  1.00  0.00    -0.131 S 
ATOM     21  C   UNL A   1      28.106  28.765  22.853  1.00  0.00     0.028 A 
ATOM     22  C   UNL A   1      28.860  29.693  22.182  1.00  0.00     0.070 A 
ATOM     23  Br  UNL A   1      28.127  31.168  21.292  1.00  0.00    -0.039 Br
ENDBRANCH  17  18
ENDBRANCH  14  17
ENDBRANCH  12  14
ENDBRANCH  11  12
ENDBRANCH   8  11
ENDBRANCH   7   8
ENDBRANCH   4   7
ENDBRANCH   2   3
ENDBRANCH   1   2
BRANCH   1  24
ATOM     24  C   UNL A   1      34.901  33.081  28.986  1.00  0.00     0.002 C 
BRANCH  24  25
ATOM     25  C   UNL A   1      35.158  34.518  28.527  1.00  0.00     0.002 C 
BRANCH  25  26
ATOM     26  C   UNL A   1      34.026  35.509  28.817  1.00  0.00     0.021 C 
BRANCH  26  27
ATOM     27  C   UNL A   1      32.837  34.924  29.575  1.00  0.00     0.116 C 
BRANCH  27  28
ATOM     28  N   UNL A   1      32.483  35.727  30.734  1.00  0.00    -0.352 N 
ATOM     29  C   UNL A   1      32.962  35.665  32.018  1.00  0.00     0.251 C 
ATOM     30  H   UNL A   1      31.800  36.418  30.573  1.00  0.00     0.163 HD
ATOM     31  O   UNL A   1      32.386  36.271  32.917  1.00  0.00    -0.269 OA
BRANCH  29  32
ATOM     32  C   UNL A   1      34.163  34.858  32.318  1.00  0.00     0.039 A 
ATOM     33  C   UNL A   1      35.425  35.426  32.126  1.00  0.00     0.014 A 
ATOM     34  C   UNL A   1      34.045  33.542  32.775  1.00  0.00     0.014 A 
ATOM     35  C   UNL A   1      36.568  34.694  32.454  1.00  0.00     0.010 A 
ATOM     36  C   UNL A   1      35.183  32.837  33.160  1.00  0.00     0.010 A 
ATOM     37  C   UNL A   1      36.455  33.406  33.004  1.00  0.00    -0.014 A 
BRANCH  37  38
ATOM     38  C   UNL A   1      37.655  32.653  33.446  1.00  0.00     0.031 A 
ATOM     39  C   UNL A   1      38.361  33.026  34.720  1.00  0.00     0.074 A 
ATOM     40  C   UNL A   1      38.153  31.681  32.659  1.00  0.00     0.049 A 
ATOM     41  N   UNL A   1      39.457  32.527  35.233  1.00  0.00    -0.248 NA
ATOM     42  C   UNL A   1      37.773  34.121  35.506  1.00  0.00     0.031 C 
ATOM     43  C   UNL A   1      37.590  31.269  31.371  1.00  0.00     0.029 A 
ATOM     44  N   UNL A   1      39.251  30.873  32.815  1.00  0.00    -0.354 N 
ATOM     45  C   UNL A   1      39.695  33.250  36.395  1.00  0.00     0.074 A 
ATOM     46  C   UNL A   1      38.659  34.259  36.482  1.00  0.00     0.031 C 
ATOM     47  C   UNL A   1      38.341  30.281  30.859  1.00  0.00     0.029 A 
ATOM     48  C   UNL A   1      39.455  30.011  31.764  1.00  0.00     0.049 A 
ATOM     49  H   UNL A   1      39.837  30.909  33.605  1.00  0.00     0.167 HD
ATOM     50  C   UNL A   1      40.671  33.074  37.318  1.00  0.00     0.037 A 
ATOM     51  C   UNL A   1      40.433  29.112  31.545  1.00  0.00     0.037 A 
ATOM     52  C   UNL A   1      41.693  32.062  37.229  1.00  0.00     0.049 A 
ATOM     53  C   UNL A   1      41.506  28.930  32.581  1.00  0.00     0.074 A 
ATOM     54  C   UNL A   1      42.691  31.763  38.139  1.00  0.00     0.029 A 
ATOM     55  N   UNL A   1      41.853  31.190  36.162  1.00  0.00    -0.354 N 
ATOM     56  N   UNL A   1      41.675  29.572  33.712  1.00  0.00    -0.248 NA
ATOM     57  C   UNL A   1      42.518  27.897  32.316  1.00  0.00     0.031 C 
ATOM     58  C   UNL A   1      43.479  30.739  37.602  1.00  0.00     0.029 A 
ATOM     59  C   UNL A   1      42.947  30.369  36.377  1.00  0.00     0.049 A 
ATOM     60  H   UNL A   1      41.272  31.159  35.367  1.00  0.00     0.167 HD
ATOM     61  C   UNL A   1      42.806  29.017  34.299  1.00  0.00     0.074 A 
ATOM     62  C   UNL A   1      43.269  27.973  33.407  1.00  0.00     0.031 C 
ATOM     63  C   UNL A   1      43.406  29.344  35.471  1.00  0.00     0.037 A 
BRANCH  50  64
ATOM     64  C   UNL A   1      40.676  34.006  38.500  1.00  0.00     0.058 A 
ATOM     65  C   UNL A   1      39.953  33.715  39.670  1.00  0.00     0.135 A 
ATOM     66  C   UNL A   1      41.405  35.206  38.465  1.00  0.00     0.135 A 
ATOM     67  F   UNL A   1      39.230  32.587  39.753  1.00  0.00    -0.206 F 
ATOM     68  C   UNL A   1      39.912  34.601  40.740  1.00  0.00     0.059 A 
ATOM     69  C   UNL A   1      41.401  36.094  39.537  1.00  0.00     0.059 A 
ATOM     70  F   UNL A   1      42.117  35.533  37.375  1.00  0.00    -0.206 F 
ATOM     71  C   UNL A   1      40.633  35.794  40.660  1.00  0.00     0.060 A 
BRANCH  71  72
ATOM     72  S   UNL A   1      40.540  36.953  42.041  1.00  0.00     0.124 S 
ATOM     73  O   UNL A   1      41.897  37.491  42.058  1.00  0.00    -0.237 OA
ATOM     74  O   UNL A   1      39.498  37.878  41.605  1.00  0.00    -0.237 OA
ATOM     75  O   UNL A   1      40.186  36.104  43.174  1.00  0.00    -0.744 OA
ENDBRANCH  71  72
ENDBRANCH  50  64
BRANCH  51  76
ATOM     76  C   UNL A   1      40.419  28.311  30.293  1.00  0.00     0.058 A 
ATOM     77  C   UNL A   1      41.298  28.601  29.240  1.00  0.00     0.135 A 
ATOM     78  C   UNL A   1      39.572  27.201  30.153  1.00  0.00     0.135 A 
ATOM     79  F   UNL A   1      42.122  29.657  29.326  1.00  0.00    -0.206 F 
ATOM     80  C   UNL A   1      41.342  27.816  28.093  1.00  0.00     0.059 A 
ATOM     81  C   UNL A   1      39.613  26.388  29.025  1.00  0.00     0.059 A 
ATOM     82  F   UNL A   1      38.725  26.872  31.142  1.00  0.00    -0.206 F 
ATOM     83  C   UNL A   1      40.502  26.705  27.999  1.00  0.00     0.060 A 
BRANCH  83  84
ATOM     84  S   UNL A   1      40.634  25.638  26.548  1.00  0.00     0.124 S 
ATOM     85  O   UNL A   1      39.278  25.107  26.450  1.00  0.00    -0.237 OA
ATOM     86  O   UNL A   1      41.026  26.582  25.508  1.00  0.00    -0.237 OA
ATOM     87  O   UNL A   1      41.663  24.677  26.933  1.00  0.00    -0.744 OA
ENDBRANCH  83  84
ENDBRANCH  51  76
BRANCH  63  88
ATOM     88  C   UNL A   1      44.631  28.563  35.858  1.00  0.00     0.058 A 
ATOM     89  C   UNL A   1      45.920  29.019  35.540  1.00  0.00     0.135 A 
ATOM     90  C   UNL A   1      44.519  27.374  36.596  1.00  0.00     0.135 A 
ATOM     91  F   UNL A   1      46.083  30.145  34.828  1.00  0.00    -0.206 F 
ATOM     92  C   UNL A   1      47.055  28.312  35.924  1.00  0.00     0.059 A 
ATOM     93  C   UNL A   1      45.640  26.665  37.013  1.00  0.00     0.059 A 
ATOM     94  F   UNL A   1      43.308  26.900  36.934  1.00  0.00    -0.206 F 
ATOM     95  C   UNL A   1      46.905  27.137  36.662  1.00  0.00     0.060 A 
BRANCH  95  96
ATOM     96  S   UNL A   1      48.387  26.249  37.186  1.00  0.00     0.124 S 
ATOM     97  O   UNL A   1      48.011  24.865  36.916  1.00  0.00    -0.237 OA
ATOM     98  O   UNL A   1      49.413  26.809  36.312  1.00  0.00    -0.237 OA
ATOM     99  O   UNL A   1      48.513  26.602  38.597  1.00  0.00    -0.744 OA
ENDBRANCH  95  96
ENDBRANCH  63  88
ENDBRANCH  37  38
ENDBRANCH  29  32
ENDBRANCH  27  28
ENDBRANCH  26  27
ENDBRANCH  25  26
ENDBRANCH  24  25
ENDBRANCH   1  24
TORSDOF 23
ENDMDL
MODEL 3
REMARK VINA RESULT:      -8.8      1.469      2.232
REMARK SMILES CCN(Cc1ccc(Br)s1)C(=O)C[N@@H+](C)CC(=O)NCCCCCCNC(=O)c1ccc(-c2c3nc(c(-c4c(F)cc(S(=O)(=O)[O-])cc4F)c4ccc([nH]4)c(-c4c(F)cc(S(=O)(=O)[O-])cc4F)c4nc(c(-c5c(F)cc(S(=O)(=O)[O-])cc5F)c5ccc2[nH]5)C=C4)C=C3)cc1
REMARK SMILES IDX 21 1 20 2 19 3 17 4 18 5 16 7 14 8 15 9 13 11 11 12 12 13
REMARK SMILES IDX 3 14 2 15 1 16 4 17 5 18 6 19 10 20 7 21 8 22 9 23 22 24
REMARK SMILES IDX 23 25 24 26 25 27 26 28 27 29 28 31 29 32 30 33 94 34 31 35
REMARK SMILES IDX 93 36 32 37 33 38 34 39 87 40 35 41 92 42 86 43 88 44 36 45
REMARK SMILES IDX 91 46 85 47 84 48 37 50 71 51 50 52 70 53 51 54 54 55 69 56
REMARK SMILES IDX 89 57 52 58 53 59 68 61 90 62 55 63 38 64 39 65 48 66 40 67
REMARK SMILES IDX 41 68 47 69 49 70 42 71 43 72 44 73 45 74 46 75 72 76 73 77
REMARK SMILES IDX 82 78 74 79 75 80 81 81 83 82 76 83 77 84 78 85 79 86 80 87
REMARK SMILES IDX 56 88 57 89 66 90 58 91 59 92 65 93 67 94 60 95 61 96 62 97
REMARK SMILES IDX 63 98 64 99
REMARK H PARENT 19 6 14 10 26 30 88 49 54 60
REMARK Flexibility Score: inf
ROOT
ATOM      1  C   UNL A   1      35.537  29.907  27.437  1.00  0.00     0.021 C 
ENDROOT
BRANCH   1   2
ATOM      2  C   UNL A   1      34.523  28.946  26.810  1.00  0.00     0.116 C 
BRANCH   2   3
ATOM      3  N   UNL A   1      33.263  29.621  26.595  1.00  0.00    -0.351 N 
ATOM      4  C   UNL A   1      32.500  29.718  25.471  1.00  0.00     0.275 C 
ATOM      5  O   UNL A   1      31.514  30.457  25.525  1.00  0.00    -0.269 OA
ATOM      6  H   UNL A   1      32.898  30.082  27.385  1.00  0.00     0.163 HD
BRANCH   4   7
ATOM      7  C   UNL A   1      32.812  28.899  24.214  1.00  0.00     0.363 C 
BRANCH   7   8
ATOM      8  N   UNL A   1      32.025  27.667  24.002  1.00  0.00    -0.322 N 
ATOM      9  C   UNL A   1      30.598  27.806  24.215  1.00  0.00     0.333 C 
ATOM     10  H   UNL A   1      32.142  27.515  23.000  1.00  0.00     0.348 HD
BRANCH   8  11
ATOM     11  C   UNL A   1      32.566  26.462  24.655  1.00  0.00     0.363 C 
BRANCH  11  12
ATOM     12  C   UNL A   1      32.332  25.194  23.822  1.00  0.00     0.278 C 
ATOM     13  O   UNL A   1      32.415  25.255  22.590  1.00  0.00    -0.268 OA
BRANCH  12  14
ATOM     14  N   UNL A   1      32.085  23.981  24.466  1.00  0.00    -0.333 N 
BRANCH  14  15
ATOM     15  C   UNL A   1      30.982  23.948  25.423  1.00  0.00     0.116 C 
ATOM     16  C   UNL A   1      31.412  23.358  26.760  1.00  0.00     0.027 C 
ENDBRANCH  14  15
BRANCH  14  17
ATOM     17  C   UNL A   1      32.911  22.775  24.355  1.00  0.00     0.166 C 
BRANCH  17  18
ATOM     18  C   UNL A   1      34.389  23.054  24.453  1.00  0.00     0.025 A 
ATOM     19  C   UNL A   1      35.324  22.959  23.434  1.00  0.00     0.018 A 
ATOM     20  S   UNL A   1      35.135  23.573  25.913  1.00  0.00    -0.131 S 
ATOM     21  C   UNL A   1      36.661  23.161  23.891  1.00  0.00     0.028 A 
ATOM     22  C   UNL A   1      36.680  23.479  25.224  1.00  0.00     0.070 A 
ATOM     23  Br  UNL A   1      38.255  23.786  26.189  1.00  0.00    -0.039 Br
ENDBRANCH  17  18
ENDBRANCH  14  17
ENDBRANCH  12  14
ENDBRANCH  11  12
ENDBRANCH   8  11
ENDBRANCH   7   8
ENDBRANCH   4   7
ENDBRANCH   2   3
ENDBRANCH   1   2
BRANCH   1  24
ATOM     24  C   UNL A   1      34.930  30.903  28.427  1.00  0.00     0.002 C 
BRANCH  24  25
ATOM     25  C   UNL A   1      34.978  32.366  27.978  1.00  0.00     0.002 C 
BRANCH  25  26
ATOM     26  C   UNL A   1      33.631  33.096  27.984  1.00  0.00     0.021 C 
BRANCH  26  27
ATOM     27  C   UNL A   1      33.725  34.620  27.962  1.00  0.00     0.116 C 
BRANCH  27  28
ATOM     28  N   UNL A   1      33.055  35.222  29.104  1.00  0.00    -0.352 N 
ATOM     29  C   UNL A   1      33.257  35.012  30.445  1.00  0.00     0.251 C 
ATOM     30  H   UNL A   1      32.355  35.877  28.882  1.00  0.00     0.163 HD
ATOM     31  O   UNL A   1      32.446  35.439  31.261  1.00  0.00    -0.269 OA
BRANCH  29  32
ATOM     32  C   UNL A   1      34.444  34.259  30.902  1.00  0.00     0.039 A 
ATOM     33  C   UNL A   1      35.715  34.778  30.643  1.00  0.00     0.014 A 
ATOM     34  C   UNL A   1      34.304  33.041  31.573  1.00  0.00     0.014 A 
ATOM     35  C   UNL A   1      36.845  34.105  31.113  1.00  0.00     0.010 A 
ATOM     36  C   UNL A   1      35.428  32.405  32.096  1.00  0.00     0.010 A 
ATOM     37  C   UNL A   1      36.708  32.931  31.871  1.00  0.00    -0.014 A 
BRANCH  37  38
ATOM     38  C   UNL A   1      37.893  32.257  32.459  1.00  0.00     0.031 A 
ATOM     39  C   UNL A   1      38.391  32.645  33.824  1.00  0.00     0.074 A 
ATOM     40  C   UNL A   1      38.564  31.345  31.730  1.00  0.00     0.049 A 
ATOM     41  N   UNL A   1      39.443  32.215  34.472  1.00  0.00    -0.248 NA
ATOM     42  C   UNL A   1      37.621  33.673  34.541  1.00  0.00     0.031 C 
ATOM     43  C   UNL A   1      38.212  30.927  30.371  1.00  0.00     0.029 A 
ATOM     44  N   UNL A   1      39.689  30.616  32.021  1.00  0.00    -0.354 N 
ATOM     45  C   UNL A   1      39.467  32.921  35.667  1.00  0.00     0.074 A 
ATOM     46  C   UNL A   1      38.356  33.849  35.630  1.00  0.00     0.031 C 
ATOM     47  C   UNL A   1      39.098  30.011  29.950  1.00  0.00     0.029 A 
ATOM     48  C   UNL A   1      40.097  29.800  30.993  1.00  0.00     0.049 A 
ATOM     49  H   UNL A   1      40.160  30.673  32.883  1.00  0.00     0.167 HD
ATOM     50  C   UNL A   1      40.322  32.793  36.712  1.00  0.00     0.037 A 
ATOM     51  C   UNL A   1      41.162  28.980  30.894  1.00  0.00     0.037 A 
ATOM     52  C   UNL A   1      41.420  31.862  36.745  1.00  0.00     0.049 A 
ATOM     53  C   UNL A   1      42.098  28.850  32.062  1.00  0.00     0.074 A 
ATOM     54  C   UNL A   1      42.307  31.611  37.777  1.00  0.00     0.029 A 
ATOM     55  N   UNL A   1      41.788  31.032  35.694  1.00  0.00    -0.354 N 
ATOM     56  N   UNL A   1      42.064  29.472  33.216  1.00  0.00    -0.248 NA
ATOM     57  C   UNL A   1      43.211  27.902  31.919  1.00  0.00     0.031 C 
ATOM     58  C   UNL A   1      43.236  30.663  37.335  1.00  0.00     0.029 A 
ATOM     59  C   UNL A   1      42.903  30.288  36.043  1.00  0.00     0.049 A 
ATOM     60  H   UNL A   1      41.322  30.981  34.827  1.00  0.00     0.167 HD
ATOM     61  C   UNL A   1      43.144  28.986  33.942  1.00  0.00     0.074 A 
ATOM     62  C   UNL A   1      43.801  28.003  33.103  1.00  0.00     0.031 C 
ATOM     63  C   UNL A   1      43.556  29.324  35.190  1.00  0.00     0.037 A 
BRANCH  50  64
ATOM     64  C   UNL A   1      40.097  33.691  37.899  1.00  0.00     0.058 A 
ATOM     65  C   UNL A   1      40.838  34.871  38.079  1.00  0.00     0.135 A 
ATOM     66  C   UNL A   1      39.135  33.368  38.869  1.00  0.00     0.135 A 
ATOM     67  F   UNL A   1      41.778  35.221  37.187  1.00  0.00    -0.206 F 
ATOM     68  C   UNL A   1      40.670  35.671  39.204  1.00  0.00     0.059 A 
ATOM     69  C   UNL A   1      38.929  34.171  39.988  1.00  0.00     0.059 A 
ATOM     70  F   UNL A   1      38.395  32.255  38.746  1.00  0.00    -0.206 F 
ATOM     71  C   UNL A   1      39.718  35.308  40.158  1.00  0.00     0.060 A 
BRANCH  71  72
ATOM     72  S   UNL A   1      39.537  36.335  41.631  1.00  0.00     0.124 S 
ATOM     73  O   UNL A   1      40.827  36.134  42.284  1.00  0.00    -0.237 OA
ATOM     74  O   UNL A   1      39.314  37.661  41.064  1.00  0.00    -0.237 OA
ATOM     75  O   UNL A   1      38.389  35.748  42.315  1.00  0.00    -0.744 OA
ENDBRANCH  71  72
ENDBRANCH  50  64
BRANCH  51  76
ATOM     76  C   UNL A   1      41.377  28.215  29.638  1.00  0.00     0.058 A 
ATOM     77  C   UNL A   1      42.421  28.543  28.762  1.00  0.00     0.135 A 
ATOM     78  C   UNL A   1      40.583  27.101  29.324  1.00  0.00     0.135 A 
ATOM     79  F   UNL A   1      43.203  29.603  29.017  1.00  0.00    -0.206 F 
ATOM     80  C   UNL A   1      42.675  27.791  27.620  1.00  0.00     0.059 A 
ATOM     81  C   UNL A   1      40.831  26.321  28.200  1.00  0.00     0.059 A 
ATOM     82  F   UNL A   1      39.582  26.737  30.142  1.00  0.00    -0.206 F 
ATOM     83  C   UNL A   1      41.880  26.674  27.352  1.00  0.00     0.060 A 
BRANCH  83  84
ATOM     84  S   UNL A   1      42.277  25.649  25.920  1.00  0.00     0.124 S 
ATOM     85  O   UNL A   1      42.280  24.313  26.507  1.00  0.00    -0.237 OA
ATOM     86  O   UNL A   1      41.172  25.947  25.015  1.00  0.00    -0.237 OA
ATOM     87  O   UNL A   1      43.578  26.156  25.496  1.00  0.00    -0.744 OA
ENDBRANCH  83  84
ENDBRANCH  51  76
BRANCH  63  88
ATOM     88  C   UNL A   1      44.774  28.625  35.726  1.00  0.00     0.058 A 
ATOM     89  C   UNL A   1      46.060  29.164  35.559  1.00  0.00     0.135 A 
ATOM     90  C   UNL A   1      44.651  27.433  36.456  1.00  0.00     0.135 A 
ATOM     91  F   UNL A   1      46.232  30.298  34.862  1.00  0.00    -0.206 F 
ATOM     92  C   UNL A   1      47.184  28.533  36.081  1.00  0.00     0.059 A 
ATOM     93  C   UNL A   1      45.759  26.799  37.010  1.00  0.00     0.059 A 
ATOM     94  F   UNL A   1      43.443  26.881  36.652  1.00  0.00    -0.206 F 
ATOM     95  C   UNL A   1      47.023  27.351  36.807  1.00  0.00     0.060 A 
BRANCH  95  96
ATOM     96  S   UNL A   1      48.487  26.562  37.511  1.00  0.00     0.124 S 
ATOM     97  O   UNL A   1      47.979  25.232  37.830  1.00  0.00    -0.237 OA
ATOM     98  O   UNL A   1      49.440  26.628  36.407  1.00  0.00    -0.237 OA
ATOM     99  O   UNL A   1      48.807  27.405  38.659  1.00  0.00    -0.744 OA
ENDBRANCH  95  96
ENDBRANCH  63  88
ENDBRANCH  37  38
ENDBRANCH  29  32
ENDBRANCH  27  28
ENDBRANCH  26  27
ENDBRANCH  25  26
ENDBRANCH  24  25
ENDBRANCH   1  24
TORSDOF 23
ENDMDL
