MODEL 1
REMARK VINA RESULT:     -10.6      0.000      0.000
REMARK SMILES Cc1cc(C)c(C(=O)NCCCCCCNC(=O)c2ccc(-c3c4nc(c(-c5c(F)cc(S(=O)(=O)[O-])cc5F)c5ccc([nH]5)c(-c5c(F)cc(S(=O)(=O)[O-])cc5F)c5nc(c(-c6c(F)cc(S(=O)(=O)[O-])cc6F)c6ccc3[nH]6)C=C5)C=C4)cc2)c(N[C@@H](CO)C(C)C)n1
REMARK SMILES IDX 12 1 11 2 10 3 9 4 7 5 8 6 6 8 1 9 2 10 3 11 93 12 4 13
REMARK SMILES IDX 85 14 5 15 86 16 87 18 88 19 89 20 90 22 91 23 92 24 13 25
REMARK SMILES IDX 14 26 15 27 16 28 17 29 18 31 19 32 20 33 84 34 21 35 83 36
REMARK SMILES IDX 22 37 23 38 24 39 77 40 25 41 82 42 76 43 78 44 26 45 81 46
REMARK SMILES IDX 75 47 74 48 27 50 61 51 40 52 60 53 41 54 44 55 59 56 79 57
REMARK SMILES IDX 42 58 43 59 58 61 80 62 45 63 28 64 29 65 38 66 30 67 31 68
REMARK SMILES IDX 37 69 39 70 32 71 33 72 34 73 35 74 36 75 62 76 63 77 72 78
REMARK SMILES IDX 64 79 65 80 71 81 73 82 66 83 67 84 68 85 69 86 70 87 46 88
REMARK SMILES IDX 47 89 56 90 48 91 49 92 55 93 57 94 50 95 51 96 52 97 53 98
REMARK SMILES IDX 54 99
REMARK H PARENT 9 7 86 17 89 21 16 30 78 49 44 60
REMARK Flexibility Score: inf
ROOT
ATOM      1  C   UNL A   1      37.167  22.439  24.613  1.00  0.00     0.002 C 
ENDROOT
BRANCH   1   2
ATOM      2  C   UNL A   1      36.272  22.996  23.499  1.00  0.00     0.021 C 
BRANCH   2   3
ATOM      3  C   UNL A   1      35.216  24.023  23.903  1.00  0.00     0.116 C 
BRANCH   3   4
ATOM      4  N   UNL A   1      34.105  24.166  22.985  1.00  0.00    -0.352 N 
ATOM      5  C   UNL A   1      33.025  25.027  22.996  1.00  0.00     0.255 C 
ATOM      6  O   UNL A   1      32.237  24.946  22.047  1.00  0.00    -0.269 OA
ATOM      7  H   UNL A   1      34.121  23.542  22.224  1.00  0.00     0.163 HD
BRANCH   5   8
ATOM      8  C   UNL A   1      32.720  25.974  24.117  1.00  0.00     0.085 A 
ATOM      9  C   UNL A   1      31.876  28.306  27.591  1.00  0.00     0.067 C 
ATOM     10  C   UNL A   1      32.153  27.518  26.348  1.00  0.00     0.040 A 
ATOM     11  C   UNL A   1      32.708  28.124  25.238  1.00  0.00     0.028 A 
ATOM     12  N   UNL A   1      31.813  26.218  26.352  1.00  0.00    -0.236 NA
ATOM     13  C   UNL A   1      32.937  27.368  24.076  1.00  0.00    -0.033 A 
ATOM     14  C   UNL A   1      32.069  25.451  25.263  1.00  0.00     0.139 A 
ATOM     15  C   UNL A   1      33.329  28.153  22.859  1.00  0.00     0.045 C 
BRANCH  14  16
ATOM     16  N   UNL A   1      31.648  24.131  25.341  1.00  0.00    -0.364 N 
ATOM     17  H   UNL A   1      31.394  23.657  24.515  1.00  0.00     0.162 HD
BRANCH  16  18
ATOM     18  C   UNL A   1      31.573  23.423  26.623  1.00  0.00     0.108 C 
BRANCH  18  19
ATOM     19  C   UNL A   1      30.102  23.016  26.882  1.00  0.00     0.181 C 
BRANCH  19  20
ATOM     20  O   UNL A   1      29.256  24.146  27.094  1.00  0.00    -0.394 OA
ATOM     21  H   UNL A   1      28.340  23.909  26.884  1.00  0.00     0.210 HD
ENDBRANCH  19  20
ENDBRANCH  18  19
BRANCH  18  22
ATOM     22  C   UNL A   1      32.553  22.221  26.603  1.00  0.00     0.007 C 
ATOM     23  C   UNL A   1      32.656  21.623  25.193  1.00  0.00     0.009 C 
ATOM     24  C   UNL A   1      33.958  22.626  27.065  1.00  0.00     0.009 C 
ENDBRANCH  18  22
ENDBRANCH  16  18
ENDBRANCH  14  16
ENDBRANCH   5   8
ENDBRANCH   3   4
ENDBRANCH   2   3
ENDBRANCH   1   2
BRANCH   1  25
ATOM     25  C   UNL A   1      36.915  21.004  25.088  1.00  0.00     0.002 C 
BRANCH  25  26
ATOM     26  C   UNL A   1      38.078  20.017  25.004  1.00  0.00     0.021 C 
BRANCH  26  27
ATOM     27  C   UNL A   1      39.336  20.372  25.789  1.00  0.00     0.116 C 
BRANCH  27  28
ATOM     28  N   UNL A   1      40.291  19.281  25.881  1.00  0.00    -0.352 N 
ATOM     29  C   UNL A   1      41.645  19.321  26.119  1.00  0.00     0.251 C 
ATOM     30  H   UNL A   1      39.913  18.381  25.753  1.00  0.00     0.163 HD
ATOM     31  O   UNL A   1      42.303  18.286  26.064  1.00  0.00    -0.269 OA
BRANCH  29  32
ATOM     32  C   UNL A   1      42.318  20.610  26.406  1.00  0.00     0.039 A 
ATOM     33  C   UNL A   1      42.896  21.317  25.347  1.00  0.00     0.014 A 
ATOM     34  C   UNL A   1      42.381  21.126  27.703  1.00  0.00     0.014 A 
ATOM     35  C   UNL A   1      43.468  22.571  25.577  1.00  0.00     0.010 A 
ATOM     36  C   UNL A   1      42.888  22.407  27.919  1.00  0.00     0.010 A 
ATOM     37  C   UNL A   1      43.434  23.145  26.858  1.00  0.00    -0.014 A 
BRANCH  37  38
ATOM     38  C   UNL A   1      43.951  24.519  27.104  1.00  0.00     0.031 A 
ATOM     39  C   UNL A   1      43.014  25.618  27.527  1.00  0.00     0.074 A 
ATOM     40  C   UNL A   1      45.252  24.793  26.877  1.00  0.00     0.049 A 
ATOM     41  N   UNL A   1      43.262  26.890  27.713  1.00  0.00    -0.248 NA
ATOM     42  C   UNL A   1      41.608  25.244  27.746  1.00  0.00     0.031 C 
ATOM     43  C   UNL A   1      46.253  23.826  26.421  1.00  0.00     0.029 A 
ATOM     44  N   UNL A   1      45.956  25.967  26.989  1.00  0.00    -0.354 N 
ATOM     45  C   UNL A   1      42.046  27.469  28.053  1.00  0.00     0.074 A 
ATOM     46  C   UNL A   1      41.050  26.420  27.999  1.00  0.00     0.031 C 
ATOM     47  C   UNL A   1      47.441  24.441  26.309  1.00  0.00     0.029 A 
ATOM     48  C   UNL A   1      47.284  25.851  26.648  1.00  0.00     0.049 A 
ATOM     49  H   UNL A   1      45.548  26.813  27.286  1.00  0.00     0.167 HD
ATOM     50  C   UNL A   1      41.785  28.752  28.402  1.00  0.00     0.037 A 
ATOM     51  C   UNL A   1      48.261  26.777  26.602  1.00  0.00     0.037 A 
ATOM     52  C   UNL A   1      42.783  29.786  28.478  1.00  0.00     0.049 A 
ATOM     53  C   UNL A   1      47.948  28.197  26.993  1.00  0.00     0.074 A 
ATOM     54  C   UNL A   1      42.630  31.104  28.875  1.00  0.00     0.029 A 
ATOM     55  N   UNL A   1      44.122  29.622  28.150  1.00  0.00    -0.354 N 
ATOM     56  N   UNL A   1      46.803  28.713  27.371  1.00  0.00    -0.248 NA
ATOM     57  C   UNL A   1      49.059  29.158  26.958  1.00  0.00     0.031 C 
ATOM     58  C   UNL A   1      43.865  31.747  28.743  1.00  0.00     0.029 A 
ATOM     59  C   UNL A   1      44.801  30.819  28.317  1.00  0.00     0.049 A 
ATOM     60  H   UNL A   1      44.530  28.780  27.844  1.00  0.00     0.167 HD
ATOM     61  C   UNL A   1      47.063  30.051  27.651  1.00  0.00     0.074 A 
ATOM     62  C   UNL A   1      48.474  30.262  27.404  1.00  0.00     0.031 C 
ATOM     63  C   UNL A   1      46.210  31.013  28.080  1.00  0.00     0.037 A 
BRANCH  50  64
ATOM     64  C   UNL A   1      40.360  29.111  28.731  1.00  0.00     0.058 A 
ATOM     65  C   UNL A   1      39.908  29.194  30.058  1.00  0.00     0.135 A 
ATOM     66  C   UNL A   1      39.445  29.411  27.709  1.00  0.00     0.135 A 
ATOM     67  F   UNL A   1      40.737  28.906  31.074  1.00  0.00    -0.206 F 
ATOM     68  C   UNL A   1      38.591  29.528  30.359  1.00  0.00     0.059 A 
ATOM     69  C   UNL A   1      38.131  29.776  27.987  1.00  0.00     0.059 A 
ATOM     70  F   UNL A   1      39.823  29.349  26.423  1.00  0.00    -0.206 F 
ATOM     71  C   UNL A   1      37.709  29.815  29.316  1.00  0.00     0.060 A 
BRANCH  71  72
ATOM     72  S   UNL A   1      36.004  30.244  29.724  1.00  0.00     0.124 S 
ATOM     73  O   UNL A   1      35.269  29.534  28.682  1.00  0.00    -0.237 OA
ATOM     74  O   UNL A   1      35.863  29.710  31.075  1.00  0.00    -0.237 OA
ATOM     75  O   UNL A   1      35.986  31.700  29.624  1.00  0.00    -0.744 OA
ENDBRANCH  71  72
ENDBRANCH  50  64
BRANCH  51  76
ATOM     76  C   UNL A   1      49.636  26.384  26.192  1.00  0.00     0.058 A 
ATOM     77  C   UNL A   1      50.133  26.714  24.922  1.00  0.00     0.135 A 
ATOM     78  C   UNL A   1      50.487  25.686  27.064  1.00  0.00     0.135 A 
ATOM     79  F   UNL A   1      49.357  27.374  24.049  1.00  0.00    -0.206 F 
ATOM     80  C   UNL A   1      51.417  26.356  24.524  1.00  0.00     0.059 A 
ATOM     81  C   UNL A   1      51.784  25.340  26.699  1.00  0.00     0.059 A 
ATOM     82  F   UNL A   1      50.066  25.361  28.296  1.00  0.00    -0.206 F 
ATOM     83  C   UNL A   1      52.237  25.670  25.423  1.00  0.00     0.060 A 
BRANCH  83  84
ATOM     84  S   UNL A   1      53.920  25.255  24.917  1.00  0.00     0.124 S 
ATOM     85  O   UNL A   1      53.961  25.794  23.563  1.00  0.00    -0.237 OA
ATOM     86  O   UNL A   1      54.722  25.963  25.912  1.00  0.00    -0.237 OA
ATOM     87  O   UNL A   1      53.951  23.799  25.020  1.00  0.00    -0.744 OA
ENDBRANCH  83  84
ENDBRANCH  51  76
BRANCH  63  88
ATOM     88  C   UNL A   1      46.779  32.378  28.353  1.00  0.00     0.058 A 
ATOM     89  C   UNL A   1      46.787  33.386  27.378  1.00  0.00     0.135 A 
ATOM     90  C   UNL A   1      47.259  32.699  29.635  1.00  0.00     0.135 A 
ATOM     91  F   UNL A   1      46.346  33.130  26.137  1.00  0.00    -0.206 F 
ATOM     92  C   UNL A   1      47.266  34.662  27.659  1.00  0.00     0.059 A 
ATOM     93  C   UNL A   1      47.716  33.976  29.944  1.00  0.00     0.059 A 
ATOM     94  F   UNL A   1      47.264  31.773  30.606  1.00  0.00    -0.206 F 
ATOM     95  C   UNL A   1      47.724  34.948  28.947  1.00  0.00     0.060 A 
BRANCH  95  96
ATOM     96  S   UNL A   1      48.296  36.623  29.310  1.00  0.00     0.124 S 
ATOM     97  O   UNL A   1      47.506  37.413  28.372  1.00  0.00    -0.237 OA
ATOM     98  O   UNL A   1      47.946  36.773  30.719  1.00  0.00    -0.237 OA
ATOM     99  O   UNL A   1      49.727  36.560  29.029  1.00  0.00    -0.744 OA
ENDBRANCH  95  96
ENDBRANCH  63  88
ENDBRANCH  37  38
ENDBRANCH  29  32
ENDBRANCH  27  28
ENDBRANCH  26  27
ENDBRANCH  25  26
ENDBRANCH   1  25
TORSDOF 21
ENDMDL
MODEL 2
REMARK VINA RESULT:     -10.5      4.579      9.818
REMARK SMILES Cc1cc(C)c(C(=O)NCCCCCCNC(=O)c2ccc(-c3c4nc(c(-c5c(F)cc(S(=O)(=O)[O-])cc5F)c5ccc([nH]5)c(-c5c(F)cc(S(=O)(=O)[O-])cc5F)c5nc(c(-c6c(F)cc(S(=O)(=O)[O-])cc6F)c6ccc3[nH]6)C=C5)C=C4)cc2)c(N[C@@H](CO)C(C)C)n1
REMARK SMILES IDX 12 1 11 2 10 3 9 4 7 5 8 6 6 8 1 9 2 10 3 11 93 12 4 13
REMARK SMILES IDX 85 14 5 15 86 16 87 18 88 19 89 20 90 22 91 23 92 24 13 25
REMARK SMILES IDX 14 26 15 27 16 28 17 29 18 31 19 32 20 33 84 34 21 35 83 36
REMARK SMILES IDX 22 37 23 38 24 39 77 40 25 41 82 42 76 43 78 44 26 45 81 46
REMARK SMILES IDX 75 47 74 48 27 50 61 51 40 52 60 53 41 54 44 55 59 56 79 57
REMARK SMILES IDX 42 58 43 59 58 61 80 62 45 63 28 64 29 65 38 66 30 67 31 68
REMARK SMILES IDX 37 69 39 70 32 71 33 72 34 73 35 74 36 75 62 76 63 77 72 78
REMARK SMILES IDX 64 79 65 80 71 81 73 82 66 83 67 84 68 85 69 86 70 87 46 88
REMARK SMILES IDX 47 89 56 90 48 91 49 92 55 93 57 94 50 95 51 96 52 97 53 98
REMARK SMILES IDX 54 99
REMARK H PARENT 9 7 86 17 89 21 16 30 78 49 44 60
REMARK Flexibility Score: inf
ROOT
ATOM      1  C   UNL A   1      33.497  23.793  23.742  1.00  0.00     0.002 C 
ENDROOT
BRANCH   1   2
ATOM      2  C   UNL A   1      32.701  24.284  24.958  1.00  0.00     0.021 C 
BRANCH   2   3
ATOM      3  C   UNL A   1      32.879  25.747  25.361  1.00  0.00     0.116 C 
BRANCH   3   4
ATOM      4  N   UNL A   1      33.740  26.529  24.497  1.00  0.00    -0.352 N 
ATOM      5  C   UNL A   1      33.495  27.682  23.778  1.00  0.00     0.255 C 
ATOM      6  O   UNL A   1      34.445  28.158  23.146  1.00  0.00    -0.269 OA
ATOM      7  H   UNL A   1      34.655  26.178  24.407  1.00  0.00     0.163 HD
BRANCH   5   8
ATOM      8  C   UNL A   1      32.146  28.326  23.660  1.00  0.00     0.085 A 
ATOM      9  C   UNL A   1      28.506  30.548  23.471  1.00  0.00     0.067 C 
ATOM     10  C   UNL A   1      29.760  29.732  23.541  1.00  0.00     0.040 A 
ATOM     11  C   UNL A   1      29.917  28.608  22.752  1.00  0.00     0.028 A 
ATOM     12  N   UNL A   1      30.703  30.120  24.416  1.00  0.00    -0.236 NA
ATOM     13  C   UNL A   1      31.092  27.847  22.853  1.00  0.00    -0.033 A 
ATOM     14  C   UNL A   1      31.870  29.434  24.499  1.00  0.00     0.139 A 
ATOM     15  C   UNL A   1      31.077  26.531  22.130  1.00  0.00     0.045 C 
BRANCH  14  16
ATOM     16  N   UNL A   1      32.768  29.883  25.458  1.00  0.00    -0.364 N 
ATOM     17  H   UNL A   1      33.591  30.340  25.170  1.00  0.00     0.162 HD
BRANCH  16  18
ATOM     18  C   UNL A   1      32.518  29.695  26.892  1.00  0.00     0.108 C 
BRANCH  18  19
ATOM     19  C   UNL A   1      31.863  28.308  27.105  1.00  0.00     0.181 C 
BRANCH  19  20
ATOM     20  O   UNL A   1      31.064  28.262  28.287  1.00  0.00    -0.394 OA
ATOM     21  H   UNL A   1      30.221  28.714  28.125  1.00  0.00     0.210 HD
ENDBRANCH  19  20
ENDBRANCH  18  19
BRANCH  18  22
ATOM     22  C   UNL A   1      33.846  29.877  27.672  1.00  0.00     0.007 C 
ATOM     23  C   UNL A   1      34.938  28.950  27.118  1.00  0.00     0.009 C 
ATOM     24  C   UNL A   1      34.352  31.323  27.600  1.00  0.00     0.009 C 
ENDBRANCH  18  22
ENDBRANCH  16  18
ENDBRANCH  14  16
ENDBRANCH   5   8
ENDBRANCH   3   4
ENDBRANCH   2   3
ENDBRANCH   1   2
BRANCH   1  25
ATOM     25  C   UNL A   1      34.837  23.093  23.994  1.00  0.00     0.002 C 
BRANCH  25  26
ATOM     26  C   UNL A   1      35.444  23.212  25.392  1.00  0.00     0.021 C 
BRANCH  26  27
ATOM     27  C   UNL A   1      36.789  23.921  25.497  1.00  0.00     0.116 C 
BRANCH  27  28
ATOM     28  N   UNL A   1      37.917  23.013  25.618  1.00  0.00    -0.352 N 
ATOM     29  C   UNL A   1      39.144  23.215  26.206  1.00  0.00     0.251 C 
ATOM     30  H   UNL A   1      37.782  22.122  25.221  1.00  0.00     0.163 HD
ATOM     31  O   UNL A   1      40.008  22.347  26.121  1.00  0.00    -0.269 OA
BRANCH  29  32
ATOM     32  C   UNL A   1      39.439  24.486  26.908  1.00  0.00     0.039 A 
ATOM     33  C   UNL A   1      38.961  24.661  28.211  1.00  0.00     0.014 A 
ATOM     34  C   UNL A   1      40.182  25.500  26.298  1.00  0.00     0.014 A 
ATOM     35  C   UNL A   1      39.290  25.816  28.924  1.00  0.00     0.010 A 
ATOM     36  C   UNL A   1      40.568  26.619  27.035  1.00  0.00     0.010 A 
ATOM     37  C   UNL A   1      40.130  26.788  28.357  1.00  0.00    -0.014 A 
BRANCH  37  38
ATOM     38  C   UNL A   1      40.571  27.978  29.134  1.00  0.00     0.031 A 
ATOM     39  C   UNL A   1      41.910  27.983  29.821  1.00  0.00     0.074 A 
ATOM     40  C   UNL A   1      39.736  29.026  29.281  1.00  0.00     0.049 A 
ATOM     41  N   UNL A   1      42.435  28.892  30.603  1.00  0.00    -0.248 NA
ATOM     42  C   UNL A   1      42.763  26.801  29.621  1.00  0.00     0.031 C 
ATOM     43  C   UNL A   1      38.392  29.125  28.704  1.00  0.00     0.029 A 
ATOM     44  N   UNL A   1      39.885  30.206  29.968  1.00  0.00    -0.354 N 
ATOM     45  C   UNL A   1      43.667  28.386  31.002  1.00  0.00     0.074 A 
ATOM     46  C   UNL A   1      43.789  27.069  30.415  1.00  0.00     0.031 C 
ATOM     47  C   UNL A   1      37.851  30.304  29.046  1.00  0.00     0.029 A 
ATOM     48  C   UNL A   1      38.787  31.032  29.896  1.00  0.00     0.049 A 
ATOM     49  H   UNL A   1      40.702  30.439  30.465  1.00  0.00     0.167 HD
ATOM     50  C   UNL A   1      44.618  28.974  31.767  1.00  0.00     0.037 A 
ATOM     51  C   UNL A   1      38.556  32.235  30.459  1.00  0.00     0.037 A 
ATOM     52  C   UNL A   1      44.500  30.295  32.327  1.00  0.00     0.049 A 
ATOM     53  C   UNL A   1      39.627  32.868  31.306  1.00  0.00     0.074 A 
ATOM     54  C   UNL A   1      45.431  31.001  33.069  1.00  0.00     0.029 A 
ATOM     55  N   UNL A   1      43.383  31.110  32.209  1.00  0.00    -0.354 N 
ATOM     56  N   UNL A   1      40.811  32.400  31.622  1.00  0.00    -0.248 NA
ATOM     57  C   UNL A   1      39.335  34.195  31.867  1.00  0.00     0.031 C 
ATOM     58  C   UNL A   1      44.860  32.224  33.438  1.00  0.00     0.029 A 
ATOM     59  C   UNL A   1      43.594  32.303  32.881  1.00  0.00     0.049 A 
ATOM     60  H   UNL A   1      42.561  30.875  31.720  1.00  0.00     0.167 HD
ATOM     61  C   UNL A   1      41.418  33.388  32.390  1.00  0.00     0.074 A 
ATOM     62  C   UNL A   1      40.473  34.481  32.487  1.00  0.00     0.031 C 
ATOM     63  C   UNL A   1      42.649  33.390  32.958  1.00  0.00     0.037 A 
BRANCH  50  64
ATOM     64  C   UNL A   1      45.874  28.192  32.042  1.00  0.00     0.058 A 
ATOM     65  C   UNL A   1      47.005  28.298  31.216  1.00  0.00     0.135 A 
ATOM     66  C   UNL A   1      45.963  27.354  33.166  1.00  0.00     0.135 A 
ATOM     67  F   UNL A   1      46.973  29.075  30.121  1.00  0.00    -0.206 F 
ATOM     68  C   UNL A   1      48.166  27.576  31.474  1.00  0.00     0.059 A 
ATOM     69  C   UNL A   1      47.124  26.645  33.460  1.00  0.00     0.059 A 
ATOM     70  F   UNL A   1      44.914  27.216  33.991  1.00  0.00    -0.206 F 
ATOM     71  C   UNL A   1      48.214  26.750  32.598  1.00  0.00     0.060 A 
BRANCH  71  72
ATOM     72  S   UNL A   1      49.727  25.818  32.917  1.00  0.00     0.124 S 
ATOM     73  O   UNL A   1      49.725  24.873  31.805  1.00  0.00    -0.237 OA
ATOM     74  O   UNL A   1      50.751  26.857  32.863  1.00  0.00    -0.237 OA
ATOM     75  O   UNL A   1      49.497  25.237  34.236  1.00  0.00    -0.744 OA
ENDBRANCH  71  72
ENDBRANCH  50  64
BRANCH  51  76
ATOM     76  C   UNL A   1      37.262  32.929  30.219  1.00  0.00     0.058 A 
ATOM     77  C   UNL A   1      37.104  33.807  29.136  1.00  0.00     0.135 A 
ATOM     78  C   UNL A   1      36.154  32.717  31.054  1.00  0.00     0.135 A 
ATOM     79  F   UNL A   1      38.135  34.049  28.313  1.00  0.00    -0.206 F 
ATOM     80  C   UNL A   1      35.900  34.462  28.897  1.00  0.00     0.059 A 
ATOM     81  C   UNL A   1      34.932  33.339  30.820  1.00  0.00     0.059 A 
ATOM     82  F   UNL A   1      36.248  31.873  32.094  1.00  0.00    -0.206 F 
ATOM     83  C   UNL A   1      34.818  34.218  29.745  1.00  0.00     0.060 A 
BRANCH  83  84
ATOM     84  S   UNL A   1      33.244  35.032  29.396  1.00  0.00     0.124 S 
ATOM     85  O   UNL A   1      32.585  34.967  30.695  1.00  0.00    -0.237 OA
ATOM     86  O   UNL A   1      33.674  36.359  28.963  1.00  0.00    -0.237 OA
ATOM     87  O   UNL A   1      32.661  34.199  28.348  1.00  0.00    -0.744 OA
ENDBRANCH  83  84
ENDBRANCH  51  76
BRANCH  63  88
ATOM     88  C   UNL A   1      43.072  34.626  33.702  1.00  0.00     0.058 A 
ATOM     89  C   UNL A   1      42.825  34.786  35.074  1.00  0.00     0.135 A 
ATOM     90  C   UNL A   1      43.796  35.634  33.043  1.00  0.00     0.135 A 
ATOM     91  F   UNL A   1      42.132  33.857  35.749  1.00  0.00    -0.206 F 
ATOM     92  C   UNL A   1      43.269  35.910  35.764  1.00  0.00     0.059 A 
ATOM     93  C   UNL A   1      44.272  36.753  33.720  1.00  0.00     0.059 A 
ATOM     94  F   UNL A   1      44.066  35.526  31.733  1.00  0.00    -0.206 F 
ATOM     95  C   UNL A   1      43.996  36.885  35.079  1.00  0.00     0.060 A 
BRANCH  95  96
ATOM     96  S   UNL A   1      44.608  38.314  35.999  1.00  0.00     0.124 S 
ATOM     97  O   UNL A   1      44.176  39.418  35.149  1.00  0.00    -0.237 OA
ATOM     98  O   UNL A   1      43.912  38.185  37.274  1.00  0.00    -0.237 OA
ATOM     99  O   UNL A   1      46.049  38.091  36.053  1.00  0.00    -0.744 OA
ENDBRANCH  95  96
ENDBRANCH  63  88
ENDBRANCH  37  38
ENDBRANCH  29  32
ENDBRANCH  27  28
ENDBRANCH  26  27
ENDBRANCH  25  26
ENDBRANCH   1  25
TORSDOF 21
ENDMDL
MODEL 3
REMARK VINA RESULT:     -10.2      4.631     10.351
REMARK SMILES Cc1cc(C)c(C(=O)NCCCCCCNC(=O)c2ccc(-c3c4nc(c(-c5c(F)cc(S(=O)(=O)[O-])cc5F)c5ccc([nH]5)c(-c5c(F)cc(S(=O)(=O)[O-])cc5F)c5nc(c(-c6c(F)cc(S(=O)(=O)[O-])cc6F)c6ccc3[nH]6)C=C5)C=C4)cc2)c(N[C@@H](CO)C(C)C)n1
REMARK SMILES IDX 12 1 11 2 10 3 9 4 7 5 8 6 6 8 1 9 2 10 3 11 93 12 4 13
REMARK SMILES IDX 85 14 5 15 86 16 87 18 88 19 89 20 90 22 91 23 92 24 13 25
REMARK SMILES IDX 14 26 15 27 16 28 17 29 18 31 19 32 20 33 84 34 21 35 83 36
REMARK SMILES IDX 22 37 23 38 24 39 77 40 25 41 82 42 76 43 78 44 26 45 81 46
REMARK SMILES IDX 75 47 74 48 27 50 61 51 40 52 60 53 41 54 44 55 59 56 79 57
REMARK SMILES IDX 42 58 43 59 58 61 80 62 45 63 28 64 29 65 38 66 30 67 31 68
REMARK SMILES IDX 37 69 39 70 32 71 33 72 34 73 35 74 36 75 62 76 63 77 72 78
REMARK SMILES IDX 64 79 65 80 71 81 73 82 66 83 67 84 68 85 69 86 70 87 46 88
REMARK SMILES IDX 47 89 56 90 48 91 49 92 55 93 57 94 50 95 51 96 52 97 53 98
REMARK SMILES IDX 54 99
REMARK H PARENT 9 7 86 17 89 21 16 30 78 49 44 60
REMARK Flexibility Score: inf
ROOT
ATOM      1  C   UNL A   1      35.606  33.314  30.742  1.00  0.00     0.002 C 
ENDROOT
BRANCH   1   2
ATOM      2  C   UNL A   1      37.110  33.559  30.565  1.00  0.00     0.021 C 
BRANCH   2   3
ATOM      3  C   UNL A   1      37.809  34.394  31.636  1.00  0.00     0.116 C 
BRANCH   3   4
ATOM      4  N   UNL A   1      37.289  34.243  32.979  1.00  0.00    -0.352 N 
ATOM      5  C   UNL A   1      37.569  33.312  33.961  1.00  0.00     0.255 C 
ATOM      6  O   UNL A   1      36.991  33.452  35.044  1.00  0.00    -0.269 OA
ATOM      7  H   UNL A   1      36.620  34.918  33.237  1.00  0.00     0.163 HD
BRANCH   5   8
ATOM      8  C   UNL A   1      38.455  32.120  33.756  1.00  0.00     0.085 A 
ATOM      9  C   UNL A   1      41.269  28.923  33.471  1.00  0.00     0.067 C 
ATOM     10  C   UNL A   1      40.266  30.034  33.533  1.00  0.00     0.040 A 
ATOM     11  C   UNL A   1      38.935  29.800  33.245  1.00  0.00     0.028 A 
ATOM     12  N   UNL A   1      40.719  31.260  33.847  1.00  0.00    -0.236 NA
ATOM     13  C   UNL A   1      38.018  30.863  33.287  1.00  0.00    -0.033 A 
ATOM     14  C   UNL A   1      39.849  32.295  33.946  1.00  0.00     0.139 A 
ATOM     15  C   UNL A   1      36.652  30.562  32.744  1.00  0.00     0.045 C 
BRANCH  14  16
ATOM     16  N   UNL A   1      40.410  33.531  34.235  1.00  0.00    -0.364 N 
ATOM     17  H   UNL A   1      40.518  34.191  33.512  1.00  0.00     0.162 HD
BRANCH  16  18
ATOM     18  C   UNL A   1      40.847  33.878  35.592  1.00  0.00     0.108 C 
BRANCH  18  19
ATOM     19  C   UNL A   1      40.193  35.222  35.996  1.00  0.00     0.181 C 
BRANCH  19  20
ATOM     20  O   UNL A   1      39.274  35.695  35.012  1.00  0.00    -0.394 OA
ATOM     21  H   UNL A   1      39.536  35.363  34.139  1.00  0.00     0.210 HD
ENDBRANCH  19  20
ENDBRANCH  18  19
BRANCH  18  22
ATOM     22  C   UNL A   1      40.505  32.710  36.554  1.00  0.00     0.007 C 
ATOM     23  C   UNL A   1      41.760  32.228  37.297  1.00  0.00     0.009 C 
ATOM     24  C   UNL A   1      39.452  33.120  37.592  1.00  0.00     0.009 C 
ENDBRANCH  18  22
ENDBRANCH  16  18
ENDBRANCH  14  16
ENDBRANCH   5   8
ENDBRANCH   3   4
ENDBRANCH   2   3
ENDBRANCH   1   2
BRANCH   1  25
ATOM     25  C   UNL A   1      34.638  34.130  29.879  1.00  0.00     0.002 C 
BRANCH  25  26
ATOM     26  C   UNL A   1      33.762  33.368  28.885  1.00  0.00     0.021 C 
BRANCH  26  27
ATOM     27  C   UNL A   1      34.481  32.458  27.896  1.00  0.00     0.116 C 
BRANCH  27  28
ATOM     28  N   UNL A   1      33.874  31.145  27.766  1.00  0.00    -0.352 N 
ATOM     29  C   UNL A   1      34.453  29.900  27.850  1.00  0.00     0.251 C 
ATOM     30  H   UNL A   1      32.904  31.146  27.592  1.00  0.00     0.163 HD
ATOM     31  O   UNL A   1      33.781  28.899  27.615  1.00  0.00    -0.269 OA
BRANCH  29  32
ATOM     32  C   UNL A   1      35.889  29.763  28.186  1.00  0.00     0.039 A 
ATOM     33  C   UNL A   1      36.242  29.362  29.479  1.00  0.00     0.014 A 
ATOM     34  C   UNL A   1      36.887  30.021  27.243  1.00  0.00     0.014 A 
ATOM     35  C   UNL A   1      37.585  29.149  29.801  1.00  0.00     0.010 A 
ATOM     36  C   UNL A   1      38.219  29.741  27.544  1.00  0.00     0.010 A 
ATOM     37  C   UNL A   1      38.583  29.298  28.825  1.00  0.00    -0.014 A 
BRANCH  37  38
ATOM     38  C   UNL A   1      40.007  28.983  29.120  1.00  0.00     0.031 A 
ATOM     39  C   UNL A   1      40.903  30.022  29.738  1.00  0.00     0.074 A 
ATOM     40  C   UNL A   1      40.512  27.784  28.765  1.00  0.00     0.049 A 
ATOM     41  N   UNL A   1      42.184  29.961  29.997  1.00  0.00    -0.248 NA
ATOM     42  C   UNL A   1      40.282  31.309  30.090  1.00  0.00     0.031 C 
ATOM     43  C   UNL A   1      39.759  26.707  28.117  1.00  0.00     0.029 A 
ATOM     44  N   UNL A   1      41.780  27.270  28.889  1.00  0.00    -0.354 N 
ATOM     45  C   UNL A   1      42.526  31.201  30.525  1.00  0.00     0.074 A 
ATOM     46  C   UNL A   1      41.327  32.012  30.502  1.00  0.00     0.031 C 
ATOM     47  C   UNL A   1      40.574  25.658  27.917  1.00  0.00     0.029 A 
ATOM     48  C   UNL A   1      41.914  25.997  28.386  1.00  0.00     0.049 A 
ATOM     49  H   UNL A   1      42.524  27.767  29.300  1.00  0.00     0.167 HD
ATOM     50  C   UNL A   1      43.722  31.618  31.005  1.00  0.00     0.037 A 
ATOM     51  C   UNL A   1      42.994  25.195  28.302  1.00  0.00     0.037 A 
ATOM     52  C   UNL A   1      44.904  30.798  31.048  1.00  0.00     0.049 A 
ATOM     53  C   UNL A   1      44.312  25.680  28.841  1.00  0.00     0.074 A 
ATOM     54  C   UNL A   1      46.149  31.110  31.566  1.00  0.00     0.029 A 
ATOM     55  N   UNL A   1      44.991  29.505  30.553  1.00  0.00    -0.354 N 
ATOM     56  N   UNL A   1      44.602  26.835  29.392  1.00  0.00    -0.248 NA
ATOM     57  C   UNL A   1      45.450  24.753  28.755  1.00  0.00     0.031 C 
ATOM     58  C   UNL A   1      47.001  30.023  31.344  1.00  0.00     0.029 A 
ATOM     59  C   UNL A   1      46.273  29.012  30.736  1.00  0.00     0.049 A 
ATOM     60  H   UNL A   1      44.251  29.009  30.133  1.00  0.00     0.167 HD
ATOM     61  C   UNL A   1      45.945  26.761  29.748  1.00  0.00     0.074 A 
ATOM     62  C   UNL A   1      46.408  25.447  29.355  1.00  0.00     0.031 C 
ATOM     63  C   UNL A   1      46.719  27.695  30.351  1.00  0.00     0.037 A 
BRANCH  50  64
ATOM     64  C   UNL A   1      43.811  33.027  31.527  1.00  0.00     0.058 A 
ATOM     65  C   UNL A   1      43.725  33.312  32.900  1.00  0.00     0.135 A 
ATOM     66  C   UNL A   1      44.023  34.102  30.649  1.00  0.00     0.135 A 
ATOM     67  F   UNL A   1      43.511  32.324  33.784  1.00  0.00    -0.206 F 
ATOM     68  C   UNL A   1      43.811  34.615  33.379  1.00  0.00     0.059 A 
ATOM     69  C   UNL A   1      44.141  35.411  31.109  1.00  0.00     0.059 A 
ATOM     70  F   UNL A   1      44.115  33.888  29.327  1.00  0.00    -0.206 F 
ATOM     71  C   UNL A   1      44.017  35.658  32.475  1.00  0.00     0.060 A 
BRANCH  71  72
ATOM     72  S   UNL A   1      44.123  37.343  33.114  1.00  0.00     0.124 S 
ATOM     73  O   UNL A   1      42.998  37.373  34.043  1.00  0.00    -0.237 OA
ATOM     74  O   UNL A   1      45.449  37.363  33.724  1.00  0.00    -0.237 OA
ATOM     75  O   UNL A   1      43.973  38.170  31.921  1.00  0.00    -0.744 OA
ENDBRANCH  71  72
ENDBRANCH  50  64
BRANCH  51  76
ATOM     76  C   UNL A   1      42.866  23.840  27.702  1.00  0.00     0.058 A 
ATOM     77  C   UNL A   1      42.604  22.718  28.503  1.00  0.00     0.135 A 
ATOM     78  C   UNL A   1      42.986  23.640  26.317  1.00  0.00     0.135 A 
ATOM     79  F   UNL A   1      42.488  22.855  29.832  1.00  0.00    -0.206 F 
ATOM     80  C   UNL A   1      42.480  21.444  27.957  1.00  0.00     0.059 A 
ATOM     81  C   UNL A   1      42.840  22.380  25.745  1.00  0.00     0.059 A 
ATOM     82  F   UNL A   1      43.220  24.683  25.505  1.00  0.00    -0.206 F 
ATOM     83  C   UNL A   1      42.597  21.286  26.574  1.00  0.00     0.060 A 
BRANCH  83  84
ATOM     84  S   UNL A   1      42.382  19.638  25.869  1.00  0.00     0.124 S 
ATOM     85  O   UNL A   1      43.399  19.631  24.824  1.00  0.00    -0.237 OA
ATOM     86  O   UNL A   1      42.641  18.777  27.020  1.00  0.00    -0.237 OA
ATOM     87  O   UNL A   1      40.998  19.650  25.404  1.00  0.00    -0.744 OA
ENDBRANCH  83  84
ENDBRANCH  51  76
BRANCH  63  88
ATOM     88  C   UNL A   1      48.142  27.324  30.667  1.00  0.00     0.058 A 
ATOM     89  C   UNL A   1      49.200  27.639  29.801  1.00  0.00     0.135 A 
ATOM     90  C   UNL A   1      48.455  26.705  31.889  1.00  0.00     0.135 A 
ATOM     91  F   UNL A   1      48.954  28.224  28.619  1.00  0.00    -0.206 F 
ATOM     92  C   UNL A   1      50.518  27.340  30.129  1.00  0.00     0.059 A 
ATOM     93  C   UNL A   1      49.769  26.422  32.248  1.00  0.00     0.059 A 
ATOM     94  F   UNL A   1      47.481  26.390  32.758  1.00  0.00    -0.206 F 
ATOM     95  C   UNL A   1      50.793  26.735  31.357  1.00  0.00     0.060 A 
BRANCH  95  96
ATOM     96  S   UNL A   1      52.514  26.397  31.790  1.00  0.00     0.124 S 
ATOM     97  O   UNL A   1      53.055  25.945  30.513  1.00  0.00    -0.237 OA
ATOM     98  O   UNL A   1      52.981  27.701  32.251  1.00  0.00    -0.237 OA
ATOM     99  O   UNL A   1      52.409  25.374  32.825  1.00  0.00    -0.744 OA
ENDBRANCH  95  96
ENDBRANCH  63  88
ENDBRANCH  37  38
ENDBRANCH  29  32
ENDBRANCH  27  28
ENDBRANCH  26  27
ENDBRANCH  25  26
ENDBRANCH   1  25
TORSDOF 21
ENDMDL
