MODEL 1
REMARK VINA RESULT:     -11.2      0.000      0.000
REMARK SMILES COC(=O)c1cc(-c2ncccc2C(=O)NCCCCCCNC(=O)c2ccc(-c3c4nc(c(-c5c(F)cc(S(=O)(=O)[O-])cc5F)c5ccc([nH]5)c(-c5c(F)cc(S(=O)(=O)[O-])cc5F)c5nc(c(-c6c(F)cc(S(=O)(=O)[O-])cc6F)c6ccc3[nH]6)C=C5)C=C4)cc2)cs1
REMARK SMILES IDX 19 1 18 2 17 3 16 4 14 5 15 6 13 8 8 9 9 10 10 11 12 12
REMARK SMILES IDX 11 13 7 14 5 15 6 16 93 17 92 18 3 19 4 20 2 21 1 22 20 23
REMARK SMILES IDX 21 24 22 25 23 26 24 27 25 29 26 30 27 31 91 32 28 33 90 34
REMARK SMILES IDX 29 35 30 36 31 37 84 38 32 39 89 40 83 41 85 42 33 43 88 44
REMARK SMILES IDX 82 45 81 46 34 48 68 49 47 50 67 51 48 52 51 53 66 54 86 55
REMARK SMILES IDX 49 56 50 57 65 59 87 60 52 61 35 62 36 63 45 64 37 65 38 66
REMARK SMILES IDX 44 67 46 68 39 69 40 70 41 71 42 72 43 73 69 74 70 75 79 76
REMARK SMILES IDX 71 77 72 78 78 79 80 80 73 81 74 82 75 83 76 84 77 85 53 86
REMARK SMILES IDX 54 87 63 88 55 89 56 90 62 91 64 92 57 93 58 94 59 95 60 96
REMARK SMILES IDX 61 97
REMARK H PARENT 16 7 23 28 85 47 51 58
REMARK Flexibility Score: inf
ROOT
ATOM      1  C   UNL A   1      35.227  30.071  27.509  1.00  0.00     0.002 C 
ENDROOT
BRANCH   1   2
ATOM      2  C   UNL A   1      34.153  28.972  27.427  1.00  0.00     0.021 C 
BRANCH   2   3
ATOM      3  C   UNL A   1      33.071  29.257  26.385  1.00  0.00     0.116 C 
BRANCH   3   4
ATOM      4  N   UNL A   1      32.037  28.246  26.459  1.00  0.00    -0.352 N 
ATOM      5  C   UNL A   1      31.480  27.319  25.620  1.00  0.00     0.253 C 
ATOM      6  O   UNL A   1      30.528  26.723  26.126  1.00  0.00    -0.269 OA
ATOM      7  H   UNL A   1      31.624  28.217  27.351  1.00  0.00     0.163 HD
BRANCH   5   8
ATOM      8  C   UNL A   1      31.967  26.967  24.244  1.00  0.00     0.066 A 
ATOM      9  C   UNL A   1      31.137  27.143  23.121  1.00  0.00     0.084 A 
ATOM     10  N   UNL A   1      31.444  26.698  21.865  1.00  0.00    -0.255 NA
ATOM     11  C   UNL A   1      32.632  26.094  21.690  1.00  0.00     0.112 A 
ATOM     12  C   UNL A   1      33.228  26.420  23.977  1.00  0.00     0.018 A 
ATOM     13  C   UNL A   1      33.559  25.958  22.700  1.00  0.00     0.021 A 
BRANCH   9  14
ATOM     14  C   UNL A   1      29.918  27.943  23.124  1.00  0.00     0.013 A 
ATOM     15  C   UNL A   1      28.537  29.838  23.014  1.00  0.00     0.113 A 
ATOM     16  C   UNL A   1      29.825  29.353  22.880  1.00  0.00     0.038 A 
ATOM     17  S   UNL A   1      27.434  28.569  23.349  1.00  0.00    -0.136 S 
ATOM     18  C   UNL A   1      28.673  27.387  23.330  1.00  0.00     0.076 A 
BRANCH  15  19
ATOM     19  C   UNL A   1      28.057  31.201  22.907  1.00  0.00     0.348 C 
ATOM     20  O   UNL A   1      27.142  31.708  23.541  1.00  0.00    -0.245 OA
BRANCH  19  21
ATOM     21  O   UNL A   1      28.778  31.862  21.948  1.00  0.00    -0.465 OA
ATOM     22  C   UNL A   1      27.997  32.612  21.017  1.00  0.00     0.282 C 
ENDBRANCH  19  21
ENDBRANCH  15  19
ENDBRANCH   9  14
ENDBRANCH   5   8
ENDBRANCH   3   4
ENDBRANCH   2   3
ENDBRANCH   1   2
BRANCH   1  23
ATOM     23  C   UNL A   1      34.689  31.508  27.525  1.00  0.00     0.002 C 
BRANCH  23  24
ATOM     24  C   UNL A   1      34.773  32.216  28.879  1.00  0.00     0.021 C 
BRANCH  24  25
ATOM     25  C   UNL A   1      36.098  32.019  29.609  1.00  0.00     0.116 C 
BRANCH  25  26
ATOM     26  N   UNL A   1      35.917  31.324  30.873  1.00  0.00    -0.352 N 
ATOM     27  C   UNL A   1      36.696  30.345  31.438  1.00  0.00     0.251 C 
ATOM     28  H   UNL A   1      35.128  31.592  31.396  1.00  0.00     0.163 HD
ATOM     29  O   UNL A   1      36.280  29.710  32.402  1.00  0.00    -0.269 OA
BRANCH  27  30
ATOM     30  C   UNL A   1      38.029  30.051  30.870  1.00  0.00     0.039 A 
ATOM     31  C   UNL A   1      39.090  29.772  31.736  1.00  0.00     0.014 A 
ATOM     32  C   UNL A   1      38.234  30.063  29.487  1.00  0.00     0.014 A 
ATOM     33  C   UNL A   1      40.345  29.457  31.212  1.00  0.00     0.010 A 
ATOM     34  C   UNL A   1      39.466  29.682  28.965  1.00  0.00     0.010 A 
ATOM     35  C   UNL A   1      40.537  29.383  29.821  1.00  0.00    -0.014 A 
BRANCH  35  36
ATOM     36  C   UNL A   1      41.852  29.009  29.244  1.00  0.00     0.031 A 
ATOM     37  C   UNL A   1      42.940  30.038  29.118  1.00  0.00     0.074 A 
ATOM     38  C   UNL A   1      42.043  27.761  28.774  1.00  0.00     0.049 A 
ATOM     39  N   UNL A   1      44.129  29.924  28.584  1.00  0.00    -0.248 NA
ATOM     40  C   UNL A   1      42.644  31.382  29.638  1.00  0.00     0.031 C 
ATOM     41  C   UNL A   1      41.047  26.687  28.800  1.00  0.00     0.029 A 
ATOM     42  N   UNL A   1      43.135  27.185  28.176  1.00  0.00    -0.354 N 
ATOM     43  C   UNL A   1      44.715  31.180  28.688  1.00  0.00     0.074 A 
ATOM     44  C   UNL A   1      43.730  32.055  29.287  1.00  0.00     0.031 C 
ATOM     45  C   UNL A   1      41.583  25.578  28.265  1.00  0.00     0.029 A 
ATOM     46  C   UNL A   1      42.944  25.870  27.826  1.00  0.00     0.049 A 
ATOM     47  H   UNL A   1      43.977  27.669  28.014  1.00  0.00     0.167 HD
ATOM     48  C   UNL A   1      45.965  31.565  28.338  1.00  0.00     0.037 A 
ATOM     49  C   UNL A   1      43.772  24.998  27.217  1.00  0.00     0.037 A 
ATOM     50  C   UNL A   1      46.947  30.682  27.763  1.00  0.00     0.049 A 
ATOM     51  C   UNL A   1      45.156  25.445  26.837  1.00  0.00     0.074 A 
ATOM     52  C   UNL A   1      48.260  30.957  27.425  1.00  0.00     0.029 A 
ATOM     53  N   UNL A   1      46.721  29.352  27.438  1.00  0.00    -0.354 N 
ATOM     54  N   UNL A   1      45.714  26.622  26.996  1.00  0.00    -0.248 NA
ATOM     55  C   UNL A   1      46.025  24.447  26.200  1.00  0.00     0.031 C 
ATOM     56  C   UNL A   1      48.816  29.805  26.857  1.00  0.00     0.029 A 
ATOM     57  C   UNL A   1      47.864  28.798  26.884  1.00  0.00     0.049 A 
ATOM     58  H   UNL A   1      45.873  28.872  27.579  1.00  0.00     0.167 HD
ATOM     59  C   UNL A   1      47.009  26.499  26.503  1.00  0.00     0.074 A 
ATOM     60  C   UNL A   1      47.152  25.130  26.048  1.00  0.00     0.031 C 
ATOM     61  C   UNL A   1      47.990  27.432  26.437  1.00  0.00     0.037 A 
BRANCH  48  62
ATOM     62  C   UNL A   1      46.335  33.005  28.568  1.00  0.00     0.058 A 
ATOM     63  C   UNL A   1      46.149  33.982  27.577  1.00  0.00     0.135 A 
ATOM     64  C   UNL A   1      46.880  33.417  29.796  1.00  0.00     0.135 A 
ATOM     65  F   UNL A   1      45.643  33.644  26.380  1.00  0.00    -0.206 F 
ATOM     66  C   UNL A   1      46.535  35.304  27.775  1.00  0.00     0.059 A 
ATOM     67  C   UNL A   1      47.245  34.740  30.027  1.00  0.00     0.059 A 
ATOM     68  F   UNL A   1      47.077  32.526  30.781  1.00  0.00    -0.206 F 
ATOM     69  C   UNL A   1      47.089  35.672  29.001  1.00  0.00     0.060 A 
BRANCH  69  70
ATOM     70  S   UNL A   1      47.611  37.384  29.235  1.00  0.00     0.124 S 
ATOM     71  O   UNL A   1      48.514  37.258  30.375  1.00  0.00    -0.237 OA
ATOM     72  O   UNL A   1      48.244  37.696  27.958  1.00  0.00    -0.237 OA
ATOM     73  O   UNL A   1      46.361  38.088  29.500  1.00  0.00    -0.744 OA
ENDBRANCH  69  70
ENDBRANCH  48  62
BRANCH  49  74
ATOM     74  C   UNL A   1      43.317  23.605  26.967  1.00  0.00     0.058 A 
ATOM     75  C   UNL A   1      42.990  23.179  25.672  1.00  0.00     0.135 A 
ATOM     76  C   UNL A   1      43.241  22.665  28.005  1.00  0.00     0.135 A 
ATOM     77  F   UNL A   1      43.042  24.045  24.649  1.00  0.00    -0.206 F 
ATOM     78  C   UNL A   1      42.598  21.871  25.412  1.00  0.00     0.059 A 
ATOM     79  C   UNL A   1      42.873  21.344  27.767  1.00  0.00     0.059 A 
ATOM     80  F   UNL A   1      43.560  23.018  29.260  1.00  0.00    -0.206 F 
ATOM     81  C   UNL A   1      42.549  20.957  26.467  1.00  0.00     0.060 A 
BRANCH  81  82
ATOM     82  S   UNL A   1      42.110  19.243  26.109  1.00  0.00     0.124 S 
ATOM     83  O   UNL A   1      40.671  19.346  25.894  1.00  0.00    -0.237 OA
ATOM     84  O   UNL A   1      42.914  18.963  24.923  1.00  0.00    -0.237 OA
ATOM     85  O   UNL A   1      42.520  18.532  27.316  1.00  0.00    -0.744 OA
ENDBRANCH  81  82
ENDBRANCH  49  74
BRANCH  61  86
ATOM     86  C   UNL A   1      49.316  27.001  25.876  1.00  0.00     0.058 A 
ATOM     87  C   UNL A   1      49.632  27.163  24.519  1.00  0.00     0.135 A 
ATOM     88  C   UNL A   1      50.304  26.468  26.721  1.00  0.00     0.135 A 
ATOM     89  F   UNL A   1      48.720  27.661  23.667  1.00  0.00    -0.206 F 
ATOM     90  C   UNL A   1      50.873  26.792  24.012  1.00  0.00     0.059 A 
ATOM     91  C   UNL A   1      51.562  26.115  26.242  1.00  0.00     0.059 A 
ATOM     92  F   UNL A   1      50.057  26.302  28.030  1.00  0.00    -0.206 F 
ATOM     93  C   UNL A   1      51.833  26.270  24.883  1.00  0.00     0.060 A 
BRANCH  93  94
ATOM     94  S   UNL A   1      53.453  25.826  24.221  1.00  0.00     0.124 S 
ATOM     95  O   UNL A   1      53.602  24.456  24.703  1.00  0.00    -0.237 OA
ATOM     96  O   UNL A   1      53.253  25.973  22.782  1.00  0.00    -0.237 OA
ATOM     97  O   UNL A   1      54.348  26.807  24.827  1.00  0.00    -0.744 OA
ENDBRANCH  93  94
ENDBRANCH  61  86
ENDBRANCH  35  36
ENDBRANCH  27  30
ENDBRANCH  25  26
ENDBRANCH  24  25
ENDBRANCH  23  24
ENDBRANCH   1  23
TORSDOF 19
ENDMDL
MODEL 2
REMARK VINA RESULT:     -11.1      6.166     10.970
REMARK SMILES COC(=O)c1cc(-c2ncccc2C(=O)NCCCCCCNC(=O)c2ccc(-c3c4nc(c(-c5c(F)cc(S(=O)(=O)[O-])cc5F)c5ccc([nH]5)c(-c5c(F)cc(S(=O)(=O)[O-])cc5F)c5nc(c(-c6c(F)cc(S(=O)(=O)[O-])cc6F)c6ccc3[nH]6)C=C5)C=C4)cc2)cs1
REMARK SMILES IDX 19 1 18 2 17 3 16 4 14 5 15 6 13 8 8 9 9 10 10 11 12 12
REMARK SMILES IDX 11 13 7 14 5 15 6 16 93 17 92 18 3 19 4 20 2 21 1 22 20 23
REMARK SMILES IDX 21 24 22 25 23 26 24 27 25 29 26 30 27 31 91 32 28 33 90 34
REMARK SMILES IDX 29 35 30 36 31 37 84 38 32 39 89 40 83 41 85 42 33 43 88 44
REMARK SMILES IDX 82 45 81 46 34 48 68 49 47 50 67 51 48 52 51 53 66 54 86 55
REMARK SMILES IDX 49 56 50 57 65 59 87 60 52 61 35 62 36 63 45 64 37 65 38 66
REMARK SMILES IDX 44 67 46 68 39 69 40 70 41 71 42 72 43 73 69 74 70 75 79 76
REMARK SMILES IDX 71 77 72 78 78 79 80 80 73 81 74 82 75 83 76 84 77 85 53 86
REMARK SMILES IDX 54 87 63 88 55 89 56 90 62 91 64 92 57 93 58 94 59 95 60 96
REMARK SMILES IDX 61 97
REMARK H PARENT 16 7 23 28 85 47 51 58
REMARK Flexibility Score: inf
ROOT
ATOM      1  C   UNL A   1      33.146  29.921  26.873  1.00  0.00     0.002 C 
ENDROOT
BRANCH   1   2
ATOM      2  C   UNL A   1      32.779  28.488  27.297  1.00  0.00     0.021 C 
BRANCH   2   3
ATOM      3  C   UNL A   1      31.368  28.073  26.875  1.00  0.00     0.116 C 
BRANCH   3   4
ATOM      4  N   UNL A   1      31.168  26.665  27.147  1.00  0.00    -0.352 N 
ATOM      5  C   UNL A   1      31.558  25.473  26.599  1.00  0.00     0.253 C 
ATOM      6  O   UNL A   1      31.040  24.499  27.147  1.00  0.00    -0.269 OA
ATOM      7  H   UNL A   1      30.598  26.528  27.937  1.00  0.00     0.163 HD
BRANCH   5   8
ATOM      8  C   UNL A   1      32.558  25.295  25.493  1.00  0.00     0.066 A 
ATOM      9  C   UNL A   1      32.228  25.628  24.165  1.00  0.00     0.084 A 
ATOM     10  N   UNL A   1      33.017  25.344  23.085  1.00  0.00    -0.255 NA
ATOM     11  C   UNL A   1      34.201  24.750  23.316  1.00  0.00     0.112 A 
ATOM     12  C   UNL A   1      33.842  24.767  25.675  1.00  0.00     0.018 A 
ATOM     13  C   UNL A   1      34.663  24.470  24.584  1.00  0.00     0.021 A 
BRANCH   9  14
ATOM     14  C   UNL A   1      31.075  26.440  23.789  1.00  0.00     0.013 A 
ATOM     15  C   UNL A   1      29.855  28.267  22.965  1.00  0.00     0.113 A 
ATOM     16  C   UNL A   1      31.110  27.713  23.133  1.00  0.00     0.038 A 
ATOM     17  S   UNL A   1      28.634  27.201  23.526  1.00  0.00    -0.136 S 
ATOM     18  C   UNL A   1      29.779  26.020  24.001  1.00  0.00     0.076 A 
BRANCH  15  19
ATOM     19  C   UNL A   1      29.488  29.553  22.407  1.00  0.00     0.348 C 
ATOM     20  O   UNL A   1      29.292  29.812  21.228  1.00  0.00    -0.245 OA
BRANCH  19  21
ATOM     21  O   UNL A   1      29.414  30.479  23.414  1.00  0.00    -0.465 OA
ATOM     22  C   UNL A   1      28.099  30.966  23.688  1.00  0.00     0.282 C 
ENDBRANCH  19  21
ENDBRANCH  15  19
ENDBRANCH   9  14
ENDBRANCH   5   8
ENDBRANCH   3   4
ENDBRANCH   2   3
ENDBRANCH   1   2
BRANCH   1  23
ATOM     23  C   UNL A   1      32.003  30.727  26.240  1.00  0.00     0.002 C 
BRANCH  23  24
ATOM     24  C   UNL A   1      31.719  32.077  26.904  1.00  0.00     0.021 C 
BRANCH  24  25
ATOM     25  C   UNL A   1      32.967  32.842  27.330  1.00  0.00     0.116 C 
BRANCH  25  26
ATOM     26  N   UNL A   1      32.650  34.198  27.748  1.00  0.00    -0.352 N 
ATOM     27  C   UNL A   1      33.120  34.898  28.832  1.00  0.00     0.251 C 
ATOM     28  H   UNL A   1      32.011  34.680  27.176  1.00  0.00     0.163 HD
ATOM     29  O   UNL A   1      32.582  35.949  29.163  1.00  0.00    -0.269 OA
BRANCH  27  30
ATOM     30  C   UNL A   1      34.266  34.371  29.604  1.00  0.00     0.039 A 
ATOM     31  C   UNL A   1      34.025  33.711  30.812  1.00  0.00     0.014 A 
ATOM     32  C   UNL A   1      35.575  34.540  29.142  1.00  0.00     0.014 A 
ATOM     33  C   UNL A   1      35.095  33.176  31.532  1.00  0.00     0.010 A 
ATOM     34  C   UNL A   1      36.632  33.947  29.825  1.00  0.00     0.010 A 
ATOM     35  C   UNL A   1      36.405  33.267  31.031  1.00  0.00    -0.014 A 
BRANCH  35  36
ATOM     36  C   UNL A   1      37.551  32.669  31.760  1.00  0.00     0.031 A 
ATOM     37  C   UNL A   1      38.273  31.481  31.187  1.00  0.00     0.074 A 
ATOM     38  C   UNL A   1      37.900  33.155  32.967  1.00  0.00     0.049 A 
ATOM     39  N   UNL A   1      39.251  30.780  31.701  1.00  0.00    -0.248 NA
ATOM     40  C   UNL A   1      37.817  31.000  29.873  1.00  0.00     0.031 C 
ATOM     41  C   UNL A   1      37.246  34.276  33.648  1.00  0.00     0.029 A 
ATOM     42  N   UNL A   1      38.883  32.765  33.841  1.00  0.00    -0.354 N 
ATOM     43  C   UNL A   1      39.516  29.769  30.785  1.00  0.00     0.074 A 
ATOM     44  C   UNL A   1      38.559  29.915  29.708  1.00  0.00     0.031 C 
ATOM     45  C   UNL A   1      37.863  34.498  34.820  1.00  0.00     0.029 A 
ATOM     46  C   UNL A   1      38.928  33.515  34.992  1.00  0.00     0.049 A 
ATOM     47  H   UNL A   1      39.499  32.019  33.659  1.00  0.00     0.167 HD
ATOM     48  C   UNL A   1      40.481  28.821  30.823  1.00  0.00     0.037 A 
ATOM     49  C   UNL A   1      39.735  33.419  36.067  1.00  0.00     0.037 A 
ATOM     50  C   UNL A   1      41.444  28.696  31.888  1.00  0.00     0.049 A 
ATOM     51  C   UNL A   1      40.801  32.359  36.091  1.00  0.00     0.074 A 
ATOM     52  C   UNL A   1      42.498  27.807  31.997  1.00  0.00     0.029 A 
ATOM     53  N   UNL A   1      41.467  29.484  33.030  1.00  0.00    -0.354 N 
ATOM     54  N   UNL A   1      41.076  31.447  35.188  1.00  0.00    -0.248 NA
ATOM     55  C   UNL A   1      41.669  32.316  37.274  1.00  0.00     0.031 C 
ATOM     56  C   UNL A   1      43.133  28.029  33.224  1.00  0.00     0.029 A 
ATOM     57  C   UNL A   1      42.505  29.088  33.858  1.00  0.00     0.049 A 
ATOM     58  H   UNL A   1      40.838  30.217  33.224  1.00  0.00     0.167 HD
ATOM     59  C   UNL A   1      42.166  30.738  35.683  1.00  0.00     0.074 A 
ATOM     60  C   UNL A   1      42.504  31.334  36.960  1.00  0.00     0.031 C 
ATOM     61  C   UNL A   1      42.828  29.694  35.128  1.00  0.00     0.037 A 
BRANCH  48  62
ATOM     62  C   UNL A   1      40.537  27.844  29.681  1.00  0.00     0.058 A 
ATOM     63  C   UNL A   1      39.635  26.773  29.581  1.00  0.00     0.135 A 
ATOM     64  C   UNL A   1      41.504  27.980  28.670  1.00  0.00     0.135 A 
ATOM     65  F   UNL A   1      38.699  26.586  30.524  1.00  0.00    -0.206 F 
ATOM     66  C   UNL A   1      39.718  25.844  28.548  1.00  0.00     0.059 A 
ATOM     67  C   UNL A   1      41.586  27.079  27.611  1.00  0.00     0.059 A 
ATOM     68  F   UNL A   1      42.390  28.987  28.713  1.00  0.00    -0.206 F 
ATOM     69  C   UNL A   1      40.702  26.001  27.572  1.00  0.00     0.060 A 
BRANCH  69  70
ATOM     70  S   UNL A   1      40.817  24.773  26.254  1.00  0.00     0.124 S 
ATOM     71  O   UNL A   1      41.094  25.617  25.096  1.00  0.00    -0.237 OA
ATOM     72  O   UNL A   1      41.922  23.933  26.704  1.00  0.00    -0.237 OA
ATOM     73  O   UNL A   1      39.504  24.137  26.267  1.00  0.00    -0.744 OA
ENDBRANCH  69  70
ENDBRANCH  48  62
BRANCH  49  74
ATOM     74  C   UNL A   1      39.584  34.382  37.188  1.00  0.00     0.058 A 
ATOM     75  C   UNL A   1      38.947  34.003  38.379  1.00  0.00     0.135 A 
ATOM     76  C   UNL A   1      40.104  35.683  37.109  1.00  0.00     0.135 A 
ATOM     77  F   UNL A   1      38.428  32.772  38.498  1.00  0.00    -0.206 F 
ATOM     78  C   UNL A   1      38.828  34.878  39.453  1.00  0.00     0.059 A 
ATOM     79  C   UNL A   1      40.018  36.569  38.178  1.00  0.00     0.059 A 
ATOM     80  F   UNL A   1      40.737  36.089  35.998  1.00  0.00    -0.206 F 
ATOM     81  C   UNL A   1      39.373  36.159  39.345  1.00  0.00     0.060 A 
BRANCH  81  82
ATOM     82  S   UNL A   1      39.278  37.264  40.770  1.00  0.00     0.124 S 
ATOM     83  O   UNL A   1      40.687  37.547  41.018  1.00  0.00    -0.237 OA
ATOM     84  O   UNL A   1      38.486  38.373  40.245  1.00  0.00    -0.237 OA
ATOM     85  O   UNL A   1      38.608  36.450  41.780  1.00  0.00    -0.744 OA
ENDBRANCH  81  82
ENDBRANCH  49  74
BRANCH  61  86
ATOM     86  C   UNL A   1      44.004  29.141  35.885  1.00  0.00     0.058 A 
ATOM     87  C   UNL A   1      43.874  28.050  36.757  1.00  0.00     0.135 A 
ATOM     88  C   UNL A   1      45.287  29.678  35.692  1.00  0.00     0.135 A 
ATOM     89  F   UNL A   1      42.667  27.505  36.983  1.00  0.00    -0.206 F 
ATOM     90  C   UNL A   1      44.971  27.523  37.430  1.00  0.00     0.059 A 
ATOM     91  C   UNL A   1      46.404  29.151  36.333  1.00  0.00     0.059 A 
ATOM     92  F   UNL A   1      45.468  30.716  34.859  1.00  0.00    -0.206 F 
ATOM     93  C   UNL A   1      46.233  28.079  37.209  1.00  0.00     0.060 A 
BRANCH  93  94
ATOM     94  S   UNL A   1      47.656  27.363  38.059  1.00  0.00     0.124 S 
ATOM     95  O   UNL A   1      47.119  26.079  38.500  1.00  0.00    -0.237 OA
ATOM     96  O   UNL A   1      48.656  27.301  36.997  1.00  0.00    -0.237 OA
ATOM     97  O   UNL A   1      47.937  28.325  39.121  1.00  0.00    -0.744 OA
ENDBRANCH  93  94
ENDBRANCH  61  86
ENDBRANCH  35  36
ENDBRANCH  27  30
ENDBRANCH  25  26
ENDBRANCH  24  25
ENDBRANCH  23  24
ENDBRANCH   1  23
TORSDOF 19
ENDMDL
MODEL 3
REMARK VINA RESULT:     -10.8      2.862      8.866
REMARK SMILES COC(=O)c1cc(-c2ncccc2C(=O)NCCCCCCNC(=O)c2ccc(-c3c4nc(c(-c5c(F)cc(S(=O)(=O)[O-])cc5F)c5ccc([nH]5)c(-c5c(F)cc(S(=O)(=O)[O-])cc5F)c5nc(c(-c6c(F)cc(S(=O)(=O)[O-])cc6F)c6ccc3[nH]6)C=C5)C=C4)cc2)cs1
REMARK SMILES IDX 19 1 18 2 17 3 16 4 14 5 15 6 13 8 8 9 9 10 10 11 12 12
REMARK SMILES IDX 11 13 7 14 5 15 6 16 93 17 92 18 3 19 4 20 2 21 1 22 20 23
REMARK SMILES IDX 21 24 22 25 23 26 24 27 25 29 26 30 27 31 91 32 28 33 90 34
REMARK SMILES IDX 29 35 30 36 31 37 84 38 32 39 89 40 83 41 85 42 33 43 88 44
REMARK SMILES IDX 82 45 81 46 34 48 68 49 47 50 67 51 48 52 51 53 66 54 86 55
REMARK SMILES IDX 49 56 50 57 65 59 87 60 52 61 35 62 36 63 45 64 37 65 38 66
REMARK SMILES IDX 44 67 46 68 39 69 40 70 41 71 42 72 43 73 69 74 70 75 79 76
REMARK SMILES IDX 71 77 72 78 78 79 80 80 73 81 74 82 75 83 76 84 77 85 53 86
REMARK SMILES IDX 54 87 63 88 55 89 56 90 62 91 64 92 57 93 58 94 59 95 60 96
REMARK SMILES IDX 61 97
REMARK H PARENT 16 7 23 28 85 47 51 58
REMARK Flexibility Score: inf
ROOT
ATOM      1  C   UNL A   1      37.523  22.078  25.041  1.00  0.00     0.002 C 
ENDROOT
BRANCH   1   2
ATOM      2  C   UNL A   1      36.676  22.848  26.070  1.00  0.00     0.021 C 
BRANCH   2   3
ATOM      3  C   UNL A   1      36.064  24.134  25.511  1.00  0.00     0.116 C 
BRANCH   3   4
ATOM      4  N   UNL A   1      35.652  23.927  24.139  1.00  0.00    -0.352 N 
ATOM      5  C   UNL A   1      34.639  23.282  23.482  1.00  0.00     0.253 C 
ATOM      6  O   UNL A   1      34.765  23.310  22.258  1.00  0.00    -0.269 OA
ATOM      7  H   UNL A   1      36.265  24.369  23.508  1.00  0.00     0.163 HD
BRANCH   5   8
ATOM      8  C   UNL A   1      33.439  22.644  24.121  1.00  0.00     0.066 A 
ATOM      9  C   UNL A   1      32.372  23.433  24.591  1.00  0.00     0.084 A 
ATOM     10  N   UNL A   1      31.326  22.947  25.326  1.00  0.00    -0.255 NA
ATOM     11  C   UNL A   1      31.298  21.626  25.573  1.00  0.00     0.112 A 
ATOM     12  C   UNL A   1      33.301  21.267  24.328  1.00  0.00     0.018 A 
ATOM     13  C   UNL A   1      32.240  20.751  25.077  1.00  0.00     0.021 A 
BRANCH   9  14
ATOM     14  C   UNL A   1      32.173  24.834  24.236  1.00  0.00     0.013 A 
ATOM     15  C   UNL A   1      32.174  27.171  24.447  1.00  0.00     0.113 A 
ATOM     16  C   UNL A   1      32.551  25.972  25.021  1.00  0.00     0.038 A 
ATOM     17  S   UNL A   1      31.439  26.916  22.919  1.00  0.00    -0.136 S 
ATOM     18  C   UNL A   1      31.612  25.217  23.036  1.00  0.00     0.076 A 
BRANCH  15  19
ATOM     19  C   UNL A   1      32.323  28.519  24.959  1.00  0.00     0.348 C 
ATOM     20  O   UNL A   1      31.804  29.534  24.515  1.00  0.00    -0.245 OA
BRANCH  19  21
ATOM     21  O   UNL A   1      33.173  28.504  26.033  1.00  0.00    -0.465 OA
ATOM     22  C   UNL A   1      32.682  29.165  27.200  1.00  0.00     0.282 C 
ENDBRANCH  19  21
ENDBRANCH  15  19
ENDBRANCH   9  14
ENDBRANCH   5   8
ENDBRANCH   3   4
ENDBRANCH   2   3
ENDBRANCH   1   2
BRANCH   1  23
ATOM     23  C   UNL A   1      37.269  20.565  24.989  1.00  0.00     0.002 C 
BRANCH  23  24
ATOM     24  C   UNL A   1      38.528  19.696  25.042  1.00  0.00     0.021 C 
BRANCH  24  25
ATOM     25  C   UNL A   1      39.615  20.222  25.974  1.00  0.00     0.116 C 
BRANCH  25  26
ATOM     26  N   UNL A   1      40.653  19.230  26.204  1.00  0.00    -0.352 N 
ATOM     27  C   UNL A   1      42.002  19.417  26.373  1.00  0.00     0.251 C 
ATOM     28  H   UNL A   1      40.345  18.297  26.245  1.00  0.00     0.163 HD
ATOM     29  O   UNL A   1      42.764  18.456  26.335  1.00  0.00    -0.269 OA
BRANCH  27  30
ATOM     30  C   UNL A   1      42.532  20.781  26.586  1.00  0.00     0.039 A 
ATOM     31  C   UNL A   1      42.957  21.525  25.481  1.00  0.00     0.014 A 
ATOM     32  C   UNL A   1      42.621  21.319  27.873  1.00  0.00     0.014 A 
ATOM     33  C   UNL A   1      43.424  22.828  25.665  1.00  0.00     0.010 A 
ATOM     34  C   UNL A   1      43.022  22.640  28.047  1.00  0.00     0.010 A 
ATOM     35  C   UNL A   1      43.435  23.405  26.946  1.00  0.00    -0.014 A 
BRANCH  35  36
ATOM     36  C   UNL A   1      43.890  24.803  27.157  1.00  0.00     0.031 A 
ATOM     37  C   UNL A   1      45.334  25.166  26.951  1.00  0.00     0.074 A 
ATOM     38  C   UNL A   1      43.014  25.728  27.596  1.00  0.00     0.049 A 
ATOM     39  N   UNL A   1      45.935  26.311  27.146  1.00  0.00    -0.248 NA
ATOM     40  C   UNL A   1      46.227  24.091  26.489  1.00  0.00     0.031 C 
ATOM     41  C   UNL A   1      41.597  25.486  27.874  1.00  0.00     0.029 A 
ATOM     42  N   UNL A   1      43.188  27.056  27.893  1.00  0.00    -0.354 N 
ATOM     43  C   UNL A   1      47.274  26.093  26.849  1.00  0.00     0.074 A 
ATOM     44  C   UNL A   1      47.408  24.691  26.512  1.00  0.00     0.031 C 
ATOM     45  C   UNL A   1      41.027  26.633  28.278  1.00  0.00     0.029 A 
ATOM     46  C   UNL A   1      42.042  27.681  28.323  1.00  0.00     0.049 A 
ATOM     47  H   UNL A   1      44.054  27.518  27.806  1.00  0.00     0.167 HD
ATOM     48  C   UNL A   1      48.296  26.981  26.834  1.00  0.00     0.037 A 
ATOM     49  C   UNL A   1      41.833  28.954  28.711  1.00  0.00     0.037 A 
ATOM     50  C   UNL A   1      48.151  28.380  27.149  1.00  0.00     0.049 A 
ATOM     51  C   UNL A   1      42.981  29.925  28.688  1.00  0.00     0.074 A 
ATOM     52  C   UNL A   1      49.110  29.376  27.110  1.00  0.00     0.029 A 
ATOM     53  N   UNL A   1      46.970  28.978  27.565  1.00  0.00    -0.354 N 
ATOM     54  N   UNL A   1      44.230  29.715  28.347  1.00  0.00    -0.248 NA
ATOM     55  C   UNL A   1      42.691  31.306  29.097  1.00  0.00     0.031 C 
ATOM     56  C   UNL A   1      48.519  30.568  27.542  1.00  0.00     0.029 A 
ATOM     57  C   UNL A   1      47.180  30.326  27.805  1.00  0.00     0.049 A 
ATOM     58  H   UNL A   1      46.109  28.513  27.674  1.00  0.00     0.167 HD
ATOM     59  C   UNL A   1      44.871  30.944  28.475  1.00  0.00     0.074 A 
ATOM     60  C   UNL A   1      43.867  31.892  28.916  1.00  0.00     0.031 C 
ATOM     61  C   UNL A   1      46.169  31.257  28.244  1.00  0.00     0.037 A 
BRANCH  48  62
ATOM     62  C   UNL A   1      49.660  26.461  26.468  1.00  0.00     0.058 A 
ATOM     63  C   UNL A   1      50.129  26.487  25.145  1.00  0.00     0.135 A 
ATOM     64  C   UNL A   1      50.511  25.931  27.452  1.00  0.00     0.135 A 
ATOM     65  F   UNL A   1      49.354  26.971  24.162  1.00  0.00    -0.206 F 
ATOM     66  C   UNL A   1      51.372  25.963  24.802  1.00  0.00     0.059 A 
ATOM     67  C   UNL A   1      51.770  25.429  27.136  1.00  0.00     0.059 A 
ATOM     68  F   UNL A   1      50.115  25.884  28.734  1.00  0.00    -0.206 F 
ATOM     69  C   UNL A   1      52.182  25.429  25.804  1.00  0.00     0.060 A 
BRANCH  69  70
ATOM     70  S   UNL A   1      53.780  24.727  25.342  1.00  0.00     0.124 S 
ATOM     71  O   UNL A   1      54.546  24.919  26.569  1.00  0.00    -0.237 OA
ATOM     72  O   UNL A   1      53.434  23.346  25.021  1.00  0.00    -0.237 OA
ATOM     73  O   UNL A   1      54.195  25.545  24.207  1.00  0.00    -0.744 OA
ENDBRANCH  69  70
ENDBRANCH  48  62
BRANCH  49  74
ATOM     74  C   UNL A   1      40.470  29.384  29.118  1.00  0.00     0.058 A 
ATOM     75  C   UNL A   1      40.161  29.609  30.467  1.00  0.00     0.135 A 
ATOM     76  C   UNL A   1      39.463  29.617  28.169  1.00  0.00     0.135 A 
ATOM     77  F   UNL A   1      41.090  29.394  31.412  1.00  0.00    -0.206 F 
ATOM     78  C   UNL A   1      38.903  30.047  30.865  1.00  0.00     0.059 A 
ATOM     79  C   UNL A   1      38.203  30.076  28.539  1.00  0.00     0.059 A 
ATOM     80  F   UNL A   1      39.713  29.432  26.863  1.00  0.00    -0.206 F 
ATOM     81  C   UNL A   1      37.931  30.284  29.890  1.00  0.00     0.060 A 
BRANCH  81  82
ATOM     82  S   UNL A   1      36.323  30.922  30.409  1.00  0.00     0.124 S 
ATOM     83  O   UNL A   1      35.929  29.944  31.416  1.00  0.00    -0.237 OA
ATOM     84  O   UNL A   1      36.667  32.250  30.908  1.00  0.00    -0.237 OA
ATOM     85  O   UNL A   1      35.543  30.909  29.175  1.00  0.00    -0.744 OA
ENDBRANCH  81  82
ENDBRANCH  49  74
BRANCH  61  86
ATOM     86  C   UNL A   1      46.578  32.691  28.437  1.00  0.00     0.058 A 
ATOM     87  C   UNL A   1      46.474  33.634  27.404  1.00  0.00     0.135 A 
ATOM     88  C   UNL A   1      47.028  33.137  29.691  1.00  0.00     0.135 A 
ATOM     89  F   UNL A   1      46.056  33.257  26.184  1.00  0.00    -0.206 F 
ATOM     90  C   UNL A   1      46.824  34.966  27.598  1.00  0.00     0.059 A 
ATOM     91  C   UNL A   1      47.359  34.470  29.916  1.00  0.00     0.059 A 
ATOM     92  F   UNL A   1      47.136  32.277  30.716  1.00  0.00    -0.206 F 
ATOM     93  C   UNL A   1      47.263  35.375  28.860  1.00  0.00     0.060 A 
BRANCH  93  94
ATOM     94  S   UNL A   1      47.679  37.114  29.111  1.00  0.00     0.124 S 
ATOM     95  O   UNL A   1      48.997  37.194  28.489  1.00  0.00    -0.237 OA
ATOM     96  O   UNL A   1      46.601  37.798  28.401  1.00  0.00    -0.237 OA
ATOM     97  O   UNL A   1      47.659  37.262  30.563  1.00  0.00    -0.744 OA
ENDBRANCH  93  94
ENDBRANCH  61  86
ENDBRANCH  35  36
ENDBRANCH  27  30
ENDBRANCH  25  26
ENDBRANCH  24  25
ENDBRANCH  23  24
ENDBRANCH   1  23
TORSDOF 19
ENDMDL
