MODEL 1
REMARK VINA RESULT:     -12.4      0.000      0.000
REMARK SMILES O=C(NCCCCCCNC(=O)c1ccc(-c2c3nc(c(-c4c(F)cc(S(=O)(=O)[O-])cc4F)c4ccc([nH]4)c(-c4c(F)cc(S(=O)(=O)[O-])cc4F)c4nc(c(-c5c(F)cc(S(=O)(=O)[O-])cc5F)c5ccc2[nH]5)C=C4)C=C3)cc1)C1=Cc2cc(S(F)(F)(F)(F)F)cc(Br)c2O[C@H]1C(F)(F)F
REMARK SMILES IDX 7 1 6 2 5 3 4 4 3 5 1 6 2 7 79 9 80 10 95 11 81 12 94 13
REMARK SMILES IDX 82 14 93 15 83 16 91 17 90 18 92 19 96 20 97 21 98 22 99 23
REMARK SMILES IDX 84 24 85 25 86 26 87 27 88 28 89 29 8 30 9 31 10 32 11 33
REMARK SMILES IDX 12 35 13 36 14 37 78 38 15 39 77 40 16 41 17 42 18 43 71 44
REMARK SMILES IDX 19 45 76 46 70 47 72 48 20 49 75 50 69 51 68 52 21 54 55 55
REMARK SMILES IDX 34 56 54 57 35 58 38 59 53 60 73 61 36 62 37 63 52 65 74 66
REMARK SMILES IDX 39 67 22 68 23 69 32 70 24 71 25 72 31 73 33 74 26 75 27 76
REMARK SMILES IDX 28 77 29 78 30 79 56 80 57 81 66 82 58 83 59 84 65 85 67 86
REMARK SMILES IDX 60 87 61 88 62 89 63 90 64 91 40 92 41 93 50 94 42 95 43 96
REMARK SMILES IDX 49 97 51 98 44 99 45 100 46 101 47 102 48 103
REMARK H PARENT 3 8 10 34 72 53 38 64
REMARK Flexibility Score: inf
ROOT
ATOM      1  C   UNL A   1      33.462  28.080  26.914  1.00  0.00     0.002 C 
ENDROOT
BRANCH   1   2
ATOM      2  C   UNL A   1      32.011  28.444  27.183  1.00  0.00     0.002 C 
BRANCH   2   3
ATOM      3  C   UNL A   1      31.144  27.202  27.048  1.00  0.00     0.021 C 
BRANCH   3   4
ATOM      4  C   UNL A   1      31.876  26.160  26.220  1.00  0.00     0.116 C 
BRANCH   4   5
ATOM      5  N   UNL A   1      30.969  25.625  25.194  1.00  0.00    -0.352 N 
ATOM      6  O   UNL A   1      30.416  25.470  22.889  1.00  0.00    -0.270 OA
ATOM      7  C   UNL A   1      31.200  25.933  23.775  1.00  0.00     0.251 C 
ATOM      8  H   UNL A   1      30.207  25.060  25.458  1.00  0.00     0.163 HD
BRANCH   7   9
ATOM      9  C   UNL A   1      32.377  26.805  23.368  1.00  0.00     0.067 C 
ATOM     10  C   UNL A   1      33.636  26.290  23.366  1.00  0.00     0.025 C 
ATOM     11  C   UNL A   1      32.148  28.252  22.966  1.00  0.00     0.314 C 
ATOM     12  C   UNL A   1      33.866  24.842  23.770  1.00  0.00     0.020 A 
ATOM     13  O   UNL A   1      31.913  24.331  22.514  1.00  0.00    -0.474 OA
ATOM     14  C   UNL A   1      34.887  24.494  24.639  1.00  0.00     0.036 A 
ATOM     15  C   UNL A   1      33.044  23.925  23.271  1.00  0.00     0.142 A 
ATOM     16  C   UNL A   1      35.142  23.104  24.697  1.00  0.00     0.109 A 
ATOM     17  C   UNL A   1      33.277  22.588  23.482  1.00  0.00     0.062 A 
ATOM     18  C   UNL A   1      34.305  22.171  24.282  1.00  0.00     0.044 A 
ATOM     19  Br  UNL A   1      32.122  21.258  22.623  1.00  0.00    -0.047 Br
BRANCH  11  20
ATOM     20  C   UNL A   1      30.664  28.573  23.054  1.00  0.00     0.429 C 
ATOM     21  F   UNL A   1      30.585  29.846  22.679  1.00  0.00    -0.167 F 
ATOM     22  F   UNL A   1      29.900  27.829  22.260  1.00  0.00    -0.167 F 
ATOM     23  F   UNL A   1      30.246  28.454  24.311  1.00  0.00    -0.167 F 
ENDBRANCH  11  20
BRANCH  16  24
ATOM     24  S   UNL A   1      36.725  22.567  25.390  1.00  0.00     0.310 S 
ATOM     25  F   UNL A   1      36.659  23.652  26.546  1.00  0.00    -0.094 F 
ATOM     26  F   UNL A   1      37.449  23.653  24.507  1.00  0.00    -0.094 F 
ATOM     27  F   UNL A   1      38.086  22.106  25.985  1.00  0.00    -0.094 F 
ATOM     28  F   UNL A   1      35.973  21.584  26.370  1.00  0.00    -0.094 F 
ATOM     29  F   UNL A   1      35.330  23.103  24.878  1.00  0.00    -0.094 F 
ENDBRANCH  16  24
ENDBRANCH   7   9
ENDBRANCH   4   5
ENDBRANCH   3   4
ENDBRANCH   2   3
ENDBRANCH   1   2
BRANCH   1  30
ATOM     30  C   UNL A   1      34.260  29.347  26.647  1.00  0.00     0.021 C 
BRANCH  30  31
ATOM     31  C   UNL A   1      35.522  29.338  27.493  1.00  0.00     0.116 C 
BRANCH  31  32
ATOM     32  N   UNL A   1      35.244  29.964  28.794  1.00  0.00    -0.352 N 
ATOM     33  C   UNL A   1      36.342  30.214  29.739  1.00  0.00     0.251 C 
ATOM     34  H   UNL A   1      34.323  30.216  29.032  1.00  0.00     0.163 HD
ATOM     35  O   UNL A   1      36.103  30.756  30.863  1.00  0.00    -0.269 OA
BRANCH  33  36
ATOM     36  C   UNL A   1      37.765  29.825  29.371  1.00  0.00     0.039 A 
ATOM     37  C   UNL A   1      38.647  29.446  30.370  1.00  0.00     0.014 A 
ATOM     38  C   UNL A   1      38.139  29.854  28.097  1.00  0.00     0.014 A 
ATOM     39  C   UNL A   1      39.998  29.393  29.953  1.00  0.00     0.010 A 
ATOM     40  C   UNL A   1      39.454  29.659  27.749  1.00  0.00     0.010 A 
ATOM     41  C   UNL A   1      40.391  29.339  28.693  1.00  0.00    -0.014 A 
BRANCH  41  42
ATOM     42  C   UNL A   1      41.808  28.944  28.312  1.00  0.00     0.031 A 
ATOM     43  C   UNL A   1      42.058  27.604  28.015  1.00  0.00     0.074 A 
ATOM     44  C   UNL A   1      42.772  29.937  28.279  1.00  0.00     0.049 A 
ATOM     45  N   UNL A   1      43.213  27.057  27.629  1.00  0.00    -0.248 NA
ATOM     46  C   UNL A   1      41.043  26.541  28.082  1.00  0.00     0.031 C 
ATOM     47  C   UNL A   1      42.526  31.294  28.568  1.00  0.00     0.029 A 
ATOM     48  N   UNL A   1      44.108  29.807  27.972  1.00  0.00    -0.354 N 
ATOM     49  C   UNL A   1      43.056  25.748  27.419  1.00  0.00     0.074 A 
ATOM     50  C   UNL A   1      41.660  25.396  27.715  1.00  0.00     0.031 C 
ATOM     51  C   UNL A   1      43.698  31.970  28.448  1.00  0.00     0.029 A 
ATOM     52  C   UNL A   1      44.697  31.048  28.081  1.00  0.00     0.049 A 
ATOM     53  H   UNL A   1      44.565  28.973  27.718  1.00  0.00     0.167 HD
ATOM     54  C   UNL A   1      44.021  24.835  26.993  1.00  0.00     0.037 A 
ATOM     55  C   UNL A   1      46.028  31.376  27.880  1.00  0.00     0.037 A 
ATOM     56  C   UNL A   1      45.343  25.172  26.750  1.00  0.00     0.049 A 
ATOM     57  C   UNL A   1      47.007  30.452  27.510  1.00  0.00     0.074 A 
ATOM     58  C   UNL A   1      46.327  24.265  26.311  1.00  0.00     0.029 A 
ATOM     59  N   UNL A   1      45.936  26.407  26.883  1.00  0.00    -0.354 N 
ATOM     60  N   UNL A   1      46.842  29.151  27.262  1.00  0.00    -0.248 NA
ATOM     61  C   UNL A   1      48.426  30.782  27.325  1.00  0.00     0.031 C 
ATOM     62  C   UNL A   1      47.501  24.942  26.192  1.00  0.00     0.029 A 
ATOM     63  C   UNL A   1      47.269  26.282  26.554  1.00  0.00     0.049 A 
ATOM     64  H   UNL A   1      45.488  27.236  27.166  1.00  0.00     0.167 HD
ATOM     65  C   UNL A   1      48.006  28.597  26.916  1.00  0.00     0.074 A 
ATOM     66  C   UNL A   1      49.044  29.637  26.958  1.00  0.00     0.031 C 
ATOM     67  C   UNL A   1      48.244  27.268  26.563  1.00  0.00     0.037 A 
BRANCH  54  68
ATOM     68  C   UNL A   1      43.599  23.390  26.784  1.00  0.00     0.058 A 
ATOM     69  C   UNL A   1      43.351  22.937  25.499  1.00  0.00     0.135 A 
ATOM     70  C   UNL A   1      43.496  22.579  27.832  1.00  0.00     0.135 A 
ATOM     71  F   UNL A   1      43.681  23.627  24.411  1.00  0.00    -0.206 F 
ATOM     72  C   UNL A   1      42.714  21.674  25.449  1.00  0.00     0.059 A 
ATOM     73  C   UNL A   1      42.992  21.310  27.687  1.00  0.00     0.059 A 
ATOM     74  F   UNL A   1      43.885  23.002  29.032  1.00  0.00    -0.206 F 
ATOM     75  C   UNL A   1      42.670  20.817  26.453  1.00  0.00     0.060 A 
BRANCH  75  76
ATOM     76  S   UNL A   1      42.207  19.085  26.208  1.00  0.00     0.124 S 
ATOM     77  O   UNL A   1      42.372  18.322  27.524  1.00  0.00    -0.237 OA
ATOM     78  O   UNL A   1      40.749  19.005  25.751  1.00  0.00    -0.237 OA
ATOM     79  O   UNL A   1      43.216  18.389  25.015  1.00  0.00    -0.744 OA
ENDBRANCH  75  76
ENDBRANCH  54  68
BRANCH  55  80
ATOM     80  C   UNL A   1      46.447  32.825  28.072  1.00  0.00     0.058 A 
ATOM     81  C   UNL A   1      46.384  33.702  27.002  1.00  0.00     0.135 A 
ATOM     82  C   UNL A   1      46.892  33.219  29.260  1.00  0.00     0.135 A 
ATOM     83  F   UNL A   1      45.720  33.431  25.882  1.00  0.00    -0.206 F 
ATOM     84  C   UNL A   1      47.092  34.910  27.208  1.00  0.00     0.059 A 
ATOM     85  C   UNL A   1      47.448  34.465  29.421  1.00  0.00     0.059 A 
ATOM     86  F   UNL A   1      46.799  32.400  30.303  1.00  0.00    -0.206 F 
ATOM     87  C   UNL A   1      47.473  35.362  28.388  1.00  0.00     0.060 A 
BRANCH  87  88
ATOM     88  S   UNL A   1      48.002  37.076  28.627  1.00  0.00     0.124 S 
ATOM     89  O   UNL A   1      47.691  37.511  30.061  1.00  0.00    -0.237 OA
ATOM     90  O   UNL A   1      49.508  37.185  28.377  1.00  0.00    -0.237 OA
ATOM     91  O   UNL A   1      47.167  38.089  27.531  1.00  0.00    -0.744 OA
ENDBRANCH  87  88
ENDBRANCH  55  80
BRANCH  67  92
ATOM     92  C   UNL A   1      49.658  26.876  26.165  1.00  0.00     0.058 A 
ATOM     93  C   UNL A   1      50.076  27.074  24.859  1.00  0.00     0.135 A 
ATOM     94  C   UNL A   1      50.467  26.350  27.075  1.00  0.00     0.135 A 
ATOM     95  F   UNL A   1      49.402  27.819  23.987  1.00  0.00    -0.206 F 
ATOM     96  C   UNL A   1      51.285  26.413  24.538  1.00  0.00     0.059 A 
ATOM     97  C   UNL A   1      51.693  25.845  26.714  1.00  0.00     0.059 A 
ATOM     98  F   UNL A   1      50.089  26.311  28.350  1.00  0.00    -0.206 F 
ATOM     99  C   UNL A   1      52.145  25.953  25.428  1.00  0.00     0.060 A 
BRANCH  99 100
ATOM    100  S   UNL A   1      53.835  25.492  24.971  1.00  0.00     0.124 S 
ATOM    101  O   UNL A   1      53.983  23.969  25.038  1.00  0.00    -0.237 OA
ATOM    102  O   UNL A   1      54.128  25.969  23.547  1.00  0.00    -0.237 OA
ATOM    103  O   UNL A   1      54.939  26.219  26.055  1.00  0.00    -0.744 OA
ENDBRANCH  99 100
ENDBRANCH  67  92
ENDBRANCH  41  42
ENDBRANCH  33  36
ENDBRANCH  31  32
ENDBRANCH  30  31
ENDBRANCH   1  30
TORSDOF 18
ENDMDL
MODEL 2
REMARK VINA RESULT:     -12.3      0.268      7.893
REMARK SMILES O=C(NCCCCCCNC(=O)c1ccc(-c2c3nc(c(-c4c(F)cc(S(=O)(=O)[O-])cc4F)c4ccc([nH]4)c(-c4c(F)cc(S(=O)(=O)[O-])cc4F)c4nc(c(-c5c(F)cc(S(=O)(=O)[O-])cc5F)c5ccc2[nH]5)C=C4)C=C3)cc1)C1=Cc2cc(S(F)(F)(F)(F)F)cc(Br)c2O[C@H]1C(F)(F)F
REMARK SMILES IDX 7 1 6 2 5 3 4 4 3 5 1 6 2 7 79 9 80 10 95 11 81 12 94 13
REMARK SMILES IDX 82 14 93 15 83 16 91 17 90 18 92 19 96 20 97 21 98 22 99 23
REMARK SMILES IDX 84 24 85 25 86 26 87 27 88 28 89 29 8 30 9 31 10 32 11 33
REMARK SMILES IDX 12 35 13 36 14 37 78 38 15 39 77 40 16 41 17 42 18 43 71 44
REMARK SMILES IDX 19 45 76 46 70 47 72 48 20 49 75 50 69 51 68 52 21 54 55 55
REMARK SMILES IDX 34 56 54 57 35 58 38 59 53 60 73 61 36 62 37 63 52 65 74 66
REMARK SMILES IDX 39 67 22 68 23 69 32 70 24 71 25 72 31 73 33 74 26 75 27 76
REMARK SMILES IDX 28 77 29 78 30 79 56 80 57 81 66 82 58 83 59 84 65 85 67 86
REMARK SMILES IDX 60 87 61 88 62 89 63 90 64 91 40 92 41 93 50 94 42 95 43 96
REMARK SMILES IDX 49 97 51 98 44 99 45 100 46 101 47 102 48 103
REMARK H PARENT 3 8 10 34 72 53 38 64
REMARK Flexibility Score: inf
ROOT
ATOM      1  C   UNL A   1      33.456  28.094  26.878  1.00  0.00     0.002 C 
ENDROOT
BRANCH   1   2
ATOM      2  C   UNL A   1      32.024  28.489  27.199  1.00  0.00     0.002 C 
BRANCH   2   3
ATOM      3  C   UNL A   1      31.108  27.296  26.975  1.00  0.00     0.021 C 
BRANCH   3   4
ATOM      4  C   UNL A   1      31.847  26.230  26.184  1.00  0.00     0.116 C 
BRANCH   4   5
ATOM      5  N   UNL A   1      30.968  25.706  25.129  1.00  0.00    -0.352 N 
ATOM      6  O   UNL A   1      30.478  25.575  22.808  1.00  0.00    -0.270 OA
ATOM      7  C   UNL A   1      31.238  26.028  23.720  1.00  0.00     0.251 C 
ATOM      8  H   UNL A   1      30.199  25.139  25.366  1.00  0.00     0.163 HD
BRANCH   7   9
ATOM      9  C   UNL A   1      32.426  26.904  23.355  1.00  0.00     0.067 C 
ATOM     10  C   UNL A   1      33.682  26.381  23.359  1.00  0.00     0.025 C 
ATOM     11  C   UNL A   1      32.211  28.362  22.986  1.00  0.00     0.314 C 
ATOM     12  C   UNL A   1      33.897  24.923  23.729  1.00  0.00     0.020 A 
ATOM     13  O   UNL A   1      31.963  24.456  22.430  1.00  0.00    -0.474 OA
ATOM     14  C   UNL A   1      34.903  24.547  24.605  1.00  0.00     0.036 A 
ATOM     15  C   UNL A   1      33.079  24.024  23.194  1.00  0.00     0.142 A 
ATOM     16  C   UNL A   1      35.150  23.154  24.632  1.00  0.00     0.109 A 
ATOM     17  C   UNL A   1      33.302  22.680  23.374  1.00  0.00     0.062 A 
ATOM     18  C   UNL A   1      34.314  22.237  24.180  1.00  0.00     0.044 A 
ATOM     19  Br  UNL A   1      32.153  21.380  22.463  1.00  0.00    -0.047 Br
BRANCH  11  20
ATOM     20  C   UNL A   1      30.728  28.689  23.059  1.00  0.00     0.429 C 
ATOM     21  F   UNL A   1      30.637  29.903  22.523  1.00  0.00    -0.167 F 
ATOM     22  F   UNL A   1      29.952  27.847  22.383  1.00  0.00    -0.167 F 
ATOM     23  F   UNL A   1      30.333  28.734  24.327  1.00  0.00    -0.167 F 
ENDBRANCH  11  20
BRANCH  16  24
ATOM     24  S   UNL A   1      36.719  22.591  25.336  1.00  0.00     0.310 S 
ATOM     25  F   UNL A   1      37.194  24.077  25.625  1.00  0.00    -0.094 F 
ATOM     26  F   UNL A   1      37.376  22.731  23.911  1.00  0.00    -0.094 F 
ATOM     27  F   UNL A   1      38.067  22.106  25.941  1.00  0.00    -0.094 F 
ATOM     28  F   UNL A   1      36.080  22.592  26.781  1.00  0.00    -0.094 F 
ATOM     29  F   UNL A   1      35.375  23.189  24.757  1.00  0.00    -0.094 F 
ENDBRANCH  16  24
ENDBRANCH   7   9
ENDBRANCH   4   5
ENDBRANCH   3   4
ENDBRANCH   2   3
ENDBRANCH   1   2
BRANCH   1  30
ATOM     30  C   UNL A   1      34.284  29.347  26.635  1.00  0.00     0.021 C 
BRANCH  30  31
ATOM     31  C   UNL A   1      35.532  29.305  27.500  1.00  0.00     0.116 C 
BRANCH  31  32
ATOM     32  N   UNL A   1      35.264  29.980  28.779  1.00  0.00    -0.352 N 
ATOM     33  C   UNL A   1      36.377  30.330  29.673  1.00  0.00     0.251 C 
ATOM     34  H   UNL A   1      34.339  30.197  29.037  1.00  0.00     0.163 HD
ATOM     35  O   UNL A   1      36.146  30.913  30.778  1.00  0.00    -0.269 OA
BRANCH  33  36
ATOM     36  C   UNL A   1      37.806  29.994  29.275  1.00  0.00     0.039 A 
ATOM     37  C   UNL A   1      38.161  30.007  27.936  1.00  0.00     0.014 A 
ATOM     38  C   UNL A   1      38.691  29.696  30.219  1.00  0.00     0.014 A 
ATOM     39  C   UNL A   1      39.411  29.401  27.668  1.00  0.00     0.010 A 
ATOM     40  C   UNL A   1      39.943  29.239  29.885  1.00  0.00     0.010 A 
ATOM     41  C   UNL A   1      40.340  29.169  28.578  1.00  0.00    -0.014 A 
BRANCH  41  42
ATOM     42  C   UNL A   1      41.773  28.840  28.194  1.00  0.00     0.031 A 
ATOM     43  C   UNL A   1      42.703  29.880  28.173  1.00  0.00     0.074 A 
ATOM     44  C   UNL A   1      42.077  27.524  27.886  1.00  0.00     0.049 A 
ATOM     45  N   UNL A   1      44.006  29.803  27.899  1.00  0.00    -0.248 NA
ATOM     46  C   UNL A   1      42.375  31.284  28.466  1.00  0.00     0.031 C 
ATOM     47  C   UNL A   1      41.147  26.467  27.913  1.00  0.00     0.029 A 
ATOM     48  N   UNL A   1      43.295  27.005  27.508  1.00  0.00    -0.354 N 
ATOM     49  C   UNL A   1      44.571  31.007  27.999  1.00  0.00     0.074 A 
ATOM     50  C   UNL A   1      43.529  31.979  28.358  1.00  0.00     0.031 C 
ATOM     51  C   UNL A   1      41.792  25.329  27.545  1.00  0.00     0.029 A 
ATOM     52  C   UNL A   1      43.136  25.655  27.282  1.00  0.00     0.049 A 
ATOM     53  H   UNL A   1      44.135  27.510  27.413  1.00  0.00     0.167 HD
ATOM     54  C   UNL A   1      45.914  31.334  27.805  1.00  0.00     0.037 A 
ATOM     55  C   UNL A   1      44.095  24.745  26.869  1.00  0.00     0.037 A 
ATOM     56  C   UNL A   1      46.883  30.415  27.433  1.00  0.00     0.049 A 
ATOM     57  C   UNL A   1      45.427  25.083  26.618  1.00  0.00     0.074 A 
ATOM     58  C   UNL A   1      48.243  30.727  27.242  1.00  0.00     0.029 A 
ATOM     59  N   UNL A   1      46.718  29.072  27.185  1.00  0.00    -0.354 N 
ATOM     60  N   UNL A   1      46.000  26.280  26.756  1.00  0.00    -0.248 NA
ATOM     61  C   UNL A   1      46.445  24.133  26.149  1.00  0.00     0.031 C 
ATOM     62  C   UNL A   1      48.887  29.588  26.874  1.00  0.00     0.029 A 
ATOM     63  C   UNL A   1      47.941  28.547  26.828  1.00  0.00     0.049 A 
ATOM     64  H   UNL A   1      45.873  28.571  27.250  1.00  0.00     0.167 HD
ATOM     65  C   UNL A   1      47.295  26.209  26.442  1.00  0.00     0.074 A 
ATOM     66  C   UNL A   1      47.599  24.828  26.040  1.00  0.00     0.031 C 
ATOM     67  C   UNL A   1      48.237  27.238  26.478  1.00  0.00     0.037 A 
BRANCH  54  68
ATOM     68  C   UNL A   1      46.338  32.779  28.013  1.00  0.00     0.058 A 
ATOM     69  C   UNL A   1      46.277  33.663  26.948  1.00  0.00     0.135 A 
ATOM     70  C   UNL A   1      46.737  33.178  29.216  1.00  0.00     0.135 A 
ATOM     71  F   UNL A   1      45.653  33.381  25.808  1.00  0.00    -0.206 F 
ATOM     72  C   UNL A   1      46.939  34.891  27.183  1.00  0.00     0.059 A 
ATOM     73  C   UNL A   1      47.248  34.439  29.401  1.00  0.00     0.059 A 
ATOM     74  F   UNL A   1      46.642  32.347  30.250  1.00  0.00    -0.206 F 
ATOM     75  C   UNL A   1      47.274  35.345  28.377  1.00  0.00     0.060 A 
BRANCH  75  76
ATOM     76  S   UNL A   1      47.741  37.073  28.643  1.00  0.00     0.124 S 
ATOM     77  O   UNL A   1      49.128  37.323  28.049  1.00  0.00    -0.237 OA
ATOM     78  O   UNL A   1      46.721  37.988  27.962  1.00  0.00    -0.237 OA
ATOM     79  O   UNL A   1      47.770  37.403  30.321  1.00  0.00    -0.744 OA
ENDBRANCH  75  76
ENDBRANCH  54  68
BRANCH  55  80
ATOM     80  C   UNL A   1      43.675  23.297  26.677  1.00  0.00     0.058 A 
ATOM     81  C   UNL A   1      43.411  22.826  25.401  1.00  0.00     0.135 A 
ATOM     82  C   UNL A   1      43.541  22.514  27.742  1.00  0.00     0.135 A 
ATOM     83  F   UNL A   1      43.767  23.480  24.299  1.00  0.00    -0.206 F 
ATOM     84  C   UNL A   1      42.727  21.588  25.377  1.00  0.00     0.059 A 
ATOM     85  C   UNL A   1      42.990  21.261  27.623  1.00  0.00     0.059 A 
ATOM     86  F   UNL A   1      43.945  22.946  28.932  1.00  0.00    -0.206 F 
ATOM     87  C   UNL A   1      42.650  20.755  26.399  1.00  0.00     0.060 A 
BRANCH  87  88
ATOM     88  S   UNL A   1      42.123  19.036  26.191  1.00  0.00     0.124 S 
ATOM     89  O   UNL A   1      42.275  18.291  27.520  1.00  0.00    -0.237 OA
ATOM     90  O   UNL A   1      40.657  19.001  25.751  1.00  0.00    -0.237 OA
ATOM     91  O   UNL A   1      43.092  18.282  25.001  1.00  0.00    -0.744 OA
ENDBRANCH  87  88
ENDBRANCH  55  80
BRANCH  67  92
ATOM     92  C   UNL A   1      49.674  26.906  26.110  1.00  0.00     0.058 A 
ATOM     93  C   UNL A   1      50.075  26.993  24.787  1.00  0.00     0.135 A 
ATOM     94  C   UNL A   1      50.519  26.536  27.063  1.00  0.00     0.135 A 
ATOM     95  F   UNL A   1      49.349  27.593  23.847  1.00  0.00    -0.206 F 
ATOM     96  C   UNL A   1      51.327  26.387  24.526  1.00  0.00     0.059 A 
ATOM     97  C   UNL A   1      51.777  26.082  26.746  1.00  0.00     0.059 A 
ATOM     98  F   UNL A   1      50.148  26.606  28.338  1.00  0.00    -0.206 F 
ATOM     99  C   UNL A   1      52.219  26.084  25.452  1.00  0.00     0.060 A 
BRANCH  99 100
ATOM    100  S   UNL A   1      53.935  25.695  25.030  1.00  0.00     0.124 S 
ATOM    101  O   UNL A   1      54.869  26.309  26.076  1.00  0.00    -0.237 OA
ATOM    102  O   UNL A   1      54.124  24.176  25.009  1.00  0.00    -0.237 OA
ATOM    103  O   UNL A   1      54.305  26.338  23.490  1.00  0.00    -0.744 OA
ENDBRANCH  99 100
ENDBRANCH  67  92
ENDBRANCH  41  42
ENDBRANCH  33  36
ENDBRANCH  31  32
ENDBRANCH  30  31
ENDBRANCH   1  30
TORSDOF 18
ENDMDL
MODEL 3
REMARK VINA RESULT:     -12.2      2.545      8.168
REMARK SMILES O=C(NCCCCCCNC(=O)c1ccc(-c2c3nc(c(-c4c(F)cc(S(=O)(=O)[O-])cc4F)c4ccc([nH]4)c(-c4c(F)cc(S(=O)(=O)[O-])cc4F)c4nc(c(-c5c(F)cc(S(=O)(=O)[O-])cc5F)c5ccc2[nH]5)C=C4)C=C3)cc1)C1=Cc2cc(S(F)(F)(F)(F)F)cc(Br)c2O[C@H]1C(F)(F)F
REMARK SMILES IDX 7 1 6 2 5 3 4 4 3 5 1 6 2 7 79 9 80 10 95 11 81 12 94 13
REMARK SMILES IDX 82 14 93 15 83 16 91 17 90 18 92 19 96 20 97 21 98 22 99 23
REMARK SMILES IDX 84 24 85 25 86 26 87 27 88 28 89 29 8 30 9 31 10 32 11 33
REMARK SMILES IDX 12 35 13 36 14 37 78 38 15 39 77 40 16 41 17 42 18 43 71 44
REMARK SMILES IDX 19 45 76 46 70 47 72 48 20 49 75 50 69 51 68 52 21 54 55 55
REMARK SMILES IDX 34 56 54 57 35 58 38 59 53 60 73 61 36 62 37 63 52 65 74 66
REMARK SMILES IDX 39 67 22 68 23 69 32 70 24 71 25 72 31 73 33 74 26 75 27 76
REMARK SMILES IDX 28 77 29 78 30 79 56 80 57 81 66 82 58 83 59 84 65 85 67 86
REMARK SMILES IDX 60 87 61 88 62 89 63 90 64 91 40 92 41 93 50 94 42 95 43 96
REMARK SMILES IDX 49 97 51 98 44 99 45 100 46 101 47 102 48 103
REMARK H PARENT 3 8 10 34 72 53 38 64
REMARK Flexibility Score: inf
ROOT
ATOM      1  C   UNL A   1      37.269  21.793  24.552  1.00  0.00     0.002 C 
ENDROOT
BRANCH   1   2
ATOM      2  C   UNL A   1      36.117  22.149  25.477  1.00  0.00     0.002 C 
BRANCH   2   3
ATOM      3  C   UNL A   1      36.173  23.631  25.810  1.00  0.00     0.021 C 
BRANCH   3   4
ATOM      4  C   UNL A   1      35.437  24.420  24.739  1.00  0.00     0.116 C 
BRANCH   4   5
ATOM      5  N   UNL A   1      34.323  25.156  25.354  1.00  0.00    -0.352 N 
ATOM      6  O   UNL A   1      32.240  26.259  25.054  1.00  0.00    -0.270 OA
ATOM      7  C   UNL A   1      33.203  25.622  24.523  1.00  0.00     0.251 C 
ATOM      8  H   UNL A   1      34.327  25.337  26.321  1.00  0.00     0.163 HD
BRANCH   7   9
ATOM      9  C   UNL A   1      33.197  25.343  23.028  1.00  0.00     0.067 C 
ATOM     10  C   UNL A   1      32.955  24.084  22.573  1.00  0.00     0.025 C 
ATOM     11  C   UNL A   1      33.463  26.469  22.044  1.00  0.00     0.314 C 
ATOM     12  C   UNL A   1      32.689  22.958  23.559  1.00  0.00     0.020 A 
ATOM     13  O   UNL A   1      31.364  24.518  24.766  1.00  0.00    -0.474 OA
ATOM     14  C   UNL A   1      33.308  21.726  23.422  1.00  0.00     0.036 A 
ATOM     15  C   UNL A   1      31.855  23.201  24.563  1.00  0.00     0.142 A 
ATOM     16  C   UNL A   1      32.756  20.712  24.240  1.00  0.00     0.109 A 
ATOM     17  C   UNL A   1      31.463  22.190  25.408  1.00  0.00     0.062 A 
ATOM     18  C   UNL A   1      31.990  20.934  25.292  1.00  0.00     0.044 A 
ATOM     19  Br  UNL A   1      30.130  22.555  26.797  1.00  0.00    -0.047 Br
BRANCH  11  20
ATOM     20  C   UNL A   1      33.703  27.763  22.806  1.00  0.00     0.429 C 
ATOM     21  F   UNL A   1      32.481  28.198  23.098  1.00  0.00    -0.167 F 
ATOM     22  F   UNL A   1      34.399  27.610  23.928  1.00  0.00    -0.167 F 
ATOM     23  F   UNL A   1      34.313  28.647  22.022  1.00  0.00    -0.167 F 
ENDBRANCH  11  20
BRANCH  16  24
ATOM     24  S   UNL A   1      33.127  18.992  23.815  1.00  0.00     0.310 S 
ATOM     25  F   UNL A   1      32.219  18.440  24.993  1.00  0.00    -0.094 F 
ATOM     26  F   UNL A   1      34.321  19.025  24.843  1.00  0.00    -0.094 F 
ATOM     27  F   UNL A   1      33.446  17.514  23.450  1.00  0.00    -0.094 F 
ATOM     28  F   UNL A   1      31.843  18.934  22.896  1.00  0.00    -0.094 F 
ATOM     29  F   UNL A   1      32.725  20.455  24.260  1.00  0.00    -0.094 F 
ENDBRANCH  16  24
ENDBRANCH   7   9
ENDBRANCH   4   5
ENDBRANCH   3   4
ENDBRANCH   2   3
ENDBRANCH   1   2
BRANCH   1  30
ATOM     30  C   UNL A   1      37.793  20.410  24.905  1.00  0.00     0.021 C 
BRANCH  30  31
ATOM     31  C   UNL A   1      38.891  20.535  25.948  1.00  0.00     0.116 C 
BRANCH  31  32
ATOM     32  N   UNL A   1      39.778  19.365  25.869  1.00  0.00    -0.352 N 
ATOM     33  C   UNL A   1      41.223  19.522  26.083  1.00  0.00     0.251 C 
ATOM     34  H   UNL A   1      39.403  18.476  25.674  1.00  0.00     0.163 HD
ATOM     35  O   UNL A   1      41.990  18.511  26.016  1.00  0.00    -0.269 OA
BRANCH  33  36
ATOM     36  C   UNL A   1      41.803  20.895  26.385  1.00  0.00     0.039 A 
ATOM     37  C   UNL A   1      42.082  21.760  25.340  1.00  0.00     0.014 A 
ATOM     38  C   UNL A   1      42.029  21.243  27.646  1.00  0.00     0.014 A 
ATOM     39  C   UNL A   1      42.877  22.870  25.711  1.00  0.00     0.010 A 
ATOM     40  C   UNL A   1      42.692  22.409  27.942  1.00  0.00     0.010 A 
ATOM     41  C   UNL A   1      43.051  23.284  26.953  1.00  0.00    -0.014 A 
BRANCH  41  42
ATOM     42  C   UNL A   1      43.622  24.657  27.268  1.00  0.00     0.031 A 
ATOM     43  C   UNL A   1      42.742  25.650  27.700  1.00  0.00     0.074 A 
ATOM     44  C   UNL A   1      44.985  24.845  27.110  1.00  0.00     0.049 A 
ATOM     45  N   UNL A   1      43.038  26.901  28.057  1.00  0.00    -0.248 NA
ATOM     46  C   UNL A   1      41.290  25.462  27.836  1.00  0.00     0.031 C 
ATOM     47  C   UNL A   1      45.881  23.846  26.683  1.00  0.00     0.029 A 
ATOM     48  N   UNL A   1      45.708  25.996  27.327  1.00  0.00    -0.354 N 
ATOM     49  C   UNL A   1      41.932  27.548  28.430  1.00  0.00     0.074 A 
ATOM     50  C   UNL A   1      40.790  26.634  28.287  1.00  0.00     0.031 C 
ATOM     51  C   UNL A   1      47.125  24.390  26.633  1.00  0.00     0.029 A 
ATOM     52  C   UNL A   1      47.028  25.738  27.027  1.00  0.00     0.049 A 
ATOM     53  H   UNL A   1      45.347  26.857  27.641  1.00  0.00     0.167 HD
ATOM     54  C   UNL A   1      41.830  28.863  28.885  1.00  0.00     0.037 A 
ATOM     55  C   UNL A   1      48.099  26.614  27.086  1.00  0.00     0.037 A 
ATOM     56  C   UNL A   1      42.909  29.728  28.985  1.00  0.00     0.049 A 
ATOM     57  C   UNL A   1      47.989  27.948  27.485  1.00  0.00     0.074 A 
ATOM     58  C   UNL A   1      42.825  31.054  29.450  1.00  0.00     0.029 A 
ATOM     59  N   UNL A   1      44.223  29.475  28.662  1.00  0.00    -0.354 N 
ATOM     60  N   UNL A   1      46.890  28.583  27.896  1.00  0.00    -0.248 NA
ATOM     61  C   UNL A   1      49.112  28.894  27.521  1.00  0.00     0.031 C 
ATOM     62  C   UNL A   1      44.071  31.598  29.398  1.00  0.00     0.029 A 
ATOM     63  C   UNL A   1      44.952  30.620  28.900  1.00  0.00     0.049 A 
ATOM     64  H   UNL A   1      44.582  28.625  28.320  1.00  0.00     0.167 HD
ATOM     65  C   UNL A   1      47.180  29.847  28.214  1.00  0.00     0.074 A 
ATOM     66  C   UNL A   1      48.613  30.067  27.971  1.00  0.00     0.031 C 
ATOM     67  C   UNL A   1      46.309  30.822  28.701  1.00  0.00     0.037 A 
BRANCH  54  68
ATOM     68  C   UNL A   1      40.459  29.377  29.294  1.00  0.00     0.058 A 
ATOM     69  C   UNL A   1      39.567  29.779  28.313  1.00  0.00     0.135 A 
ATOM     70  C   UNL A   1      40.129  29.411  30.580  1.00  0.00     0.135 A 
ATOM     71  F   UNL A   1      39.751  29.530  27.020  1.00  0.00    -0.206 F 
ATOM     72  C   UNL A   1      38.444  30.480  28.812  1.00  0.00     0.059 A 
ATOM     73  C   UNL A   1      38.952  29.990  30.985  1.00  0.00     0.059 A 
ATOM     74  F   UNL A   1      40.947  28.879  31.484  1.00  0.00    -0.206 F 
ATOM     75  C   UNL A   1      38.050  30.463  30.072  1.00  0.00     0.060 A 
BRANCH  75  76
ATOM     76  S   UNL A   1      36.405  31.034  30.564  1.00  0.00     0.124 S 
ATOM     77  O   UNL A   1      35.964  30.293  31.828  1.00  0.00    -0.237 OA
ATOM     78  O   UNL A   1      36.449  32.538  30.844  1.00  0.00    -0.237 OA
ATOM     79  O   UNL A   1      35.293  30.722  29.303  1.00  0.00    -0.744 OA
ENDBRANCH  75  76
ENDBRANCH  54  68
BRANCH  55  80
ATOM     80  C   UNL A   1      49.473  26.095  26.693  1.00  0.00     0.058 A 
ATOM     81  C   UNL A   1      50.308  25.569  27.665  1.00  0.00     0.135 A 
ATOM     82  C   UNL A   1      49.861  26.180  25.425  1.00  0.00     0.135 A 
ATOM     83  F   UNL A   1      49.883  25.232  28.880  1.00  0.00    -0.206 F 
ATOM     84  C   UNL A   1      51.653  25.424  27.250  1.00  0.00     0.059 A 
ATOM     85  C   UNL A   1      51.156  25.892  25.069  1.00  0.00     0.059 A 
ATOM     86  F   UNL A   1      48.987  26.548  24.493  1.00  0.00    -0.206 F 
ATOM     87  C   UNL A   1      52.051  25.425  25.991  1.00  0.00     0.060 A 
BRANCH  87  88
ATOM     88  S   UNL A   1      53.694  24.837  25.511  1.00  0.00     0.124 S 
ATOM     89  O   UNL A   1      53.600  23.382  25.045  1.00  0.00    -0.237 OA
ATOM     90  O   UNL A   1      54.234  25.704  24.370  1.00  0.00    -0.237 OA
ATOM     91  O   UNL A   1      54.751  24.938  26.852  1.00  0.00    -0.744 OA
ENDBRANCH  87  88
ENDBRANCH  55  80
BRANCH  67  92
ATOM     92  C   UNL A   1      46.883  32.190  29.032  1.00  0.00     0.058 A 
ATOM     93  C   UNL A   1      46.889  33.178  28.061  1.00  0.00     0.135 A 
ATOM     94  C   UNL A   1      47.369  32.415  30.246  1.00  0.00     0.135 A 
ATOM     95  F   UNL A   1      46.196  33.088  26.929  1.00  0.00    -0.206 F 
ATOM     96  C   UNL A   1      47.700  34.293  28.382  1.00  0.00     0.059 A 
ATOM     97  C   UNL A   1      48.032  33.585  30.529  1.00  0.00     0.059 A 
ATOM     98  F   UNL A   1      47.213  31.500  31.198  1.00  0.00    -0.206 F 
ATOM     99  C   UNL A   1      48.128  34.581  29.598  1.00  0.00     0.060 A 
BRANCH  99 100
ATOM    100  S   UNL A   1      48.805  36.208  30.009  1.00  0.00     0.124 S 
ATOM    101  O   UNL A   1      50.333  36.161  29.928  1.00  0.00    -0.237 OA
ATOM    102  O   UNL A   1      48.275  37.248  29.020  1.00  0.00    -0.237 OA
ATOM    103  O   UNL A   1      48.334  36.638  31.596  1.00  0.00    -0.744 OA
ENDBRANCH  99 100
ENDBRANCH  67  92
ENDBRANCH  41  42
ENDBRANCH  33  36
ENDBRANCH  31  32
ENDBRANCH  30  31
ENDBRANCH   1  30
TORSDOF 18
ENDMDL
