MODEL 1
REMARK VINA RESULT:     -11.5      0.000      0.000
REMARK SMILES CCOc1cccc(C(=O)Nc2ccc(Cl)c(C(=O)NCCCCCCNC(=O)c3ccc(-c4c5nc(c(-c6c(F)cc(S(=O)(=O)[O-])cc6F)c6ccc([nH]6)c(-c6c(F)cc(S(=O)(=O)[O-])cc6F)c6nc(c(-c7c(F)cc(S(=O)(=O)[O-])cc7F)c7ccc4[nH]7)C=C6)C=C5)cc3)c2)c1
REMARK SMILES IDX 23 1 22 2 21 3 20 4 18 5 19 6 17 8 12 9 13 10 96 11 14 12
REMARK SMILES IDX 15 13 16 14 11 15 9 16 10 17 8 19 4 20 5 21 97 22 6 23 7 24
REMARK SMILES IDX 3 25 2 26 1 27 24 28 25 29 26 30 27 31 28 32 29 34 30 35
REMARK SMILES IDX 31 36 95 37 32 38 94 39 33 40 34 41 35 42 88 43 36 44 93 45
REMARK SMILES IDX 87 46 89 47 37 48 92 49 86 50 85 51 38 53 72 54 51 55 71 56
REMARK SMILES IDX 52 57 55 58 70 59 90 60 53 61 54 62 69 64 91 65 56 66 39 67
REMARK SMILES IDX 40 68 49 69 41 70 42 71 48 72 50 73 43 74 44 75 45 76 46 77
REMARK SMILES IDX 47 78 73 79 74 80 83 81 75 82 76 83 82 84 84 85 77 86 78 87
REMARK SMILES IDX 79 88 80 89 81 90 57 91 58 92 67 93 59 94 60 95 66 96 68 97
REMARK SMILES IDX 61 98 62 99 63 100 64 101 65 102
REMARK H PARENT 20 7 11 18 27 33 89 52 55 63
REMARK Flexibility Score: inf
ROOT
ATOM      1  C   UNL A   1      33.682  23.438  22.584  1.00  0.00     0.002 C 
ENDROOT
BRANCH   1   2
ATOM      2  C   UNL A   1      32.494  24.301  22.151  1.00  0.00     0.021 C 
BRANCH   2   3
ATOM      3  C   UNL A   1      32.922  25.428  21.212  1.00  0.00     0.116 C 
BRANCH   3   4
ATOM      4  N   UNL A   1      31.975  26.521  21.298  1.00  0.00    -0.352 N 
ATOM      5  C   UNL A   1      31.260  27.094  22.319  1.00  0.00     0.252 C 
ATOM      6  O   UNL A   1      30.345  27.836  21.966  1.00  0.00    -0.269 OA
ATOM      7  H   UNL A   1      31.806  26.950  20.427  1.00  0.00     0.163 HD
BRANCH   5   8
ATOM      8  C   UNL A   1      31.572  26.908  23.775  1.00  0.00     0.060 A 
ATOM      9  C   UNL A   1      31.071  25.902  25.946  1.00  0.00     0.042 A 
ATOM     10  C   UNL A   1      32.265  26.381  26.469  1.00  0.00     0.028 A 
ATOM     11  C   UNL A   1      30.680  26.273  24.654  1.00  0.00     0.041 A 
ATOM     12  C   UNL A   1      33.132  27.092  25.647  1.00  0.00     0.023 A 
ATOM     13  C   UNL A   1      32.814  27.323  24.299  1.00  0.00     0.053 A 
ATOM     14  Cl  UNL A   1      34.080  28.066  23.376  1.00  0.00    -0.083 Cl
BRANCH   9  15
ATOM     15  N   UNL A   1      30.325  25.018  26.736  1.00  0.00    -0.322 N 
ATOM     16  C   UNL A   1      30.370  23.641  26.864  1.00  0.00     0.255 C 
ATOM     17  O   UNL A   1      29.426  23.091  27.432  1.00  0.00    -0.269 OA
ATOM     18  H   UNL A   1      29.648  25.455  27.301  1.00  0.00     0.170 HD
BRANCH  16  19
ATOM     19  C   UNL A   1      31.546  22.802  26.460  1.00  0.00     0.043 A 
ATOM     20  C   UNL A   1      32.659  21.151  25.064  1.00  0.00     0.120 A 
ATOM     21  C   UNL A   1      33.774  21.186  25.897  1.00  0.00     0.046 A 
ATOM     22  C   UNL A   1      31.579  22.004  25.308  1.00  0.00     0.060 A 
ATOM     23  C   UNL A   1      33.811  22.066  26.975  1.00  0.00     0.005 A 
ATOM     24  C   UNL A   1      32.694  22.855  27.267  1.00  0.00     0.014 A 
BRANCH  20  25
ATOM     25  O   UNL A   1      32.599  20.107  24.181  1.00  0.00    -0.494 OA
BRANCH  25  26
ATOM     26  C   UNL A   1      33.379  18.953  24.488  1.00  0.00     0.226 C 
ATOM     27  C   UNL A   1      32.525  17.718  24.724  1.00  0.00     0.049 C 
ENDBRANCH  25  26
ENDBRANCH  20  25
ENDBRANCH  16  19
ENDBRANCH   9  15
ENDBRANCH   5   8
ENDBRANCH   3   4
ENDBRANCH   2   3
ENDBRANCH   1   2
BRANCH   1  28
ATOM     28  C   UNL A   1      34.600  24.108  23.614  1.00  0.00     0.002 C 
BRANCH  28  29
ATOM     29  C   UNL A   1      35.937  23.398  23.842  1.00  0.00     0.021 C 
BRANCH  29  30
ATOM     30  C   UNL A   1      36.612  23.749  25.163  1.00  0.00     0.116 C 
BRANCH  30  31
ATOM     31  N   UNL A   1      37.424  22.646  25.657  1.00  0.00    -0.352 N 
ATOM     32  C   UNL A   1      38.663  22.682  26.239  1.00  0.00     0.251 C 
ATOM     33  H   UNL A   1      37.028  21.751  25.559  1.00  0.00     0.163 HD
ATOM     34  O   UNL A   1      39.309  21.642  26.378  1.00  0.00    -0.269 OA
BRANCH  32  35
ATOM     35  C   UNL A   1      39.222  23.971  26.688  1.00  0.00     0.039 A 
ATOM     36  C   UNL A   1      39.132  24.319  28.038  1.00  0.00     0.014 A 
ATOM     37  C   UNL A   1      39.831  24.837  25.774  1.00  0.00     0.014 A 
ATOM     38  C   UNL A   1      39.699  25.515  28.479  1.00  0.00     0.010 A 
ATOM     39  C   UNL A   1      40.460  25.991  26.229  1.00  0.00     0.010 A 
ATOM     40  C   UNL A   1      40.393  26.346  27.584  1.00  0.00    -0.014 A 
BRANCH  40  41
ATOM     41  C   UNL A   1      41.052  27.593  28.047  1.00  0.00     0.031 A 
ATOM     42  C   UNL A   1      42.548  27.727  27.973  1.00  0.00     0.074 A 
ATOM     43  C   UNL A   1      40.306  28.575  28.591  1.00  0.00     0.049 A 
ATOM     44  N   UNL A   1      43.309  28.710  28.380  1.00  0.00    -0.248 NA
ATOM     45  C   UNL A   1      43.289  26.597  27.390  1.00  0.00     0.031 C 
ATOM     46  C   UNL A   1      38.851  28.538  28.759  1.00  0.00     0.029 A 
ATOM     47  N   UNL A   1      40.668  29.792  29.110  1.00  0.00    -0.354 N 
ATOM     48  C   UNL A   1      44.615  28.312  28.116  1.00  0.00     0.074 A 
ATOM     49  C   UNL A   1      44.546  26.977  27.564  1.00  0.00     0.031 C 
ATOM     50  C   UNL A   1      38.444  29.688  29.318  1.00  0.00     0.029 A 
ATOM     51  C   UNL A   1      39.607  30.527  29.585  1.00  0.00     0.049 A 
ATOM     52  H   UNL A   1      41.599  30.110  29.139  1.00  0.00     0.167 HD
ATOM     53  C   UNL A   1      45.765  29.007  28.297  1.00  0.00     0.037 A 
ATOM     54  C   UNL A   1      39.578  31.738  30.175  1.00  0.00     0.037 A 
ATOM     55  C   UNL A   1      45.818  30.345  28.827  1.00  0.00     0.049 A 
ATOM     56  C   UNL A   1      40.867  32.488  30.370  1.00  0.00     0.074 A 
ATOM     57  C   UNL A   1      46.924  31.160  28.991  1.00  0.00     0.029 A 
ATOM     58  N   UNL A   1      44.722  31.063  29.284  1.00  0.00    -0.354 N 
ATOM     59  N   UNL A   1      42.088  32.127  30.049  1.00  0.00    -0.248 NA
ATOM     60  C   UNL A   1      40.777  33.812  30.999  1.00  0.00     0.031 C 
ATOM     61  C   UNL A   1      46.504  32.350  29.594  1.00  0.00     0.029 A 
ATOM     62  C   UNL A   1      45.128  32.301  29.754  1.00  0.00     0.049 A 
ATOM     63  H   UNL A   1      43.793  30.739  29.275  1.00  0.00     0.167 HD
ATOM     64  C   UNL A   1      42.906  33.190  30.412  1.00  0.00     0.074 A 
ATOM     65  C   UNL A   1      42.041  34.213  30.964  1.00  0.00     0.031 C 
ATOM     66  C   UNL A   1      44.252  33.311  30.296  1.00  0.00     0.037 A 
BRANCH  53  67
ATOM     67  C   UNL A   1      47.056  28.331  27.920  1.00  0.00     0.058 A 
ATOM     68  C   UNL A   1      47.802  27.590  28.850  1.00  0.00     0.135 A 
ATOM     69  C   UNL A   1      47.537  28.397  26.602  1.00  0.00     0.135 A 
ATOM     70  F   UNL A   1      47.397  27.504  30.128  1.00  0.00    -0.206 F 
ATOM     71  C   UNL A   1      48.995  26.969  28.499  1.00  0.00     0.059 A 
ATOM     72  C   UNL A   1      48.713  27.757  26.220  1.00  0.00     0.059 A 
ATOM     73  F   UNL A   1      46.865  29.091  25.670  1.00  0.00    -0.206 F 
ATOM     74  C   UNL A   1      49.443  27.058  27.180  1.00  0.00     0.060 A 
BRANCH  74  75
ATOM     75  S   UNL A   1      50.993  26.244  26.739  1.00  0.00     0.124 S 
ATOM     76  O   UNL A   1      50.727  24.870  27.151  1.00  0.00    -0.237 OA
ATOM     77  O   UNL A   1      51.066  26.470  25.300  1.00  0.00    -0.237 OA
ATOM     78  O   UNL A   1      51.990  26.955  27.534  1.00  0.00    -0.744 OA
ENDBRANCH  74  75
ENDBRANCH  53  67
BRANCH  54  79
ATOM     79  C   UNL A   1      38.278  32.325  30.599  1.00  0.00     0.058 A 
ATOM     80  C   UNL A   1      37.750  32.065  31.873  1.00  0.00     0.135 A 
ATOM     81  C   UNL A   1      37.548  33.172  29.750  1.00  0.00     0.135 A 
ATOM     82  F   UNL A   1      38.408  31.256  32.718  1.00  0.00    -0.206 F 
ATOM     83  C   UNL A   1      36.539  32.610  32.286  1.00  0.00     0.059 A 
ATOM     84  C   UNL A   1      36.348  33.751  30.151  1.00  0.00     0.059 A 
ATOM     85  F   UNL A   1      38.017  33.468  28.528  1.00  0.00    -0.206 F 
ATOM     86  C   UNL A   1      35.846  33.456  31.419  1.00  0.00     0.060 A 
BRANCH  86  87
ATOM     87  S   UNL A   1      34.302  34.201  31.986  1.00  0.00     0.124 S 
ATOM     88  O   UNL A   1      33.621  34.462  30.724  1.00  0.00    -0.237 OA
ATOM     89  O   UNL A   1      33.736  33.139  32.810  1.00  0.00    -0.237 OA
ATOM     90  O   UNL A   1      34.749  35.382  32.720  1.00  0.00    -0.744 OA
ENDBRANCH  86  87
ENDBRANCH  54  79
BRANCH  66  91
ATOM     91  C   UNL A   1      44.874  34.606  30.741  1.00  0.00     0.058 A 
ATOM     92  C   UNL A   1      45.358  34.785  32.046  1.00  0.00     0.135 A 
ATOM     93  C   UNL A   1      45.033  35.665  29.831  1.00  0.00     0.135 A 
ATOM     94  F   UNL A   1      45.225  33.808  32.957  1.00  0.00    -0.206 F 
ATOM     95  C   UNL A   1      45.958  35.976  32.441  1.00  0.00     0.059 A 
ATOM     96  C   UNL A   1      45.658  36.853  30.196  1.00  0.00     0.059 A 
ATOM     97  F   UNL A   1      44.597  35.543  28.569  1.00  0.00    -0.206 F 
ATOM     98  C   UNL A   1      46.106  37.004  31.507  1.00  0.00     0.060 A 
BRANCH  98  99
ATOM     99  S   UNL A   1      46.919  38.532  32.023  1.00  0.00     0.124 S 
ATOM    100  O   UNL A   1      46.310  38.761  33.329  1.00  0.00    -0.237 OA
ATOM    101  O   UNL A   1      48.326  38.146  32.038  1.00  0.00    -0.237 OA
ATOM    102  O   UNL A   1      46.547  39.483  30.981  1.00  0.00    -0.744 OA
ENDBRANCH  98  99
ENDBRANCH  66  91
ENDBRANCH  40  41
ENDBRANCH  32  35
ENDBRANCH  30  31
ENDBRANCH  29  30
ENDBRANCH  28  29
ENDBRANCH   1  28
TORSDOF 20
ENDMDL
MODEL 2
REMARK VINA RESULT:     -11.2      4.676      5.933
REMARK SMILES CCOc1cccc(C(=O)Nc2ccc(Cl)c(C(=O)NCCCCCCNC(=O)c3ccc(-c4c5nc(c(-c6c(F)cc(S(=O)(=O)[O-])cc6F)c6ccc([nH]6)c(-c6c(F)cc(S(=O)(=O)[O-])cc6F)c6nc(c(-c7c(F)cc(S(=O)(=O)[O-])cc7F)c7ccc4[nH]7)C=C6)C=C5)cc3)c2)c1
REMARK SMILES IDX 23 1 22 2 21 3 20 4 18 5 19 6 17 8 12 9 13 10 96 11 14 12
REMARK SMILES IDX 15 13 16 14 11 15 9 16 10 17 8 19 4 20 5 21 97 22 6 23 7 24
REMARK SMILES IDX 3 25 2 26 1 27 24 28 25 29 26 30 27 31 28 32 29 34 30 35
REMARK SMILES IDX 31 36 95 37 32 38 94 39 33 40 34 41 35 42 88 43 36 44 93 45
REMARK SMILES IDX 87 46 89 47 37 48 92 49 86 50 85 51 38 53 72 54 51 55 71 56
REMARK SMILES IDX 52 57 55 58 70 59 90 60 53 61 54 62 69 64 91 65 56 66 39 67
REMARK SMILES IDX 40 68 49 69 41 70 42 71 48 72 50 73 43 74 44 75 45 76 46 77
REMARK SMILES IDX 47 78 73 79 74 80 83 81 75 82 76 83 82 84 84 85 77 86 78 87
REMARK SMILES IDX 79 88 80 89 81 90 57 91 58 92 67 93 59 94 60 95 66 96 68 97
REMARK SMILES IDX 61 98 62 99 63 100 64 101 65 102
REMARK H PARENT 20 7 11 18 27 33 89 52 55 63
REMARK Flexibility Score: inf
ROOT
ATOM      1  C   UNL A   1      36.438  23.312  24.518  1.00  0.00     0.002 C 
ENDROOT
BRANCH   1   2
ATOM      2  C   UNL A   1      35.152  24.110  24.286  1.00  0.00     0.021 C 
BRANCH   2   3
ATOM      3  C   UNL A   1      34.238  23.433  23.267  1.00  0.00     0.116 C 
BRANCH   3   4
ATOM      4  N   UNL A   1      33.736  24.419  22.331  1.00  0.00    -0.352 N 
ATOM      5  C   UNL A   1      32.738  25.359  22.370  1.00  0.00     0.252 C 
ATOM      6  O   UNL A   1      32.425  25.837  21.280  1.00  0.00    -0.269 OA
ATOM      7  H   UNL A   1      34.220  24.412  21.473  1.00  0.00     0.163 HD
BRANCH   5   8
ATOM      8  C   UNL A   1      32.088  25.848  23.631  1.00  0.00     0.060 A 
ATOM      9  C   UNL A   1      30.735  25.436  25.624  1.00  0.00     0.042 A 
ATOM     10  C   UNL A   1      31.032  26.701  26.115  1.00  0.00     0.028 A 
ATOM     11  C   UNL A   1      31.159  25.072  24.341  1.00  0.00     0.041 A 
ATOM     12  C   UNL A   1      31.881  27.531  25.391  1.00  0.00     0.023 A 
ATOM     13  C   UNL A   1      32.441  27.100  24.178  1.00  0.00     0.053 A 
ATOM     14  Cl  UNL A   1      33.612  28.183  23.499  1.00  0.00    -0.083 Cl
BRANCH   9  15
ATOM     15  N   UNL A   1      30.052  24.555  26.472  1.00  0.00    -0.322 N 
ATOM     16  C   UNL A   1      30.312  23.245  26.835  1.00  0.00     0.255 C 
ATOM     17  O   UNL A   1      29.408  22.618  27.388  1.00  0.00    -0.269 OA
ATOM     18  H   UNL A   1      29.243  24.936  26.884  1.00  0.00     0.170 HD
BRANCH  16  19
ATOM     19  C   UNL A   1      31.655  22.590  26.700  1.00  0.00     0.043 A 
ATOM     20  C   UNL A   1      33.196  20.974  25.739  1.00  0.00     0.120 A 
ATOM     21  C   UNL A   1      34.180  21.359  26.648  1.00  0.00     0.046 A 
ATOM     22  C   UNL A   1      31.964  21.633  25.724  1.00  0.00     0.060 A 
ATOM     23  C   UNL A   1      33.933  22.397  27.542  1.00  0.00     0.005 A 
ATOM     24  C   UNL A   1      32.670  22.996  27.582  1.00  0.00     0.014 A 
BRANCH  20  25
ATOM     25  O   UNL A   1      33.424  19.805  25.065  1.00  0.00    -0.494 OA
BRANCH  25  26
ATOM     26  C   UNL A   1      32.380  19.332  24.216  1.00  0.00     0.226 C 
ATOM     27  C   UNL A   1      32.824  18.179  23.332  1.00  0.00     0.049 C 
ENDBRANCH  25  26
ENDBRANCH  20  25
ENDBRANCH  16  19
ENDBRANCH   9  15
ENDBRANCH   5   8
ENDBRANCH   3   4
ENDBRANCH   2   3
ENDBRANCH   1   2
BRANCH   1  28
ATOM     28  C   UNL A   1      37.357  23.906  25.593  1.00  0.00     0.002 C 
BRANCH  28  29
ATOM     29  C   UNL A   1      38.344  22.914  26.214  1.00  0.00     0.021 C 
BRANCH  29  30
ATOM     30  C   UNL A   1      39.474  23.569  27.001  1.00  0.00     0.116 C 
BRANCH  30  31
ATOM     31  N   UNL A   1      40.558  23.992  26.125  1.00  0.00    -0.352 N 
ATOM     32  C   UNL A   1      41.192  25.204  26.064  1.00  0.00     0.251 C 
ATOM     33  H   UNL A   1      40.880  23.313  25.490  1.00  0.00     0.163 HD
ATOM     34  O   UNL A   1      41.921  25.471  25.107  1.00  0.00    -0.269 OA
BRANCH  32  35
ATOM     35  C   UNL A   1      40.990  26.190  27.143  1.00  0.00     0.039 A 
ATOM     36  C   UNL A   1      40.047  25.925  28.139  1.00  0.00     0.014 A 
ATOM     37  C   UNL A   1      41.730  27.376  27.167  1.00  0.00     0.014 A 
ATOM     38  C   UNL A   1      39.883  26.831  29.188  1.00  0.00     0.010 A 
ATOM     39  C   UNL A   1      41.617  28.239  28.252  1.00  0.00     0.010 A 
ATOM     40  C   UNL A   1      40.687  27.980  29.269  1.00  0.00    -0.014 A 
BRANCH  40  41
ATOM     41  C   UNL A   1      40.566  28.924  30.408  1.00  0.00     0.031 A 
ATOM     42  C   UNL A   1      41.455  28.770  31.611  1.00  0.00     0.074 A 
ATOM     43  C   UNL A   1      39.614  29.876  30.381  1.00  0.00     0.049 A 
ATOM     44  N   UNL A   1      41.461  29.456  32.725  1.00  0.00    -0.248 NA
ATOM     45  C   UNL A   1      42.451  27.687  31.570  1.00  0.00     0.031 C 
ATOM     46  C   UNL A   1      38.662  30.091  29.289  1.00  0.00     0.029 A 
ATOM     47  N   UNL A   1      39.282  30.838  31.302  1.00  0.00    -0.354 N 
ATOM     48  C   UNL A   1      42.446  28.880  33.520  1.00  0.00     0.074 A 
ATOM     49  C   UNL A   1      42.979  27.757  32.782  1.00  0.00     0.031 C 
ATOM     50  C   UNL A   1      37.872  31.133  29.592  1.00  0.00     0.029 A 
ATOM     51  C   UNL A   1      38.231  31.636  30.913  1.00  0.00     0.049 A 
ATOM     52  H   UNL A   1      39.753  30.948  32.160  1.00  0.00     0.167 HD
ATOM     53  C   UNL A   1      42.881  29.269  34.743  1.00  0.00     0.037 A 
ATOM     54  C   UNL A   1      37.622  32.652  31.554  1.00  0.00     0.037 A 
ATOM     55  C   UNL A   1      42.357  30.404  35.457  1.00  0.00     0.049 A 
ATOM     56  C   UNL A   1      38.119  33.062  32.914  1.00  0.00     0.074 A 
ATOM     57  C   UNL A   1      42.771  30.920  36.673  1.00  0.00     0.029 A 
ATOM     58  N   UNL A   1      41.302  31.196  35.026  1.00  0.00    -0.354 N 
ATOM     59  N   UNL A   1      39.100  32.551  33.621  1.00  0.00    -0.248 NA
ATOM     60  C   UNL A   1      37.435  34.189  33.560  1.00  0.00     0.031 C 
ATOM     61  C   UNL A   1      41.934  31.991  37.001  1.00  0.00     0.029 A 
ATOM     62  C   UNL A   1      41.034  32.181  35.963  1.00  0.00     0.049 A 
ATOM     63  H   UNL A   1      40.816  31.076  34.179  1.00  0.00     0.167 HD
ATOM     64  C   UNL A   1      39.167  33.313  34.782  1.00  0.00     0.074 A 
ATOM     65  C   UNL A   1      38.137  34.326  34.677  1.00  0.00     0.031 C 
ATOM     66  C   UNL A   1      40.008  33.187  35.840  1.00  0.00     0.037 A 
BRANCH  53  67
ATOM     67  C   UNL A   1      43.975  28.459  35.385  1.00  0.00     0.058 A 
ATOM     68  C   UNL A   1      45.333  28.739  35.161  1.00  0.00     0.135 A 
ATOM     69  C   UNL A   1      43.662  27.407  36.262  1.00  0.00     0.135 A 
ATOM     70  F   UNL A   1      45.691  29.724  34.320  1.00  0.00    -0.206 F 
ATOM     71  C   UNL A   1      46.340  27.985  35.754  1.00  0.00     0.059 A 
ATOM     72  C   UNL A   1      44.654  26.660  36.892  1.00  0.00     0.059 A 
ATOM     73  F   UNL A   1      42.382  27.095  36.514  1.00  0.00    -0.206 F 
ATOM     74  C   UNL A   1      45.990  26.947  36.618  1.00  0.00     0.060 A 
BRANCH  74  75
ATOM     75  S   UNL A   1      47.310  25.980  37.382  1.00  0.00     0.124 S 
ATOM     76  O   UNL A   1      46.967  24.629  36.950  1.00  0.00    -0.237 OA
ATOM     77  O   UNL A   1      48.507  26.554  36.776  1.00  0.00    -0.237 OA
ATOM     78  O   UNL A   1      47.145  26.244  38.808  1.00  0.00    -0.744 OA
ENDBRANCH  74  75
ENDBRANCH  53  67
BRANCH  54  79
ATOM     79  C   UNL A   1      36.492  33.368  30.904  1.00  0.00     0.058 A 
ATOM     80  C   UNL A   1      35.176  33.210  31.365  1.00  0.00     0.135 A 
ATOM     81  C   UNL A   1      36.705  34.239  29.823  1.00  0.00     0.135 A 
ATOM     82  F   UNL A   1      34.921  32.384  32.391  1.00  0.00    -0.206 F 
ATOM     83  C   UNL A   1      34.110  33.877  30.771  1.00  0.00     0.059 A 
ATOM     84  C   UNL A   1      35.658  34.938  29.230  1.00  0.00     0.059 A 
ATOM     85  F   UNL A   1      37.946  34.440  29.355  1.00  0.00    -0.206 F 
ATOM     86  C   UNL A   1      34.361  34.743  29.706  1.00  0.00     0.060 A 
BRANCH  86  87
ATOM     87  S   UNL A   1      32.977  35.644  28.977  1.00  0.00     0.124 S 
ATOM     88  O   UNL A   1      32.218  36.025  30.162  1.00  0.00    -0.237 OA
ATOM     89  O   UNL A   1      33.654  36.729  28.276  1.00  0.00    -0.237 OA
ATOM     90  O   UNL A   1      32.346  34.649  28.115  1.00  0.00    -0.744 OA
ENDBRANCH  86  87
ENDBRANCH  54  79
BRANCH  66  91
ATOM     91  C   UNL A   1      39.876  34.189  36.954  1.00  0.00     0.058 A 
ATOM     92  C   UNL A   1      40.631  35.371  36.980  1.00  0.00     0.135 A 
ATOM     93  C   UNL A   1      38.940  33.985  37.982  1.00  0.00     0.135 A 
ATOM     94  F   UNL A   1      41.543  35.612  36.026  1.00  0.00    -0.206 F 
ATOM     95  C   UNL A   1      40.480  36.306  37.999  1.00  0.00     0.059 A 
ATOM     96  C   UNL A   1      38.752  34.921  38.994  1.00  0.00     0.059 A 
ATOM     97  F   UNL A   1      38.186  32.875  38.000  1.00  0.00    -0.206 F 
ATOM     98  C   UNL A   1      39.535  36.073  39.000  1.00  0.00     0.060 A 
BRANCH  98  99
ATOM     99  S   UNL A   1      39.326  37.312  40.297  1.00  0.00     0.124 S 
ATOM    100  O   UNL A   1      38.978  36.480  41.444  1.00  0.00    -0.237 OA
ATOM    101  O   UNL A   1      40.642  37.940  40.344  1.00  0.00    -0.237 OA
ATOM    102  O   UNL A   1      38.252  38.159  39.788  1.00  0.00    -0.744 OA
ENDBRANCH  98  99
ENDBRANCH  66  91
ENDBRANCH  40  41
ENDBRANCH  32  35
ENDBRANCH  30  31
ENDBRANCH  29  30
ENDBRANCH  28  29
ENDBRANCH   1  28
TORSDOF 20
ENDMDL
MODEL 3
REMARK VINA RESULT:     -11.2      3.203      9.400
REMARK SMILES CCOc1cccc(C(=O)Nc2ccc(Cl)c(C(=O)NCCCCCCNC(=O)c3ccc(-c4c5nc(c(-c6c(F)cc(S(=O)(=O)[O-])cc6F)c6ccc([nH]6)c(-c6c(F)cc(S(=O)(=O)[O-])cc6F)c6nc(c(-c7c(F)cc(S(=O)(=O)[O-])cc7F)c7ccc4[nH]7)C=C6)C=C5)cc3)c2)c1
REMARK SMILES IDX 23 1 22 2 21 3 20 4 18 5 19 6 17 8 12 9 13 10 96 11 14 12
REMARK SMILES IDX 15 13 16 14 11 15 9 16 10 17 8 19 4 20 5 21 97 22 6 23 7 24
REMARK SMILES IDX 3 25 2 26 1 27 24 28 25 29 26 30 27 31 28 32 29 34 30 35
REMARK SMILES IDX 31 36 95 37 32 38 94 39 33 40 34 41 35 42 88 43 36 44 93 45
REMARK SMILES IDX 87 46 89 47 37 48 92 49 86 50 85 51 38 53 72 54 51 55 71 56
REMARK SMILES IDX 52 57 55 58 70 59 90 60 53 61 54 62 69 64 91 65 56 66 39 67
REMARK SMILES IDX 40 68 49 69 41 70 42 71 48 72 50 73 43 74 44 75 45 76 46 77
REMARK SMILES IDX 47 78 73 79 74 80 83 81 75 82 76 83 82 84 84 85 77 86 78 87
REMARK SMILES IDX 79 88 80 89 81 90 57 91 58 92 67 93 59 94 60 95 66 96 68 97
REMARK SMILES IDX 61 98 62 99 63 100 64 101 65 102
REMARK H PARENT 20 7 11 18 27 33 89 52 55 63
REMARK Flexibility Score: inf
ROOT
ATOM      1  C   UNL A   1      33.094  28.615  27.224  1.00  0.00     0.002 C 
ENDROOT
BRANCH   1   2
ATOM      2  C   UNL A   1      33.009  27.230  26.575  1.00  0.00     0.021 C 
BRANCH   2   3
ATOM      3  C   UNL A   1      31.586  26.894  26.135  1.00  0.00     0.116 C 
BRANCH   3   4
ATOM      4  N   UNL A   1      31.162  25.655  26.755  1.00  0.00    -0.352 N 
ATOM      5  C   UNL A   1      31.328  24.327  26.459  1.00  0.00     0.252 C 
ATOM      6  O   UNL A   1      30.591  23.556  27.072  1.00  0.00    -0.269 OA
ATOM      7  H   UNL A   1      30.635  25.800  27.575  1.00  0.00     0.163 HD
BRANCH   5   8
ATOM      8  C   UNL A   1      32.362  23.797  25.509  1.00  0.00     0.060 A 
ATOM      9  C   UNL A   1      33.316  23.661  23.262  1.00  0.00     0.042 A 
ATOM     10  C   UNL A   1      34.422  22.977  23.748  1.00  0.00     0.028 A 
ATOM     11  C   UNL A   1      32.247  23.951  24.118  1.00  0.00     0.041 A 
ATOM     12  C   UNL A   1      34.525  22.730  25.113  1.00  0.00     0.023 A 
ATOM     13  C   UNL A   1      33.527  23.168  25.998  1.00  0.00     0.053 A 
ATOM     14  Cl  UNL A   1      33.897  22.936  27.675  1.00  0.00    -0.083 Cl
BRANCH   9  15
ATOM     15  N   UNL A   1      33.345  24.075  21.924  1.00  0.00    -0.322 N 
ATOM     16  C   UNL A   1      32.915  25.240  21.315  1.00  0.00     0.255 C 
ATOM     17  O   UNL A   1      32.819  25.239  20.087  1.00  0.00    -0.269 OA
ATOM     18  H   UNL A   1      33.743  23.419  21.307  1.00  0.00     0.170 HD
BRANCH  16  19
ATOM     19  C   UNL A   1      32.675  26.528  22.048  1.00  0.00     0.043 A 
ATOM     20  C   UNL A   1      31.286  28.385  22.777  1.00  0.00     0.120 A 
ATOM     21  C   UNL A   1      32.398  29.006  23.341  1.00  0.00     0.046 A 
ATOM     22  C   UNL A   1      31.414  27.122  22.192  1.00  0.00     0.060 A 
ATOM     23  C   UNL A   1      33.636  28.371  23.318  1.00  0.00     0.005 A 
ATOM     24  C   UNL A   1      33.779  27.148  22.657  1.00  0.00     0.014 A 
BRANCH  20  25
ATOM     25  O   UNL A   1      30.171  29.165  22.629  1.00  0.00    -0.494 OA
BRANCH  25  26
ATOM     26  C   UNL A   1      28.925  28.598  23.029  1.00  0.00     0.226 C 
ATOM     27  C   UNL A   1      27.753  29.530  22.778  1.00  0.00     0.049 C 
ENDBRANCH  25  26
ENDBRANCH  20  25
ENDBRANCH  16  19
ENDBRANCH   9  15
ENDBRANCH   5   8
ENDBRANCH   3   4
ENDBRANCH   2   3
ENDBRANCH   1   2
BRANCH   1  28
ATOM     28  C   UNL A   1      34.507  29.210  27.244  1.00  0.00     0.002 C 
BRANCH  28  29
ATOM     29  C   UNL A   1      34.563  30.725  27.456  1.00  0.00     0.021 C 
BRANCH  29  30
ATOM     30  C   UNL A   1      35.789  31.202  28.228  1.00  0.00     0.116 C 
BRANCH  30  31
ATOM     31  N   UNL A   1      35.630  30.995  29.661  1.00  0.00    -0.352 N 
ATOM     32  C   UNL A   1      36.417  30.275  30.519  1.00  0.00     0.251 C 
ATOM     33  H   UNL A   1      34.850  31.434  30.068  1.00  0.00     0.163 HD
ATOM     34  O   UNL A   1      36.009  30.005  31.650  1.00  0.00    -0.269 OA
BRANCH  32  35
ATOM     35  C   UNL A   1      37.748  29.816  30.079  1.00  0.00     0.039 A 
ATOM     36  C   UNL A   1      38.049  29.808  28.715  1.00  0.00     0.014 A 
ATOM     37  C   UNL A   1      38.697  29.392  31.016  1.00  0.00     0.014 A 
ATOM     38  C   UNL A   1      39.322  29.420  28.295  1.00  0.00     0.010 A 
ATOM     39  C   UNL A   1      39.986  29.078  30.599  1.00  0.00     0.010 A 
ATOM     40  C   UNL A   1      40.309  29.080  29.235  1.00  0.00    -0.014 A 
BRANCH  40  41
ATOM     41  C   UNL A   1      41.685  28.721  28.808  1.00  0.00     0.031 A 
ATOM     42  C   UNL A   1      42.754  29.776  28.744  1.00  0.00     0.074 A 
ATOM     43  C   UNL A   1      41.950  27.458  28.420  1.00  0.00     0.049 A 
ATOM     44  N   UNL A   1      43.995  29.671  28.343  1.00  0.00    -0.248 NA
ATOM     45  C   UNL A   1      42.373  31.136  29.161  1.00  0.00     0.031 C 
ATOM     46  C   UNL A   1      40.982  26.359  28.394  1.00  0.00     0.029 A 
ATOM     47  N   UNL A   1      43.111  26.886  27.965  1.00  0.00    -0.354 N 
ATOM     48  C   UNL A   1      44.536  30.948  28.444  1.00  0.00     0.074 A 
ATOM     49  C   UNL A   1      43.474  31.821  28.894  1.00  0.00     0.031 C 
ATOM     50  C   UNL A   1      41.594  25.243  27.970  1.00  0.00     0.029 A 
ATOM     51  C   UNL A   1      42.985  25.552  27.656  1.00  0.00     0.049 A 
ATOM     52  H   UNL A   1      43.956  27.383  27.869  1.00  0.00     0.167 HD
ATOM     53  C   UNL A   1      45.808  31.349  28.206  1.00  0.00     0.037 A 
ATOM     54  C   UNL A   1      43.888  24.678  27.168  1.00  0.00     0.037 A 
ATOM     55  C   UNL A   1      46.862  30.465  27.780  1.00  0.00     0.049 A 
ATOM     56  C   UNL A   1      45.292  25.149  26.907  1.00  0.00     0.074 A 
ATOM     57  C   UNL A   1      48.198  30.759  27.572  1.00  0.00     0.029 A 
ATOM     58  N   UNL A   1      46.700  29.118  27.491  1.00  0.00    -0.354 N 
ATOM     59  N   UNL A   1      45.807  26.345  27.076  1.00  0.00    -0.248 NA
ATOM     60  C   UNL A   1      46.243  24.153  26.395  1.00  0.00     0.031 C 
ATOM     61  C   UNL A   1      48.832  29.602  27.108  1.00  0.00     0.029 A 
ATOM     62  C   UNL A   1      47.905  28.572  27.082  1.00  0.00     0.049 A 
ATOM     63  H   UNL A   1      45.852  28.623  27.566  1.00  0.00     0.167 HD
ATOM     64  C   UNL A   1      47.146  26.237  26.718  1.00  0.00     0.074 A 
ATOM     65  C   UNL A   1      47.365  24.857  26.336  1.00  0.00     0.031 C 
ATOM     66  C   UNL A   1      48.108  27.193  26.710  1.00  0.00     0.037 A 
BRANCH  53  67
ATOM     67  C   UNL A   1      46.128  32.808  28.399  1.00  0.00     0.058 A 
ATOM     68  C   UNL A   1      46.559  33.314  29.636  1.00  0.00     0.135 A 
ATOM     69  C   UNL A   1      46.033  33.707  27.324  1.00  0.00     0.135 A 
ATOM     70  F   UNL A   1      46.655  32.503  30.702  1.00  0.00    -0.206 F 
ATOM     71  C   UNL A   1      46.851  34.662  29.810  1.00  0.00     0.059 A 
ATOM     72  C   UNL A   1      46.350  35.055  27.467  1.00  0.00     0.059 A 
ATOM     73  F   UNL A   1      45.626  33.279  26.118  1.00  0.00    -0.206 F 
ATOM     74  C   UNL A   1      46.743  35.526  28.718  1.00  0.00     0.060 A 
BRANCH  74  75
ATOM     75  S   UNL A   1      47.127  37.273  28.961  1.00  0.00     0.124 S 
ATOM     76  O   UNL A   1      45.882  37.767  29.540  1.00  0.00    -0.237 OA
ATOM     77  O   UNL A   1      48.269  37.218  29.868  1.00  0.00    -0.237 OA
ATOM     78  O   UNL A   1      47.424  37.747  27.613  1.00  0.00    -0.744 OA
ENDBRANCH  74  75
ENDBRANCH  53  67
BRANCH  54  79
ATOM     79  C   UNL A   1      43.494  23.265  26.922  1.00  0.00     0.058 A 
ATOM     80  C   UNL A   1      43.302  22.373  27.989  1.00  0.00     0.135 A 
ATOM     81  C   UNL A   1      43.282  22.782  25.621  1.00  0.00     0.135 A 
ATOM     82  F   UNL A   1      43.499  22.786  29.250  1.00  0.00    -0.206 F 
ATOM     83  C   UNL A   1      42.929  21.051  27.776  1.00  0.00     0.059 A 
ATOM     84  C   UNL A   1      42.882  21.471  25.384  1.00  0.00     0.059 A 
ATOM     85  F   UNL A   1      43.434  23.598  24.567  1.00  0.00    -0.206 F 
ATOM     86  C   UNL A   1      42.717  20.609  26.469  1.00  0.00     0.060 A 
BRANCH  86  87
ATOM     87  S   UNL A   1      42.180  18.905  26.207  1.00  0.00     0.124 S 
ATOM     88  O   UNL A   1      42.326  18.342  27.544  1.00  0.00    -0.237 OA
ATOM     89  O   UNL A   1      40.811  19.085  25.736  1.00  0.00    -0.237 OA
ATOM     90  O   UNL A   1      43.119  18.407  25.206  1.00  0.00    -0.744 OA
ENDBRANCH  86  87
ENDBRANCH  54  79
BRANCH  66  91
ATOM     91  C   UNL A   1      49.497  26.776  26.308  1.00  0.00     0.058 A 
ATOM     92  C   UNL A   1      50.411  26.254  27.236  1.00  0.00     0.135 A 
ATOM     93  C   UNL A   1      49.898  26.852  24.964  1.00  0.00     0.135 A 
ATOM     94  F   UNL A   1      50.081  26.166  28.534  1.00  0.00    -0.206 F 
ATOM     95  C   UNL A   1      51.682  25.843  26.850  1.00  0.00     0.059 A 
ATOM     96  C   UNL A   1      51.154  26.419  24.551  1.00  0.00     0.059 A 
ATOM     97  F   UNL A   1      49.059  27.335  24.034  1.00  0.00    -0.206 F 
ATOM     98  C   UNL A   1      52.043  25.927  25.504  1.00  0.00     0.060 A 
BRANCH  98  99
ATOM     99  S   UNL A   1      53.684  25.357  25.011  1.00  0.00     0.124 S 
ATOM    100  O   UNL A   1      53.766  25.848  23.640  1.00  0.00    -0.237 OA
ATOM    101  O   UNL A   1      54.549  26.026  25.977  1.00  0.00    -0.237 OA
ATOM    102  O   UNL A   1      53.598  23.907  25.155  1.00  0.00    -0.744 OA
ENDBRANCH  98  99
ENDBRANCH  66  91
ENDBRANCH  40  41
ENDBRANCH  32  35
ENDBRANCH  30  31
ENDBRANCH  29  30
ENDBRANCH  28  29
ENDBRANCH   1  28
TORSDOF 20
ENDMDL
