MODEL 1
REMARK VINA RESULT:     -11.4      0.000      0.000
REMARK SMILES CC[C@@H](NC(=O)N1CCO[C@H](CC(=O)NCCCCCCNC(=O)c2ccc(-c3c4nc(c(-c5c(F)cc(S(=O)(=O)[O-])cc5F)c5ccc([nH]5)c(-c5c(F)cc(S(=O)(=O)[O-])cc5F)c5nc(c(-c6c(F)cc(S(=O)(=O)[O-])cc6F)c6ccc3[nH]6)C=C5)C=C4)cc2)C1)c1cccs1
REMARK SMILES IDX 18 1 17 2 16 3 15 4 13 5 14 6 12 8 11 9 7 10 8 11 91 12 9 13
REMARK SMILES IDX 10 14 5 15 4 16 6 18 3 19 2 20 1 21 92 22 93 23 96 24 94 25
REMARK SMILES IDX 95 26 19 27 20 28 21 29 22 30 23 31 24 33 25 34 26 35 90 36
REMARK SMILES IDX 27 37 89 38 28 39 29 40 30 41 83 42 31 43 88 44 82 45 84 46
REMARK SMILES IDX 32 47 87 48 81 49 80 50 33 52 67 53 46 54 66 55 47 56 50 57
REMARK SMILES IDX 65 58 85 59 48 60 49 61 64 63 86 64 51 65 34 66 35 67 44 68
REMARK SMILES IDX 36 69 37 70 43 71 45 72 38 73 39 74 40 75 41 76 42 77 68 78
REMARK SMILES IDX 69 79 78 80 70 81 71 82 77 83 79 84 72 85 73 86 74 87 75 88
REMARK SMILES IDX 76 89 52 90 53 91 62 92 54 93 55 94 61 95 63 96 56 97 57 98
REMARK SMILES IDX 58 99 59 100 60 101
REMARK H PARENT 15 7 4 17 22 32 84 51 50 62
REMARK Flexibility Score: inf
ROOT
ATOM      1  C   UNL A   1      32.627  29.302  25.299  1.00  0.00     0.002 C 
ENDROOT
BRANCH   1   2
ATOM      2  C   UNL A   1      33.160  29.209  23.849  1.00  0.00     0.021 C 
BRANCH   2   3
ATOM      3  C   UNL A   1      32.269  28.585  22.743  1.00  0.00     0.116 C 
BRANCH   3   4
ATOM      4  N   UNL A   1      32.898  27.383  22.131  1.00  0.00    -0.356 N 
ATOM      5  C   UNL A   1      33.381  26.145  22.445  1.00  0.00     0.222 C 
ATOM      6  O   UNL A   1      33.651  25.437  21.463  1.00  0.00    -0.275 OA
ATOM      7  H   UNL A   1      33.001  27.531  21.164  1.00  0.00     0.163 HD
BRANCH   5   8
ATOM      8  C   UNL A   1      33.521  25.533  23.832  1.00  0.00     0.133 C 
BRANCH   8   9
ATOM      9  C   UNL A   1      32.262  25.655  24.749  1.00  0.00     0.147 C 
ATOM     10  N   UNL A   1      32.397  23.378  25.752  1.00  0.00    -0.320 N 
ATOM     11  C   UNL A   1      31.157  23.013  25.058  1.00  0.00     0.150 C 
ATOM     12  C   UNL A   1      32.399  24.815  26.047  1.00  0.00     0.154 C 
ATOM     13  C   UNL A   1      30.891  23.915  23.840  1.00  0.00     0.182 C 
ATOM     14  O   UNL A   1      31.008  25.313  24.122  1.00  0.00    -0.374 OA
BRANCH  10  15
ATOM     15  C   UNL A   1      32.821  22.538  26.754  1.00  0.00     0.318 C 
ATOM     16  N   UNL A   1      33.632  21.489  26.462  1.00  0.00    -0.330 N 
ATOM     17  H   UNL A   1      33.641  20.807  27.172  1.00  0.00     0.166 HD
ATOM     18  O   UNL A   1      32.501  22.714  27.929  1.00  0.00    -0.249 OA
BRANCH  16  19
ATOM     19  C   UNL A   1      34.502  21.138  25.329  1.00  0.00     0.124 C 
BRANCH  19  20
ATOM     20  C   UNL A   1      34.759  22.355  24.403  1.00  0.00     0.027 C 
ATOM     21  C   UNL A   1      36.193  22.393  23.873  1.00  0.00     0.006 C 
ENDBRANCH  19  20
BRANCH  19  22
ATOM     22  C   UNL A   1      34.018  19.871  24.682  1.00  0.00     0.027 A 
ATOM     23  C   UNL A   1      34.658  18.646  24.563  1.00  0.00     0.017 A 
ATOM     24  S   UNL A   1      32.518  19.784  23.906  1.00  0.00    -0.147 S 
ATOM     25  C   UNL A   1      33.758  17.600  24.200  1.00  0.00     0.012 A 
ATOM     26  C   UNL A   1      32.500  18.092  23.977  1.00  0.00     0.065 A 
ENDBRANCH  19  22
ENDBRANCH  16  19
ENDBRANCH  10  15
ENDBRANCH   8   9
ENDBRANCH   5   8
ENDBRANCH   3   4
ENDBRANCH   2   3
ENDBRANCH   1   2
BRANCH   1  27
ATOM     27  C   UNL A   1      33.531  29.072  26.520  1.00  0.00     0.002 C 
BRANCH  27  28
ATOM     28  C   UNL A   1      34.015  30.254  27.375  1.00  0.00     0.021 C 
BRANCH  28  29
ATOM     29  C   UNL A   1      35.436  30.223  27.928  1.00  0.00     0.116 C 
BRANCH  29  30
ATOM     30  N   UNL A   1      35.456  30.495  29.353  1.00  0.00    -0.352 N 
ATOM     31  C   UNL A   1      36.395  30.176  30.295  1.00  0.00     0.251 C 
ATOM     32  H   UNL A   1      34.673  30.983  29.696  1.00  0.00     0.163 HD
ATOM     33  O   UNL A   1      36.087  30.225  31.493  1.00  0.00    -0.269 OA
BRANCH  31  34
ATOM     34  C   UNL A   1      37.767  29.783  29.910  1.00  0.00     0.039 A 
ATOM     35  C   UNL A   1      38.135  29.838  28.562  1.00  0.00     0.014 A 
ATOM     36  C   UNL A   1      38.670  29.293  30.859  1.00  0.00     0.014 A 
ATOM     37  C   UNL A   1      39.417  29.445  28.173  1.00  0.00     0.010 A 
ATOM     38  C   UNL A   1      39.970  28.963  30.478  1.00  0.00     0.010 A 
ATOM     39  C   UNL A   1      40.356  29.029  29.131  1.00  0.00    -0.014 A 
BRANCH  39  40
ATOM     40  C   UNL A   1      41.742  28.666  28.737  1.00  0.00     0.031 A 
ATOM     41  C   UNL A   1      42.823  29.712  28.703  1.00  0.00     0.074 A 
ATOM     42  C   UNL A   1      42.008  27.399  28.363  1.00  0.00     0.049 A 
ATOM     43  N   UNL A   1      44.075  29.593  28.345  1.00  0.00    -0.248 NA
ATOM     44  C   UNL A   1      42.442  31.076  29.102  1.00  0.00     0.031 C 
ATOM     45  C   UNL A   1      41.028  26.310  28.316  1.00  0.00     0.029 A 
ATOM     46  N   UNL A   1      43.175  26.810  27.945  1.00  0.00    -0.354 N 
ATOM     47  C   UNL A   1      44.628  30.863  28.467  1.00  0.00     0.074 A 
ATOM     48  C   UNL A   1      43.561  31.749  28.877  1.00  0.00     0.031 C 
ATOM     49  C   UNL A   1      41.639  25.183  27.919  1.00  0.00     0.029 A 
ATOM     50  C   UNL A   1      43.041  25.475  27.640  1.00  0.00     0.049 A 
ATOM     51  H   UNL A   1      44.027  27.296  27.872  1.00  0.00     0.167 HD
ATOM     52  C   UNL A   1      45.912  31.249  28.275  1.00  0.00     0.037 A 
ATOM     53  C   UNL A   1      43.943  24.589  27.175  1.00  0.00     0.037 A 
ATOM     54  C   UNL A   1      46.967  30.350  27.878  1.00  0.00     0.049 A 
ATOM     55  C   UNL A   1      45.359  25.046  26.950  1.00  0.00     0.074 A 
ATOM     56  C   UNL A   1      48.313  30.625  27.708  1.00  0.00     0.029 A 
ATOM     57  N   UNL A   1      46.794  29.005  27.580  1.00  0.00    -0.354 N 
ATOM     58  N   UNL A   1      45.881  26.235  27.138  1.00  0.00    -0.248 NA
ATOM     59  C   UNL A   1      46.311  24.043  26.455  1.00  0.00     0.031 C 
ATOM     60  C   UNL A   1      48.940  29.463  27.248  1.00  0.00     0.029 A 
ATOM     61  C   UNL A   1      48.001  28.445  27.195  1.00  0.00     0.049 A 
ATOM     62  H   UNL A   1      45.939  28.521  27.635  1.00  0.00     0.167 HD
ATOM     63  C   UNL A   1      47.226  26.118  26.807  1.00  0.00     0.074 A 
ATOM     64  C   UNL A   1      47.441  24.736  26.426  1.00  0.00     0.031 C 
ATOM     65  C   UNL A   1      48.196  27.066  26.819  1.00  0.00     0.037 A 
BRANCH  52  66
ATOM     66  C   UNL A   1      46.250  32.701  28.487  1.00  0.00     0.058 A 
ATOM     67  C   UNL A   1      46.656  33.194  29.738  1.00  0.00     0.135 A 
ATOM     68  C   UNL A   1      46.205  33.608  27.415  1.00  0.00     0.135 A 
ATOM     69  F   UNL A   1      46.706  32.377  30.803  1.00  0.00    -0.206 F 
ATOM     70  C   UNL A   1      46.974  34.535  29.927  1.00  0.00     0.059 A 
ATOM     71  C   UNL A   1      46.550  34.949  27.572  1.00  0.00     0.059 A 
ATOM     72  F   UNL A   1      45.823  33.196  26.195  1.00  0.00    -0.206 F 
ATOM     73  C   UNL A   1      46.919  35.405  28.837  1.00  0.00     0.060 A 
BRANCH  73  74
ATOM     74  S   UNL A   1      47.342  37.140  29.099  1.00  0.00     0.124 S 
ATOM     75  O   UNL A   1      47.810  37.120  30.481  1.00  0.00    -0.237 OA
ATOM     76  O   UNL A   1      48.368  37.366  28.086  1.00  0.00    -0.237 OA
ATOM     77  O   UNL A   1      46.079  37.837  28.876  1.00  0.00    -0.744 OA
ENDBRANCH  73  74
ENDBRANCH  52  66
BRANCH  53  78
ATOM     78  C   UNL A   1      43.534  23.183  26.906  1.00  0.00     0.058 A 
ATOM     79  C   UNL A   1      43.392  22.708  25.594  1.00  0.00     0.135 A 
ATOM     80  C   UNL A   1      43.298  22.280  27.955  1.00  0.00     0.135 A 
ATOM     81  F   UNL A   1      43.602  23.532  24.556  1.00  0.00    -0.206 F 
ATOM     82  C   UNL A   1      43.014  21.395  25.330  1.00  0.00     0.059 A 
ATOM     83  C   UNL A   1      42.948  20.955  27.717  1.00  0.00     0.059 A 
ATOM     84  F   UNL A   1      43.437  22.678  29.230  1.00  0.00    -0.206 F 
ATOM     85  C   UNL A   1      42.800  20.524  26.399  1.00  0.00     0.060 A 
BRANCH  85  86
ATOM     86  S   UNL A   1      42.361  18.809  26.046  1.00  0.00     0.124 S 
ATOM     87  O   UNL A   1      43.277  18.489  24.958  1.00  0.00    -0.237 OA
ATOM     88  O   UNL A   1      42.630  18.156  27.323  1.00  0.00    -0.237 OA
ATOM     89  O   UNL A   1      40.950  18.893  25.678  1.00  0.00    -0.744 OA
ENDBRANCH  85  86
ENDBRANCH  53  78
BRANCH  65  90
ATOM     90  C   UNL A   1      49.585  26.639  26.433  1.00  0.00     0.058 A 
ATOM     91  C   UNL A   1      50.476  26.084  27.366  1.00  0.00     0.135 A 
ATOM     92  C   UNL A   1      50.012  26.734  25.098  1.00  0.00     0.135 A 
ATOM     93  F   UNL A   1      50.121  25.978  28.657  1.00  0.00    -0.206 F 
ATOM     94  C   UNL A   1      51.746  25.659  26.994  1.00  0.00     0.059 A 
ATOM     95  C   UNL A   1      51.265  26.284  24.697  1.00  0.00     0.059 A 
ATOM     96  F   UNL A   1      49.198  27.248  24.162  1.00  0.00    -0.206 F 
ATOM     97  C   UNL A   1      52.131  25.758  25.656  1.00  0.00     0.060 A 
BRANCH  97  98
ATOM     98  S   UNL A   1      53.767  25.163  25.182  1.00  0.00     0.124 S 
ATOM     99  O   UNL A   1      54.533  25.409  26.400  1.00  0.00    -0.237 OA
ATOM    100  O   UNL A   1      53.508  23.762  24.866  1.00  0.00    -0.237 OA
ATOM    101  O   UNL A   1      54.118  26.004  24.040  1.00  0.00    -0.744 OA
ENDBRANCH  97  98
ENDBRANCH  65  90
ENDBRANCH  39  40
ENDBRANCH  31  34
ENDBRANCH  29  30
ENDBRANCH  28  29
ENDBRANCH  27  28
ENDBRANCH   1  27
TORSDOF 21
ENDMDL
MODEL 2
REMARK VINA RESULT:     -11.2      0.792      8.145
REMARK SMILES CC[C@@H](NC(=O)N1CCO[C@H](CC(=O)NCCCCCCNC(=O)c2ccc(-c3c4nc(c(-c5c(F)cc(S(=O)(=O)[O-])cc5F)c5ccc([nH]5)c(-c5c(F)cc(S(=O)(=O)[O-])cc5F)c5nc(c(-c6c(F)cc(S(=O)(=O)[O-])cc6F)c6ccc3[nH]6)C=C5)C=C4)cc2)C1)c1cccs1
REMARK SMILES IDX 18 1 17 2 16 3 15 4 13 5 14 6 12 8 11 9 7 10 8 11 91 12 9 13
REMARK SMILES IDX 10 14 5 15 4 16 6 18 3 19 2 20 1 21 92 22 93 23 96 24 94 25
REMARK SMILES IDX 95 26 19 27 20 28 21 29 22 30 23 31 24 33 25 34 26 35 90 36
REMARK SMILES IDX 27 37 89 38 28 39 29 40 30 41 83 42 31 43 88 44 82 45 84 46
REMARK SMILES IDX 32 47 87 48 81 49 80 50 33 52 67 53 46 54 66 55 47 56 50 57
REMARK SMILES IDX 65 58 85 59 48 60 49 61 64 63 86 64 51 65 34 66 35 67 44 68
REMARK SMILES IDX 36 69 37 70 43 71 45 72 38 73 39 74 40 75 41 76 42 77 68 78
REMARK SMILES IDX 69 79 78 80 70 81 71 82 77 83 79 84 72 85 73 86 74 87 75 88
REMARK SMILES IDX 76 89 52 90 53 91 62 92 54 93 55 94 61 95 63 96 56 97 57 98
REMARK SMILES IDX 58 99 59 100 60 101
REMARK H PARENT 15 7 4 17 22 32 84 51 50 62
REMARK Flexibility Score: inf
ROOT
ATOM      1  C   UNL A   1      32.148  29.512  25.709  1.00  0.00     0.002 C 
ENDROOT
BRANCH   1   2
ATOM      2  C   UNL A   1      32.885  29.309  24.364  1.00  0.00     0.021 C 
BRANCH   2   3
ATOM      3  C   UNL A   1      32.093  28.835  23.118  1.00  0.00     0.116 C 
BRANCH   3   4
ATOM      4  N   UNL A   1      32.808  27.762  22.375  1.00  0.00    -0.356 N 
ATOM      5  C   UNL A   1      33.352  26.520  22.539  1.00  0.00     0.222 C 
ATOM      6  O   UNL A   1      33.692  25.967  21.482  1.00  0.00    -0.275 OA
ATOM      7  H   UNL A   1      32.932  28.046  21.441  1.00  0.00     0.163 HD
BRANCH   5   8
ATOM      8  C   UNL A   1      33.485  25.735  23.836  1.00  0.00     0.133 C 
BRANCH   8   9
ATOM      9  C   UNL A   1      32.290  25.879  24.833  1.00  0.00     0.147 C 
ATOM     10  N   UNL A   1      32.314  23.534  25.675  1.00  0.00    -0.320 N 
ATOM     11  C   UNL A   1      31.014  23.305  25.034  1.00  0.00     0.150 C 
ATOM     12  C   UNL A   1      32.437  24.944  26.062  1.00  0.00     0.154 C 
ATOM     13  C   UNL A   1      30.748  24.305  23.896  1.00  0.00     0.182 C 
ATOM     14  O   UNL A   1      30.982  25.669  24.261  1.00  0.00    -0.374 OA
BRANCH  10  15
ATOM     15  C   UNL A   1      32.729  22.599  26.593  1.00  0.00     0.318 C 
ATOM     16  N   UNL A   1      33.377  21.481  26.176  1.00  0.00    -0.330 N 
ATOM     17  H   UNL A   1      33.374  20.766  26.852  1.00  0.00     0.166 HD
ATOM     18  O   UNL A   1      32.549  22.749  27.801  1.00  0.00    -0.249 OA
BRANCH  16  19
ATOM     19  C   UNL A   1      34.084  21.093  24.946  1.00  0.00     0.124 C 
BRANCH  19  20
ATOM     20  C   UNL A   1      33.978  19.570  24.677  1.00  0.00     0.027 C 
ATOM     21  C   UNL A   1      32.621  19.173  24.093  1.00  0.00     0.006 C 
ENDBRANCH  19  20
BRANCH  19  22
ATOM     22  C   UNL A   1      35.458  21.701  24.930  1.00  0.00     0.027 A 
ATOM     23  C   UNL A   1      35.831  23.025  24.748  1.00  0.00     0.017 A 
ATOM     24  S   UNL A   1      36.852  20.757  25.098  1.00  0.00    -0.147 S 
ATOM     25  C   UNL A   1      37.182  23.263  25.139  1.00  0.00     0.012 A 
ATOM     26  C   UNL A   1      37.796  22.100  25.516  1.00  0.00     0.065 A 
ENDBRANCH  19  22
ENDBRANCH  16  19
ENDBRANCH  10  15
ENDBRANCH   8   9
ENDBRANCH   5   8
ENDBRANCH   3   4
ENDBRANCH   2   3
ENDBRANCH   1   2
BRANCH   1  27
ATOM     27  C   UNL A   1      32.887  29.522  27.056  1.00  0.00     0.002 C 
BRANCH  27  28
ATOM     28  C   UNL A   1      34.197  30.307  27.228  1.00  0.00     0.021 C 
BRANCH  28  29
ATOM     29  C   UNL A   1      35.352  29.648  27.975  1.00  0.00     0.116 C 
BRANCH  29  30
ATOM     30  N   UNL A   1      35.407  30.084  29.358  1.00  0.00    -0.352 N 
ATOM     31  C   UNL A   1      36.425  29.994  30.267  1.00  0.00     0.251 C 
ATOM     32  H   UNL A   1      34.585  30.509  29.694  1.00  0.00     0.163 HD
ATOM     33  O   UNL A   1      36.172  30.144  31.470  1.00  0.00    -0.269 OA
BRANCH  31  34
ATOM     34  C   UNL A   1      37.815  29.730  29.841  1.00  0.00     0.039 A 
ATOM     35  C   UNL A   1      38.741  29.284  30.790  1.00  0.00     0.014 A 
ATOM     36  C   UNL A   1      38.229  29.985  28.530  1.00  0.00     0.014 A 
ATOM     37  C   UNL A   1      40.067  29.054  30.415  1.00  0.00     0.010 A 
ATOM     38  C   UNL A   1      39.536  29.694  28.143  1.00  0.00     0.010 A 
ATOM     39  C   UNL A   1      40.471  29.232  29.082  1.00  0.00    -0.014 A 
BRANCH  39  40
ATOM     40  C   UNL A   1      41.864  28.933  28.659  1.00  0.00     0.031 A 
ATOM     41  C   UNL A   1      42.241  27.549  28.205  1.00  0.00     0.074 A 
ATOM     42  C   UNL A   1      42.795  29.904  28.733  1.00  0.00     0.049 A 
ATOM     43  N   UNL A   1      43.411  27.091  27.841  1.00  0.00    -0.248 NA
ATOM     44  C   UNL A   1      41.169  26.542  28.178  1.00  0.00     0.031 C 
ATOM     45  C   UNL A   1      42.552  31.272  29.199  1.00  0.00     0.029 A 
ATOM     46  N   UNL A   1      44.133  29.893  28.426  1.00  0.00    -0.354 N 
ATOM     47  C   UNL A   1      43.219  25.745  27.550  1.00  0.00     0.074 A 
ATOM     48  C   UNL A   1      41.832  25.446  27.835  1.00  0.00     0.031 C 
ATOM     49  C   UNL A   1      43.694  31.973  29.123  1.00  0.00     0.029 A 
ATOM     50  C   UNL A   1      44.760  31.098  28.647  1.00  0.00     0.049 A 
ATOM     51  H   UNL A   1      44.600  29.099  28.081  1.00  0.00     0.167 HD
ATOM     52  C   UNL A   1      44.112  24.847  27.070  1.00  0.00     0.037 A 
ATOM     53  C   UNL A   1      46.050  31.454  28.495  1.00  0.00     0.037 A 
ATOM     54  C   UNL A   1      45.488  25.163  26.780  1.00  0.00     0.049 A 
ATOM     55  C   UNL A   1      47.028  30.433  27.980  1.00  0.00     0.074 A 
ATOM     56  C   UNL A   1      46.464  24.344  26.240  1.00  0.00     0.029 A 
ATOM     57  N   UNL A   1      46.085  26.394  27.014  1.00  0.00    -0.354 N 
ATOM     58  N   UNL A   1      46.814  29.183  27.643  1.00  0.00    -0.248 NA
ATOM     59  C   UNL A   1      48.421  30.869  27.818  1.00  0.00     0.031 C 
ATOM     60  C   UNL A   1      47.664  25.060  26.205  1.00  0.00     0.029 A 
ATOM     61  C   UNL A   1      47.424  26.346  26.661  1.00  0.00     0.049 A 
ATOM     62  H   UNL A   1      45.625  27.185  27.377  1.00  0.00     0.167 HD
ATOM     63  C   UNL A   1      48.038  28.690  27.207  1.00  0.00     0.074 A 
ATOM     64  C   UNL A   1      48.984  29.784  27.305  1.00  0.00     0.031 C 
ATOM     65  C   UNL A   1      48.352  27.447  26.765  1.00  0.00     0.037 A 
BRANCH  52  66
ATOM     66  C   UNL A   1      43.634  23.438  26.831  1.00  0.00     0.058 A 
ATOM     67  C   UNL A   1      43.333  22.568  27.892  1.00  0.00     0.135 A 
ATOM     68  C   UNL A   1      43.437  22.963  25.524  1.00  0.00     0.135 A 
ATOM     69  F   UNL A   1      43.513  22.963  29.163  1.00  0.00    -0.206 F 
ATOM     70  C   UNL A   1      42.885  21.270  27.666  1.00  0.00     0.059 A 
ATOM     71  C   UNL A   1      42.959  21.678  25.274  1.00  0.00     0.059 A 
ATOM     72  F   UNL A   1      43.710  23.748  24.469  1.00  0.00    -0.206 F 
ATOM     73  C   UNL A   1      42.700  20.835  26.353  1.00  0.00     0.060 A 
BRANCH  73  74
ATOM     74  S   UNL A   1      42.113  19.150  26.080  1.00  0.00     0.124 S 
ATOM     75  O   UNL A   1      40.676  19.363  25.934  1.00  0.00    -0.237 OA
ATOM     76  O   UNL A   1      42.823  18.767  24.863  1.00  0.00    -0.237 OA
ATOM     77  O   UNL A   1      42.521  18.445  27.291  1.00  0.00    -0.744 OA
ENDBRANCH  73  74
ENDBRANCH  52  66
BRANCH  53  78
ATOM     78  C   UNL A   1      46.483  32.840  28.824  1.00  0.00     0.058 A 
ATOM     79  C   UNL A   1      46.480  33.850  27.851  1.00  0.00     0.135 A 
ATOM     80  C   UNL A   1      46.889  33.187  30.122  1.00  0.00     0.135 A 
ATOM     81  F   UNL A   1      46.105  33.569  26.593  1.00  0.00    -0.206 F 
ATOM     82  C   UNL A   1      46.879  35.150  28.146  1.00  0.00     0.059 A 
ATOM     83  C   UNL A   1      47.264  34.486  30.450  1.00  0.00     0.059 A 
ATOM     84  F   UNL A   1      46.894  32.263  31.096  1.00  0.00    -0.206 F 
ATOM     85  C   UNL A   1      47.264  35.460  29.452  1.00  0.00     0.060 A 
BRANCH  85  86
ATOM     86  S   UNL A   1      47.730  37.160  29.838  1.00  0.00     0.124 S 
ATOM     87  O   UNL A   1      49.086  36.986  30.345  1.00  0.00    -0.237 OA
ATOM     88  O   UNL A   1      47.612  37.811  28.537  1.00  0.00    -0.237 OA
ATOM     89  O   UNL A   1      46.734  37.565  30.826  1.00  0.00    -0.744 OA
ENDBRANCH  85  86
ENDBRANCH  53  78
BRANCH  65  90
ATOM     90  C   UNL A   1      49.770  27.205  26.328  1.00  0.00     0.058 A 
ATOM     91  C   UNL A   1      50.763  26.792  27.230  1.00  0.00     0.135 A 
ATOM     92  C   UNL A   1      50.128  27.334  24.975  1.00  0.00     0.135 A 
ATOM     93  F   UNL A   1      50.477  26.661  28.536  1.00  0.00    -0.206 F 
ATOM     94  C   UNL A   1      52.064  26.535  26.811  1.00  0.00     0.059 A 
ATOM     95  C   UNL A   1      51.414  27.050  24.529  1.00  0.00     0.059 A 
ATOM     96  F   UNL A   1      49.216  27.717  24.068  1.00  0.00    -0.206 F 
ATOM     97  C   UNL A   1      52.379  26.662  25.457  1.00  0.00     0.060 A 
BRANCH  97  98
ATOM     98  S   UNL A   1      54.062  26.286  24.924  1.00  0.00     0.124 S 
ATOM     99  O   UNL A   1      54.826  26.575  26.133  1.00  0.00    -0.237 OA
ATOM    100  O   UNL A   1      53.962  24.877  24.557  1.00  0.00    -0.237 OA
ATOM    101  O   UNL A   1      54.280  27.205  23.810  1.00  0.00    -0.744 OA
ENDBRANCH  97  98
ENDBRANCH  65  90
ENDBRANCH  39  40
ENDBRANCH  31  34
ENDBRANCH  29  30
ENDBRANCH  28  29
ENDBRANCH  27  28
ENDBRANCH   1  27
TORSDOF 21
ENDMDL
MODEL 3
REMARK VINA RESULT:     -11.0      2.512      8.704
REMARK SMILES CC[C@@H](NC(=O)N1CCO[C@H](CC(=O)NCCCCCCNC(=O)c2ccc(-c3c4nc(c(-c5c(F)cc(S(=O)(=O)[O-])cc5F)c5ccc([nH]5)c(-c5c(F)cc(S(=O)(=O)[O-])cc5F)c5nc(c(-c6c(F)cc(S(=O)(=O)[O-])cc6F)c6ccc3[nH]6)C=C5)C=C4)cc2)C1)c1cccs1
REMARK SMILES IDX 18 1 17 2 16 3 15 4 13 5 14 6 12 8 11 9 7 10 8 11 91 12 9 13
REMARK SMILES IDX 10 14 5 15 4 16 6 18 3 19 2 20 1 21 92 22 93 23 96 24 94 25
REMARK SMILES IDX 95 26 19 27 20 28 21 29 22 30 23 31 24 33 25 34 26 35 90 36
REMARK SMILES IDX 27 37 89 38 28 39 29 40 30 41 83 42 31 43 88 44 82 45 84 46
REMARK SMILES IDX 32 47 87 48 81 49 80 50 33 52 67 53 46 54 66 55 47 56 50 57
REMARK SMILES IDX 65 58 85 59 48 60 49 61 64 63 86 64 51 65 34 66 35 67 44 68
REMARK SMILES IDX 36 69 37 70 43 71 45 72 38 73 39 74 40 75 41 76 42 77 68 78
REMARK SMILES IDX 69 79 78 80 70 81 71 82 77 83 79 84 72 85 73 86 74 87 75 88
REMARK SMILES IDX 76 89 52 90 53 91 62 92 54 93 55 94 61 95 63 96 56 97 57 98
REMARK SMILES IDX 58 99 59 100 60 101
REMARK H PARENT 15 7 4 17 22 32 84 51 50 62
REMARK Flexibility Score: inf
ROOT
ATOM      1  C   UNL A   1      38.570  23.657  26.468  1.00  0.00     0.002 C 
ENDROOT
BRANCH   1   2
ATOM      2  C   UNL A   1      37.234  23.585  25.688  1.00  0.00     0.021 C 
BRANCH   2   3
ATOM      3  C   UNL A   1      36.372  22.299  25.761  1.00  0.00     0.116 C 
BRANCH   3   4
ATOM      4  N   UNL A   1      35.158  22.487  26.603  1.00  0.00    -0.356 N 
ATOM      5  C   UNL A   1      33.950  23.122  26.619  1.00  0.00     0.222 C 
ATOM      6  O   UNL A   1      33.203  22.776  27.547  1.00  0.00    -0.275 OA
ATOM      7  H   UNL A   1      35.264  21.975  27.436  1.00  0.00     0.163 HD
BRANCH   5   8
ATOM      8  C   UNL A   1      33.409  24.103  25.589  1.00  0.00     0.133 C 
BRANCH   8   9
ATOM      9  C   UNL A   1      33.435  23.605  24.109  1.00  0.00     0.147 C 
ATOM     10  N   UNL A   1      32.604  25.710  23.066  1.00  0.00    -0.320 N 
ATOM     11  C   UNL A   1      31.369  25.016  22.683  1.00  0.00     0.150 C 
ATOM     12  C   UNL A   1      33.718  24.756  23.108  1.00  0.00     0.154 C 
ATOM     13  C   UNL A   1      31.112  23.772  23.551  1.00  0.00     0.182 C 
ATOM     14  O   UNL A   1      32.248  22.911  23.672  1.00  0.00    -0.374 OA
BRANCH  10  15
ATOM     15  C   UNL A   1      32.847  26.924  22.470  1.00  0.00     0.318 C 
ATOM     16  N   UNL A   1      31.957  27.940  22.612  1.00  0.00    -0.330 N 
ATOM     17  H   UNL A   1      32.075  28.645  21.935  1.00  0.00     0.166 HD
ATOM     18  O   UNL A   1      33.868  27.135  21.816  1.00  0.00    -0.249 OA
BRANCH  16  19
ATOM     19  C   UNL A   1      30.859  28.229  23.547  1.00  0.00     0.124 C 
BRANCH  19  20
ATOM     20  C   UNL A   1      29.841  29.233  22.946  1.00  0.00     0.027 C 
ATOM     21  C   UNL A   1      28.412  28.689  22.951  1.00  0.00     0.006 C 
ENDBRANCH  19  20
BRANCH  19  22
ATOM     22  C   UNL A   1      31.413  28.542  24.908  1.00  0.00     0.027 A 
ATOM     23  C   UNL A   1      31.958  29.725  25.385  1.00  0.00     0.017 A 
ATOM     24  S   UNL A   1      31.495  27.371  26.126  1.00  0.00    -0.147 S 
ATOM     25  C   UNL A   1      32.052  29.741  26.809  1.00  0.00     0.012 A 
ATOM     26  C   UNL A   1      31.658  28.543  27.339  1.00  0.00     0.065 A 
ENDBRANCH  19  22
ENDBRANCH  16  19
ENDBRANCH  10  15
ENDBRANCH   8   9
ENDBRANCH   5   8
ENDBRANCH   3   4
ENDBRANCH   2   3
ENDBRANCH   1   2
BRANCH   1  27
ATOM     27  C   UNL A   1      39.722  22.674  26.212  1.00  0.00     0.002 C 
BRANCH  27  28
ATOM     28  C   UNL A   1      39.648  21.226  26.721  1.00  0.00     0.021 C 
BRANCH  28  29
ATOM     29  C   UNL A   1      39.687  20.091  25.702  1.00  0.00     0.116 C 
BRANCH  29  30
ATOM     30  N   UNL A   1      40.765  19.161  25.986  1.00  0.00    -0.352 N 
ATOM     31  C   UNL A   1      42.103  19.392  26.148  1.00  0.00     0.251 C 
ATOM     32  H   UNL A   1      40.492  18.220  26.073  1.00  0.00     0.163 HD
ATOM     33  O   UNL A   1      42.891  18.439  26.079  1.00  0.00    -0.269 OA
BRANCH  31  34
ATOM     34  C   UNL A   1      42.623  20.751  26.411  1.00  0.00     0.039 A 
ATOM     35  C   UNL A   1      42.987  21.558  25.328  1.00  0.00     0.014 A 
ATOM     36  C   UNL A   1      42.819  21.207  27.718  1.00  0.00     0.014 A 
ATOM     37  C   UNL A   1      43.506  22.834  25.555  1.00  0.00     0.010 A 
ATOM     38  C   UNL A   1      43.276  22.505  27.941  1.00  0.00     0.010 A 
ATOM     39  C   UNL A   1      43.631  23.330  26.863  1.00  0.00    -0.014 A 
BRANCH  39  40
ATOM     40  C   UNL A   1      44.126  24.709  27.114  1.00  0.00     0.031 A 
ATOM     41  C   UNL A   1      43.174  25.793  27.542  1.00  0.00     0.074 A 
ATOM     42  C   UNL A   1      45.428  24.988  26.907  1.00  0.00     0.049 A 
ATOM     43  N   UNL A   1      43.413  27.059  27.765  1.00  0.00    -0.248 NA
ATOM     44  C   UNL A   1      41.765  25.410  27.721  1.00  0.00     0.031 C 
ATOM     45  C   UNL A   1      46.434  24.025  26.450  1.00  0.00     0.029 A 
ATOM     46  N   UNL A   1      46.130  26.159  27.044  1.00  0.00    -0.354 N 
ATOM     47  C   UNL A   1      42.188  27.624  28.102  1.00  0.00     0.074 A 
ATOM     48  C   UNL A   1      41.198  26.575  27.997  1.00  0.00     0.031 C 
ATOM     49  C   UNL A   1      47.626  24.637  26.371  1.00  0.00     0.029 A 
ATOM     50  C   UNL A   1      47.464  26.043  26.725  1.00  0.00     0.049 A 
ATOM     51  H   UNL A   1      45.720  27.002  27.343  1.00  0.00     0.167 HD
ATOM     52  C   UNL A   1      41.918  28.896  28.483  1.00  0.00     0.037 A 
ATOM     53  C   UNL A   1      48.443  26.968  26.708  1.00  0.00     0.037 A 
ATOM     54  C   UNL A   1      42.919  29.928  28.593  1.00  0.00     0.049 A 
ATOM     55  C   UNL A   1      48.116  28.379  27.116  1.00  0.00     0.074 A 
ATOM     56  C   UNL A   1      42.764  31.235  29.022  1.00  0.00     0.029 A 
ATOM     57  N   UNL A   1      44.259  29.772  28.264  1.00  0.00    -0.354 N 
ATOM     58  N   UNL A   1      46.964  28.880  27.499  1.00  0.00    -0.248 NA
ATOM     59  C   UNL A   1      49.217  29.350  27.094  1.00  0.00     0.031 C 
ATOM     60  C   UNL A   1      43.995  31.885  28.893  1.00  0.00     0.029 A 
ATOM     61  C   UNL A   1      44.934  30.968  28.448  1.00  0.00     0.049 A 
ATOM     62  H   UNL A   1      44.668  28.935  27.947  1.00  0.00     0.167 HD
ATOM     63  C   UNL A   1      47.207  30.217  27.787  1.00  0.00     0.074 A 
ATOM     64  C   UNL A   1      48.620  30.443  27.552  1.00  0.00     0.031 C 
ATOM     65  C   UNL A   1      46.342  31.173  28.209  1.00  0.00     0.037 A 
BRANCH  52  66
ATOM     66  C   UNL A   1      40.489  29.246  28.805  1.00  0.00     0.058 A 
ATOM     67  C   UNL A   1      40.036  29.369  30.128  1.00  0.00     0.135 A 
ATOM     68  C   UNL A   1      39.568  29.502  27.775  1.00  0.00     0.135 A 
ATOM     69  F   UNL A   1      40.867  29.125  31.154  1.00  0.00    -0.206 F 
ATOM     70  C   UNL A   1      38.716  29.701  30.420  1.00  0.00     0.059 A 
ATOM     71  C   UNL A   1      38.250  29.867  28.043  1.00  0.00     0.059 A 
ATOM     72  F   UNL A   1      39.943  29.399  26.490  1.00  0.00    -0.206 F 
ATOM     73  C   UNL A   1      37.831  29.949  29.370  1.00  0.00     0.060 A 
BRANCH  73  74
ATOM     74  S   UNL A   1      36.125  30.384  29.768  1.00  0.00     0.124 S 
ATOM     75  O   UNL A   1      35.385  29.563  28.814  1.00  0.00    -0.237 OA
ATOM     76  O   UNL A   1      36.020  29.979  31.167  1.00  0.00    -0.237 OA
ATOM     77  O   UNL A   1      36.074  31.822  29.527  1.00  0.00    -0.744 OA
ENDBRANCH  73  74
ENDBRANCH  52  66
BRANCH  53  78
ATOM     78  C   UNL A   1      49.823  26.583  26.303  1.00  0.00     0.058 A 
ATOM     79  C   UNL A   1      50.698  25.963  27.208  1.00  0.00     0.135 A 
ATOM     80  C   UNL A   1      50.288  26.809  24.998  1.00  0.00     0.135 A 
ATOM     81  F   UNL A   1      50.303  25.730  28.470  1.00  0.00    -0.206 F 
ATOM     82  C   UNL A   1      51.989  25.596  26.841  1.00  0.00     0.059 A 
ATOM     83  C   UNL A   1      51.564  26.423  24.598  1.00  0.00     0.059 A 
ATOM     84  F   UNL A   1      49.486  27.382  24.087  1.00  0.00    -0.206 F 
ATOM     85  C   UNL A   1      52.411  25.825  25.530  1.00  0.00     0.060 A 
BRANCH  85  86
ATOM     86  S   UNL A   1      54.068  25.297  25.048  1.00  0.00     0.124 S 
ATOM     87  O   UNL A   1      54.265  26.040  23.809  1.00  0.00    -0.237 OA
ATOM     88  O   UNL A   1      54.869  25.731  26.188  1.00  0.00    -0.237 OA
ATOM     89  O   UNL A   1      53.931  23.851  24.902  1.00  0.00    -0.744 OA
ENDBRANCH  85  86
ENDBRANCH  53  78
BRANCH  65  90
ATOM     90  C   UNL A   1      46.900  32.545  28.470  1.00  0.00     0.058 A 
ATOM     91  C   UNL A   1      47.440  32.901  29.716  1.00  0.00     0.135 A 
ATOM     92  C   UNL A   1      46.947  33.500  27.440  1.00  0.00     0.135 A 
ATOM     93  F   UNL A   1      47.413  32.029  30.737  1.00  0.00    -0.206 F 
ATOM     94  C   UNL A   1      47.986  34.159  29.939  1.00  0.00     0.059 A 
ATOM     95  C   UNL A   1      47.519  34.753  27.631  1.00  0.00     0.059 A 
ATOM     96  F   UNL A   1      46.454  33.210  26.226  1.00  0.00    -0.206 F 
ATOM     97  C   UNL A   1      48.027  35.078  28.888  1.00  0.00     0.060 A 
BRANCH  97  98
ATOM     98  S   UNL A   1      48.777  36.693  29.182  1.00  0.00     0.124 S 
ATOM     99  O   UNL A   1      49.794  36.739  28.137  1.00  0.00    -0.237 OA
ATOM    100  O   UNL A   1      47.645  37.596  29.009  1.00  0.00    -0.237 OA
ATOM    101  O   UNL A   1      49.286  36.588  30.548  1.00  0.00    -0.744 OA
ENDBRANCH  97  98
ENDBRANCH  65  90
ENDBRANCH  39  40
ENDBRANCH  31  34
ENDBRANCH  29  30
ENDBRANCH  28  29
ENDBRANCH  27  28
ENDBRANCH   1  27
TORSDOF 21
ENDMDL
