MODEL 1
REMARK VINA RESULT:      -8.5      0.000      0.000
REMARK SMILES CC(C)CSc1cc2c(cc1Cl)C=C(C(=O)NCCCCCCNC(=O)c1ccc(-c3c4nc(c(-c5c(F)cc(S(=O)(=O)[O-])cc5F)c5ccc([nH]5)c(-c5c(F)cc(S(=O)(=O)[O-])cc5F)c5nc(c(-c6c(F)cc(S(=O)(=O)[O-])cc6F)c6ccc3[nH]6)C=C5)C=C4)cc1)[C@@H](C(F)(F)F)O2
REMARK SMILES IDX 20 1 19 2 18 3 17 4 15 5 16 6 14 8 6 9 7 10 11 11 8 12 10 13
REMARK SMILES IDX 12 14 9 15 98 16 13 17 93 18 5 19 4 20 2 21 1 22 3 23 94 24
REMARK SMILES IDX 95 25 96 26 97 27 21 28 22 29 23 30 24 31 25 32 26 34 27 35
REMARK SMILES IDX 28 36 92 37 29 38 91 39 30 40 31 41 32 42 85 43 33 44 90 45
REMARK SMILES IDX 84 46 86 47 34 48 89 49 83 50 82 51 35 53 69 54 48 55 68 56
REMARK SMILES IDX 49 57 52 58 67 59 87 60 50 61 51 62 66 64 88 65 53 66 36 67
REMARK SMILES IDX 37 68 46 69 38 70 39 71 45 72 47 73 40 74 41 75 42 76 43 77
REMARK SMILES IDX 44 78 70 79 71 80 80 81 72 82 73 83 79 84 81 85 74 86 75 87
REMARK SMILES IDX 76 88 77 89 78 90 54 91 55 92 64 93 56 94 57 95 63 96 65 97
REMARK SMILES IDX 58 98 59 99 60 100 61 101 62 102
REMARK H PARENT 17 7 24 33 86 52 52 63
REMARK Flexibility Score: inf
ROOT
ATOM      1  C   UNL A   1      43.710  22.678  24.719  1.00  0.00     0.002 C 
ENDROOT
BRANCH   1   2
ATOM      2  C   UNL A   1      44.375  23.975  25.189  1.00  0.00     0.021 C 
BRANCH   2   3
ATOM      3  C   UNL A   1      44.694  24.021  26.681  1.00  0.00     0.116 C 
BRANCH   3   4
ATOM      4  N   UNL A   1      46.124  24.014  26.931  1.00  0.00    -0.352 N 
ATOM      5  C   UNL A   1      47.125  24.922  26.998  1.00  0.00     0.251 C 
ATOM      6  O   UNL A   1      48.234  24.455  27.279  1.00  0.00    -0.270 OA
ATOM      7  H   UNL A   1      46.455  23.102  27.099  1.00  0.00     0.163 HD
BRANCH   5   8
ATOM      8  C   UNL A   1      46.988  26.392  26.758  1.00  0.00     0.067 C 
ATOM      9  C   UNL A   1      45.444  31.208  26.968  1.00  0.00     0.030 A 
ATOM     10  C   UNL A   1      46.541  30.547  26.405  1.00  0.00     0.063 A 
ATOM     11  C   UNL A   1      44.452  30.432  27.599  1.00  0.00     0.055 A 
ATOM     12  C   UNL A   1      46.686  29.167  26.539  1.00  0.00     0.129 A 
ATOM     13  C   UNL A   1      44.598  29.043  27.717  1.00  0.00     0.033 A 
ATOM     14  Cl  UNL A   1      43.030  31.130  28.301  1.00  0.00    -0.083 Cl
ATOM     15  C   UNL A   1      45.730  28.409  27.203  1.00  0.00     0.019 A 
ATOM     16  O   UNL A   1      47.840  28.639  26.044  1.00  0.00    -0.475 OA
ATOM     17  C   UNL A   1      45.953  26.981  27.387  1.00  0.00     0.025 C 
ATOM     18  C   UNL A   1      47.886  27.199  25.858  1.00  0.00     0.314 C 
BRANCH   9  19
ATOM     19  S   UNL A   1      45.351  32.995  26.880  1.00  0.00    -0.124 SA
BRANCH  19  20
ATOM     20  C   UNL A   1      46.010  33.518  28.513  1.00  0.00     0.078 C 
BRANCH  20  21
ATOM     21  C   UNL A   1      45.244  34.671  29.189  1.00  0.00    -0.007 C 
ATOM     22  C   UNL A   1      45.669  36.058  28.704  1.00  0.00     0.008 C 
ATOM     23  C   UNL A   1      43.743  34.499  28.925  1.00  0.00     0.008 C 
ENDBRANCH  20  21
ENDBRANCH  19  20
ENDBRANCH   9  19
BRANCH  18  24
ATOM     24  C   UNL A   1      47.665  26.894  24.367  1.00  0.00     0.429 C 
ATOM     25  F   UNL A   1      48.262  27.835  23.596  1.00  0.00    -0.167 F 
ATOM     26  F   UNL A   1      48.189  25.703  23.996  1.00  0.00    -0.167 F 
ATOM     27  F   UNL A   1      46.353  26.869  24.040  1.00  0.00    -0.167 F 
ENDBRANCH  18  24
ENDBRANCH   5   8
ENDBRANCH   3   4
ENDBRANCH   2   3
ENDBRANCH   1   2
BRANCH   1  28
ATOM     28  C   UNL A   1      43.596  21.566  25.771  1.00  0.00     0.002 C 
BRANCH  28  29
ATOM     29  C   UNL A   1      42.186  21.028  26.027  1.00  0.00     0.021 C 
BRANCH  29  30
ATOM     30  C   UNL A   1      41.202  22.030  26.621  1.00  0.00     0.116 C 
BRANCH  30  31
ATOM     31  N   UNL A   1      39.979  22.148  25.844  1.00  0.00    -0.352 N 
ATOM     32  C   UNL A   1      39.036  23.149  25.862  1.00  0.00     0.251 C 
ATOM     33  H   UNL A   1      39.801  21.409  25.219  1.00  0.00     0.163 HD
ATOM     34  O   UNL A   1      37.990  23.018  25.233  1.00  0.00    -0.269 OA
BRANCH  32  35
ATOM     35  C   UNL A   1      39.271  24.366  26.670  1.00  0.00     0.039 A 
ATOM     36  C   UNL A   1      40.060  25.408  26.178  1.00  0.00     0.014 A 
ATOM     37  C   UNL A   1      38.712  24.451  27.948  1.00  0.00     0.014 A 
ATOM     38  C   UNL A   1      40.413  26.462  27.017  1.00  0.00     0.010 A 
ATOM     39  C   UNL A   1      39.007  25.548  28.764  1.00  0.00     0.010 A 
ATOM     40  C   UNL A   1      39.898  26.540  28.322  1.00  0.00    -0.014 A 
BRANCH  40  41
ATOM     41  C   UNL A   1      40.313  27.659  29.207  1.00  0.00     0.031 A 
ATOM     42  C   UNL A   1      41.683  27.676  29.832  1.00  0.00     0.074 A 
ATOM     43  C   UNL A   1      39.473  28.695  29.397  1.00  0.00     0.049 A 
ATOM     44  N   UNL A   1      42.222  28.580  30.609  1.00  0.00    -0.248 NA
ATOM     45  C   UNL A   1      42.561  26.528  29.552  1.00  0.00     0.031 C 
ATOM     46  C   UNL A   1      38.126  28.800  28.832  1.00  0.00     0.029 A 
ATOM     47  N   UNL A   1      39.635  29.867  30.090  1.00  0.00    -0.354 N 
ATOM     48  C   UNL A   1      43.494  28.110  30.920  1.00  0.00     0.074 A 
ATOM     49  C   UNL A   1      43.635  26.824  30.272  1.00  0.00     0.031 C 
ATOM     50  C   UNL A   1      37.607  29.996  29.152  1.00  0.00     0.029 A 
ATOM     51  C   UNL A   1      38.559  30.718  29.992  1.00  0.00     0.049 A 
ATOM     52  H   UNL A   1      40.444  30.080  30.609  1.00  0.00     0.167 HD
ATOM     53  C   UNL A   1      44.458  28.701  31.664  1.00  0.00     0.037 A 
ATOM     54  C   UNL A   1      38.355  31.938  30.522  1.00  0.00     0.037 A 
ATOM     55  C   UNL A   1      44.321  29.990  32.293  1.00  0.00     0.049 A 
ATOM     56  C   UNL A   1      39.423  32.554  31.379  1.00  0.00     0.074 A 
ATOM     57  C   UNL A   1      45.246  30.675  33.063  1.00  0.00     0.029 A 
ATOM     58  N   UNL A   1      43.190  30.789  32.224  1.00  0.00    -0.354 N 
ATOM     59  N   UNL A   1      40.613  32.087  31.672  1.00  0.00    -0.248 NA
ATOM     60  C   UNL A   1      39.117  33.853  31.991  1.00  0.00     0.031 C 
ATOM     61  C   UNL A   1      44.662  31.875  33.484  1.00  0.00     0.029 A 
ATOM     62  C   UNL A   1      43.387  31.954  32.948  1.00  0.00     0.049 A 
ATOM     63  H   UNL A   1      42.368  30.563  31.732  1.00  0.00     0.167 HD
ATOM     64  C   UNL A   1      41.200  33.036  32.499  1.00  0.00     0.074 A 
ATOM     65  C   UNL A   1      40.242  34.113  32.645  1.00  0.00     0.031 C 
ATOM     66  C   UNL A   1      42.419  33.013  33.089  1.00  0.00     0.037 A 
BRANCH  53  67
ATOM     67  C   UNL A   1      45.752  27.957  31.847  1.00  0.00     0.058 A 
ATOM     68  C   UNL A   1      46.888  28.260  31.081  1.00  0.00     0.135 A 
ATOM     69  C   UNL A   1      45.869  26.957  32.827  1.00  0.00     0.135 A 
ATOM     70  F   UNL A   1      46.825  29.195  30.120  1.00  0.00    -0.206 F 
ATOM     71  C   UNL A   1      48.089  27.583  31.263  1.00  0.00     0.059 A 
ATOM     72  C   UNL A   1      47.068  26.282  33.041  1.00  0.00     0.059 A 
ATOM     73  F   UNL A   1      44.814  26.628  33.587  1.00  0.00    -0.206 F 
ATOM     74  C   UNL A   1      48.169  26.593  32.245  1.00  0.00     0.060 A 
BRANCH  74  75
ATOM     75  S   UNL A   1      49.736  25.723  32.466  1.00  0.00     0.124 S 
ATOM     76  O   UNL A   1      49.822  24.962  31.224  1.00  0.00    -0.237 OA
ATOM     77  O   UNL A   1      50.686  26.821  32.602  1.00  0.00    -0.237 OA
ATOM     78  O   UNL A   1      49.519  24.932  33.673  1.00  0.00    -0.744 OA
ENDBRANCH  74  75
ENDBRANCH  53  67
BRANCH  54  79
ATOM     79  C   UNL A   1      37.086  32.655  30.242  1.00  0.00     0.058 A 
ATOM     80  C   UNL A   1      35.963  32.478  31.063  1.00  0.00     0.135 A 
ATOM     81  C   UNL A   1      36.985  33.570  29.182  1.00  0.00     0.135 A 
ATOM     82  F   UNL A   1      36.011  31.609  32.085  1.00  0.00    -0.206 F 
ATOM     83  C   UNL A   1      34.786  33.186  30.849  1.00  0.00     0.059 A 
ATOM     84  C   UNL A   1      35.826  34.306  28.961  1.00  0.00     0.059 A 
ATOM     85  F   UNL A   1      38.036  33.784  28.376  1.00  0.00    -0.206 F 
ATOM     86  C   UNL A   1      34.730  34.105  29.799  1.00  0.00     0.060 A 
BRANCH  86  87
ATOM     87  S   UNL A   1      33.226  35.081  29.582  1.00  0.00     0.124 S 
ATOM     88  O   UNL A   1      32.531  34.322  28.549  1.00  0.00    -0.237 OA
ATOM     89  O   UNL A   1      32.636  35.034  30.916  1.00  0.00    -0.237 OA
ATOM     90  O   UNL A   1      33.731  36.388  29.176  1.00  0.00    -0.744 OA
ENDBRANCH  86  87
ENDBRANCH  54  79
BRANCH  66  91
ATOM     91  C   UNL A   1      42.792  34.187  33.948  1.00  0.00     0.058 A 
ATOM     92  C   UNL A   1      42.589  34.168  35.336  1.00  0.00     0.135 A 
ATOM     93  C   UNL A   1      43.411  35.316  33.387  1.00  0.00     0.135 A 
ATOM     94  F   UNL A   1      41.994  33.115  35.918  1.00  0.00    -0.206 F 
ATOM     95  C   UNL A   1      42.979  35.233  36.140  1.00  0.00     0.059 A 
ATOM     96  C   UNL A   1      43.828  36.384  34.174  1.00  0.00     0.059 A 
ATOM     97  F   UNL A   1      43.632  35.377  32.065  1.00  0.00    -0.206 F 
ATOM     98  C   UNL A   1      43.601  36.337  35.550  1.00  0.00     0.060 A 
BRANCH  98  99
ATOM     99  S   UNL A   1      44.141  37.694  36.611  1.00  0.00     0.124 S 
ATOM    100  O   UNL A   1      45.427  37.198  37.091  1.00  0.00    -0.237 OA
ATOM    101  O   UNL A   1      44.203  38.815  35.677  1.00  0.00    -0.237 OA
ATOM    102  O   UNL A   1      43.086  37.780  37.616  1.00  0.00    -0.744 OA
ENDBRANCH  98  99
ENDBRANCH  66  91
ENDBRANCH  40  41
ENDBRANCH  32  35
ENDBRANCH  30  31
ENDBRANCH  29  30
ENDBRANCH  28  29
ENDBRANCH   1  28
TORSDOF 20
ENDMDL
MODEL 2
REMARK VINA RESULT:      -8.4      4.090     10.893
REMARK SMILES CC(C)CSc1cc2c(cc1Cl)C=C(C(=O)NCCCCCCNC(=O)c1ccc(-c3c4nc(c(-c5c(F)cc(S(=O)(=O)[O-])cc5F)c5ccc([nH]5)c(-c5c(F)cc(S(=O)(=O)[O-])cc5F)c5nc(c(-c6c(F)cc(S(=O)(=O)[O-])cc6F)c6ccc3[nH]6)C=C5)C=C4)cc1)[C@@H](C(F)(F)F)O2
REMARK SMILES IDX 20 1 19 2 18 3 17 4 15 5 16 6 14 8 6 9 7 10 11 11 8 12 10 13
REMARK SMILES IDX 12 14 9 15 98 16 13 17 93 18 5 19 4 20 2 21 1 22 3 23 94 24
REMARK SMILES IDX 95 25 96 26 97 27 21 28 22 29 23 30 24 31 25 32 26 34 27 35
REMARK SMILES IDX 28 36 92 37 29 38 91 39 30 40 31 41 32 42 85 43 33 44 90 45
REMARK SMILES IDX 84 46 86 47 34 48 89 49 83 50 82 51 35 53 69 54 48 55 68 56
REMARK SMILES IDX 49 57 52 58 67 59 87 60 50 61 51 62 66 64 88 65 53 66 36 67
REMARK SMILES IDX 37 68 46 69 38 70 39 71 45 72 47 73 40 74 41 75 42 76 43 77
REMARK SMILES IDX 44 78 70 79 71 80 80 81 72 82 73 83 79 84 81 85 74 86 75 87
REMARK SMILES IDX 76 88 77 89 78 90 54 91 55 92 64 93 56 94 57 95 63 96 65 97
REMARK SMILES IDX 58 98 59 99 60 100 61 101 62 102
REMARK H PARENT 17 7 24 33 86 52 52 63
REMARK Flexibility Score: inf
ROOT
ATOM      1  C   UNL A   1      45.183  27.413  40.743  1.00  0.00     0.002 C 
ENDROOT
BRANCH   1   2
ATOM      2  C   UNL A   1      44.613  26.005  40.542  1.00  0.00     0.021 C 
BRANCH   2   3
ATOM      3  C   UNL A   1      44.437  25.595  39.082  1.00  0.00     0.116 C 
BRANCH   3   4
ATOM      4  N   UNL A   1      44.901  24.240  38.839  1.00  0.00    -0.352 N 
ATOM      5  C   UNL A   1      45.201  23.471  37.768  1.00  0.00     0.251 C 
ATOM      6  O   UNL A   1      45.605  22.334  38.040  1.00  0.00    -0.270 OA
ATOM      7  H   UNL A   1      45.035  23.750  39.682  1.00  0.00     0.163 HD
BRANCH   5   8
ATOM      8  C   UNL A   1      45.077  23.881  36.335  1.00  0.00     0.067 C 
ATOM      9  C   UNL A   1      46.087  25.649  31.701  1.00  0.00     0.030 A 
ATOM     10  C   UNL A   1      45.035  24.926  32.274  1.00  0.00     0.063 A 
ATOM     11  C   UNL A   1      47.132  26.080  32.540  1.00  0.00     0.055 A 
ATOM     12  C   UNL A   1      45.064  24.573  33.622  1.00  0.00     0.129 A 
ATOM     13  C   UNL A   1      47.149  25.733  33.898  1.00  0.00     0.033 A 
ATOM     14  Cl  UNL A   1      48.471  27.011  31.956  1.00  0.00    -0.083 Cl
ATOM     15  C   UNL A   1      46.120  24.959  34.439  1.00  0.00     0.019 A 
ATOM     16  O   UNL A   1      44.043  23.783  34.053  1.00  0.00    -0.475 OA
ATOM     17  C   UNL A   1      46.153  24.508  35.823  1.00  0.00     0.025 C 
ATOM     18  C   UNL A   1      43.849  23.671  35.489  1.00  0.00     0.314 C 
BRANCH   9  19
ATOM     19  S   UNL A   1      46.073  25.981  29.940  1.00  0.00    -0.124 SA
BRANCH  19  20
ATOM     20  C   UNL A   1      44.352  25.552  29.459  1.00  0.00     0.078 C 
BRANCH  20  21
ATOM     21  C   UNL A   1      44.212  24.287  28.591  1.00  0.00    -0.007 C 
ATOM     22  C   UNL A   1      45.543  23.764  28.048  1.00  0.00     0.008 C 
ATOM     23  C   UNL A   1      43.554  23.179  29.423  1.00  0.00     0.008 C 
ENDBRANCH  20  21
ENDBRANCH  19  20
ENDBRANCH   9  19
BRANCH  18  24
ATOM     24  C   UNL A   1      42.682  24.587  35.895  1.00  0.00     0.429 C 
ATOM     25  F   UNL A   1      41.915  24.884  34.818  1.00  0.00    -0.167 F 
ATOM     26  F   UNL A   1      41.863  24.013  36.805  1.00  0.00    -0.167 F 
ATOM     27  F   UNL A   1      43.110  25.754  36.426  1.00  0.00    -0.167 F 
ENDBRANCH  18  24
ENDBRANCH   5   8
ENDBRANCH   3   4
ENDBRANCH   2   3
ENDBRANCH   1   2
BRANCH   1  28
ATOM     28  C   UNL A   1      46.617  27.482  41.285  1.00  0.00     0.002 C 
BRANCH  28  29
ATOM     29  C   UNL A   1      47.291  28.856  41.226  1.00  0.00     0.021 C 
BRANCH  29  30
ATOM     30  C   UNL A   1      47.537  29.403  39.824  1.00  0.00     0.116 C 
BRANCH  30  31
ATOM     31  N   UNL A   1      48.458  28.585  39.053  1.00  0.00    -0.352 N 
ATOM     32  C   UNL A   1      48.313  28.083  37.780  1.00  0.00     0.251 C 
ATOM     33  H   UNL A   1      49.302  28.358  39.505  1.00  0.00     0.163 HD
ATOM     34  O   UNL A   1      49.140  27.294  37.334  1.00  0.00    -0.269 OA
BRANCH  32  35
ATOM     35  C   UNL A   1      47.140  28.473  36.967  1.00  0.00     0.039 A 
ATOM     36  C   UNL A   1      47.229  29.510  36.035  1.00  0.00     0.014 A 
ATOM     37  C   UNL A   1      45.928  27.803  37.159  1.00  0.00     0.014 A 
ATOM     38  C   UNL A   1      46.076  29.975  35.409  1.00  0.00     0.010 A 
ATOM     39  C   UNL A   1      44.785  28.224  36.472  1.00  0.00     0.010 A 
ATOM     40  C   UNL A   1      44.840  29.344  35.627  1.00  0.00    -0.014 A 
BRANCH  40  41
ATOM     41  C   UNL A   1      43.619  29.879  34.970  1.00  0.00     0.031 A 
ATOM     42  C   UNL A   1      42.744  30.882  35.674  1.00  0.00     0.074 A 
ATOM     43  C   UNL A   1      43.333  29.505  33.707  1.00  0.00     0.049 A 
ATOM     44  N   UNL A   1      41.658  31.473  35.245  1.00  0.00    -0.248 NA
ATOM     45  C   UNL A   1      43.137  31.272  37.038  1.00  0.00     0.031 C 
ATOM     46  C   UNL A   1      44.113  28.552  32.915  1.00  0.00     0.029 A 
ATOM     47  N   UNL A   1      42.330  29.900  32.859  1.00  0.00    -0.354 N 
ATOM     48  C   UNL A   1      41.231  32.293  36.284  1.00  0.00     0.074 A 
ATOM     49  C   UNL A   1      42.159  32.101  37.378  1.00  0.00     0.031 C 
ATOM     50  C   UNL A   1      43.596  28.480  31.679  1.00  0.00     0.029 A 
ATOM     51  C   UNL A   1      42.414  29.335  31.608  1.00  0.00     0.049 A 
ATOM     52  H   UNL A   1      41.619  30.528  33.119  1.00  0.00     0.167 HD
ATOM     53  C   UNL A   1      40.172  33.136  36.319  1.00  0.00     0.037 A 
ATOM     54  C   UNL A   1      41.627  29.483  30.525  1.00  0.00     0.037 A 
ATOM     55  C   UNL A   1      39.261  33.338  35.222  1.00  0.00     0.049 A 
ATOM     56  C   UNL A   1      40.436  30.391  30.602  1.00  0.00     0.074 A 
ATOM     57  C   UNL A   1      38.161  34.177  35.160  1.00  0.00     0.029 A 
ATOM     58  N   UNL A   1      39.343  32.697  33.995  1.00  0.00    -0.354 N 
ATOM     59  N   UNL A   1      40.041  31.147  31.599  1.00  0.00    -0.248 NA
ATOM     60  C   UNL A   1      39.571  30.456  29.416  1.00  0.00     0.031 C 
ATOM     61  C   UNL A   1      37.561  34.019  33.905  1.00  0.00     0.029 A 
ATOM     62  C   UNL A   1      38.306  33.110  33.173  1.00  0.00     0.049 A 
ATOM     63  H   UNL A   1      40.036  32.045  33.744  1.00  0.00     0.167 HD
ATOM     64  C   UNL A   1      38.885  31.781  31.160  1.00  0.00     0.074 A 
ATOM     65  C   UNL A   1      38.654  31.335  29.801  1.00  0.00     0.031 C 
ATOM     66  C   UNL A   1      38.086  32.649  31.826  1.00  0.00     0.037 A 
BRANCH  53  67
ATOM     67  C   UNL A   1      39.936  33.906  37.589  1.00  0.00     0.058 A 
ATOM     68  C   UNL A   1      39.058  33.438  38.579  1.00  0.00     0.135 A 
ATOM     69  C   UNL A   1      40.626  35.104  37.837  1.00  0.00     0.135 A 
ATOM     70  F   UNL A   1      38.362  32.307  38.383  1.00  0.00    -0.206 F 
ATOM     71  C   UNL A   1      38.853  34.142  39.760  1.00  0.00     0.059 A 
ATOM     72  C   UNL A   1      40.453  35.813  39.023  1.00  0.00     0.059 A 
ATOM     73  F   UNL A   1      41.477  35.596  36.924  1.00  0.00    -0.206 F 
ATOM     74  C   UNL A   1      39.554  35.331  39.973  1.00  0.00     0.060 A 
BRANCH  74  75
ATOM     75  S   UNL A   1      39.275  36.232  41.512  1.00  0.00     0.124 S 
ATOM     76  O   UNL A   1      38.123  35.522  42.059  1.00  0.00    -0.237 OA
ATOM     77  O   UNL A   1      40.534  36.035  42.222  1.00  0.00    -0.237 OA
ATOM     78  O   UNL A   1      39.017  37.597  41.066  1.00  0.00    -0.744 OA
ENDBRANCH  74  75
ENDBRANCH  53  67
BRANCH  54  79
ATOM     79  C   UNL A   1      41.958  28.753  29.275  1.00  0.00     0.058 A 
ATOM     80  C   UNL A   1      41.306  27.556  28.947  1.00  0.00     0.135 A 
ATOM     81  C   UNL A   1      42.893  29.263  28.360  1.00  0.00     0.135 A 
ATOM     82  F   UNL A   1      40.411  27.026  29.795  1.00  0.00    -0.206 F 
ATOM     83  C   UNL A   1      41.562  26.891  27.753  1.00  0.00     0.059 A 
ATOM     84  C   UNL A   1      43.150  28.628  27.150  1.00  0.00     0.059 A 
ATOM     85  F   UNL A   1      43.533  30.412  28.623  1.00  0.00    -0.206 F 
ATOM     86  C   UNL A   1      42.481  27.441  26.856  1.00  0.00     0.060 A 
BRANCH  86  87
ATOM     87  S   UNL A   1      42.743  26.616  25.271  1.00  0.00     0.124 S 
ATOM     88  O   UNL A   1      43.986  25.893  25.519  1.00  0.00    -0.237 OA
ATOM     89  O   UNL A   1      41.542  25.796  25.151  1.00  0.00    -0.237 OA
ATOM     90  O   UNL A   1      42.832  27.724  24.327  1.00  0.00    -0.744 OA
ENDBRANCH  86  87
ENDBRANCH  54  79
BRANCH  66  91
ATOM     91  C   UNL A   1      36.884  33.177  31.096  1.00  0.00     0.058 A 
ATOM     92  C   UNL A   1      35.588  32.751  31.423  1.00  0.00     0.135 A 
ATOM     93  C   UNL A   1      37.024  34.160  30.104  1.00  0.00     0.135 A 
ATOM     94  F   UNL A   1      35.403  31.808  32.360  1.00  0.00    -0.206 F 
ATOM     95  C   UNL A   1      34.470  33.276  30.785  1.00  0.00     0.059 A 
ATOM     96  C   UNL A   1      35.919  34.713  29.466  1.00  0.00     0.059 A 
ATOM     97  F   UNL A   1      38.243  34.604  29.761  1.00  0.00    -0.206 F 
ATOM     98  C   UNL A   1      34.645  34.259  29.808  1.00  0.00     0.060 A 
BRANCH  98  99
ATOM     99  S   UNL A   1      33.183  34.962  29.017  1.00  0.00     0.124 S 
ATOM    100  O   UNL A   1      33.735  36.157  28.387  1.00  0.00    -0.237 OA
ATOM    101  O   UNL A   1      32.777  33.895  28.106  1.00  0.00    -0.237 OA
ATOM    102  O   UNL A   1      32.275  35.203  30.135  1.00  0.00    -0.744 OA
ENDBRANCH  98  99
ENDBRANCH  66  91
ENDBRANCH  40  41
ENDBRANCH  32  35
ENDBRANCH  30  31
ENDBRANCH  29  30
ENDBRANCH  28  29
ENDBRANCH   1  28
TORSDOF 20
ENDMDL
MODEL 3
REMARK VINA RESULT:      -8.2      4.371      6.858
REMARK SMILES CC(C)CSc1cc2c(cc1Cl)C=C(C(=O)NCCCCCCNC(=O)c1ccc(-c3c4nc(c(-c5c(F)cc(S(=O)(=O)[O-])cc5F)c5ccc([nH]5)c(-c5c(F)cc(S(=O)(=O)[O-])cc5F)c5nc(c(-c6c(F)cc(S(=O)(=O)[O-])cc6F)c6ccc3[nH]6)C=C5)C=C4)cc1)[C@@H](C(F)(F)F)O2
REMARK SMILES IDX 20 1 19 2 18 3 17 4 15 5 16 6 14 8 6 9 7 10 11 11 8 12 10 13
REMARK SMILES IDX 12 14 9 15 98 16 13 17 93 18 5 19 4 20 2 21 1 22 3 23 94 24
REMARK SMILES IDX 95 25 96 26 97 27 21 28 22 29 23 30 24 31 25 32 26 34 27 35
REMARK SMILES IDX 28 36 92 37 29 38 91 39 30 40 31 41 32 42 85 43 33 44 90 45
REMARK SMILES IDX 84 46 86 47 34 48 89 49 83 50 82 51 35 53 69 54 48 55 68 56
REMARK SMILES IDX 49 57 52 58 67 59 87 60 50 61 51 62 66 64 88 65 53 66 36 67
REMARK SMILES IDX 37 68 46 69 38 70 39 71 45 72 47 73 40 74 41 75 42 76 43 77
REMARK SMILES IDX 44 78 70 79 71 80 80 81 72 82 73 83 79 84 81 85 74 86 75 87
REMARK SMILES IDX 76 88 77 89 78 90 54 91 55 92 64 93 56 94 57 95 63 96 65 97
REMARK SMILES IDX 58 98 59 99 60 100 61 101 62 102
REMARK H PARENT 17 7 24 33 86 52 52 63
REMARK Flexibility Score: inf
ROOT
ATOM      1  C   UNL A   1      44.396  23.422  30.110  1.00  0.00     0.002 C 
ENDROOT
BRANCH   1   2
ATOM      2  C   UNL A   1      44.149  23.908  31.542  1.00  0.00     0.021 C 
BRANCH   2   3
ATOM      3  C   UNL A   1      44.095  22.797  32.587  1.00  0.00     0.116 C 
BRANCH   3   4
ATOM      4  N   UNL A   1      43.874  23.321  33.924  1.00  0.00    -0.352 N 
ATOM      5  C   UNL A   1      44.617  23.578  35.024  1.00  0.00     0.251 C 
ATOM      6  O   UNL A   1      43.993  24.071  35.971  1.00  0.00    -0.270 OA
ATOM      7  H   UNL A   1      42.928  23.552  34.068  1.00  0.00     0.163 HD
BRANCH   5   8
ATOM      8  C   UNL A   1      46.082  23.313  35.172  1.00  0.00     0.067 C 
ATOM      9  C   UNL A   1      51.115  23.531  34.674  1.00  0.00     0.030 A 
ATOM     10  C   UNL A   1      50.237  22.892  35.556  1.00  0.00     0.063 A 
ATOM     11  C   UNL A   1      50.566  24.266  33.605  1.00  0.00     0.055 A 
ATOM     12  C   UNL A   1      48.858  23.048  35.427  1.00  0.00     0.129 A 
ATOM     13  C   UNL A   1      49.177  24.408  33.474  1.00  0.00     0.033 A 
ATOM     14  Cl  UNL A   1      51.548  25.071  32.428  1.00  0.00    -0.083 Cl
ATOM     15  C   UNL A   1      48.319  23.813  34.400  1.00  0.00     0.019 A 
ATOM     16  O   UNL A   1      48.099  22.469  36.398  1.00  0.00    -0.475 OA
ATOM     17  C   UNL A   1      46.877  24.014  34.341  1.00  0.00     0.025 C 
ATOM     18  C   UNL A   1      46.679  22.317  36.130  1.00  0.00     0.314 C 
BRANCH   9  19
ATOM     19  S   UNL A   1      52.882  23.405  34.943  1.00  0.00    -0.124 SA
BRANCH  19  20
ATOM     20  C   UNL A   1      53.163  21.590  34.958  1.00  0.00     0.078 C 
BRANCH  20  21
ATOM     21  C   UNL A   1      52.675  20.842  33.702  1.00  0.00    -0.007 C 
ATOM     22  C   UNL A   1      53.269  21.379  32.398  1.00  0.00     0.008 C 
ATOM     23  C   UNL A   1      53.039  19.357  33.831  1.00  0.00     0.008 C 
ENDBRANCH  20  21
ENDBRANCH  19  20
ENDBRANCH   9  19
BRANCH  18  24
ATOM     24  C   UNL A   1      46.415  20.859  35.717  1.00  0.00     0.429 C 
ATOM     25  F   UNL A   1      46.101  20.788  34.401  1.00  0.00    -0.167 F 
ATOM     26  F   UNL A   1      47.494  20.064  35.899  1.00  0.00    -0.167 F 
ATOM     27  F   UNL A   1      45.395  20.308  36.412  1.00  0.00    -0.167 F 
ENDBRANCH  18  24
ENDBRANCH   5   8
ENDBRANCH   3   4
ENDBRANCH   2   3
ENDBRANCH   1   2
BRANCH   1  28
ATOM     28  C   UNL A   1      43.396  23.915  29.055  1.00  0.00     0.002 C 
BRANCH  28  29
ATOM     29  C   UNL A   1      43.085  22.938  27.917  1.00  0.00     0.021 C 
BRANCH  29  30
ATOM     30  C   UNL A   1      41.667  23.012  27.363  1.00  0.00     0.116 C 
BRANCH  30  31
ATOM     31  N   UNL A   1      41.563  23.865  26.191  1.00  0.00    -0.352 N 
ATOM     32  C   UNL A   1      41.325  25.218  26.123  1.00  0.00     0.251 C 
ATOM     33  H   UNL A   1      41.679  23.412  25.325  1.00  0.00     0.163 HD
ATOM     34  O   UNL A   1      41.134  25.755  25.035  1.00  0.00    -0.269 OA
BRANCH  32  35
ATOM     35  C   UNL A   1      41.265  26.016  27.368  1.00  0.00     0.039 A 
ATOM     36  C   UNL A   1      40.225  25.835  28.283  1.00  0.00     0.014 A 
ATOM     37  C   UNL A   1      42.253  26.975  27.608  1.00  0.00     0.014 A 
ATOM     38  C   UNL A   1      40.090  26.712  29.356  1.00  0.00     0.010 A 
ATOM     39  C   UNL A   1      42.157  27.807  28.728  1.00  0.00     0.010 A 
ATOM     40  C   UNL A   1      41.049  27.713  29.586  1.00  0.00    -0.014 A 
BRANCH  40  41
ATOM     41  C   UNL A   1      40.866  28.655  30.721  1.00  0.00     0.031 A 
ATOM     42  C   UNL A   1      41.811  28.638  31.894  1.00  0.00     0.074 A 
ATOM     43  C   UNL A   1      39.881  29.572  30.664  1.00  0.00     0.049 A 
ATOM     44  N   UNL A   1      41.819  29.401  32.956  1.00  0.00    -0.248 NA
ATOM     45  C   UNL A   1      42.887  27.634  31.872  1.00  0.00     0.031 C 
ATOM     46  C   UNL A   1      38.911  29.697  29.573  1.00  0.00     0.029 A 
ATOM     47  N   UNL A   1      39.547  30.587  31.523  1.00  0.00    -0.354 N 
ATOM     48  C   UNL A   1      42.886  28.965  33.734  1.00  0.00     0.074 A 
ATOM     49  C   UNL A   1      43.486  27.850  33.035  1.00  0.00     0.031 C 
ATOM     50  C   UNL A   1      38.131  30.765  29.800  1.00  0.00     0.029 A 
ATOM     51  C   UNL A   1      38.504  31.364  31.077  1.00  0.00     0.049 A 
ATOM     52  H   UNL A   1      40.010  30.745  32.377  1.00  0.00     0.167 HD
ATOM     53  C   UNL A   1      43.332  29.457  34.915  1.00  0.00     0.037 A 
ATOM     54  C   UNL A   1      37.909  32.436  31.635  1.00  0.00     0.037 A 
ATOM     55  C   UNL A   1      42.743  30.580  35.599  1.00  0.00     0.049 A 
ATOM     56  C   UNL A   1      38.395  32.936  32.964  1.00  0.00     0.074 A 
ATOM     57  C   UNL A   1      43.128  31.156  36.797  1.00  0.00     0.029 A 
ATOM     58  N   UNL A   1      41.646  31.297  35.146  1.00  0.00    -0.354 N 
ATOM     59  N   UNL A   1      39.397  32.501  33.690  1.00  0.00    -0.248 NA
ATOM     60  C   UNL A   1      37.661  34.061  33.559  1.00  0.00     0.031 C 
ATOM     61  C   UNL A   1      42.245  32.203  37.084  1.00  0.00     0.029 A 
ATOM     62  C   UNL A   1      41.332  32.302  36.047  1.00  0.00     0.049 A 
ATOM     63  H   UNL A   1      41.163  31.120  34.308  1.00  0.00     0.167 HD
ATOM     64  C   UNL A   1      39.417  33.301  34.826  1.00  0.00     0.074 A 
ATOM     65  C   UNL A   1      38.339  34.259  34.682  1.00  0.00     0.031 C 
ATOM     66  C   UNL A   1      40.250  33.242  35.893  1.00  0.00     0.037 A 
BRANCH  53  67
ATOM     67  C   UNL A   1      44.516  28.782  35.549  1.00  0.00     0.058 A 
ATOM     68  C   UNL A   1      45.816  29.291  35.406  1.00  0.00     0.135 A 
ATOM     69  C   UNL A   1      44.344  27.635  36.342  1.00  0.00     0.135 A 
ATOM     70  F   UNL A   1      46.037  30.375  34.645  1.00  0.00    -0.206 F 
ATOM     71  C   UNL A   1      46.908  28.675  36.008  1.00  0.00     0.059 A 
ATOM     72  C   UNL A   1      45.420  27.015  36.971  1.00  0.00     0.059 A 
ATOM     73  F   UNL A   1      43.123  27.107  36.511  1.00  0.00    -0.206 F 
ATOM     74  C   UNL A   1      46.700  27.535  36.787  1.00  0.00     0.060 A 
BRANCH  74  75
ATOM     75  S   UNL A   1      48.130  26.747  37.559  1.00  0.00     0.124 S 
ATOM     76  O   UNL A   1      47.518  25.573  38.171  1.00  0.00    -0.237 OA
ATOM     77  O   UNL A   1      48.998  26.486  36.416  1.00  0.00    -0.237 OA
ATOM     78  O   UNL A   1      48.615  27.760  38.492  1.00  0.00    -0.744 OA
ENDBRANCH  74  75
ENDBRANCH  53  67
BRANCH  54  79
ATOM     79  C   UNL A   1      36.793  33.106  30.922  1.00  0.00     0.058 A 
ATOM     80  C   UNL A   1      35.462  32.895  31.309  1.00  0.00     0.135 A 
ATOM     81  C   UNL A   1      37.036  34.010  29.876  1.00  0.00     0.135 A 
ATOM     82  F   UNL A   1      35.181  32.034  32.300  1.00  0.00    -0.206 F 
ATOM     83  C   UNL A   1      34.410  33.561  30.690  1.00  0.00     0.059 A 
ATOM     84  C   UNL A   1      36.002  34.704  29.256  1.00  0.00     0.059 A 
ATOM     85  F   UNL A   1      38.293  34.255  29.478  1.00  0.00    -0.206 F 
ATOM     86  C   UNL A   1      34.691  34.471  29.669  1.00  0.00     0.060 A 
BRANCH  86  87
ATOM     87  S   UNL A   1      33.326  35.392  28.930  1.00  0.00     0.124 S 
ATOM     88  O   UNL A   1      32.570  34.327  28.281  1.00  0.00    -0.237 OA
ATOM     89  O   UNL A   1      32.697  35.999  30.099  1.00  0.00    -0.237 OA
ATOM     90  O   UNL A   1      33.999  36.328  28.035  1.00  0.00    -0.744 OA
ENDBRANCH  86  87
ENDBRANCH  54  79
BRANCH  66  91
ATOM     91  C   UNL A   1      40.032  34.241  36.993  1.00  0.00     0.058 A 
ATOM     92  C   UNL A   1      40.641  35.504  36.962  1.00  0.00     0.135 A 
ATOM     93  C   UNL A   1      39.159  33.956  38.055  1.00  0.00     0.135 A 
ATOM     94  F   UNL A   1      41.490  35.821  35.971  1.00  0.00    -0.206 F 
ATOM     95  C   UNL A   1      40.401  36.450  37.953  1.00  0.00     0.059 A 
ATOM     96  C   UNL A   1      38.888  34.893  39.046  1.00  0.00     0.059 A 
ATOM     97  F   UNL A   1      38.547  32.763  38.125  1.00  0.00    -0.206 F 
ATOM     98  C   UNL A   1      39.520  36.136  38.991  1.00  0.00     0.060 A 
BRANCH  98  99
ATOM     99  S   UNL A   1      39.183  37.388  40.247  1.00  0.00     0.124 S 
ATOM    100  O   UNL A   1      38.642  36.577  41.333  1.00  0.00    -0.237 OA
ATOM    101  O   UNL A   1      40.507  37.958  40.482  1.00  0.00    -0.237 OA
ATOM    102  O   UNL A   1      38.231  38.279  39.592  1.00  0.00    -0.744 OA
ENDBRANCH  98  99
ENDBRANCH  66  91
ENDBRANCH  40  41
ENDBRANCH  32  35
ENDBRANCH  30  31
ENDBRANCH  29  30
ENDBRANCH  28  29
ENDBRANCH   1  28
TORSDOF 20
ENDMDL
