MODEL 1
REMARK VINA RESULT:     -11.2      0.000      0.000
REMARK SMILES CSc1nc(O)nc(C)c1C(=O)N1C[C@@H](O)C[C@@H]1C(=O)NCCCCCCNC(=O)c1ccc(-c2c3nc(c(-c4c(F)cc(S(=O)(=O)[O-])cc4F)c4ccc([nH]4)c(-c4c(F)cc(S(=O)(=O)[O-])cc4F)c4nc(c(-c5c(F)cc(S(=O)(=O)[O-])cc5F)c5ccc2[nH]5)C=C4)C=C3)cc1
REMARK SMILES IDX 24 1 23 2 22 3 21 4 19 5 20 6 18 8 13 9 14 10 15 11 17 12
REMARK SMILES IDX 11 13 12 14 10 15 3 16 4 17 5 18 8 19 7 20 9 21 2 22 1 23
REMARK SMILES IDX 6 24 16 26 25 28 26 29 27 30 28 31 29 32 30 34 31 35 32 36
REMARK SMILES IDX 96 37 33 38 95 39 34 40 35 41 36 42 89 43 37 44 94 45 88 46
REMARK SMILES IDX 90 47 38 48 93 49 87 50 86 51 39 53 73 54 52 55 72 56 53 57
REMARK SMILES IDX 56 58 71 59 91 60 54 61 55 62 70 64 92 65 57 66 40 67 41 68
REMARK SMILES IDX 50 69 42 70 43 71 49 72 51 73 44 74 45 75 46 76 47 77 48 78
REMARK SMILES IDX 74 79 75 80 84 81 76 82 77 83 83 84 85 85 78 86 79 87 80 88
REMARK SMILES IDX 81 89 82 90 58 91 59 92 68 93 60 94 61 95 67 96 69 97 62 98
REMARK SMILES IDX 63 99 64 100 65 101 66 102
REMARK H PARENT 21 7 6 25 16 27 28 33 90 52 56 63
REMARK Flexibility Score: inf
ROOT
ATOM      1  C   UNL A   1      35.940  20.252  25.011  1.00  0.00     0.002 C 
ENDROOT
BRANCH   1   2
ATOM      2  C   UNL A   1      34.914  21.164  25.697  1.00  0.00     0.021 C 
BRANCH   2   3
ATOM      3  C   UNL A   1      34.694  22.568  25.123  1.00  0.00     0.116 C 
BRANCH   3   4
ATOM      4  N   UNL A   1      34.045  22.567  23.831  1.00  0.00    -0.354 N 
ATOM      5  C   UNL A   1      32.854  23.050  23.392  1.00  0.00     0.242 C 
ATOM      6  O   UNL A   1      32.685  22.967  22.168  1.00  0.00    -0.273 OA
ATOM      7  H   UNL A   1      34.573  22.125  23.127  1.00  0.00     0.163 HD
BRANCH   5   8
ATOM      8  C   UNL A   1      31.763  23.717  24.277  1.00  0.00     0.177 C 
ATOM      9  N   UNL A   1      32.178  24.891  25.066  1.00  0.00    -0.324 N 
ATOM     10  C   UNL A   1      31.596  24.822  26.404  1.00  0.00     0.152 C 
ATOM     11  C   UNL A   1      31.417  23.323  26.641  1.00  0.00     0.136 C 
ATOM     12  C   UNL A   1      31.026  22.801  25.257  1.00  0.00     0.069 C 
BRANCH   9  13
ATOM     13  C   UNL A   1      32.606  26.046  24.420  1.00  0.00     0.259 C 
ATOM     14  O   UNL A   1      33.808  26.260  24.279  1.00  0.00    -0.269 OA
BRANCH  13  15
ATOM     15  C   UNL A   1      31.656  27.103  23.954  1.00  0.00     0.093 A 
ATOM     16  C   UNL A   1      31.310  28.226  24.705  1.00  0.00     0.116 A 
ATOM     17  N   UNL A   1      30.601  29.271  24.223  1.00  0.00    -0.188 NA
ATOM     18  C   UNL A   1      30.320  29.239  22.935  1.00  0.00     0.315 A 
ATOM     19  C   UNL A   1      31.287  27.195  22.605  1.00  0.00     0.058 A 
ATOM     20  N   UNL A   1      30.636  28.272  22.083  1.00  0.00    -0.200 NA
ATOM     21  C   UNL A   1      31.692  26.195  21.559  1.00  0.00     0.068 C 
BRANCH  16  22
ATOM     22  S   UNL A   1      32.070  28.688  26.247  1.00  0.00    -0.109 SA
ATOM     23  C   UNL A   1      31.804  30.460  26.040  1.00  0.00     0.092 C 
ENDBRANCH  16  22
BRANCH  18  24
ATOM     24  O   UNL A   1      29.874  30.388  22.368  1.00  0.00    -0.479 OA
ATOM     25  H   UNL A   1      29.179  30.870  22.772  1.00  0.00     0.297 HD
ENDBRANCH  18  24
ENDBRANCH  13  15
ENDBRANCH   9  13
BRANCH  11  26
ATOM     26  O   UNL A   1      30.433  23.006  27.609  1.00  0.00    -0.391 OA
ATOM     27  H   UNL A   1      29.811  22.360  27.238  1.00  0.00     0.211 HD
ENDBRANCH  11  26
ENDBRANCH   5   8
ENDBRANCH   3   4
ENDBRANCH   2   3
ENDBRANCH   1   2
BRANCH   1  28
ATOM     28  C   UNL A   1      37.360  20.782  24.841  1.00  0.00     0.002 C 
BRANCH  28  29
ATOM     29  C   UNL A   1      38.500  19.778  25.014  1.00  0.00     0.021 C 
BRANCH  29  30
ATOM     30  C   UNL A   1      39.571  20.167  26.023  1.00  0.00     0.116 C 
BRANCH  30  31
ATOM     31  N   UNL A   1      40.633  19.182  26.124  1.00  0.00    -0.352 N 
ATOM     32  C   UNL A   1      41.972  19.389  26.340  1.00  0.00     0.251 C 
ATOM     33  H   UNL A   1      40.355  18.243  26.026  1.00  0.00     0.163 HD
ATOM     34  O   UNL A   1      42.760  18.448  26.287  1.00  0.00    -0.269 OA
BRANCH  32  35
ATOM     35  C   UNL A   1      42.462  20.758  26.607  1.00  0.00     0.039 A 
ATOM     36  C   UNL A   1      42.797  21.576  25.524  1.00  0.00     0.014 A 
ATOM     37  C   UNL A   1      42.581  21.232  27.917  1.00  0.00     0.014 A 
ATOM     38  C   UNL A   1      43.209  22.890  25.755  1.00  0.00     0.010 A 
ATOM     39  C   UNL A   1      42.940  22.559  28.143  1.00  0.00     0.010 A 
ATOM     40  C   UNL A   1      43.267  23.394  27.064  1.00  0.00    -0.014 A 
BRANCH  40  41
ATOM     41  C   UNL A   1      43.722  24.779  27.328  1.00  0.00     0.031 A 
ATOM     42  C   UNL A   1      45.164  25.137  27.112  1.00  0.00     0.074 A 
ATOM     43  C   UNL A   1      42.851  25.700  27.779  1.00  0.00     0.049 A 
ATOM     44  N   UNL A   1      45.768  26.281  27.299  1.00  0.00    -0.248 NA
ATOM     45  C   UNL A   1      46.046  24.058  26.637  1.00  0.00     0.031 C 
ATOM     46  C   UNL A   1      41.429  25.465  28.033  1.00  0.00     0.029 A 
ATOM     47  N   UNL A   1      43.035  27.021  28.099  1.00  0.00    -0.354 N 
ATOM     48  C   UNL A   1      47.095  26.066  26.951  1.00  0.00     0.074 A 
ATOM     49  C   UNL A   1      47.222  24.664  26.610  1.00  0.00     0.031 C 
ATOM     50  C   UNL A   1      40.863  26.613  28.440  1.00  0.00     0.029 A 
ATOM     51  C   UNL A   1      41.884  27.655  28.502  1.00  0.00     0.049 A 
ATOM     52  H   UNL A   1      43.908  27.471  28.045  1.00  0.00     0.167 HD
ATOM     53  C   UNL A   1      48.111  26.960  26.887  1.00  0.00     0.037 A 
ATOM     54  C   UNL A   1      41.679  28.934  28.870  1.00  0.00     0.037 A 
ATOM     55  C   UNL A   1      47.982  28.349  27.238  1.00  0.00     0.049 A 
ATOM     56  C   UNL A   1      42.834  29.896  28.864  1.00  0.00     0.074 A 
ATOM     57  C   UNL A   1      48.948  29.339  27.209  1.00  0.00     0.029 A 
ATOM     58  N   UNL A   1      46.811  28.943  27.687  1.00  0.00    -0.354 N 
ATOM     59  N   UNL A   1      44.081  29.684  28.512  1.00  0.00    -0.248 NA
ATOM     60  C   UNL A   1      42.558  31.270  29.305  1.00  0.00     0.031 C 
ATOM     61  C   UNL A   1      48.368  30.525  27.675  1.00  0.00     0.029 A 
ATOM     62  C   UNL A   1      47.033  30.284  27.957  1.00  0.00     0.049 A 
ATOM     63  H   UNL A   1      45.949  28.481  27.798  1.00  0.00     0.167 HD
ATOM     64  C   UNL A   1      44.734  30.902  28.669  1.00  0.00     0.074 A 
ATOM     65  C   UNL A   1      43.742  31.847  29.143  1.00  0.00     0.031 C 
ATOM     66  C   UNL A   1      46.034  31.209  28.437  1.00  0.00     0.037 A 
BRANCH  53  67
ATOM     67  C   UNL A   1      49.441  26.441  26.416  1.00  0.00     0.058 A 
ATOM     68  C   UNL A   1      50.307  25.760  27.289  1.00  0.00     0.135 A 
ATOM     69  C   UNL A   1      49.871  26.652  25.098  1.00  0.00     0.135 A 
ATOM     70  F   UNL A   1      49.950  25.549  28.566  1.00  0.00    -0.206 F 
ATOM     71  C   UNL A   1      51.573  25.352  26.886  1.00  0.00     0.059 A 
ATOM     72  C   UNL A   1      51.125  26.226  24.665  1.00  0.00     0.059 A 
ATOM     73  F   UNL A   1      49.085  27.296  24.222  1.00  0.00    -0.206 F 
ATOM     74  C   UNL A   1      51.978  25.600  25.573  1.00  0.00     0.060 A 
BRANCH  74  75
ATOM     75  S   UNL A   1      53.642  25.109  25.079  1.00  0.00     0.124 S 
ATOM     76  O   UNL A   1      53.615  23.675  25.355  1.00  0.00    -0.237 OA
ATOM     77  O   UNL A   1      53.675  25.481  23.669  1.00  0.00    -0.237 OA
ATOM     78  O   UNL A   1      54.503  25.900  25.954  1.00  0.00    -0.744 OA
ENDBRANCH  74  75
ENDBRANCH  53  67
BRANCH  54  79
ATOM     79  C   UNL A   1      40.305  29.382  29.217  1.00  0.00     0.058 A 
ATOM     80  C   UNL A   1      39.949  29.607  30.555  1.00  0.00     0.135 A 
ATOM     81  C   UNL A   1      39.348  29.655  28.229  1.00  0.00     0.135 A 
ATOM     82  F   UNL A   1      40.830  29.351  31.535  1.00  0.00    -0.206 F 
ATOM     83  C   UNL A   1      38.695  30.098  30.902  1.00  0.00     0.059 A 
ATOM     84  C   UNL A   1      38.092  30.163  28.549  1.00  0.00     0.059 A 
ATOM     85  F   UNL A   1      39.646  29.463  26.934  1.00  0.00    -0.206 F 
ATOM     86  C   UNL A   1      37.777  30.384  29.890  1.00  0.00     0.060 A 
BRANCH  86  87
ATOM     87  S   UNL A   1      36.185  31.105  30.351  1.00  0.00     0.124 S 
ATOM     88  O   UNL A   1      35.813  30.287  31.499  1.00  0.00    -0.237 OA
ATOM     89  O   UNL A   1      36.553  32.487  30.644  1.00  0.00    -0.237 OA
ATOM     90  O   UNL A   1      35.372  30.919  29.153  1.00  0.00    -0.744 OA
ENDBRANCH  86  87
ENDBRANCH  54  79
BRANCH  66  91
ATOM     91  C   UNL A   1      46.466  32.627  28.684  1.00  0.00     0.058 A 
ATOM     92  C   UNL A   1      46.995  33.025  29.921  1.00  0.00     0.135 A 
ATOM     93  C   UNL A   1      46.420  33.576  27.651  1.00  0.00     0.135 A 
ATOM     94  F   UNL A   1      47.054  32.157  30.942  1.00  0.00    -0.206 F 
ATOM     95  C   UNL A   1      47.456  34.322  30.128  1.00  0.00     0.059 A 
ATOM     96  C   UNL A   1      46.896  34.872  27.829  1.00  0.00     0.059 A 
ATOM     97  F   UNL A   1      45.930  33.242  26.446  1.00  0.00    -0.206 F 
ATOM     98  C   UNL A   1      47.407  35.237  29.074  1.00  0.00     0.060 A 
BRANCH  98  99
ATOM     99  S   UNL A   1      48.058  36.899  29.343  1.00  0.00     0.124 S 
ATOM    100  O   UNL A   1      47.987  37.464  27.999  1.00  0.00    -0.237 OA
ATOM    101  O   UNL A   1      47.118  37.449  30.314  1.00  0.00    -0.237 OA
ATOM    102  O   UNL A   1      49.405  36.659  29.852  1.00  0.00    -0.744 OA
ENDBRANCH  98  99
ENDBRANCH  66  91
ENDBRANCH  40  41
ENDBRANCH  32  35
ENDBRANCH  30  31
ENDBRANCH  29  30
ENDBRANCH  28  29
ENDBRANCH   1  28
TORSDOF 21
ENDMDL
MODEL 2
REMARK VINA RESULT:     -11.2      6.168     10.708
REMARK SMILES CSc1nc(O)nc(C)c1C(=O)N1C[C@@H](O)C[C@@H]1C(=O)NCCCCCCNC(=O)c1ccc(-c2c3nc(c(-c4c(F)cc(S(=O)(=O)[O-])cc4F)c4ccc([nH]4)c(-c4c(F)cc(S(=O)(=O)[O-])cc4F)c4nc(c(-c5c(F)cc(S(=O)(=O)[O-])cc5F)c5ccc2[nH]5)C=C4)C=C3)cc1
REMARK SMILES IDX 24 1 23 2 22 3 21 4 19 5 20 6 18 8 13 9 14 10 15 11 17 12
REMARK SMILES IDX 11 13 12 14 10 15 3 16 4 17 5 18 8 19 7 20 9 21 2 22 1 23
REMARK SMILES IDX 6 24 16 26 25 28 26 29 27 30 28 31 29 32 30 34 31 35 32 36
REMARK SMILES IDX 96 37 33 38 95 39 34 40 35 41 36 42 89 43 37 44 94 45 88 46
REMARK SMILES IDX 90 47 38 48 93 49 87 50 86 51 39 53 73 54 52 55 72 56 53 57
REMARK SMILES IDX 56 58 71 59 91 60 54 61 55 62 70 64 92 65 57 66 40 67 41 68
REMARK SMILES IDX 50 69 42 70 43 71 49 72 51 73 44 74 45 75 46 76 47 77 48 78
REMARK SMILES IDX 74 79 75 80 84 81 76 82 77 83 83 84 85 85 78 86 79 87 80 88
REMARK SMILES IDX 81 89 82 90 58 91 59 92 68 93 60 94 61 95 67 96 69 97 62 98
REMARK SMILES IDX 63 99 64 100 65 101 66 102
REMARK H PARENT 21 7 6 25 16 27 28 33 90 52 56 63
REMARK Flexibility Score: inf
ROOT
ATOM      1  C   UNL A   1      37.270  21.381  24.488  1.00  0.00     0.002 C 
ENDROOT
BRANCH   1   2
ATOM      2  C   UNL A   1      36.320  20.249  24.900  1.00  0.00     0.021 C 
BRANCH   2   3
ATOM      3  C   UNL A   1      34.869  20.608  25.241  1.00  0.00     0.116 C 
BRANCH   3   4
ATOM      4  N   UNL A   1      34.750  21.547  26.334  1.00  0.00    -0.354 N 
ATOM      5  C   UNL A   1      33.761  22.392  26.726  1.00  0.00     0.242 C 
ATOM      6  O   UNL A   1      33.974  22.968  27.802  1.00  0.00    -0.273 OA
ATOM      7  H   UNL A   1      35.547  21.581  26.910  1.00  0.00     0.163 HD
BRANCH   5   8
ATOM      8  C   UNL A   1      32.422  22.633  25.974  1.00  0.00     0.177 C 
ATOM      9  N   UNL A   1      32.028  24.037  25.759  1.00  0.00    -0.324 N 
ATOM     10  C   UNL A   1      30.597  24.196  26.002  1.00  0.00     0.152 C 
ATOM     11  C   UNL A   1      30.278  23.087  27.005  1.00  0.00     0.136 C 
ATOM     12  C   UNL A   1      31.183  21.941  26.548  1.00  0.00     0.069 C 
BRANCH   9  13
ATOM     13  C   UNL A   1      32.819  24.867  24.972  1.00  0.00     0.259 C 
ATOM     14  O   UNL A   1      33.700  25.549  25.493  1.00  0.00    -0.269 OA
BRANCH  13  15
ATOM     15  C   UNL A   1      32.591  25.038  23.504  1.00  0.00     0.093 A 
ATOM     16  C   UNL A   1      31.874  26.096  22.945  1.00  0.00     0.116 A 
ATOM     17  N   UNL A   1      31.818  26.357  21.620  1.00  0.00    -0.188 NA
ATOM     18  C   UNL A   1      32.578  25.606  20.846  1.00  0.00     0.315 A 
ATOM     19  C   UNL A   1      33.343  24.315  22.569  1.00  0.00     0.058 A 
ATOM     20  N   UNL A   1      33.358  24.607  21.238  1.00  0.00    -0.200 NA
ATOM     21  C   UNL A   1      34.325  23.240  22.941  1.00  0.00     0.068 C 
BRANCH  16  22
ATOM     22  S   UNL A   1      31.276  27.507  23.851  1.00  0.00    -0.109 SA
ATOM     23  C   UNL A   1      30.171  28.086  22.548  1.00  0.00     0.092 C 
ENDBRANCH  16  22
BRANCH  18  24
ATOM     24  O   UNL A   1      32.767  26.023  19.569  1.00  0.00    -0.479 OA
ATOM     25  H   UNL A   1      33.408  25.603  19.030  1.00  0.00     0.297 HD
ENDBRANCH  18  24
ENDBRANCH  13  15
ENDBRANCH   9  13
BRANCH  11  26
ATOM     26  O   UNL A   1      28.916  22.696  27.018  1.00  0.00    -0.391 OA
ATOM     27  H   UNL A   1      28.538  22.814  26.132  1.00  0.00     0.211 HD
ENDBRANCH  11  26
ENDBRANCH   5   8
ENDBRANCH   3   4
ENDBRANCH   2   3
ENDBRANCH   1   2
BRANCH   1  28
ATOM     28  C   UNL A   1      38.064  22.078  25.589  1.00  0.00     0.002 C 
BRANCH  28  29
ATOM     29  C   UNL A   1      37.751  23.553  25.841  1.00  0.00     0.021 C 
BRANCH  29  30
ATOM     30  C   UNL A   1      38.776  24.310  26.674  1.00  0.00     0.116 C 
BRANCH  30  31
ATOM     31  N   UNL A   1      40.055  24.450  26.001  1.00  0.00    -0.352 N 
ATOM     32  C   UNL A   1      41.055  25.356  26.248  1.00  0.00     0.251 C 
ATOM     33  H   UNL A   1      40.227  23.809  25.274  1.00  0.00     0.163 HD
ATOM     34  O   UNL A   1      42.035  25.412  25.510  1.00  0.00    -0.269 OA
BRANCH  32  35
ATOM     35  C   UNL A   1      40.928  26.285  27.391  1.00  0.00     0.039 A 
ATOM     36  C   UNL A   1      40.002  25.993  28.396  1.00  0.00     0.014 A 
ATOM     37  C   UNL A   1      41.726  27.431  27.473  1.00  0.00     0.014 A 
ATOM     38  C   UNL A   1      39.908  26.830  29.510  1.00  0.00     0.010 A 
ATOM     39  C   UNL A   1      41.669  28.233  28.609  1.00  0.00     0.010 A 
ATOM     40  C   UNL A   1      40.752  27.945  29.630  1.00  0.00    -0.014 A 
BRANCH  40  41
ATOM     41  C   UNL A   1      40.650  28.854  30.796  1.00  0.00     0.031 A 
ATOM     42  C   UNL A   1      39.631  29.956  30.788  1.00  0.00     0.074 A 
ATOM     43  C   UNL A   1      41.483  28.704  31.843  1.00  0.00     0.049 A 
ATOM     44  N   UNL A   1      39.392  30.867  31.694  1.00  0.00    -0.248 NA
ATOM     45  C   UNL A   1      38.780  30.056  29.591  1.00  0.00     0.031 C 
ATOM     46  C   UNL A   1      42.517  27.674  31.958  1.00  0.00     0.029 A 
ATOM     47  N   UNL A   1      41.586  29.415  33.010  1.00  0.00    -0.354 N 
ATOM     48  C   UNL A   1      38.353  31.637  31.187  1.00  0.00     0.074 A 
ATOM     49  C   UNL A   1      38.057  31.131  29.863  1.00  0.00     0.031 C 
ATOM     50  C   UNL A   1      43.129  27.802  33.147  1.00  0.00     0.029 A 
ATOM     51  C   UNL A   1      42.551  28.936  33.864  1.00  0.00     0.049 A 
ATOM     52  H   UNL A   1      41.022  30.195  33.218  1.00  0.00     0.167 HD
ATOM     53  C   UNL A   1      37.681  32.652  31.781  1.00  0.00     0.037 A 
ATOM     54  C   UNL A   1      42.919  29.361  35.088  1.00  0.00     0.037 A 
ATOM     55  C   UNL A   1      37.986  33.159  33.093  1.00  0.00     0.049 A 
ATOM     56  C   UNL A   1      42.211  30.536  35.702  1.00  0.00     0.074 A 
ATOM     57  C   UNL A   1      37.369  34.184  33.786  1.00  0.00     0.029 A 
ATOM     58  N   UNL A   1      39.003  32.678  33.906  1.00  0.00    -0.354 N 
ATOM     59  N   UNL A   1      41.216  31.243  35.220  1.00  0.00    -0.248 NA
ATOM     60  C   UNL A   1      42.676  30.975  37.025  1.00  0.00     0.031 C 
ATOM     61  C   UNL A   1      38.035  34.346  35.007  1.00  0.00     0.029 A 
ATOM     62  C   UNL A   1      39.042  33.397  35.090  1.00  0.00     0.049 A 
ATOM     63  H   UNL A   1      39.607  31.936  33.677  1.00  0.00     0.167 HD
ATOM     64  C   UNL A   1      40.921  32.196  36.188  1.00  0.00     0.074 A 
ATOM     65  C   UNL A   1      41.840  31.973  37.286  1.00  0.00     0.031 C 
ATOM     66  C   UNL A   1      39.972  33.165  36.170  1.00  0.00     0.037 A 
BRANCH  53  67
ATOM     67  C   UNL A   1      36.553  33.266  31.001  1.00  0.00     0.058 A 
ATOM     68  C   UNL A   1      36.801  34.131  29.920  1.00  0.00     0.135 A 
ATOM     69  C   UNL A   1      35.217  33.021  31.350  1.00  0.00     0.135 A 
ATOM     70  F   UNL A   1      38.062  34.413  29.556  1.00  0.00    -0.206 F 
ATOM     71  C   UNL A   1      35.766  34.769  29.247  1.00  0.00     0.059 A 
ATOM     72  C   UNL A   1      34.163  33.629  30.671  1.00  0.00     0.059 A 
ATOM     73  F   UNL A   1      34.923  32.204  32.373  1.00  0.00    -0.206 F 
ATOM     74  C   UNL A   1      34.450  34.520  29.637  1.00  0.00     0.060 A 
BRANCH  74  75
ATOM     75  S   UNL A   1      33.120  35.394  28.787  1.00  0.00     0.124 S 
ATOM     76  O   UNL A   1      32.371  35.948  29.912  1.00  0.00    -0.237 OA
ATOM     77  O   UNL A   1      33.849  36.362  27.974  1.00  0.00    -0.237 OA
ATOM     78  O   UNL A   1      32.442  34.338  28.041  1.00  0.00    -0.744 OA
ENDBRANCH  74  75
ENDBRANCH  53  67
BRANCH  54  79
ATOM     79  C   UNL A   1      43.974  28.623  35.829  1.00  0.00     0.058 A 
ATOM     80  C   UNL A   1      45.322  28.987  35.696  1.00  0.00     0.135 A 
ATOM     81  C   UNL A   1      43.659  27.592  36.728  1.00  0.00     0.135 A 
ATOM     82  F   UNL A   1      45.671  29.961  34.841  1.00  0.00    -0.206 F 
ATOM     83  C   UNL A   1      46.321  28.363  36.435  1.00  0.00     0.059 A 
ATOM     84  C   UNL A   1      44.639  26.964  37.491  1.00  0.00     0.059 A 
ATOM     85  F   UNL A   1      42.381  27.216  36.896  1.00  0.00    -0.206 F 
ATOM     86  C   UNL A   1      45.968  27.360  37.339  1.00  0.00     0.060 A 
BRANCH  86  87
ATOM     87  S   UNL A   1      47.267  26.622  38.356  1.00  0.00     0.124 S 
ATOM     88  O   UNL A   1      46.520  26.217  39.540  1.00  0.00    -0.237 OA
ATOM     89  O   UNL A   1      47.744  25.541  37.498  1.00  0.00    -0.237 OA
ATOM     90  O   UNL A   1      48.208  27.722  38.549  1.00  0.00    -0.744 OA
ENDBRANCH  86  87
ENDBRANCH  54  79
BRANCH  66  91
ATOM     91  C   UNL A   1      39.869  34.057  37.375  1.00  0.00     0.058 A 
ATOM     92  C   UNL A   1      40.473  35.322  37.402  1.00  0.00     0.135 A 
ATOM     93  C   UNL A   1      39.096  33.673  38.482  1.00  0.00     0.135 A 
ATOM     94  F   UNL A   1      41.228  35.734  36.372  1.00  0.00    -0.206 F 
ATOM     95  C   UNL A   1      40.322  36.175  38.492  1.00  0.00     0.059 A 
ATOM     96  C   UNL A   1      38.913  34.517  39.573  1.00  0.00     0.059 A 
ATOM     97  F   UNL A   1      38.490  32.475  38.501  1.00  0.00    -0.206 F 
ATOM     98  C   UNL A   1      39.536  35.765  39.571  1.00  0.00     0.060 A 
BRANCH  98  99
ATOM     99  S   UNL A   1      39.306  36.903  40.954  1.00  0.00     0.124 S 
ATOM    100  O   UNL A   1      38.475  37.939  40.348  1.00  0.00    -0.237 OA
ATOM    101  O   UNL A   1      38.647  36.059  41.945  1.00  0.00    -0.237 OA
ATOM    102  O   UNL A   1      40.668  37.308  41.290  1.00  0.00    -0.744 OA
ENDBRANCH  98  99
ENDBRANCH  66  91
ENDBRANCH  40  41
ENDBRANCH  32  35
ENDBRANCH  30  31
ENDBRANCH  29  30
ENDBRANCH  28  29
ENDBRANCH   1  28
TORSDOF 21
ENDMDL
MODEL 3
REMARK VINA RESULT:     -11.1      0.505      8.143
REMARK SMILES CSc1nc(O)nc(C)c1C(=O)N1C[C@@H](O)C[C@@H]1C(=O)NCCCCCCNC(=O)c1ccc(-c2c3nc(c(-c4c(F)cc(S(=O)(=O)[O-])cc4F)c4ccc([nH]4)c(-c4c(F)cc(S(=O)(=O)[O-])cc4F)c4nc(c(-c5c(F)cc(S(=O)(=O)[O-])cc5F)c5ccc2[nH]5)C=C4)C=C3)cc1
REMARK SMILES IDX 24 1 23 2 22 3 21 4 19 5 20 6 18 8 13 9 14 10 15 11 17 12
REMARK SMILES IDX 11 13 12 14 10 15 3 16 4 17 5 18 8 19 7 20 9 21 2 22 1 23
REMARK SMILES IDX 6 24 16 26 25 28 26 29 27 30 28 31 29 32 30 34 31 35 32 36
REMARK SMILES IDX 96 37 33 38 95 39 34 40 35 41 36 42 89 43 37 44 94 45 88 46
REMARK SMILES IDX 90 47 38 48 93 49 87 50 86 51 39 53 73 54 52 55 72 56 53 57
REMARK SMILES IDX 56 58 71 59 91 60 54 61 55 62 70 64 92 65 57 66 40 67 41 68
REMARK SMILES IDX 50 69 42 70 43 71 49 72 51 73 44 74 45 75 46 76 47 77 48 78
REMARK SMILES IDX 74 79 75 80 84 81 76 82 77 83 83 84 85 85 78 86 79 87 80 88
REMARK SMILES IDX 81 89 82 90 58 91 59 92 68 93 60 94 61 95 67 96 69 97 62 98
REMARK SMILES IDX 63 99 64 100 65 101 66 102
REMARK H PARENT 21 7 6 25 16 27 28 33 90 52 56 63
REMARK Flexibility Score: inf
ROOT
ATOM      1  C   UNL A   1      35.864  20.960  25.486  1.00  0.00     0.002 C 
ENDROOT
BRANCH   1   2
ATOM      2  C   UNL A   1      35.306  22.323  25.915  1.00  0.00     0.021 C 
BRANCH   2   3
ATOM      3  C   UNL A   1      35.194  23.426  24.856  1.00  0.00     0.116 C 
BRANCH   3   4
ATOM      4  N   UNL A   1      34.441  23.028  23.688  1.00  0.00    -0.354 N 
ATOM      5  C   UNL A   1      33.132  23.144  23.345  1.00  0.00     0.242 C 
ATOM      6  O   UNL A   1      32.869  22.785  22.189  1.00  0.00    -0.273 OA
ATOM      7  H   UNL A   1      34.988  22.581  23.002  1.00  0.00     0.163 HD
BRANCH   5   8
ATOM      8  C   UNL A   1      32.004  23.718  24.249  1.00  0.00     0.177 C 
ATOM      9  N   UNL A   1      32.325  24.939  25.010  1.00  0.00    -0.324 N 
ATOM     10  C   UNL A   1      31.786  24.838  26.364  1.00  0.00     0.152 C 
ATOM     11  C   UNL A   1      31.756  23.332  26.627  1.00  0.00     0.136 C 
ATOM     12  C   UNL A   1      31.383  22.753  25.260  1.00  0.00     0.069 C 
BRANCH   9  13
ATOM     13  C   UNL A   1      32.625  26.119  24.337  1.00  0.00     0.259 C 
ATOM     14  O   UNL A   1      33.796  26.470  24.207  1.00  0.00    -0.269 OA
BRANCH  13  15
ATOM     15  C   UNL A   1      31.565  27.043  23.828  1.00  0.00     0.093 A 
ATOM     16  C   UNL A   1      31.068  28.131  24.545  1.00  0.00     0.116 A 
ATOM     17  N   UNL A   1      30.250  29.072  24.025  1.00  0.00    -0.188 NA
ATOM     18  C   UNL A   1      30.005  28.980  22.732  1.00  0.00     0.315 A 
ATOM     19  C   UNL A   1      31.219  27.062  22.470  1.00  0.00     0.058 A 
ATOM     20  N   UNL A   1      30.454  28.042  21.910  1.00  0.00    -0.200 NA
ATOM     21  C   UNL A   1      31.766  26.098  21.456  1.00  0.00     0.068 C 
BRANCH  16  22
ATOM     22  S   UNL A   1      31.731  28.713  26.092  1.00  0.00    -0.109 SA
ATOM     23  C   UNL A   1      33.033  29.716  25.349  1.00  0.00     0.092 C 
ENDBRANCH  16  22
BRANCH  18  24
ATOM     24  O   UNL A   1      29.436  30.055  22.131  1.00  0.00    -0.479 OA
ATOM     25  H   UNL A   1      29.553  30.193  21.212  1.00  0.00     0.297 HD
ENDBRANCH  18  24
ENDBRANCH  13  15
ENDBRANCH   9  13
BRANCH  11  26
ATOM     26  O   UNL A   1      30.831  22.939  27.624  1.00  0.00    -0.391 OA
ATOM     27  H   UNL A   1      31.217  22.231  28.162  1.00  0.00     0.211 HD
ENDBRANCH  11  26
ENDBRANCH   5   8
ENDBRANCH   3   4
ENDBRANCH   2   3
ENDBRANCH   1   2
BRANCH   1  28
ATOM     28  C   UNL A   1      37.201  20.939  24.750  1.00  0.00     0.002 C 
BRANCH  28  29
ATOM     29  C   UNL A   1      38.198  19.853  25.154  1.00  0.00     0.021 C 
BRANCH  29  30
ATOM     30  C   UNL A   1      39.464  20.345  25.840  1.00  0.00     0.116 C 
BRANCH  30  31
ATOM     31  N   UNL A   1      40.431  19.286  26.065  1.00  0.00    -0.352 N 
ATOM     32  C   UNL A   1      41.772  19.396  26.330  1.00  0.00     0.251 C 
ATOM     33  H   UNL A   1      40.077  18.368  26.021  1.00  0.00     0.163 HD
ATOM     34  O   UNL A   1      42.477  18.391  26.384  1.00  0.00    -0.269 OA
BRANCH  32  35
ATOM     35  C   UNL A   1      42.368  20.736  26.519  1.00  0.00     0.039 A 
ATOM     36  C   UNL A   1      42.754  21.467  25.392  1.00  0.00     0.014 A 
ATOM     37  C   UNL A   1      42.536  21.268  27.802  1.00  0.00     0.014 A 
ATOM     38  C   UNL A   1      43.267  22.756  25.550  1.00  0.00     0.010 A 
ATOM     39  C   UNL A   1      42.997  22.573  27.953  1.00  0.00     0.010 A 
ATOM     40  C   UNL A   1      43.376  23.322  26.829  1.00  0.00    -0.014 A 
BRANCH  40  41
ATOM     41  C   UNL A   1      43.938  24.680  27.015  1.00  0.00     0.031 A 
ATOM     42  C   UNL A   1      43.045  25.793  27.481  1.00  0.00     0.074 A 
ATOM     43  C   UNL A   1      45.235  24.916  26.744  1.00  0.00     0.049 A 
ATOM     44  N   UNL A   1      43.331  27.051  27.689  1.00  0.00    -0.248 NA
ATOM     45  C   UNL A   1      41.637  25.444  27.732  1.00  0.00     0.031 C 
ATOM     46  C   UNL A   1      46.196  23.916  26.278  1.00  0.00     0.029 A 
ATOM     47  N   UNL A   1      45.968  26.072  26.827  1.00  0.00    -0.354 N 
ATOM     48  C   UNL A   1      42.147  27.641  28.110  1.00  0.00     0.074 A 
ATOM     49  C   UNL A   1      41.122  26.619  28.058  1.00  0.00     0.031 C 
ATOM     50  C   UNL A   1      47.401  24.495  26.146  1.00  0.00     0.029 A 
ATOM     51  C   UNL A   1      47.291  25.910  26.492  1.00  0.00     0.049 A 
ATOM     52  H   UNL A   1      45.584  26.935  27.102  1.00  0.00     0.167 HD
ATOM     53  C   UNL A   1      41.935  28.910  28.533  1.00  0.00     0.037 A 
ATOM     54  C   UNL A   1      48.300  26.803  26.474  1.00  0.00     0.037 A 
ATOM     55  C   UNL A   1      42.954  29.925  28.572  1.00  0.00     0.049 A 
ATOM     56  C   UNL A   1      48.031  28.226  26.877  1.00  0.00     0.074 A 
ATOM     57  C   UNL A   1      42.844  31.242  28.982  1.00  0.00     0.029 A 
ATOM     58  N   UNL A   1      44.271  29.735  28.178  1.00  0.00    -0.354 N 
ATOM     59  N   UNL A   1      46.909  28.766  27.293  1.00  0.00    -0.248 NA
ATOM     60  C   UNL A   1      49.161  29.162  26.808  1.00  0.00     0.031 C 
ATOM     61  C   UNL A   1      44.090  31.857  28.803  1.00  0.00     0.029 A 
ATOM     62  C   UNL A   1      44.983  30.915  28.318  1.00  0.00     0.049 A 
ATOM     63  H   UNL A   1      44.645  28.887  27.847  1.00  0.00     0.167 HD
ATOM     64  C   UNL A   1      47.203  30.100  27.555  1.00  0.00     0.074 A 
ATOM     65  C   UNL A   1      48.609  30.283  27.255  1.00  0.00     0.031 C 
ATOM     66  C   UNL A   1      46.382  31.081  28.006  1.00  0.00     0.037 A 
BRANCH  53  67
ATOM     67  C   UNL A   1      40.542  29.250  28.986  1.00  0.00     0.058 A 
ATOM     68  C   UNL A   1      39.508  29.466  28.059  1.00  0.00     0.135 A 
ATOM     69  C   UNL A   1      40.242  29.394  30.349  1.00  0.00     0.135 A 
ATOM     70  F   UNL A   1      39.747  29.359  26.743  1.00  0.00    -0.206 F 
ATOM     71  C   UNL A   1      38.239  29.863  28.466  1.00  0.00     0.059 A 
ATOM     72  C   UNL A   1      38.970  29.764  30.779  1.00  0.00     0.059 A 
ATOM     73  F   UNL A   1      41.192  29.199  31.277  1.00  0.00    -0.206 F 
ATOM     74  C   UNL A   1      37.983  30.020  29.828  1.00  0.00     0.060 A 
BRANCH  74  75
ATOM     75  S   UNL A   1      36.346  30.584  30.336  1.00  0.00     0.124 S 
ATOM     76  O   UNL A   1      36.608  31.984  30.657  1.00  0.00    -0.237 OA
ATOM     77  O   UNL A   1      35.546  30.349  29.139  1.00  0.00    -0.237 OA
ATOM     78  O   UNL A   1      36.031  29.728  31.476  1.00  0.00    -0.744 OA
ENDBRANCH  74  75
ENDBRANCH  53  67
BRANCH  54  79
ATOM     79  C   UNL A   1      49.668  26.350  26.114  1.00  0.00     0.058 A 
ATOM     80  C   UNL A   1      50.212  26.660  24.859  1.00  0.00     0.135 A 
ATOM     81  C   UNL A   1      50.481  25.661  27.028  1.00  0.00     0.135 A 
ATOM     82  F   UNL A   1      49.469  27.309  23.949  1.00  0.00    -0.206 F 
ATOM     83  C   UNL A   1      51.517  26.313  24.524  1.00  0.00     0.059 A 
ATOM     84  C   UNL A   1      51.795  25.319  26.723  1.00  0.00     0.059 A 
ATOM     85  F   UNL A   1      50.007  25.351  28.245  1.00  0.00    -0.206 F 
ATOM     86  C   UNL A   1      52.305  25.653  25.468  1.00  0.00     0.060 A 
BRANCH  86  87
ATOM     87  S   UNL A   1      54.024  25.290  25.050  1.00  0.00     0.124 S 
ATOM     88  O   UNL A   1      54.171  25.982  23.775  1.00  0.00    -0.237 OA
ATOM     89  O   UNL A   1      54.740  25.875  26.181  1.00  0.00    -0.237 OA
ATOM     90  O   UNL A   1      54.054  23.832  24.984  1.00  0.00    -0.744 OA
ENDBRANCH  86  87
ENDBRANCH  54  79
BRANCH  66  91
ATOM     91  C   UNL A   1      46.981  32.443  28.214  1.00  0.00     0.058 A 
ATOM     92  C   UNL A   1      46.891  33.440  27.231  1.00  0.00     0.135 A 
ATOM     93  C   UNL A   1      47.583  32.778  29.437  1.00  0.00     0.135 A 
ATOM     94  F   UNL A   1      46.331  33.168  26.042  1.00  0.00    -0.206 F 
ATOM     95  C   UNL A   1      47.388  34.721  27.449  1.00  0.00     0.059 A 
ATOM     96  C   UNL A   1      48.067  34.060  29.686  1.00  0.00     0.059 A 
ATOM     97  F   UNL A   1      47.687  31.863  30.414  1.00  0.00    -0.206 F 
ATOM     98  C   UNL A   1      47.969  35.023  28.683  1.00  0.00     0.060 A 
BRANCH  98  99
ATOM     99  S   UNL A   1      48.560  36.705  28.970  1.00  0.00     0.124 S 
ATOM    100  O   UNL A   1      49.991  36.486  29.156  1.00  0.00    -0.237 OA
ATOM    101  O   UNL A   1      48.177  37.385  27.737  1.00  0.00    -0.237 OA
ATOM    102  O   UNL A   1      47.829  37.123  30.162  1.00  0.00    -0.744 OA
ENDBRANCH  98  99
ENDBRANCH  66  91
ENDBRANCH  40  41
ENDBRANCH  32  35
ENDBRANCH  30  31
ENDBRANCH  29  30
ENDBRANCH  28  29
ENDBRANCH   1  28
TORSDOF 21
ENDMDL
