MODEL 1
REMARK VINA RESULT:     -14.6      0.000      0.000
REMARK SMILES Cc1ccccc1[C@@H]1[NH2+][C@@H](C(=O)NCCCCCCNC(=O)c2ccc(-c3c4nc(c(-c5c(F)cc(S(=O)(=O)[O-])cc5F)c5ccc([nH]5)c(-c5c(F)cc(S(=O)(=O)[O-])cc5F)c5nc(c(-c6c(F)cc(S(=O)(=O)[O-])cc6F)c6ccc3[nH]6)C=C5)C=C4)cc2)CC2=c3ccccc3=N[C@H]21
REMARK SMILES IDX 17 1 16 2 15 3 14 4 13 5 11 6 12 7 10 9 8 10 9 11 98 12
REMARK SMILES IDX 90 15 97 16 89 17 91 18 96 19 92 20 95 21 93 22 94 23 7 24
REMARK SMILES IDX 1 25 2 26 3 27 4 28 6 29 5 30 18 31 19 32 20 33 21 34 22 36
REMARK SMILES IDX 23 37 24 38 88 39 25 40 87 41 26 42 27 43 28 44 81 45 29 46
REMARK SMILES IDX 86 47 80 48 82 49 30 50 85 51 79 52 78 53 31 55 65 56 44 57
REMARK SMILES IDX 64 58 45 59 48 60 63 61 83 62 46 63 47 64 62 66 84 67 49 68
REMARK SMILES IDX 32 69 33 70 42 71 34 72 35 73 41 74 43 75 36 76 37 77 38 78
REMARK SMILES IDX 39 79 40 80 66 81 67 82 76 83 68 84 69 85 75 86 77 87 70 88
REMARK SMILES IDX 71 89 72 90 73 91 74 92 50 93 51 94 60 95 52 96 53 97 59 98
REMARK SMILES IDX 61 99 54 100 55 101 56 102 57 103 58 104
REMARK H PARENT 13 8 9 13 9 14 20 35 82 54 48 65
REMARK Flexibility Score: inf
ROOT
ATOM      1  C   UNL A   1      32.052  29.596  25.729  1.00  0.00     0.002 C 
ENDROOT
BRANCH   1   2
ATOM      2  C   UNL A   1      32.286  28.079  25.586  1.00  0.00     0.002 C 
BRANCH   2   3
ATOM      3  C   UNL A   1      31.732  27.156  26.683  1.00  0.00     0.021 C 
BRANCH   3   4
ATOM      4  C   UNL A   1      32.049  25.667  26.537  1.00  0.00     0.116 C 
BRANCH   4   5
ATOM      5  N   UNL A   1      30.959  24.737  26.788  1.00  0.00    -0.351 N 
ATOM      6  C   UNL A   1      30.934  23.370  26.826  1.00  0.00     0.278 C 
ATOM      7  O   UNL A   1      30.094  22.860  27.584  1.00  0.00    -0.268 OA
ATOM      8  H   UNL A   1      30.090  25.166  26.962  1.00  0.00     0.163 HD
BRANCH   6   9
ATOM      9  C   UNL A   1      31.738  22.479  25.832  1.00  0.00     0.277 C 
ATOM     10  C   UNL A   1      34.175  23.161  25.333  1.00  0.00     0.243 C 
ATOM     11  N   UNL A   1      33.187  22.482  26.214  1.00  0.00    -0.327 N 
ATOM     12  C   UNL A   1      33.799  23.378  23.835  1.00  0.00     0.196 C 
ATOM     13  H   UNL A   1      33.252  22.927  27.129  1.00  0.00     0.347 HD
ATOM     14  H   UNL A   1      33.453  21.499  26.157  1.00  0.00     0.347 HD
ATOM     15  C   UNL A   1      32.338  23.668  23.738  1.00  0.00    -0.024 C 
ATOM     16  N   UNL A   1      34.462  24.582  23.238  1.00  0.00    -0.270 NA
ATOM     17  C   UNL A   1      31.460  22.640  24.336  1.00  0.00     0.109 C 
ATOM     18  C   UNL A   1      32.100  24.847  23.184  1.00  0.00     0.002 A 
ATOM     19  C   UNL A   1      33.459  25.318  22.866  1.00  0.00     0.066 A 
ATOM     20  C   UNL A   1      30.945  25.642  22.930  1.00  0.00     0.010 A 
ATOM     21  C   UNL A   1      33.547  26.608  22.147  1.00  0.00     0.028 A 
ATOM     22  C   UNL A   1      31.106  26.832  22.330  1.00  0.00     0.001 A 
ATOM     23  C   UNL A   1      32.418  27.294  21.904  1.00  0.00     0.002 A 
BRANCH  10  24
ATOM     24  C   UNL A   1      35.530  22.434  25.408  1.00  0.00     0.015 A 
ATOM     25  C   UNL A   1      34.571  20.121  24.772  1.00  0.00     0.045 C 
ATOM     26  C   UNL A   1      35.699  21.053  25.134  1.00  0.00    -0.042 A 
ATOM     27  C   UNL A   1      36.998  20.507  25.112  1.00  0.00     0.004 A 
ATOM     28  C   UNL A   1      38.116  21.289  25.386  1.00  0.00     0.000 A 
ATOM     29  C   UNL A   1      36.679  23.202  25.692  1.00  0.00     0.010 A 
ATOM     30  C   UNL A   1      37.957  22.636  25.685  1.00  0.00     0.001 A 
ENDBRANCH  10  24
ENDBRANCH   6   9
ENDBRANCH   4   5
ENDBRANCH   3   4
ENDBRANCH   2   3
ENDBRANCH   1   2
BRANCH   1  31
ATOM     31  C   UNL A   1      32.687  30.295  26.934  1.00  0.00     0.021 C 
BRANCH  31  32
ATOM     32  C   UNL A   1      34.163  29.975  27.154  1.00  0.00     0.116 C 
BRANCH  32  33
ATOM     33  N   UNL A   1      34.990  31.144  27.408  1.00  0.00    -0.352 N 
ATOM     34  C   UNL A   1      35.999  31.205  28.376  1.00  0.00     0.251 C 
ATOM     35  H   UNL A   1      34.830  31.946  26.862  1.00  0.00     0.163 HD
ATOM     36  O   UNL A   1      36.208  32.156  29.071  1.00  0.00    -0.269 OA
BRANCH  34  37
ATOM     37  C   UNL A   1      36.902  30.024  28.394  1.00  0.00     0.039 A 
ATOM     38  C   UNL A   1      36.992  29.275  29.573  1.00  0.00     0.014 A 
ATOM     39  C   UNL A   1      37.807  29.838  27.356  1.00  0.00     0.014 A 
ATOM     40  C   UNL A   1      38.099  28.451  29.777  1.00  0.00     0.010 A 
ATOM     41  C   UNL A   1      38.944  29.094  27.597  1.00  0.00     0.010 A 
ATOM     42  C   UNL A   1      39.116  28.432  28.823  1.00  0.00    -0.014 A 
BRANCH  42  43
ATOM     43  C   UNL A   1      40.441  27.850  29.037  1.00  0.00     0.031 A 
ATOM     44  C   UNL A   1      40.720  26.440  28.671  1.00  0.00     0.074 A 
ATOM     45  C   UNL A   1      41.465  28.653  29.400  1.00  0.00     0.049 A 
ATOM     46  N   UNL A   1      41.794  25.796  28.985  1.00  0.00    -0.248 NA
ATOM     47  C   UNL A   1      39.767  25.626  27.927  1.00  0.00     0.031 C 
ATOM     48  C   UNL A   1      42.893  28.383  29.250  1.00  0.00     0.029 A 
ATOM     49  N   UNL A   1      41.414  29.816  30.168  1.00  0.00    -0.354 N 
ATOM     50  C   UNL A   1      41.803  24.606  28.289  1.00  0.00     0.074 A 
ATOM     51  C   UNL A   1      40.498  24.536  27.672  1.00  0.00     0.031 C 
ATOM     52  C   UNL A   1      43.577  29.180  30.084  1.00  0.00     0.029 A 
ATOM     53  C   UNL A   1      42.611  29.878  30.913  1.00  0.00     0.049 A 
ATOM     54  H   UNL A   1      40.679  30.471  30.188  1.00  0.00     0.167 HD
ATOM     55  C   UNL A   1      42.951  23.868  28.233  1.00  0.00     0.037 A 
ATOM     56  C   UNL A   1      42.574  29.820  32.279  1.00  0.00     0.037 A 
ATOM     57  C   UNL A   1      43.989  24.429  29.101  1.00  0.00     0.049 A 
ATOM     58  C   UNL A   1      43.189  28.569  32.877  1.00  0.00     0.074 A 
ATOM     59  C   UNL A   1      45.095  25.240  28.900  1.00  0.00     0.029 A 
ATOM     60  N   UNL A   1      43.799  24.381  30.469  1.00  0.00    -0.354 N 
ATOM     61  N   UNL A   1      43.766  27.624  32.186  1.00  0.00    -0.248 NA
ATOM     62  C   UNL A   1      43.137  28.252  34.308  1.00  0.00     0.031 C 
ATOM     63  C   UNL A   1      45.525  25.726  30.168  1.00  0.00     0.029 A 
ATOM     64  C   UNL A   1      44.685  25.205  31.134  1.00  0.00     0.049 A 
ATOM     65  H   UNL A   1      43.117  23.827  30.914  1.00  0.00     0.167 HD
ATOM     66  C   UNL A   1      44.062  26.575  33.014  1.00  0.00     0.074 A 
ATOM     67  C   UNL A   1      43.690  27.027  34.341  1.00  0.00     0.031 C 
ATOM     68  C   UNL A   1      44.534  25.379  32.567  1.00  0.00     0.037 A 
BRANCH  55  69
ATOM     69  C   UNL A   1      43.210  22.756  27.234  1.00  0.00     0.058 A 
ATOM     70  C   UNL A   1      42.486  21.545  27.302  1.00  0.00     0.135 A 
ATOM     71  C   UNL A   1      44.189  22.792  26.222  1.00  0.00     0.135 A 
ATOM     72  F   UNL A   1      41.453  21.390  28.142  1.00  0.00    -0.206 F 
ATOM     73  C   UNL A   1      42.792  20.427  26.521  1.00  0.00     0.059 A 
ATOM     74  C   UNL A   1      44.558  21.671  25.471  1.00  0.00     0.059 A 
ATOM     75  F   UNL A   1      44.791  23.936  25.873  1.00  0.00    -0.206 F 
ATOM     76  C   UNL A   1      43.860  20.485  25.637  1.00  0.00     0.060 A 
BRANCH  76  77
ATOM     77  S   UNL A   1      44.315  19.003  24.717  1.00  0.00     0.124 S 
ATOM     78  O   UNL A   1      43.226  18.089  25.048  1.00  0.00    -0.237 OA
ATOM     79  O   UNL A   1      44.337  19.493  23.344  1.00  0.00    -0.237 OA
ATOM     80  O   UNL A   1      45.616  18.642  25.276  1.00  0.00    -0.744 OA
ENDBRANCH  76  77
ENDBRANCH  55  69
BRANCH  56  81
ATOM     81  C   UNL A   1      41.420  30.582  32.836  1.00  0.00     0.058 A 
ATOM     82  C   UNL A   1      40.260  29.844  33.148  1.00  0.00     0.135 A 
ATOM     83  C   UNL A   1      41.608  31.808  33.487  1.00  0.00     0.135 A 
ATOM     84  F   UNL A   1      40.019  28.677  32.528  1.00  0.00    -0.206 F 
ATOM     85  C   UNL A   1      39.439  30.198  34.211  1.00  0.00     0.059 A 
ATOM     86  C   UNL A   1      40.783  32.190  34.546  1.00  0.00     0.059 A 
ATOM     87  F   UNL A   1      42.685  32.559  33.218  1.00  0.00    -0.206 F 
ATOM     88  C   UNL A   1      39.763  31.329  34.956  1.00  0.00     0.060 A 
BRANCH  88  89
ATOM     89  S   UNL A   1      38.951  31.554  36.557  1.00  0.00     0.124 S 
ATOM     90  O   UNL A   1      38.005  32.627  36.276  1.00  0.00    -0.237 OA
ATOM     91  O   UNL A   1      38.360  30.233  36.785  1.00  0.00    -0.237 OA
ATOM     92  O   UNL A   1      40.055  31.903  37.443  1.00  0.00    -0.744 OA
ENDBRANCH  88  89
ENDBRANCH  56  81
BRANCH  68  93
ATOM     93  C   UNL A   1      44.887  24.263  33.494  1.00  0.00     0.058 A 
ATOM     94  C   UNL A   1      46.212  24.045  33.898  1.00  0.00     0.135 A 
ATOM     95  C   UNL A   1      43.934  23.302  33.883  1.00  0.00     0.135 A 
ATOM     96  F   UNL A   1      47.179  24.911  33.552  1.00  0.00    -0.206 F 
ATOM     97  C   UNL A   1      46.578  22.931  34.651  1.00  0.00     0.059 A 
ATOM     98  C   UNL A   1      44.281  22.164  34.605  1.00  0.00     0.059 A 
ATOM     99  F   UNL A   1      42.636  23.458  33.579  1.00  0.00    -0.206 F 
ATOM    100  C   UNL A   1      45.606  21.991  34.993  1.00  0.00     0.060 A 
BRANCH 100 101
ATOM    101  S   UNL A   1      46.080  20.513  35.913  1.00  0.00     0.124 S 
ATOM    102  O   UNL A   1      45.259  19.472  35.302  1.00  0.00    -0.237 OA
ATOM    103  O   UNL A   1      47.508  20.439  35.624  1.00  0.00    -0.237 OA
ATOM    104  O   UNL A   1      45.730  20.852  37.288  1.00  0.00    -0.744 OA
ENDBRANCH 100 101
ENDBRANCH  68  93
ENDBRANCH  42  43
ENDBRANCH  34  37
ENDBRANCH  32  33
ENDBRANCH  31  32
ENDBRANCH   1  31
TORSDOF 17
ENDMDL
MODEL 2
REMARK VINA RESULT:     -14.4      1.470      2.545
REMARK SMILES Cc1ccccc1[C@@H]1[NH2+][C@@H](C(=O)NCCCCCCNC(=O)c2ccc(-c3c4nc(c(-c5c(F)cc(S(=O)(=O)[O-])cc5F)c5ccc([nH]5)c(-c5c(F)cc(S(=O)(=O)[O-])cc5F)c5nc(c(-c6c(F)cc(S(=O)(=O)[O-])cc6F)c6ccc3[nH]6)C=C5)C=C4)cc2)CC2=c3ccccc3=N[C@H]21
REMARK SMILES IDX 17 1 16 2 15 3 14 4 13 5 11 6 12 7 10 9 8 10 9 11 98 12
REMARK SMILES IDX 90 15 97 16 89 17 91 18 96 19 92 20 95 21 93 22 94 23 7 24
REMARK SMILES IDX 1 25 2 26 3 27 4 28 6 29 5 30 18 31 19 32 20 33 21 34 22 36
REMARK SMILES IDX 23 37 24 38 88 39 25 40 87 41 26 42 27 43 28 44 81 45 29 46
REMARK SMILES IDX 86 47 80 48 82 49 30 50 85 51 79 52 78 53 31 55 65 56 44 57
REMARK SMILES IDX 64 58 45 59 48 60 63 61 83 62 46 63 47 64 62 66 84 67 49 68
REMARK SMILES IDX 32 69 33 70 42 71 34 72 35 73 41 74 43 75 36 76 37 77 38 78
REMARK SMILES IDX 39 79 40 80 66 81 67 82 76 83 68 84 69 85 75 86 77 87 70 88
REMARK SMILES IDX 71 89 72 90 73 91 74 92 50 93 51 94 60 95 52 96 53 97 59 98
REMARK SMILES IDX 61 99 54 100 55 101 56 102 57 103 58 104
REMARK H PARENT 13 8 9 13 9 14 20 35 82 54 48 65
REMARK Flexibility Score: inf
ROOT
ATOM      1  C   UNL A   1      32.416  29.956  25.457  1.00  0.00     0.002 C 
ENDROOT
BRANCH   1   2
ATOM      2  C   UNL A   1      31.155  29.229  24.949  1.00  0.00     0.002 C 
BRANCH   2   3
ATOM      3  C   UNL A   1      31.145  28.730  23.495  1.00  0.00     0.021 C 
BRANCH   3   4
ATOM      4  C   UNL A   1      32.489  28.744  22.766  1.00  0.00     0.116 C 
BRANCH   4   5
ATOM      5  N   UNL A   1      32.887  27.513  22.101  1.00  0.00    -0.351 N 
ATOM      6  C   UNL A   1      33.245  26.293  22.606  1.00  0.00     0.278 C 
ATOM      7  O   UNL A   1      32.987  25.311  21.894  1.00  0.00    -0.268 OA
ATOM      8  H   UNL A   1      32.901  27.568  21.119  1.00  0.00     0.163 HD
BRANCH   6   9
ATOM      9  C   UNL A   1      34.121  26.128  23.885  1.00  0.00     0.277 C 
ATOM     10  C   UNL A   1      34.494  23.732  24.765  1.00  0.00     0.243 C 
ATOM     11  N   UNL A   1      34.859  24.824  23.823  1.00  0.00    -0.327 N 
ATOM     12  C   UNL A   1      33.767  24.115  26.091  1.00  0.00     0.196 C 
ATOM     13  H   UNL A   1      34.733  24.456  22.880  1.00  0.00     0.347 HD
ATOM     14  H   UNL A   1      35.808  25.072  24.101  1.00  0.00     0.347 HD
ATOM     15  C   UNL A   1      32.843  25.256  25.825  1.00  0.00    -0.024 C 
ATOM     16  N   UNL A   1      32.877  23.022  26.601  1.00  0.00    -0.270 NA
ATOM     17  C   UNL A   1      33.486  26.451  25.238  1.00  0.00     0.109 C 
ATOM     18  C   UNL A   1      31.584  24.956  26.107  1.00  0.00     0.002 A 
ATOM     19  C   UNL A   1      31.705  23.581  26.622  1.00  0.00     0.066 A 
ATOM     20  C   UNL A   1      30.324  25.605  25.972  1.00  0.00     0.010 A 
ATOM     21  C   UNL A   1      30.455  22.960  27.113  1.00  0.00     0.028 A 
ATOM     22  C   UNL A   1      29.222  24.957  26.382  1.00  0.00     0.001 A 
ATOM     23  C   UNL A   1      29.301  23.638  26.991  1.00  0.00     0.002 A 
BRANCH  10  24
ATOM     24  C   UNL A   1      35.741  22.894  25.103  1.00  0.00     0.015 A 
ATOM     25  C   UNL A   1      34.610  20.621  24.632  1.00  0.00     0.045 C 
ATOM     26  C   UNL A   1      35.785  21.479  25.022  1.00  0.00    -0.042 A 
ATOM     27  C   UNL A   1      37.008  20.813  25.235  1.00  0.00     0.004 A 
ATOM     28  C   UNL A   1      38.167  21.514  25.556  1.00  0.00     0.000 A 
ATOM     29  C   UNL A   1      36.928  23.579  25.440  1.00  0.00     0.010 A 
ATOM     30  C   UNL A   1      38.127  22.897  25.667  1.00  0.00     0.001 A 
ENDBRANCH  10  24
ENDBRANCH   6   9
ENDBRANCH   4   5
ENDBRANCH   3   4
ENDBRANCH   2   3
ENDBRANCH   1   2
BRANCH   1  31
ATOM     31  C   UNL A   1      32.751  29.825  26.945  1.00  0.00     0.021 C 
BRANCH  31  32
ATOM     32  C   UNL A   1      34.223  29.560  27.248  1.00  0.00     0.116 C 
BRANCH  32  33
ATOM     33  N   UNL A   1      35.052  30.755  27.251  1.00  0.00    -0.352 N 
ATOM     34  C   UNL A   1      36.135  30.966  28.111  1.00  0.00     0.251 C 
ATOM     35  H   UNL A   1      34.836  31.464  26.604  1.00  0.00     0.163 HD
ATOM     36  O   UNL A   1      36.386  32.013  28.633  1.00  0.00    -0.269 OA
BRANCH  34  37
ATOM     37  C   UNL A   1      37.054  29.803  28.235  1.00  0.00     0.039 A 
ATOM     38  C   UNL A   1      37.149  29.162  29.474  1.00  0.00     0.014 A 
ATOM     39  C   UNL A   1      37.965  29.540  27.218  1.00  0.00     0.014 A 
ATOM     40  C   UNL A   1      38.266  28.374  29.753  1.00  0.00     0.010 A 
ATOM     41  C   UNL A   1      39.111  28.835  27.527  1.00  0.00     0.010 A 
ATOM     42  C   UNL A   1      39.287  28.285  28.806  1.00  0.00    -0.014 A 
BRANCH  42  43
ATOM     43  C   UNL A   1      40.619  27.743  29.073  1.00  0.00     0.031 A 
ATOM     44  C   UNL A   1      40.986  26.376  28.628  1.00  0.00     0.074 A 
ATOM     45  C   UNL A   1      41.578  28.556  29.566  1.00  0.00     0.049 A 
ATOM     46  N   UNL A   1      42.064  25.754  28.972  1.00  0.00    -0.248 NA
ATOM     47  C   UNL A   1      40.125  25.582  27.761  1.00  0.00     0.031 C 
ATOM     48  C   UNL A   1      43.023  28.356  29.501  1.00  0.00     0.029 A 
ATOM     49  N   UNL A   1      41.422  29.656  30.410  1.00  0.00    -0.354 N 
ATOM     50  C   UNL A   1      42.175  24.621  28.195  1.00  0.00     0.074 A 
ATOM     51  C   UNL A   1      40.920  24.545  27.482  1.00  0.00     0.031 C 
ATOM     52  C   UNL A   1      43.611  29.115  30.438  1.00  0.00     0.029 A 
ATOM     53  C   UNL A   1      42.560  29.710  31.242  1.00  0.00     0.049 A 
ATOM     54  H   UNL A   1      40.658  30.278  30.423  1.00  0.00     0.167 HD
ATOM     55  C   UNL A   1      43.356  23.935  28.170  1.00  0.00     0.037 A 
ATOM     56  C   UNL A   1      42.431  29.548  32.594  1.00  0.00     0.037 A 
ATOM     57  C   UNL A   1      44.306  24.471  29.148  1.00  0.00     0.049 A 
ATOM     58  C   UNL A   1      43.059  28.282  33.144  1.00  0.00     0.074 A 
ATOM     59  C   UNL A   1      45.385  25.339  29.086  1.00  0.00     0.029 A 
ATOM     60  N   UNL A   1      44.023  24.313  30.493  1.00  0.00    -0.354 N 
ATOM     61  N   UNL A   1      43.725  27.415  32.431  1.00  0.00    -0.248 NA
ATOM     62  C   UNL A   1      42.923  27.857  34.541  1.00  0.00     0.031 C 
ATOM     63  C   UNL A   1      45.704  25.745  30.415  1.00  0.00     0.029 A 
ATOM     64  C   UNL A   1      44.823  25.120  31.277  1.00  0.00     0.049 A 
ATOM     65  H   UNL A   1      43.338  23.701  30.845  1.00  0.00     0.167 HD
ATOM     66  C   UNL A   1      44.010  26.320  33.201  1.00  0.00     0.074 A 
ATOM     67  C   UNL A   1      43.526  26.656  34.525  1.00  0.00     0.031 C 
ATOM     68  C   UNL A   1      44.565  25.180  32.704  1.00  0.00     0.037 A 
BRANCH  55  69
ATOM     69  C   UNL A   1      43.734  22.912  27.115  1.00  0.00     0.058 A 
ATOM     70  C   UNL A   1      42.988  21.721  26.968  1.00  0.00     0.135 A 
ATOM     71  C   UNL A   1      44.844  23.013  26.255  1.00  0.00     0.135 A 
ATOM     72  F   UNL A   1      41.846  21.521  27.640  1.00  0.00    -0.206 F 
ATOM     73  C   UNL A   1      43.382  20.672  26.134  1.00  0.00     0.059 A 
ATOM     74  C   UNL A   1      45.296  21.954  25.459  1.00  0.00     0.059 A 
ATOM     75  F   UNL A   1      45.508  24.165  26.102  1.00  0.00    -0.206 F 
ATOM     76  C   UNL A   1      44.563  20.779  25.415  1.00  0.00     0.060 A 
BRANCH  76  77
ATOM     77  S   UNL A   1      45.117  19.375  24.430  1.00  0.00     0.124 S 
ATOM     78  O   UNL A   1      44.593  18.242  25.186  1.00  0.00    -0.237 OA
ATOM     79  O   UNL A   1      44.476  19.633  23.145  1.00  0.00    -0.237 OA
ATOM     80  O   UNL A   1      46.573  19.505  24.442  1.00  0.00    -0.744 OA
ENDBRANCH  76  77
ENDBRANCH  55  69
BRANCH  56  81
ATOM     81  C   UNL A   1      41.208  30.220  33.119  1.00  0.00     0.058 A 
ATOM     82  C   UNL A   1      41.254  31.623  33.240  1.00  0.00     0.135 A 
ATOM     83  C   UNL A   1      39.948  29.615  33.015  1.00  0.00     0.135 A 
ATOM     84  F   UNL A   1      42.436  32.248  33.374  1.00  0.00    -0.206 F 
ATOM     85  C   UNL A   1      40.122  32.406  33.049  1.00  0.00     0.059 A 
ATOM     86  C   UNL A   1      38.797  30.384  32.839  1.00  0.00     0.059 A 
ATOM     87  F   UNL A   1      39.844  28.282  32.912  1.00  0.00    -0.206 F 
ATOM     88  C   UNL A   1      38.915  31.773  32.763  1.00  0.00     0.060 A 
BRANCH  88  89
ATOM     89  S   UNL A   1      37.558  32.783  32.120  1.00  0.00     0.124 S 
ATOM     90  O   UNL A   1      37.258  33.654  33.250  1.00  0.00    -0.237 OA
ATOM     91  O   UNL A   1      38.185  33.434  30.968  1.00  0.00    -0.237 OA
ATOM     92  O   UNL A   1      36.535  31.795  31.796  1.00  0.00    -0.744 OA
ENDBRANCH  88  89
ENDBRANCH  56  81
BRANCH  68  93
ATOM     93  C   UNL A   1      44.903  24.013  33.572  1.00  0.00     0.058 A 
ATOM     94  C   UNL A   1      46.195  23.842  34.090  1.00  0.00     0.135 A 
ATOM     95  C   UNL A   1      43.985  22.967  33.786  1.00  0.00     0.135 A 
ATOM     96  F   UNL A   1      47.129  24.792  33.913  1.00  0.00    -0.206 F 
ATOM     97  C   UNL A   1      46.562  22.693  34.786  1.00  0.00     0.059 A 
ATOM     98  C   UNL A   1      44.339  21.795  34.448  1.00  0.00     0.059 A 
ATOM     99  F   UNL A   1      42.715  23.069  33.364  1.00  0.00    -0.206 F 
ATOM    100  C   UNL A   1      45.629  21.670  34.954  1.00  0.00     0.060 A 
BRANCH 100 101
ATOM    101  S   UNL A   1      46.113  20.151  35.798  1.00  0.00     0.124 S 
ATOM    102  O   UNL A   1      45.845  20.457  37.200  1.00  0.00    -0.237 OA
ATOM    103  O   UNL A   1      45.214  19.180  35.183  1.00  0.00    -0.237 OA
ATOM    104  O   UNL A   1      47.523  20.015  35.451  1.00  0.00    -0.744 OA
ENDBRANCH 100 101
ENDBRANCH  68  93
ENDBRANCH  42  43
ENDBRANCH  34  37
ENDBRANCH  32  33
ENDBRANCH  31  32
ENDBRANCH   1  31
TORSDOF 17
ENDMDL
MODEL 3
REMARK VINA RESULT:     -12.9      2.242      3.409
REMARK SMILES Cc1ccccc1[C@@H]1[NH2+][C@@H](C(=O)NCCCCCCNC(=O)c2ccc(-c3c4nc(c(-c5c(F)cc(S(=O)(=O)[O-])cc5F)c5ccc([nH]5)c(-c5c(F)cc(S(=O)(=O)[O-])cc5F)c5nc(c(-c6c(F)cc(S(=O)(=O)[O-])cc6F)c6ccc3[nH]6)C=C5)C=C4)cc2)CC2=c3ccccc3=N[C@H]21
REMARK SMILES IDX 17 1 16 2 15 3 14 4 13 5 11 6 12 7 10 9 8 10 9 11 98 12
REMARK SMILES IDX 90 15 97 16 89 17 91 18 96 19 92 20 95 21 93 22 94 23 7 24
REMARK SMILES IDX 1 25 2 26 3 27 4 28 6 29 5 30 18 31 19 32 20 33 21 34 22 36
REMARK SMILES IDX 23 37 24 38 88 39 25 40 87 41 26 42 27 43 28 44 81 45 29 46
REMARK SMILES IDX 86 47 80 48 82 49 30 50 85 51 79 52 78 53 31 55 65 56 44 57
REMARK SMILES IDX 64 58 45 59 48 60 63 61 83 62 46 63 47 64 62 66 84 67 49 68
REMARK SMILES IDX 32 69 33 70 42 71 34 72 35 73 41 74 43 75 36 76 37 77 38 78
REMARK SMILES IDX 39 79 40 80 66 81 67 82 76 83 68 84 69 85 75 86 77 87 70 88
REMARK SMILES IDX 71 89 72 90 73 91 74 92 50 93 51 94 60 95 52 96 53 97 59 98
REMARK SMILES IDX 61 99 54 100 55 101 56 102 57 103 58 104
REMARK H PARENT 13 8 9 13 9 14 20 35 82 54 48 65
REMARK Flexibility Score: inf
ROOT
ATOM      1  C   UNL A   1      32.019  29.249  25.333  1.00  0.00     0.002 C 
ENDROOT
BRANCH   1   2
ATOM      2  C   UNL A   1      33.290  29.174  24.464  1.00  0.00     0.002 C 
BRANCH   2   3
ATOM      3  C   UNL A   1      33.124  28.888  22.963  1.00  0.00     0.021 C 
BRANCH   3   4
ATOM      4  C   UNL A   1      32.155  27.764  22.592  1.00  0.00     0.116 C 
BRANCH   4   5
ATOM      5  N   UNL A   1      32.677  26.701  21.747  1.00  0.00    -0.351 N 
ATOM      6  C   UNL A   1      33.218  25.485  22.063  1.00  0.00     0.278 C 
ATOM      7  O   UNL A   1      33.054  24.582  21.228  1.00  0.00    -0.268 OA
ATOM      8  H   UNL A   1      32.632  26.890  20.783  1.00  0.00     0.163 HD
BRANCH   6   9
ATOM      9  C   UNL A   1      34.174  25.270  23.275  1.00  0.00     0.277 C 
ATOM     10  C   UNL A   1      34.253  22.913  24.320  1.00  0.00     0.243 C 
ATOM     11  N   UNL A   1      34.692  23.864  23.264  1.00  0.00    -0.327 N 
ATOM     12  C   UNL A   1      33.720  23.499  25.664  1.00  0.00     0.196 C 
ATOM     13  H   UNL A   1      34.424  23.456  22.368  1.00  0.00     0.347 HD
ATOM     14  H   UNL A   1      35.690  23.974  23.442  1.00  0.00     0.347 HD
ATOM     15  C   UNL A   1      32.963  24.754  25.379  1.00  0.00    -0.024 C 
ATOM     16  N   UNL A   1      32.724  22.603  26.335  1.00  0.00    -0.270 NA
ATOM     17  C   UNL A   1      33.725  25.786  24.644  1.00  0.00     0.109 C 
ATOM     18  C   UNL A   1      31.705  24.680  25.787  1.00  0.00     0.002 A 
ATOM     19  C   UNL A   1      31.659  23.343  26.403  1.00  0.00     0.066 A 
ATOM     20  C   UNL A   1      30.553  25.513  25.701  1.00  0.00     0.010 A 
ATOM     21  C   UNL A   1      30.380  22.968  27.045  1.00  0.00     0.028 A 
ATOM     22  C   UNL A   1      29.407  25.081  26.252  1.00  0.00     0.001 A 
ATOM     23  C   UNL A   1      29.339  23.813  26.961  1.00  0.00     0.002 A 
BRANCH  10  24
ATOM     24  C   UNL A   1      35.382  21.911  24.625  1.00  0.00     0.015 A 
ATOM     25  C   UNL A   1      33.826  19.851  24.709  1.00  0.00     0.045 C 
ATOM     26  C   UNL A   1      35.176  20.517  24.783  1.00  0.00    -0.042 A 
ATOM     27  C   UNL A   1      36.289  19.668  24.940  1.00  0.00     0.004 A 
ATOM     28  C   UNL A   1      37.586  20.174  24.975  1.00  0.00     0.000 A 
ATOM     29  C   UNL A   1      36.705  22.399  24.674  1.00  0.00     0.010 A 
ATOM     30  C   UNL A   1      37.794  21.541  24.850  1.00  0.00     0.001 A 
ENDBRANCH  10  24
ENDBRANCH   6   9
ENDBRANCH   4   5
ENDBRANCH   3   4
ENDBRANCH   2   3
ENDBRANCH   1   2
BRANCH   1  31
ATOM     31  C   UNL A   1      32.152  29.885  26.720  1.00  0.00     0.021 C 
BRANCH  31  32
ATOM     32  C   UNL A   1      33.567  29.881  27.291  1.00  0.00     0.116 C 
BRANCH  32  33
ATOM     33  N   UNL A   1      34.078  31.204  27.615  1.00  0.00    -0.352 N 
ATOM     34  C   UNL A   1      34.926  31.484  28.692  1.00  0.00     0.251 C 
ATOM     35  H   UNL A   1      33.809  31.953  27.037  1.00  0.00     0.163 HD
ATOM     36  O   UNL A   1      34.835  32.455  29.385  1.00  0.00    -0.269 OA
BRANCH  34  37
ATOM     37  C   UNL A   1      36.060  30.534  28.841  1.00  0.00     0.039 A 
ATOM     38  C   UNL A   1      36.200  29.853  30.055  1.00  0.00     0.014 A 
ATOM     39  C   UNL A   1      37.077  30.530  27.894  1.00  0.00     0.014 A 
ATOM     40  C   UNL A   1      37.436  29.301  30.391  1.00  0.00     0.010 A 
ATOM     41  C   UNL A   1      38.322  30.063  28.266  1.00  0.00     0.010 A 
ATOM     42  C   UNL A   1      38.518  29.486  29.530  1.00  0.00    -0.014 A 
BRANCH  42  43
ATOM     43  C   UNL A   1      39.912  29.219  29.884  1.00  0.00     0.031 A 
ATOM     44  C   UNL A   1      40.596  27.991  29.407  1.00  0.00     0.074 A 
ATOM     45  C   UNL A   1      40.636  30.181  30.496  1.00  0.00     0.049 A 
ATOM     46  N   UNL A   1      41.754  27.589  29.811  1.00  0.00    -0.248 NA
ATOM     47  C   UNL A   1      39.991  27.093  28.432  1.00  0.00     0.031 C 
ATOM     48  C   UNL A   1      42.091  30.294  30.546  1.00  0.00     0.029 A 
ATOM     49  N   UNL A   1      40.185  31.166  31.375  1.00  0.00    -0.354 N 
ATOM     50  C   UNL A   1      42.162  26.557  28.994  1.00  0.00     0.074 A 
ATOM     51  C   UNL A   1      41.009  26.266  28.172  1.00  0.00     0.031 C 
ATOM     52  C   UNL A   1      42.432  31.096  31.565  1.00  0.00     0.029 A 
ATOM     53  C   UNL A   1      41.221  31.403  32.304  1.00  0.00     0.049 A 
ATOM     54  H   UNL A   1      39.307  31.611  31.353  1.00  0.00     0.167 HD
ATOM     55  C   UNL A   1      43.462  26.138  29.037  1.00  0.00     0.037 A 
ATOM     56  C   UNL A   1      41.030  31.130  33.631  1.00  0.00     0.037 A 
ATOM     57  C   UNL A   1      44.199  26.797  30.117  1.00  0.00     0.049 A 
ATOM     58  C   UNL A   1      41.874  29.991  34.171  1.00  0.00     0.074 A 
ATOM     59  C   UNL A   1      45.069  27.874  30.190  1.00  0.00     0.029 A 
ATOM     60  N   UNL A   1      43.859  26.495  31.423  1.00  0.00    -0.354 N 
ATOM     61  N   UNL A   1      42.761  29.332  33.476  1.00  0.00    -0.248 NA
ATOM     62  C   UNL A   1      41.729  29.457  35.528  1.00  0.00     0.031 C 
ATOM     63  C   UNL A   1      45.194  28.250  31.559  1.00  0.00     0.029 A 
ATOM     64  C   UNL A   1      44.407  27.400  32.312  1.00  0.00     0.049 A 
ATOM     65  H   UNL A   1      43.297  25.731  31.686  1.00  0.00     0.167 HD
ATOM     66  C   UNL A   1      43.216  28.273  34.214  1.00  0.00     0.074 A 
ATOM     67  C   UNL A   1      42.576  28.413  35.507  1.00  0.00     0.031 C 
ATOM     68  C   UNL A   1      44.039  27.311  33.712  1.00  0.00     0.037 A 
BRANCH  55  69
ATOM     69  C   UNL A   1      44.126  25.289  27.970  1.00  0.00     0.058 A 
ATOM     70  C   UNL A   1      44.307  25.788  26.661  1.00  0.00     0.135 A 
ATOM     71  C   UNL A   1      44.559  23.960  28.150  1.00  0.00     0.135 A 
ATOM     72  F   UNL A   1      44.043  27.065  26.354  1.00  0.00    -0.206 F 
ATOM     73  C   UNL A   1      44.758  25.000  25.598  1.00  0.00     0.059 A 
ATOM     74  C   UNL A   1      44.953  23.132  27.094  1.00  0.00     0.059 A 
ATOM     75  F   UNL A   1      44.676  23.423  29.371  1.00  0.00    -0.206 F 
ATOM     76  C   UNL A   1      45.037  23.659  25.814  1.00  0.00     0.060 A 
BRANCH  76  77
ATOM     77  S   UNL A   1      45.510  22.628  24.414  1.00  0.00     0.124 S 
ATOM     78  O   UNL A   1      46.034  21.435  25.073  1.00  0.00    -0.237 OA
ATOM     79  O   UNL A   1      44.240  22.462  23.716  1.00  0.00    -0.237 OA
ATOM     80  O   UNL A   1      46.507  23.437  23.718  1.00  0.00    -0.744 OA
ENDBRANCH  76  77
ENDBRANCH  55  69
BRANCH  56  81
ATOM     81  C   UNL A   1      39.656  31.494  34.080  1.00  0.00     0.058 A 
ATOM     82  C   UNL A   1      39.409  32.858  34.333  1.00  0.00     0.135 A 
ATOM     83  C   UNL A   1      38.558  30.676  33.787  1.00  0.00     0.135 A 
ATOM     84  F   UNL A   1      40.425  33.678  34.650  1.00  0.00    -0.206 F 
ATOM     85  C   UNL A   1      38.165  33.427  34.094  1.00  0.00     0.059 A 
ATOM     86  C   UNL A   1      37.296  31.225  33.559  1.00  0.00     0.059 A 
ATOM     87  F   UNL A   1      38.732  29.367  33.552  1.00  0.00    -0.206 F 
ATOM     88  C   UNL A   1      37.138  32.612  33.624  1.00  0.00     0.060 A 
BRANCH  88  89
ATOM     89  S   UNL A   1      35.668  33.408  32.933  1.00  0.00     0.124 S 
ATOM     90  O   UNL A   1      34.881  32.267  32.482  1.00  0.00    -0.237 OA
ATOM     91  O   UNL A   1      35.136  34.123  34.096  1.00  0.00    -0.237 OA
ATOM     92  O   UNL A   1      36.214  34.254  31.878  1.00  0.00    -0.744 OA
ENDBRANCH  88  89
ENDBRANCH  56  81
BRANCH  68  93
ATOM     93  C   UNL A   1      44.554  26.186  34.549  1.00  0.00     0.058 A 
ATOM     94  C   UNL A   1      43.702  25.170  35.005  1.00  0.00     0.135 A 
ATOM     95  C   UNL A   1      45.877  26.176  35.032  1.00  0.00     0.135 A 
ATOM     96  F   UNL A   1      42.423  25.122  34.598  1.00  0.00    -0.206 F 
ATOM     97  C   UNL A   1      44.136  24.190  35.895  1.00  0.00     0.059 A 
ATOM     98  C   UNL A   1      46.323  25.229  35.949  1.00  0.00     0.059 A 
ATOM     99  F   UNL A   1      46.770  27.085  34.610  1.00  0.00    -0.206 F 
ATOM    100  C   UNL A   1      45.448  24.233  36.369  1.00  0.00     0.060 A 
BRANCH 100 101
ATOM    101  S   UNL A   1      46.001  23.008  37.571  1.00  0.00     0.124 S 
ATOM    102  O   UNL A   1      45.558  21.748  36.981  1.00  0.00    -0.237 OA
ATOM    103  O   UNL A   1      47.443  23.231  37.569  1.00  0.00    -0.237 OA
ATOM    104  O   UNL A   1      45.303  23.401  38.790  1.00  0.00    -0.744 OA
ENDBRANCH 100 101
ENDBRANCH  68  93
ENDBRANCH  42  43
ENDBRANCH  34  37
ENDBRANCH  32  33
ENDBRANCH  31  32
ENDBRANCH   1  31
TORSDOF 17
ENDMDL
