MODEL 1
REMARK VINA RESULT:     -12.0      0.000      0.000
REMARK SMILES Cc1cc(NC(=O)CCC(=O)NCCCCCCNC(=O)c2ccc(-c3c4nc(c(-c5c(F)cc(S(=O)(=O)[O-])cc5F)c5ccc([nH]5)c(-c5c(F)cc(S(=O)(=O)[O-])cc5F)c5nc(c(-c6c(F)cc(S(=O)(=O)[O-])cc6F)c6ccc3[nH]6)C=C5)C=C4)cc2)ccc1S(=O)(=O)[O-]
REMARK SMILES IDX 15 1 14 2 13 3 12 4 10 5 11 6 9 8 8 9 6 10 5 11 7 13 4 14
REMARK SMILES IDX 1 15 2 16 3 17 90 18 89 19 88 20 91 21 92 22 93 23 94 24
REMARK SMILES IDX 16 25 17 26 18 27 19 28 20 29 21 31 22 32 23 33 87 34 24 35
REMARK SMILES IDX 86 36 25 37 26 38 27 39 80 40 28 41 85 42 79 43 81 44 29 45
REMARK SMILES IDX 84 46 78 47 77 48 30 50 64 51 43 52 63 53 44 54 47 55 62 56
REMARK SMILES IDX 82 57 45 58 46 59 61 61 83 62 48 63 31 64 32 65 41 66 33 67
REMARK SMILES IDX 34 68 40 69 42 70 35 71 36 72 37 73 38 74 39 75 65 76 66 77
REMARK SMILES IDX 75 78 67 79 68 80 74 81 76 82 69 83 70 84 71 85 72 86 73 87
REMARK SMILES IDX 49 88 50 89 59 90 51 91 52 92 58 93 60 94 53 95 54 96 55 97
REMARK SMILES IDX 56 98 57 99
REMARK H PARENT 12 7 5 12 19 30 81 49 47 60
REMARK Flexibility Score: inf
ROOT
ATOM      1  C   UNL A   1      32.102  26.750  26.459  1.00  0.00     0.002 C 
ENDROOT
BRANCH   1   2
ATOM      2  C   UNL A   1      31.414  25.382  26.453  1.00  0.00     0.021 C 
BRANCH   2   3
ATOM      3  C   UNL A   1      30.843  24.926  25.111  1.00  0.00     0.116 C 
BRANCH   3   4
ATOM      4  N   UNL A   1      29.606  25.600  24.760  1.00  0.00    -0.356 N 
ATOM      5  C   UNL A   1      29.400  26.674  23.951  1.00  0.00     0.220 C 
ATOM      6  O   UNL A   1      28.246  26.993  23.662  1.00  0.00    -0.275 OA
ATOM      7  H   UNL A   1      28.794  25.222  25.168  1.00  0.00     0.163 HD
BRANCH   5   8
ATOM      8  C   UNL A   1      30.573  27.439  23.383  1.00  0.00     0.110 C 
BRANCH   8   9
ATOM      9  C   UNL A   1      31.471  26.717  22.386  1.00  0.00     0.110 C 
BRANCH   9  10
ATOM     10  C   UNL A   1      32.954  27.024  22.413  1.00  0.00     0.224 C 
ATOM     11  N   UNL A   1      33.911  26.134  22.808  1.00  0.00    -0.326 N 
ATOM     12  H   UNL A   1      34.815  26.518  22.869  1.00  0.00     0.169 HD
ATOM     13  O   UNL A   1      33.339  28.125  21.999  1.00  0.00    -0.275 OA
BRANCH  11  14
ATOM     14  C   UNL A   1      33.841  24.776  23.142  1.00  0.00     0.041 A 
ATOM     15  C   UNL A   1      34.375  22.582  26.160  1.00  0.00     0.046 C 
ATOM     16  C   UNL A   1      33.986  22.931  24.753  1.00  0.00    -0.032 A 
ATOM     17  C   UNL A   1      34.289  24.249  24.348  1.00  0.00     0.030 A 
ATOM     18  C   UNL A   1      33.244  22.129  23.874  1.00  0.00     0.057 A 
ATOM     19  C   UNL A   1      32.902  22.618  22.600  1.00  0.00     0.021 A 
ATOM     20  C   UNL A   1      33.218  23.925  22.229  1.00  0.00     0.027 A 
BRANCH  18  21
ATOM     21  S   UNL A   1      32.646  20.492  24.221  1.00  0.00     0.124 S 
ATOM     22  O   UNL A   1      31.787  20.569  25.386  1.00  0.00    -0.237 OA
ATOM     23  O   UNL A   1      32.170  19.934  22.975  1.00  0.00    -0.237 OA
ATOM     24  O   UNL A   1      33.887  19.551  24.621  1.00  0.00    -0.744 OA
ENDBRANCH  18  21
ENDBRANCH  11  14
ENDBRANCH   9  10
ENDBRANCH   8   9
ENDBRANCH   5   8
ENDBRANCH   3   4
ENDBRANCH   2   3
ENDBRANCH   1   2
BRANCH   1  25
ATOM     25  C   UNL A   1      31.402  27.863  27.250  1.00  0.00     0.002 C 
BRANCH  25  26
ATOM     26  C   UNL A   1      32.100  29.221  27.265  1.00  0.00     0.021 C 
BRANCH  26  27
ATOM     27  C   UNL A   1      33.343  29.305  26.401  1.00  0.00     0.116 C 
BRANCH  27  28
ATOM     28  N   UNL A   1      34.032  30.581  26.469  1.00  0.00    -0.352 N 
ATOM     29  C   UNL A   1      34.659  31.006  27.635  1.00  0.00     0.251 C 
ATOM     30  H   UNL A   1      34.055  31.158  25.672  1.00  0.00     0.163 HD
ATOM     31  O   UNL A   1      34.371  32.020  28.253  1.00  0.00    -0.269 OA
BRANCH  29  32
ATOM     32  C   UNL A   1      35.752  30.125  28.090  1.00  0.00     0.039 A 
ATOM     33  C   UNL A   1      35.788  29.705  29.423  1.00  0.00     0.014 A 
ATOM     34  C   UNL A   1      36.853  29.980  27.250  1.00  0.00     0.014 A 
ATOM     35  C   UNL A   1      37.002  29.317  29.974  1.00  0.00     0.010 A 
ATOM     36  C   UNL A   1      38.069  29.734  27.819  1.00  0.00     0.010 A 
ATOM     37  C   UNL A   1      38.139  29.438  29.183  1.00  0.00    -0.014 A 
BRANCH  37  38
ATOM     38  C   UNL A   1      39.494  29.232  29.638  1.00  0.00     0.031 A 
ATOM     39  C   UNL A   1      40.095  27.917  29.369  1.00  0.00     0.074 A 
ATOM     40  C   UNL A   1      40.184  30.335  29.992  1.00  0.00     0.049 A 
ATOM     41  N   UNL A   1      41.195  27.496  29.872  1.00  0.00    -0.248 NA
ATOM     42  C   UNL A   1      39.448  26.927  28.509  1.00  0.00     0.031 C 
ATOM     43  C   UNL A   1      41.624  30.527  30.063  1.00  0.00     0.029 A 
ATOM     44  N   UNL A   1      39.652  31.501  30.549  1.00  0.00    -0.354 N 
ATOM     45  C   UNL A   1      41.569  26.371  29.164  1.00  0.00     0.074 A 
ATOM     46  C   UNL A   1      40.391  25.987  28.433  1.00  0.00     0.031 C 
ATOM     47  C   UNL A   1      41.879  31.580  30.863  1.00  0.00     0.029 A 
ATOM     48  C   UNL A   1      40.611  31.989  31.453  1.00  0.00     0.049 A 
ATOM     49  H   UNL A   1      38.777  31.902  30.347  1.00  0.00     0.167 HD
ATOM     50  C   UNL A   1      42.891  26.030  29.162  1.00  0.00     0.037 A 
ATOM     51  C   UNL A   1      40.337  31.937  32.794  1.00  0.00     0.037 A 
ATOM     52  C   UNL A   1      43.605  26.887  30.116  1.00  0.00     0.049 A 
ATOM     53  C   UNL A   1      41.213  30.936  33.520  1.00  0.00     0.074 A 
ATOM     54  C   UNL A   1      44.355  28.040  29.948  1.00  0.00     0.029 A 
ATOM     55  N   UNL A   1      43.267  26.830  31.465  1.00  0.00    -0.354 N 
ATOM     56  N   UNL A   1      41.805  29.923  32.944  1.00  0.00    -0.248 NA
ATOM     57  C   UNL A   1      41.548  31.040  34.937  1.00  0.00     0.031 C 
ATOM     58  C   UNL A   1      44.358  28.739  31.185  1.00  0.00     0.029 A 
ATOM     59  C   UNL A   1      43.639  27.997  32.109  1.00  0.00     0.049 A 
ATOM     60  H   UNL A   1      42.824  26.066  31.901  1.00  0.00     0.167 HD
ATOM     61  C   UNL A   1      42.592  29.266  33.854  1.00  0.00     0.074 A 
ATOM     62  C   UNL A   1      42.396  30.007  35.087  1.00  0.00     0.031 C 
ATOM     63  C   UNL A   1      43.361  28.183  33.526  1.00  0.00     0.037 A 
BRANCH  50  64
ATOM     64  C   UNL A   1      43.594  25.177  28.113  1.00  0.00     0.058 A 
ATOM     65  C   UNL A   1      44.019  25.768  26.900  1.00  0.00     0.135 A 
ATOM     66  C   UNL A   1      43.816  23.785  28.176  1.00  0.00     0.135 A 
ATOM     67  F   UNL A   1      43.946  27.092  26.703  1.00  0.00    -0.206 F 
ATOM     68  C   UNL A   1      44.534  25.037  25.825  1.00  0.00     0.059 A 
ATOM     69  C   UNL A   1      44.311  23.028  27.108  1.00  0.00     0.059 A 
ATOM     70  F   UNL A   1      43.602  23.075  29.285  1.00  0.00    -0.206 F 
ATOM     71  C   UNL A   1      44.660  23.662  25.929  1.00  0.00     0.060 A 
BRANCH  71  72
ATOM     72  S   UNL A   1      45.311  22.731  24.532  1.00  0.00     0.124 S 
ATOM     73  O   UNL A   1      46.176  23.713  23.888  1.00  0.00    -0.237 OA
ATOM     74  O   UNL A   1      45.987  21.622  25.193  1.00  0.00    -0.237 OA
ATOM     75  O   UNL A   1      44.114  22.368  23.776  1.00  0.00    -0.744 OA
ENDBRANCH  71  72
ENDBRANCH  50  64
BRANCH  51  76
ATOM     76  C   UNL A   1      38.902  32.258  33.086  1.00  0.00     0.058 A 
ATOM     77  C   UNL A   1      38.557  33.626  33.143  1.00  0.00     0.135 A 
ATOM     78  C   UNL A   1      37.868  31.352  32.803  1.00  0.00     0.135 A 
ATOM     79  F   UNL A   1      39.497  34.540  33.436  1.00  0.00    -0.206 F 
ATOM     80  C   UNL A   1      37.307  34.090  32.741  1.00  0.00     0.059 A 
ATOM     81  C   UNL A   1      36.599  31.796  32.412  1.00  0.00     0.059 A 
ATOM     82  F   UNL A   1      38.119  30.035  32.746  1.00  0.00    -0.206 F 
ATOM     83  C   UNL A   1      36.361  33.168  32.301  1.00  0.00     0.060 A 
BRANCH  83  84
ATOM     84  S   UNL A   1      34.918  33.800  31.406  1.00  0.00     0.124 S 
ATOM     85  O   UNL A   1      34.034  32.640  31.397  1.00  0.00    -0.237 OA
ATOM     86  O   UNL A   1      34.499  34.917  32.257  1.00  0.00    -0.237 OA
ATOM     87  O   UNL A   1      35.465  34.185  30.111  1.00  0.00    -0.744 OA
ENDBRANCH  83  84
ENDBRANCH  51  76
BRANCH  63  88
ATOM     88  C   UNL A   1      44.012  27.238  34.512  1.00  0.00     0.058 A 
ATOM     89  C   UNL A   1      43.373  26.112  35.057  1.00  0.00     0.135 A 
ATOM     90  C   UNL A   1      45.391  27.362  34.818  1.00  0.00     0.135 A 
ATOM     91  F   UNL A   1      42.105  25.808  34.748  1.00  0.00    -0.206 F 
ATOM     92  C   UNL A   1      44.028  25.223  35.910  1.00  0.00     0.059 A 
ATOM     93  C   UNL A   1      46.080  26.446  35.604  1.00  0.00     0.059 A 
ATOM     94  F   UNL A   1      46.131  28.377  34.347  1.00  0.00    -0.206 F 
ATOM     95  C   UNL A   1      45.380  25.398  36.179  1.00  0.00     0.060 A 
BRANCH  95  96
ATOM     96  S   UNL A   1      46.230  24.237  37.258  1.00  0.00     0.124 S 
ATOM     97  O   UNL A   1      45.269  24.104  38.348  1.00  0.00    -0.237 OA
ATOM     98  O   UNL A   1      46.387  23.063  36.406  1.00  0.00    -0.237 OA
ATOM     99  O   UNL A   1      47.470  24.932  37.590  1.00  0.00    -0.744 OA
ENDBRANCH  95  96
ENDBRANCH  63  88
ENDBRANCH  37  38
ENDBRANCH  29  32
ENDBRANCH  27  28
ENDBRANCH  26  27
ENDBRANCH  25  26
ENDBRANCH   1  25
TORSDOF 20
ENDMDL
MODEL 2
REMARK VINA RESULT:     -11.6      2.102      2.892
REMARK SMILES Cc1cc(NC(=O)CCC(=O)NCCCCCCNC(=O)c2ccc(-c3c4nc(c(-c5c(F)cc(S(=O)(=O)[O-])cc5F)c5ccc([nH]5)c(-c5c(F)cc(S(=O)(=O)[O-])cc5F)c5nc(c(-c6c(F)cc(S(=O)(=O)[O-])cc6F)c6ccc3[nH]6)C=C5)C=C4)cc2)ccc1S(=O)(=O)[O-]
REMARK SMILES IDX 15 1 14 2 13 3 12 4 10 5 11 6 9 8 8 9 6 10 5 11 7 13 4 14
REMARK SMILES IDX 1 15 2 16 3 17 90 18 89 19 88 20 91 21 92 22 93 23 94 24
REMARK SMILES IDX 16 25 17 26 18 27 19 28 20 29 21 31 22 32 23 33 87 34 24 35
REMARK SMILES IDX 86 36 25 37 26 38 27 39 80 40 28 41 85 42 79 43 81 44 29 45
REMARK SMILES IDX 84 46 78 47 77 48 30 50 64 51 43 52 63 53 44 54 47 55 62 56
REMARK SMILES IDX 82 57 45 58 46 59 61 61 83 62 48 63 31 64 32 65 41 66 33 67
REMARK SMILES IDX 34 68 40 69 42 70 35 71 36 72 37 73 38 74 39 75 65 76 66 77
REMARK SMILES IDX 75 78 67 79 68 80 74 81 76 82 69 83 70 84 71 85 72 86 73 87
REMARK SMILES IDX 49 88 50 89 59 90 51 91 52 92 58 93 60 94 53 95 54 96 55 97
REMARK SMILES IDX 56 98 57 99
REMARK H PARENT 12 7 5 12 19 30 81 49 47 60
REMARK Flexibility Score: inf
ROOT
ATOM      1  C   UNL A   1      32.501  28.449  26.066  1.00  0.00     0.002 C 
ENDROOT
BRANCH   1   2
ATOM      2  C   UNL A   1      31.725  27.200  26.497  1.00  0.00     0.021 C 
BRANCH   2   3
ATOM      3  C   UNL A   1      32.026  25.923  25.716  1.00  0.00     0.116 C 
BRANCH   3   4
ATOM      4  N   UNL A   1      30.880  25.423  24.978  1.00  0.00    -0.356 N 
ATOM      5  C   UNL A   1      30.401  25.791  23.759  1.00  0.00     0.220 C 
ATOM      6  O   UNL A   1      29.501  25.126  23.244  1.00  0.00    -0.275 OA
ATOM      7  H   UNL A   1      30.373  24.708  25.428  1.00  0.00     0.163 HD
BRANCH   5   8
ATOM      8  C   UNL A   1      30.995  26.974  23.031  1.00  0.00     0.110 C 
BRANCH   8   9
ATOM      9  C   UNL A   1      32.268  26.743  22.227  1.00  0.00     0.110 C 
BRANCH   9  10
ATOM     10  C   UNL A   1      32.245  25.679  21.149  1.00  0.00     0.224 C 
ATOM     11  N   UNL A   1      32.705  24.406  21.322  1.00  0.00    -0.326 N 
ATOM     12  H   UNL A   1      32.718  23.868  20.498  1.00  0.00     0.169 HD
ATOM     13  O   UNL A   1      31.726  25.951  20.059  1.00  0.00    -0.275 OA
BRANCH  11  14
ATOM     14  C   UNL A   1      33.164  23.726  22.458  1.00  0.00     0.041 A 
ATOM     15  C   UNL A   1      32.668  20.390  24.140  1.00  0.00     0.046 C 
ATOM     16  C   UNL A   1      33.264  21.747  23.904  1.00  0.00    -0.032 A 
ATOM     17  C   UNL A   1      32.631  22.525  22.912  1.00  0.00     0.030 A 
ATOM     18  C   UNL A   1      34.448  22.243  24.469  1.00  0.00     0.057 A 
ATOM     19  C   UNL A   1      34.918  23.518  24.104  1.00  0.00     0.021 A 
ATOM     20  C   UNL A   1      34.267  24.263  23.121  1.00  0.00     0.027 A 
BRANCH  18  21
ATOM     21  S   UNL A   1      35.476  21.384  25.638  1.00  0.00     0.124 S 
ATOM     22  O   UNL A   1      34.784  21.369  26.912  1.00  0.00    -0.237 OA
ATOM     23  O   UNL A   1      35.912  20.158  25.007  1.00  0.00    -0.237 OA
ATOM     24  O   UNL A   1      36.834  22.216  25.857  1.00  0.00    -0.744 OA
ENDBRANCH  18  21
ENDBRANCH  11  14
ENDBRANCH   9  10
ENDBRANCH   8   9
ENDBRANCH   5   8
ENDBRANCH   3   4
ENDBRANCH   2   3
ENDBRANCH   1   2
BRANCH   1  25
ATOM     25  C   UNL A   1      31.783  29.792  26.239  1.00  0.00     0.002 C 
BRANCH  25  26
ATOM     26  C   UNL A   1      32.542  30.869  27.011  1.00  0.00     0.021 C 
BRANCH  26  27
ATOM     27  C   UNL A   1      34.007  30.559  27.256  1.00  0.00     0.116 C 
BRANCH  27  28
ATOM     28  N   UNL A   1      34.750  31.643  27.875  1.00  0.00    -0.352 N 
ATOM     29  C   UNL A   1      35.353  31.492  29.119  1.00  0.00     0.251 C 
ATOM     30  H   UNL A   1      34.829  32.503  27.402  1.00  0.00     0.163 HD
ATOM     31  O   UNL A   1      35.088  32.159  30.108  1.00  0.00    -0.269 OA
BRANCH  29  32
ATOM     32  C   UNL A   1      36.386  30.440  29.167  1.00  0.00     0.039 A 
ATOM     33  C   UNL A   1      36.503  29.642  30.309  1.00  0.00     0.014 A 
ATOM     34  C   UNL A   1      37.383  30.473  28.196  1.00  0.00     0.014 A 
ATOM     35  C   UNL A   1      37.717  29.022  30.576  1.00  0.00     0.010 A 
ATOM     36  C   UNL A   1      38.615  29.984  28.520  1.00  0.00     0.010 A 
ATOM     37  C   UNL A   1      38.781  29.291  29.723  1.00  0.00    -0.014 A 
BRANCH  37  38
ATOM     38  C   UNL A   1      40.145  28.863  29.933  1.00  0.00     0.031 A 
ATOM     39  C   UNL A   1      40.499  27.514  29.469  1.00  0.00     0.074 A 
ATOM     40  C   UNL A   1      41.034  29.825  30.256  1.00  0.00     0.049 A 
ATOM     41  N   UNL A   1      41.589  26.903  29.752  1.00  0.00    -0.248 NA
ATOM     42  C   UNL A   1      39.593  26.710  28.651  1.00  0.00     0.031 C 
ATOM     43  C   UNL A   1      42.481  29.817  30.107  1.00  0.00     0.029 A 
ATOM     44  N   UNL A   1      40.768  30.989  30.981  1.00  0.00    -0.354 N 
ATOM     45  C   UNL A   1      41.684  25.815  28.906  1.00  0.00     0.074 A 
ATOM     46  C   UNL A   1      40.366  25.666  28.349  1.00  0.00     0.031 C 
ATOM     47  C   UNL A   1      43.004  30.741  30.933  1.00  0.00     0.029 A 
ATOM     48  C   UNL A   1      41.913  31.254  31.753  1.00  0.00     0.049 A 
ATOM     49  H   UNL A   1      39.940  31.521  30.956  1.00  0.00     0.167 HD
ATOM     50  C   UNL A   1      42.926  25.305  28.663  1.00  0.00     0.037 A 
ATOM     51  C   UNL A   1      41.838  31.104  33.111  1.00  0.00     0.037 A 
ATOM     52  C   UNL A   1      43.894  25.960  29.552  1.00  0.00     0.049 A 
ATOM     53  C   UNL A   1      42.658  29.929  33.605  1.00  0.00     0.074 A 
ATOM     54  C   UNL A   1      44.770  27.015  29.354  1.00  0.00     0.029 A 
ATOM     55  N   UNL A   1      43.757  25.814  30.929  1.00  0.00    -0.354 N 
ATOM     56  N   UNL A   1      43.002  28.909  32.863  1.00  0.00    -0.248 NA
ATOM     57  C   UNL A   1      43.213  29.846  34.953  1.00  0.00     0.031 C 
ATOM     58  C   UNL A   1      45.061  27.580  30.625  1.00  0.00     0.029 A 
ATOM     59  C   UNL A   1      44.388  26.851  31.593  1.00  0.00     0.049 A 
ATOM     60  H   UNL A   1      43.278  25.075  31.370  1.00  0.00     0.167 HD
ATOM     61  C   UNL A   1      43.812  28.066  33.579  1.00  0.00     0.074 A 
ATOM     62  C   UNL A   1      43.914  28.699  34.882  1.00  0.00     0.031 C 
ATOM     63  C   UNL A   1      44.356  26.929  33.047  1.00  0.00     0.037 A 
BRANCH  50  64
ATOM     64  C   UNL A   1      43.332  24.475  27.450  1.00  0.00     0.058 A 
ATOM     65  C   UNL A   1      43.079  23.083  27.439  1.00  0.00     0.135 A 
ATOM     66  C   UNL A   1      44.032  24.936  26.315  1.00  0.00     0.135 A 
ATOM     67  F   UNL A   1      42.365  22.493  28.408  1.00  0.00    -0.206 F 
ATOM     68  C   UNL A   1      43.548  22.222  26.442  1.00  0.00     0.059 A 
ATOM     69  C   UNL A   1      44.528  24.093  25.314  1.00  0.00     0.059 A 
ATOM     70  F   UNL A   1      44.248  26.232  26.084  1.00  0.00    -0.206 F 
ATOM     71  C   UNL A   1      44.290  22.732  25.390  1.00  0.00     0.060 A 
BRANCH  71  72
ATOM     72  S   UNL A   1      44.901  21.611  24.120  1.00  0.00     0.124 S 
ATOM     73  O   UNL A   1      44.274  20.350  24.501  1.00  0.00    -0.237 OA
ATOM     74  O   UNL A   1      44.397  22.230  22.899  1.00  0.00    -0.237 OA
ATOM     75  O   UNL A   1      46.351  21.660  24.289  1.00  0.00    -0.744 OA
ENDBRANCH  71  72
ENDBRANCH  50  64
BRANCH  51  76
ATOM     76  C   UNL A   1      40.525  31.581  33.657  1.00  0.00     0.058 A 
ATOM     77  C   UNL A   1      39.597  30.587  34.037  1.00  0.00     0.135 A 
ATOM     78  C   UNL A   1      40.388  32.843  34.255  1.00  0.00     0.135 A 
ATOM     79  F   UNL A   1      39.661  29.366  33.480  1.00  0.00    -0.206 F 
ATOM     80  C   UNL A   1      38.714  30.769  35.098  1.00  0.00     0.059 A 
ATOM     81  C   UNL A   1      39.494  33.053  35.313  1.00  0.00     0.059 A 
ATOM     82  F   UNL A   1      41.225  33.840  33.933  1.00  0.00    -0.206 F 
ATOM     83  C   UNL A   1      38.728  31.982  35.780  1.00  0.00     0.060 A 
BRANCH  83  84
ATOM     84  S   UNL A   1      37.889  32.060  37.384  1.00  0.00     0.124 S 
ATOM     85  O   UNL A   1      37.424  30.689  37.552  1.00  0.00    -0.237 OA
ATOM     86  O   UNL A   1      38.975  32.481  38.274  1.00  0.00    -0.237 OA
ATOM     87  O   UNL A   1      36.847  33.057  37.172  1.00  0.00    -0.744 OA
ENDBRANCH  83  84
ENDBRANCH  51  76
BRANCH  63  88
ATOM     88  C   UNL A   1      45.003  25.813  33.837  1.00  0.00     0.058 A 
ATOM     89  C   UNL A   1      46.391  25.640  33.956  1.00  0.00     0.135 A 
ATOM     90  C   UNL A   1      44.212  24.958  34.647  1.00  0.00     0.135 A 
ATOM     91  F   UNL A   1      47.255  26.460  33.342  1.00  0.00    -0.206 F 
ATOM     92  C   UNL A   1      46.953  24.640  34.750  1.00  0.00     0.059 A 
ATOM     93  C   UNL A   1      44.755  24.005  35.501  1.00  0.00     0.059 A 
ATOM     94  F   UNL A   1      42.872  25.028  34.650  1.00  0.00    -0.206 F 
ATOM     95  C   UNL A   1      46.128  23.827  35.518  1.00  0.00     0.060 A 
BRANCH  95  96
ATOM     96  S   UNL A   1      46.853  22.554  36.561  1.00  0.00     0.124 S 
ATOM     97  O   UNL A   1      47.955  23.285  37.179  1.00  0.00    -0.237 OA
ATOM     98  O   UNL A   1      45.751  22.202  37.450  1.00  0.00    -0.237 OA
ATOM     99  O   UNL A   1      47.238  21.517  35.610  1.00  0.00    -0.744 OA
ENDBRANCH  95  96
ENDBRANCH  63  88
ENDBRANCH  37  38
ENDBRANCH  29  32
ENDBRANCH  27  28
ENDBRANCH  26  27
ENDBRANCH  25  26
ENDBRANCH   1  25
TORSDOF 20
ENDMDL
MODEL 3
REMARK VINA RESULT:     -11.3      2.705      4.242
REMARK SMILES Cc1cc(NC(=O)CCC(=O)NCCCCCCNC(=O)c2ccc(-c3c4nc(c(-c5c(F)cc(S(=O)(=O)[O-])cc5F)c5ccc([nH]5)c(-c5c(F)cc(S(=O)(=O)[O-])cc5F)c5nc(c(-c6c(F)cc(S(=O)(=O)[O-])cc6F)c6ccc3[nH]6)C=C5)C=C4)cc2)ccc1S(=O)(=O)[O-]
REMARK SMILES IDX 15 1 14 2 13 3 12 4 10 5 11 6 9 8 8 9 6 10 5 11 7 13 4 14
REMARK SMILES IDX 1 15 2 16 3 17 90 18 89 19 88 20 91 21 92 22 93 23 94 24
REMARK SMILES IDX 16 25 17 26 18 27 19 28 20 29 21 31 22 32 23 33 87 34 24 35
REMARK SMILES IDX 86 36 25 37 26 38 27 39 80 40 28 41 85 42 79 43 81 44 29 45
REMARK SMILES IDX 84 46 78 47 77 48 30 50 64 51 43 52 63 53 44 54 47 55 62 56
REMARK SMILES IDX 82 57 45 58 46 59 61 61 83 62 48 63 31 64 32 65 41 66 33 67
REMARK SMILES IDX 34 68 40 69 42 70 35 71 36 72 37 73 38 74 39 75 65 76 66 77
REMARK SMILES IDX 75 78 67 79 68 80 74 81 76 82 69 83 70 84 71 85 72 86 73 87
REMARK SMILES IDX 49 88 50 89 59 90 51 91 52 92 58 93 60 94 53 95 54 96 55 97
REMARK SMILES IDX 56 98 57 99
REMARK H PARENT 12 7 5 12 19 30 81 49 47 60
REMARK Flexibility Score: inf
ROOT
ATOM      1  C   UNL A   1      33.960  32.132  27.383  1.00  0.00     0.002 C 
ENDROOT
BRANCH   1   2
ATOM      2  C   UNL A   1      32.582  31.466  27.433  1.00  0.00     0.021 C 
BRANCH   2   3
ATOM      3  C   UNL A   1      32.169  30.689  26.185  1.00  0.00     0.116 C 
BRANCH   3   4
ATOM      4  N   UNL A   1      33.222  29.829  25.675  1.00  0.00    -0.356 N 
ATOM      5  C   UNL A   1      33.139  28.596  25.105  1.00  0.00     0.220 C 
ATOM      6  O   UNL A   1      34.146  28.104  24.595  1.00  0.00    -0.275 OA
ATOM      7  H   UNL A   1      34.133  30.193  25.753  1.00  0.00     0.163 HD
BRANCH   5   8
ATOM      8  C   UNL A   1      31.819  27.862  25.061  1.00  0.00     0.110 C 
BRANCH   8   9
ATOM      9  C   UNL A   1      31.239  27.531  23.691  1.00  0.00     0.110 C 
BRANCH   9  10
ATOM     10  C   UNL A   1      29.866  26.897  23.635  1.00  0.00     0.224 C 
ATOM     11  N   UNL A   1      29.614  25.591  23.940  1.00  0.00    -0.326 N 
ATOM     12  H   UNL A   1      28.691  25.305  23.753  1.00  0.00     0.169 HD
ATOM     13  O   UNL A   1      28.894  27.610  23.353  1.00  0.00    -0.275 OA
BRANCH  11  14
ATOM     14  C   UNL A   1      30.430  24.582  24.469  1.00  0.00     0.041 A 
ATOM     15  C   UNL A   1      32.832  21.955  23.227  1.00  0.00     0.046 C 
ATOM     16  C   UNL A   1      32.086  22.787  24.229  1.00  0.00    -0.032 A 
ATOM     17  C   UNL A   1      31.087  23.630  23.697  1.00  0.00     0.030 A 
ATOM     18  C   UNL A   1      32.379  22.901  25.596  1.00  0.00     0.057 A 
ATOM     19  C   UNL A   1      31.626  23.772  26.404  1.00  0.00     0.021 A 
ATOM     20  C   UNL A   1      30.643  24.590  25.847  1.00  0.00     0.027 A 
BRANCH  18  21
ATOM     21  S   UNL A   1      33.674  22.035  26.452  1.00  0.00     0.124 S 
ATOM     22  O   UNL A   1      33.412  20.614  26.336  1.00  0.00    -0.237 OA
ATOM     23  O   UNL A   1      34.931  22.603  26.017  1.00  0.00    -0.237 OA
ATOM     24  O   UNL A   1      33.604  22.394  28.017  1.00  0.00    -0.744 OA
ENDBRANCH  18  21
ENDBRANCH  11  14
ENDBRANCH   9  10
ENDBRANCH   8   9
ENDBRANCH   5   8
ENDBRANCH   3   4
ENDBRANCH   2   3
ENDBRANCH   1   2
BRANCH   1  25
ATOM     25  C   UNL A   1      34.323  33.040  28.565  1.00  0.00     0.002 C 
BRANCH  25  26
ATOM     26  C   UNL A   1      34.664  32.336  29.877  1.00  0.00     0.021 C 
BRANCH  26  27
ATOM     27  C   UNL A   1      35.932  31.504  29.838  1.00  0.00     0.116 C 
BRANCH  27  28
ATOM     28  N   UNL A   1      35.726  30.120  29.452  1.00  0.00    -0.352 N 
ATOM     29  C   UNL A   1      36.428  29.548  28.396  1.00  0.00     0.251 C 
ATOM     30  H   UNL A   1      35.074  29.574  29.948  1.00  0.00     0.163 HD
ATOM     31  O   UNL A   1      35.917  29.085  27.387  1.00  0.00    -0.269 OA
BRANCH  29  32
ATOM     32  C   UNL A   1      37.891  29.524  28.585  1.00  0.00     0.039 A 
ATOM     33  C   UNL A   1      38.727  29.405  27.471  1.00  0.00     0.014 A 
ATOM     34  C   UNL A   1      38.368  29.334  29.879  1.00  0.00     0.014 A 
ATOM     35  C   UNL A   1      40.009  28.897  27.643  1.00  0.00     0.010 A 
ATOM     36  C   UNL A   1      39.571  28.708  30.037  1.00  0.00     0.010 A 
ATOM     37  C   UNL A   1      40.367  28.463  28.914  1.00  0.00    -0.014 A 
BRANCH  37  38
ATOM     38  C   UNL A   1      41.591  27.770  29.242  1.00  0.00     0.031 A 
ATOM     39  C   UNL A   1      41.685  26.358  28.841  1.00  0.00     0.074 A 
ATOM     40  C   UNL A   1      42.637  28.537  29.610  1.00  0.00     0.049 A 
ATOM     41  N   UNL A   1      42.599  25.546  29.225  1.00  0.00    -0.248 NA
ATOM     42  C   UNL A   1      40.691  25.727  27.974  1.00  0.00     0.031 C 
ATOM     43  C   UNL A   1      44.056  28.222  29.576  1.00  0.00     0.029 A 
ATOM     44  N   UNL A   1      42.571  29.760  30.282  1.00  0.00    -0.354 N 
ATOM     45  C   UNL A   1      42.522  24.428  28.416  1.00  0.00     0.074 A 
ATOM     46  C   UNL A   1      41.246  24.534  27.761  1.00  0.00     0.031 C 
ATOM     47  C   UNL A   1      44.702  29.050  30.418  1.00  0.00     0.029 A 
ATOM     48  C   UNL A   1      43.688  29.811  31.135  1.00  0.00     0.049 A 
ATOM     49  H   UNL A   1      41.878  30.451  30.179  1.00  0.00     0.167 HD
ATOM     50  C   UNL A   1      43.643  23.660  28.285  1.00  0.00     0.037 A 
ATOM     51  C   UNL A   1      43.485  29.736  32.487  1.00  0.00     0.037 A 
ATOM     52  C   UNL A   1      44.660  24.136  29.231  1.00  0.00     0.049 A 
ATOM     53  C   UNL A   1      44.001  28.437  33.074  1.00  0.00     0.074 A 
ATOM     54  C   UNL A   1      45.751  24.975  29.077  1.00  0.00     0.029 A 
ATOM     55  N   UNL A   1      44.397  24.077  30.597  1.00  0.00    -0.354 N 
ATOM     56  N   UNL A   1      44.174  27.339  32.387  1.00  0.00    -0.248 NA
ATOM     57  C   UNL A   1      44.427  28.295  34.462  1.00  0.00     0.031 C 
ATOM     58  C   UNL A   1      46.063  25.519  30.353  1.00  0.00     0.029 A 
ATOM     59  C   UNL A   1      45.183  24.986  31.282  1.00  0.00     0.049 A 
ATOM     60  H   UNL A   1      43.742  23.474  31.017  1.00  0.00     0.167 HD
ATOM     61  C   UNL A   1      44.735  26.376  33.185  1.00  0.00     0.074 A 
ATOM     62  C   UNL A   1      44.874  27.026  34.476  1.00  0.00     0.031 C 
ATOM     63  C   UNL A   1      45.064  25.129  32.727  1.00  0.00     0.037 A 
BRANCH  50  64
ATOM     64  C   UNL A   1      43.951  22.715  27.129  1.00  0.00     0.058 A 
ATOM     65  C   UNL A   1      43.144  21.570  26.928  1.00  0.00     0.135 A 
ATOM     66  C   UNL A   1      45.041  22.807  26.239  1.00  0.00     0.135 A 
ATOM     67  F   UNL A   1      42.028  21.366  27.642  1.00  0.00    -0.206 F 
ATOM     68  C   UNL A   1      43.439  20.574  25.993  1.00  0.00     0.059 A 
ATOM     69  C   UNL A   1      45.369  21.814  25.308  1.00  0.00     0.059 A 
ATOM     70  F   UNL A   1      45.837  23.877  26.188  1.00  0.00    -0.206 F 
ATOM     71  C   UNL A   1      44.567  20.693  25.198  1.00  0.00     0.060 A 
BRANCH  71  72
ATOM     72  S   UNL A   1      44.943  19.395  24.007  1.00  0.00     0.124 S 
ATOM     73  O   UNL A   1      46.401  19.364  24.042  1.00  0.00    -0.237 OA
ATOM     74  O   UNL A   1      44.267  18.242  24.590  1.00  0.00    -0.237 OA
ATOM     75  O   UNL A   1      44.362  19.894  22.763  1.00  0.00    -0.744 OA
ENDBRANCH  71  72
ENDBRANCH  50  64
BRANCH  51  76
ATOM     76  C   UNL A   1      42.267  30.498  32.916  1.00  0.00     0.058 A 
ATOM     77  C   UNL A   1      41.182  29.739  33.403  1.00  0.00     0.135 A 
ATOM     78  C   UNL A   1      42.339  31.840  33.322  1.00  0.00     0.135 A 
ATOM     79  F   UNL A   1      41.044  28.455  33.029  1.00  0.00    -0.206 F 
ATOM     80  C   UNL A   1      40.333  30.217  34.398  1.00  0.00     0.059 A 
ATOM     81  C   UNL A   1      41.484  32.347  34.308  1.00  0.00     0.059 A 
ATOM     82  F   UNL A   1      43.334  32.627  32.887  1.00  0.00    -0.206 F 
ATOM     83  C   UNL A   1      40.545  31.498  34.899  1.00  0.00     0.060 A 
BRANCH  83  84
ATOM     84  S   UNL A   1      39.718  31.948  36.447  1.00  0.00     0.124 S 
ATOM     85  O   UNL A   1      39.294  33.317  36.179  1.00  0.00    -0.237 OA
ATOM     86  O   UNL A   1      38.648  30.950  36.520  1.00  0.00    -0.237 OA
ATOM     87  O   UNL A   1      40.768  31.799  37.447  1.00  0.00    -0.744 OA
ENDBRANCH  83  84
ENDBRANCH  51  76
BRANCH  63  88
ATOM     88  C   UNL A   1      45.401  23.936  33.592  1.00  0.00     0.058 A 
ATOM     89  C   UNL A   1      46.648  23.744  34.210  1.00  0.00     0.135 A 
ATOM     90  C   UNL A   1      44.392  23.009  33.959  1.00  0.00     0.135 A 
ATOM     91  F   UNL A   1      47.652  24.617  34.048  1.00  0.00    -0.206 F 
ATOM     92  C   UNL A   1      46.902  22.667  35.059  1.00  0.00     0.059 A 
ATOM     93  C   UNL A   1      44.604  21.973  34.861  1.00  0.00     0.059 A 
ATOM     94  F   UNL A   1      43.148  23.086  33.463  1.00  0.00    -0.206 F 
ATOM     95  C   UNL A   1      45.875  21.786  35.378  1.00  0.00     0.060 A 
BRANCH  95  96
ATOM     96  S   UNL A   1      46.196  20.411  36.492  1.00  0.00     0.124 S 
ATOM     97  O   UNL A   1      45.372  19.363  35.898  1.00  0.00    -0.237 OA
ATOM     98  O   UNL A   1      47.638  20.228  36.369  1.00  0.00    -0.237 OA
ATOM     99  O   UNL A   1      45.743  20.913  37.786  1.00  0.00    -0.744 OA
ENDBRANCH  95  96
ENDBRANCH  63  88
ENDBRANCH  37  38
ENDBRANCH  29  32
ENDBRANCH  27  28
ENDBRANCH  26  27
ENDBRANCH  25  26
ENDBRANCH   1  25
TORSDOF 20
ENDMDL
