MODEL 1
REMARK VINA RESULT:     -10.5      0.000      0.000
REMARK SMILES CC(C)C[C@@H](CNc1ccc(C(=O)N(C)C)nn1)C(=O)NCCCCCCNC(=O)c1ccc(-c2c3nc(c(-c4c(F)cc(S(=O)(=O)[O-])cc4F)c4ccc([nH]4)c(-c4c(F)cc(S(=O)(=O)[O-])cc4F)c4nc(c(-c5c(F)cc(S(=O)(=O)[O-])cc5F)c5ccc2[nH]5)C=C4)C=C3)cc1
REMARK SMILES IDX 24 1 23 2 22 3 21 4 19 5 20 6 5 8 4 9 2 10 1 11 3 12 6 13
REMARK SMILES IDX 7 14 8 16 9 17 18 18 10 19 17 20 11 21 12 22 13 23 14 24
REMARK SMILES IDX 15 25 16 26 25 27 26 28 27 29 28 30 29 31 30 33 31 34 32 35
REMARK SMILES IDX 96 36 33 37 95 38 34 39 35 40 36 41 89 42 37 43 94 44 88 45
REMARK SMILES IDX 90 46 38 47 93 48 87 49 86 50 39 52 73 53 52 54 72 55 53 56
REMARK SMILES IDX 56 57 71 58 91 59 54 60 55 61 70 63 92 64 57 65 40 66 41 67
REMARK SMILES IDX 50 68 42 69 43 70 49 71 51 72 44 73 45 74 46 75 47 76 48 77
REMARK SMILES IDX 74 78 75 79 84 80 76 81 77 82 83 83 85 84 78 85 79 86 80 87
REMARK SMILES IDX 81 88 82 89 58 90 59 91 68 92 60 93 61 94 67 95 69 96 62 97
REMARK SMILES IDX 63 98 64 99 65 100 66 101
REMARK H PARENT 21 7 7 15 28 32 90 51 56 62
REMARK Flexibility Score: inf
ROOT
ATOM      1  C   UNL A   1      35.938  21.682  25.693  1.00  0.00     0.002 C 
ENDROOT
BRANCH   1   2
ATOM      2  C   UNL A   1      35.632  20.384  24.943  1.00  0.00     0.021 C 
BRANCH   2   3
ATOM      3  C   UNL A   1      34.381  19.669  25.435  1.00  0.00     0.116 C 
BRANCH   3   4
ATOM      4  N   UNL A   1      33.417  19.436  24.380  1.00  0.00    -0.356 N 
ATOM      5  C   UNL A   1      32.641  20.309  23.689  1.00  0.00     0.224 C 
ATOM      6  O   UNL A   1      32.079  19.885  22.672  1.00  0.00    -0.275 OA
ATOM      7  H   UNL A   1      33.307  18.492  24.123  1.00  0.00     0.163 HD
BRANCH   5   8
ATOM      8  C   UNL A   1      32.437  21.763  24.112  1.00  0.00     0.098 C 
BRANCH   8   9
ATOM      9  C   UNL A   1      32.281  22.740  22.933  1.00  0.00     0.018 C 
BRANCH   9  10
ATOM     10  C   UNL A   1      33.271  23.916  22.898  1.00  0.00    -0.017 C 
ATOM     11  C   UNL A   1      34.720  23.448  22.768  1.00  0.00     0.007 C 
ATOM     12  C   UNL A   1      32.917  24.841  21.729  1.00  0.00     0.007 C 
ENDBRANCH   9  10
ENDBRANCH   8   9
BRANCH   8  13
ATOM     13  C   UNL A   1      31.519  21.898  25.337  1.00  0.00     0.128 C 
BRANCH  13  14
ATOM     14  N   UNL A   1      31.991  22.757  26.410  1.00  0.00    -0.368 N 
ATOM     15  H   UNL A   1      32.310  22.336  27.241  1.00  0.00     0.162 HD
BRANCH  14  16
ATOM     16  C   UNL A   1      32.013  24.134  26.318  1.00  0.00     0.148 A 
ATOM     17  C   UNL A   1      33.172  24.863  26.093  1.00  0.00     0.051 A 
ATOM     18  N   UNL A   1      30.858  24.799  26.509  1.00  0.00    -0.132 NA
ATOM     19  C   UNL A   1      33.158  26.257  26.167  1.00  0.00     0.040 A 
ATOM     20  N   UNL A   1      30.828  26.187  26.585  1.00  0.00    -0.143 NA
ATOM     21  C   UNL A   1      31.962  26.900  26.416  1.00  0.00     0.151 A 
BRANCH  21  22
ATOM     22  C   UNL A   1      31.866  28.371  26.657  1.00  0.00     0.273 C 
ATOM     23  O   UNL A   1      32.090  28.780  27.799  1.00  0.00    -0.267 OA
ATOM     24  N   UNL A   1      31.577  29.268  25.614  1.00  0.00    -0.343 N 
ATOM     25  C   UNL A   1      31.121  28.926  24.276  1.00  0.00     0.146 C 
ATOM     26  C   UNL A   1      31.588  30.684  25.947  1.00  0.00     0.146 C 
ENDBRANCH  21  22
ENDBRANCH  14  16
ENDBRANCH  13  14
ENDBRANCH   8  13
ENDBRANCH   5   8
ENDBRANCH   3   4
ENDBRANCH   2   3
ENDBRANCH   1   2
BRANCH   1  27
ATOM     27  C   UNL A   1      37.347  22.247  25.475  1.00  0.00     0.002 C 
BRANCH  27  28
ATOM     28  C   UNL A   1      37.493  23.757  25.687  1.00  0.00     0.021 C 
BRANCH  28  29
ATOM     29  C   UNL A   1      38.577  24.158  26.679  1.00  0.00     0.116 C 
BRANCH  29  30
ATOM     30  N   UNL A   1      39.913  24.008  26.125  1.00  0.00    -0.352 N 
ATOM     31  C   UNL A   1      41.051  24.720  26.410  1.00  0.00     0.251 C 
ATOM     32  H   UNL A   1      40.015  23.296  25.453  1.00  0.00     0.163 HD
ATOM     33  O   UNL A   1      42.055  24.583  25.724  1.00  0.00    -0.269 OA
BRANCH  31  34
ATOM     34  C   UNL A   1      41.045  25.666  27.546  1.00  0.00     0.039 A 
ATOM     35  C   UNL A   1      42.068  26.610  27.647  1.00  0.00     0.014 A 
ATOM     36  C   UNL A   1      40.021  25.625  28.497  1.00  0.00     0.014 A 
ATOM     37  C   UNL A   1      42.037  27.552  28.677  1.00  0.00     0.010 A 
ATOM     38  C   UNL A   1      39.953  26.609  29.477  1.00  0.00     0.010 A 
ATOM     39  C   UNL A   1      40.963  27.579  29.582  1.00  0.00    -0.014 A 
BRANCH  39  40
ATOM     40  C   UNL A   1      40.875  28.603  30.655  1.00  0.00     0.031 A 
ATOM     41  C   UNL A   1      41.763  28.490  31.866  1.00  0.00     0.074 A 
ATOM     42  C   UNL A   1      39.948  29.579  30.577  1.00  0.00     0.049 A 
ATOM     43  N   UNL A   1      41.761  29.205  32.961  1.00  0.00    -0.248 NA
ATOM     44  C   UNL A   1      42.769  27.412  31.859  1.00  0.00     0.031 C 
ATOM     45  C   UNL A   1      39.007  29.768  29.471  1.00  0.00     0.029 A 
ATOM     46  N   UNL A   1      39.630  30.586  31.454  1.00  0.00    -0.354 N 
ATOM     47  C   UNL A   1      42.737  28.650  33.778  1.00  0.00     0.074 A 
ATOM     48  C   UNL A   1      43.290  27.516  33.073  1.00  0.00     0.031 C 
ATOM     49  C   UNL A   1      38.229  30.832  29.730  1.00  0.00     0.029 A 
ATOM     50  C   UNL A   1      38.579  31.372  31.039  1.00  0.00     0.049 A 
ATOM     51  H   UNL A   1      40.110  30.734  32.301  1.00  0.00     0.167 HD
ATOM     52  C   UNL A   1      43.145  29.061  35.002  1.00  0.00     0.037 A 
ATOM     53  C   UNL A   1      37.956  32.397  31.653  1.00  0.00     0.037 A 
ATOM     54  C   UNL A   1      42.622  30.220  35.675  1.00  0.00     0.049 A 
ATOM     55  C   UNL A   1      38.432  32.828  33.018  1.00  0.00     0.074 A 
ATOM     56  C   UNL A   1      43.029  30.767  36.880  1.00  0.00     0.029 A 
ATOM     57  N   UNL A   1      41.581  31.009  35.208  1.00  0.00    -0.354 N 
ATOM     58  N   UNL A   1      39.410  32.339  33.744  1.00  0.00    -0.248 NA
ATOM     59  C   UNL A   1      37.725  33.953  33.648  1.00  0.00     0.031 C 
ATOM     60  C   UNL A   1      42.195  31.850  37.170  1.00  0.00     0.029 A 
ATOM     61  C   UNL A   1      41.312  32.018  36.115  1.00  0.00     0.049 A 
ATOM     62  H   UNL A   1      41.104  30.869  34.358  1.00  0.00     0.167 HD
ATOM     63  C   UNL A   1      39.462  33.123  34.892  1.00  0.00     0.074 A 
ATOM     64  C   UNL A   1      38.422  34.121  34.763  1.00  0.00     0.031 C 
ATOM     65  C   UNL A   1      40.295  33.027  35.956  1.00  0.00     0.037 A 
BRANCH  52  66
ATOM     66  C   UNL A   1      44.212  28.267  35.705  1.00  0.00     0.058 A 
ATOM     67  C   UNL A   1      45.577  28.535  35.521  1.00  0.00     0.135 A 
ATOM     68  C   UNL A   1      43.857  27.292  36.651  1.00  0.00     0.135 A 
ATOM     69  F   UNL A   1      45.974  29.444  34.616  1.00  0.00    -0.206 F 
ATOM     70  C   UNL A   1      46.552  27.863  36.250  1.00  0.00     0.059 A 
ATOM     71  C   UNL A   1      44.814  26.628  37.411  1.00  0.00     0.059 A 
ATOM     72  F   UNL A   1      42.565  26.993  36.862  1.00  0.00    -0.206 F 
ATOM     73  C   UNL A   1      46.160  26.918  37.201  1.00  0.00     0.060 A 
BRANCH  73  74
ATOM     74  S   UNL A   1      47.437  26.102  38.181  1.00  0.00     0.124 S 
ATOM     75  O   UNL A   1      46.950  26.322  39.540  1.00  0.00    -0.237 OA
ATOM     76  O   UNL A   1      47.365  24.725  37.699  1.00  0.00    -0.237 OA
ATOM     77  O   UNL A   1      48.655  26.825  37.828  1.00  0.00    -0.744 OA
ENDBRANCH  73  74
ENDBRANCH  52  66
BRANCH  53  78
ATOM     78  C   UNL A   1      36.810  33.092  31.002  1.00  0.00     0.058 A 
ATOM     79  C   UNL A   1      35.488  32.840  31.402  1.00  0.00     0.135 A 
ATOM     80  C   UNL A   1      37.008  33.986  29.939  1.00  0.00     0.135 A 
ATOM     81  F   UNL A   1      35.245  31.990  32.411  1.00  0.00    -0.206 F 
ATOM     82  C   UNL A   1      34.404  33.409  30.742  1.00  0.00     0.059 A 
ATOM     83  C   UNL A   1      35.941  34.594  29.284  1.00  0.00     0.059 A 
ATOM     84  F   UNL A   1      38.251  34.279  29.526  1.00  0.00    -0.206 F 
ATOM     85  C   UNL A   1      34.641  34.280  29.678  1.00  0.00     0.060 A 
BRANCH  85  86
ATOM     86  S   UNL A   1      33.227  35.002  28.816  1.00  0.00     0.124 S 
ATOM     87  O   UNL A   1      32.810  33.897  27.961  1.00  0.00    -0.237 OA
ATOM     88  O   UNL A   1      32.329  35.331  29.919  1.00  0.00    -0.237 OA
ATOM     89  O   UNL A   1      33.805  36.151  28.124  1.00  0.00    -0.744 OA
ENDBRANCH  85  86
ENDBRANCH  53  78
BRANCH  65  90
ATOM     90  C   UNL A   1      40.172  34.062  37.040  1.00  0.00     0.058 A 
ATOM     91  C   UNL A   1      39.396  33.848  38.188  1.00  0.00     0.135 A 
ATOM     92  C   UNL A   1      40.912  35.254  36.960  1.00  0.00     0.135 A 
ATOM     93  F   UNL A   1      38.665  32.728  38.311  1.00  0.00    -0.206 F 
ATOM     94  C   UNL A   1      39.344  34.787  39.213  1.00  0.00     0.059 A 
ATOM     95  C   UNL A   1      40.899  36.191  37.987  1.00  0.00     0.059 A 
ATOM     96  F   UNL A   1      41.679  35.503  35.887  1.00  0.00    -0.206 F 
ATOM     97  C   UNL A   1      40.106  35.953  39.107  1.00  0.00     0.060 A 
BRANCH  97  98
ATOM     98  S   UNL A   1      40.072  37.135  40.471  1.00  0.00     0.124 S 
ATOM     99  O   UNL A   1      40.693  38.306  39.860  1.00  0.00    -0.237 OA
ATOM    100  O   UNL A   1      38.644  37.248  40.750  1.00  0.00    -0.237 OA
ATOM    101  O   UNL A   1      40.858  36.477  41.511  1.00  0.00    -0.744 OA
ENDBRANCH  97  98
ENDBRANCH  65  90
ENDBRANCH  39  40
ENDBRANCH  31  34
ENDBRANCH  29  30
ENDBRANCH  28  29
ENDBRANCH  27  28
ENDBRANCH   1  27
TORSDOF 22
ENDMDL
MODEL 2
REMARK VINA RESULT:     -10.2      3.084      9.228
REMARK SMILES CC(C)C[C@@H](CNc1ccc(C(=O)N(C)C)nn1)C(=O)NCCCCCCNC(=O)c1ccc(-c2c3nc(c(-c4c(F)cc(S(=O)(=O)[O-])cc4F)c4ccc([nH]4)c(-c4c(F)cc(S(=O)(=O)[O-])cc4F)c4nc(c(-c5c(F)cc(S(=O)(=O)[O-])cc5F)c5ccc2[nH]5)C=C4)C=C3)cc1
REMARK SMILES IDX 24 1 23 2 22 3 21 4 19 5 20 6 5 8 4 9 2 10 1 11 3 12 6 13
REMARK SMILES IDX 7 14 8 16 9 17 18 18 10 19 17 20 11 21 12 22 13 23 14 24
REMARK SMILES IDX 15 25 16 26 25 27 26 28 27 29 28 30 29 31 30 33 31 34 32 35
REMARK SMILES IDX 96 36 33 37 95 38 34 39 35 40 36 41 89 42 37 43 94 44 88 45
REMARK SMILES IDX 90 46 38 47 93 48 87 49 86 50 39 52 73 53 52 54 72 55 53 56
REMARK SMILES IDX 56 57 71 58 91 59 54 60 55 61 70 63 92 64 57 65 40 66 41 67
REMARK SMILES IDX 50 68 42 69 43 70 49 71 51 72 44 73 45 74 46 75 47 76 48 77
REMARK SMILES IDX 74 78 75 79 84 80 76 81 77 82 83 83 85 84 78 85 79 86 80 87
REMARK SMILES IDX 81 88 82 89 58 90 59 91 68 92 60 93 61 94 67 95 69 96 62 97
REMARK SMILES IDX 63 98 64 99 65 100 66 101
REMARK H PARENT 21 7 7 15 28 32 90 51 56 62
REMARK Flexibility Score: inf
ROOT
ATOM      1  C   UNL A   1      31.053  27.689  24.986  1.00  0.00     0.002 C 
ENDROOT
BRANCH   1   2
ATOM      2  C   UNL A   1      30.281  26.398  25.263  1.00  0.00     0.021 C 
BRANCH   2   3
ATOM      3  C   UNL A   1      31.088  25.347  26.013  1.00  0.00     0.116 C 
BRANCH   3   4
ATOM      4  N   UNL A   1      30.463  24.041  25.995  1.00  0.00    -0.356 N 
ATOM      5  C   UNL A   1      30.929  22.849  25.543  1.00  0.00     0.224 C 
ATOM      6  O   UNL A   1      30.296  21.836  25.862  1.00  0.00    -0.275 OA
ATOM      7  H   UNL A   1      29.553  24.014  26.370  1.00  0.00     0.163 HD
BRANCH   5   8
ATOM      8  C   UNL A   1      32.177  22.715  24.672  1.00  0.00     0.098 C 
BRANCH   8   9
ATOM      9  C   UNL A   1      32.433  21.285  24.164  1.00  0.00     0.018 C 
BRANCH   9  10
ATOM     10  C   UNL A   1      33.595  20.531  24.831  1.00  0.00    -0.017 C 
ATOM     11  C   UNL A   1      33.731  20.875  26.313  1.00  0.00     0.007 C 
ATOM     12  C   UNL A   1      33.381  19.023  24.665  1.00  0.00     0.007 C 
ENDBRANCH   9  10
ENDBRANCH   8   9
BRANCH   8  13
ATOM     13  C   UNL A   1      32.363  23.906  23.718  1.00  0.00     0.128 C 
BRANCH  13  14
ATOM     14  N   UNL A   1      33.648  24.582  23.766  1.00  0.00    -0.368 N 
ATOM     15  H   UNL A   1      33.677  25.546  23.569  1.00  0.00     0.162 HD
BRANCH  14  16
ATOM     16  C   UNL A   1      34.828  23.936  24.073  1.00  0.00     0.148 A 
ATOM     17  C   UNL A   1      35.567  23.219  23.143  1.00  0.00     0.051 A 
ATOM     18  N   UNL A   1      35.250  23.963  25.351  1.00  0.00    -0.132 NA
ATOM     19  C   UNL A   1      36.665  22.456  23.545  1.00  0.00     0.040 A 
ATOM     20  N   UNL A   1      36.343  23.210  25.768  1.00  0.00    -0.143 NA
ATOM     21  C   UNL A   1      37.035  22.470  24.876  1.00  0.00     0.151 A 
BRANCH  21  22
ATOM     22  C   UNL A   1      38.101  21.582  25.431  1.00  0.00     0.273 C 
ATOM     23  O   UNL A   1      38.026  20.375  25.185  1.00  0.00    -0.267 OA
ATOM     24  N   UNL A   1      39.178  22.102  26.169  1.00  0.00    -0.343 N 
ATOM     25  C   UNL A   1      39.306  23.456  26.683  1.00  0.00     0.146 C 
ATOM     26  C   UNL A   1      40.198  21.155  26.591  1.00  0.00     0.146 C 
ENDBRANCH  21  22
ENDBRANCH  14  16
ENDBRANCH  13  14
ENDBRANCH   8  13
ENDBRANCH   5   8
ENDBRANCH   3   4
ENDBRANCH   2   3
ENDBRANCH   1   2
BRANCH   1  27
ATOM     27  C   UNL A   1      32.543  27.504  24.667  1.00  0.00     0.002 C 
BRANCH  27  28
ATOM     28  C   UNL A   1      33.405  28.764  24.789  1.00  0.00     0.021 C 
BRANCH  28  29
ATOM     29  C   UNL A   1      33.944  29.033  26.188  1.00  0.00     0.116 C 
BRANCH  29  30
ATOM     30  N   UNL A   1      33.709  30.403  26.615  1.00  0.00    -0.352 N 
ATOM     31  C   UNL A   1      34.373  31.138  27.565  1.00  0.00     0.251 C 
ATOM     32  H   UNL A   1      32.971  30.868  26.158  1.00  0.00     0.163 HD
ATOM     33  O   UNL A   1      33.934  32.221  27.928  1.00  0.00    -0.269 OA
BRANCH  31  34
ATOM     34  C   UNL A   1      35.616  30.599  28.155  1.00  0.00     0.039 A 
ATOM     35  C   UNL A   1      36.846  31.062  27.685  1.00  0.00     0.014 A 
ATOM     36  C   UNL A   1      35.561  29.650  29.180  1.00  0.00     0.014 A 
ATOM     37  C   UNL A   1      38.025  30.611  28.281  1.00  0.00     0.010 A 
ATOM     38  C   UNL A   1      36.732  29.258  29.820  1.00  0.00     0.010 A 
ATOM     39  C   UNL A   1      37.977  29.730  29.373  1.00  0.00    -0.014 A 
BRANCH  39  40
ATOM     40  C   UNL A   1      39.213  29.275  30.061  1.00  0.00     0.031 A 
ATOM     41  C   UNL A   1      39.674  29.981  31.309  1.00  0.00     0.074 A 
ATOM     42  C   UNL A   1      39.957  28.289  29.521  1.00  0.00     0.049 A 
ATOM     43  N   UNL A   1      40.779  29.819  31.989  1.00  0.00    -0.248 NA
ATOM     44  C   UNL A   1      38.788  31.028  31.850  1.00  0.00     0.031 C 
ATOM     45  C   UNL A   1      39.632  27.556  28.294  1.00  0.00     0.029 A 
ATOM     46  N   UNL A   1      41.151  27.743  29.922  1.00  0.00    -0.354 N 
ATOM     47  C   UNL A   1      40.735  30.756  33.013  1.00  0.00     0.074 A 
ATOM     48  C   UNL A   1      39.513  31.510  32.849  1.00  0.00     0.031 C 
ATOM     49  C   UNL A   1      40.594  26.651  28.052  1.00  0.00     0.029 A 
ATOM     50  C   UNL A   1      41.628  26.769  29.075  1.00  0.00     0.049 A 
ATOM     51  H   UNL A   1      41.622  28.022  30.740  1.00  0.00     0.167 HD
ATOM     52  C   UNL A   1      41.629  30.957  34.010  1.00  0.00     0.037 A 
ATOM     53  C   UNL A   1      42.778  26.068  29.107  1.00  0.00     0.037 A 
ATOM     54  C   UNL A   1      42.819  30.169  34.192  1.00  0.00     0.049 A 
ATOM     55  C   UNL A   1      43.755  26.318  30.229  1.00  0.00     0.074 A 
ATOM     56  C   UNL A   1      43.744  30.240  35.219  1.00  0.00     0.029 A 
ATOM     57  N   UNL A   1      43.251  29.171  33.332  1.00  0.00    -0.354 N 
ATOM     58  N   UNL A   1      43.660  27.156  31.234  1.00  0.00    -0.248 NA
ATOM     59  C   UNL A   1      44.994  25.527  30.226  1.00  0.00     0.031 C 
ATOM     60  C   UNL A   1      44.766  29.328  34.948  1.00  0.00     0.029 A 
ATOM     61  C   UNL A   1      44.444  28.641  33.789  1.00  0.00     0.049 A 
ATOM     62  H   UNL A   1      42.779  28.884  32.516  1.00  0.00     0.167 HD
ATOM     63  C   UNL A   1      44.803  26.960  32.003  1.00  0.00     0.074 A 
ATOM     64  C   UNL A   1      45.572  25.922  31.351  1.00  0.00     0.031 C 
ATOM     65  C   UNL A   1      45.181  27.582  33.146  1.00  0.00     0.037 A 
BRANCH  52  66
ATOM     66  C   UNL A   1      41.367  32.066  34.992  1.00  0.00     0.058 A 
ATOM     67  C   UNL A   1      40.563  31.876  36.126  1.00  0.00     0.135 A 
ATOM     68  C   UNL A   1      42.014  33.304  34.847  1.00  0.00     0.135 A 
ATOM     69  F   UNL A   1      39.907  30.719  36.306  1.00  0.00    -0.206 F 
ATOM     70  C   UNL A   1      40.408  32.877  37.080  1.00  0.00     0.059 A 
ATOM     71  C   UNL A   1      41.895  34.308  35.802  1.00  0.00     0.059 A 
ATOM     72  F   UNL A   1      42.791  33.539  33.777  1.00  0.00    -0.206 F 
ATOM     73  C   UNL A   1      41.087  34.085  36.915  1.00  0.00     0.060 A 
BRANCH  73  74
ATOM     74  S   UNL A   1      40.923  35.347  38.195  1.00  0.00     0.124 S 
ATOM     75  O   UNL A   1      41.594  34.709  39.324  1.00  0.00    -0.237 OA
ATOM     76  O   UNL A   1      41.624  36.483  37.602  1.00  0.00    -0.237 OA
ATOM     77  O   UNL A   1      39.480  35.508  38.335  1.00  0.00    -0.744 OA
ENDBRANCH  73  74
ENDBRANCH  52  66
BRANCH  53  78
ATOM     78  C   UNL A   1      43.088  25.063  28.051  1.00  0.00     0.058 A 
ATOM     79  C   UNL A   1      42.860  23.694  28.265  1.00  0.00     0.135 A 
ATOM     80  C   UNL A   1      43.658  25.443  26.827  1.00  0.00     0.135 A 
ATOM     81  F   UNL A   1      42.320  23.278  29.421  1.00  0.00    -0.206 F 
ATOM     82  C   UNL A   1      43.231  22.736  27.327  1.00  0.00     0.059 A 
ATOM     83  C   UNL A   1      44.006  24.506  25.858  1.00  0.00     0.059 A 
ATOM     84  F   UNL A   1      43.881  26.740  26.560  1.00  0.00    -0.206 F 
ATOM     85  C   UNL A   1      43.810  23.152  26.128  1.00  0.00     0.060 A 
BRANCH  85  86
ATOM     86  S   UNL A   1      44.303  21.902  24.922  1.00  0.00     0.124 S 
ATOM     87  O   UNL A   1      45.704  21.695  25.271  1.00  0.00    -0.237 OA
ATOM     88  O   UNL A   1      43.397  20.800  25.233  1.00  0.00    -0.237 OA
ATOM     89  O   UNL A   1      44.063  22.557  23.640  1.00  0.00    -0.744 OA
ENDBRANCH  85  86
ENDBRANCH  53  78
BRANCH  65  90
ATOM     90  C   UNL A   1      46.448  27.119  33.811  1.00  0.00     0.058 A 
ATOM     91  C   UNL A   1      47.687  27.723  33.554  1.00  0.00     0.135 A 
ATOM     92  C   UNL A   1      46.401  26.105  34.784  1.00  0.00     0.135 A 
ATOM     93  F   UNL A   1      47.788  28.691  32.630  1.00  0.00    -0.206 F 
ATOM     94  C   UNL A   1      48.840  27.327  34.225  1.00  0.00     0.059 A 
ATOM     95  C   UNL A   1      47.534  25.717  35.490  1.00  0.00     0.059 A 
ATOM     96  F   UNL A   1      45.237  25.502  35.076  1.00  0.00    -0.206 F 
ATOM     97  C   UNL A   1      48.751  26.328  35.198  1.00  0.00     0.060 A 
BRANCH  97  98
ATOM     98  S   UNL A   1      50.244  25.866  36.101  1.00  0.00     0.124 S 
ATOM     99  O   UNL A   1      51.273  26.582  35.353  1.00  0.00    -0.237 OA
ATOM    100  O   UNL A   1      49.967  26.372  37.441  1.00  0.00    -0.237 OA
ATOM    101  O   UNL A   1      50.278  24.411  35.981  1.00  0.00    -0.744 OA
ENDBRANCH  97  98
ENDBRANCH  65  90
ENDBRANCH  39  40
ENDBRANCH  31  34
ENDBRANCH  29  30
ENDBRANCH  28  29
ENDBRANCH  27  28
ENDBRANCH   1  27
TORSDOF 22
ENDMDL
MODEL 3
REMARK VINA RESULT:     -10.0      4.223     12.269
REMARK SMILES CC(C)C[C@@H](CNc1ccc(C(=O)N(C)C)nn1)C(=O)NCCCCCCNC(=O)c1ccc(-c2c3nc(c(-c4c(F)cc(S(=O)(=O)[O-])cc4F)c4ccc([nH]4)c(-c4c(F)cc(S(=O)(=O)[O-])cc4F)c4nc(c(-c5c(F)cc(S(=O)(=O)[O-])cc5F)c5ccc2[nH]5)C=C4)C=C3)cc1
REMARK SMILES IDX 24 1 23 2 22 3 21 4 19 5 20 6 5 8 4 9 2 10 1 11 3 12 6 13
REMARK SMILES IDX 7 14 8 16 9 17 18 18 10 19 17 20 11 21 12 22 13 23 14 24
REMARK SMILES IDX 15 25 16 26 25 27 26 28 27 29 28 30 29 31 30 33 31 34 32 35
REMARK SMILES IDX 96 36 33 37 95 38 34 39 35 40 36 41 89 42 37 43 94 44 88 45
REMARK SMILES IDX 90 46 38 47 93 48 87 49 86 50 39 52 73 53 52 54 72 55 53 56
REMARK SMILES IDX 56 57 71 58 91 59 54 60 55 61 70 63 92 64 57 65 40 66 41 67
REMARK SMILES IDX 50 68 42 69 43 70 49 71 51 72 44 73 45 74 46 75 47 76 48 77
REMARK SMILES IDX 74 78 75 79 84 80 76 81 77 82 83 83 85 84 78 85 79 86 80 87
REMARK SMILES IDX 81 88 82 89 58 90 59 91 68 92 60 93 61 94 67 95 69 96 62 97
REMARK SMILES IDX 63 98 64 99 65 100 66 101
REMARK H PARENT 21 7 7 15 28 32 90 51 56 62
REMARK Flexibility Score: inf
ROOT
ATOM      1  C   UNL A   1      42.887  23.164  29.294  1.00  0.00     0.002 C 
ENDROOT
BRANCH   1   2
ATOM      2  C   UNL A   1      44.208  22.983  30.045  1.00  0.00     0.021 C 
BRANCH   2   3
ATOM      3  C   UNL A   1      44.343  23.872  31.274  1.00  0.00     0.116 C 
BRANCH   3   4
ATOM      4  N   UNL A   1      43.516  23.432  32.377  1.00  0.00    -0.356 N 
ATOM      5  C   UNL A   1      43.811  23.288  33.694  1.00  0.00     0.224 C 
ATOM      6  O   UNL A   1      42.863  23.129  34.472  1.00  0.00    -0.275 OA
ATOM      7  H   UNL A   1      42.591  23.201  32.133  1.00  0.00     0.163 HD
BRANCH   5   8
ATOM      8  C   UNL A   1      45.238  23.309  34.239  1.00  0.00     0.098 C 
BRANCH   8   9
ATOM      9  C   UNL A   1      45.787  24.724  34.494  1.00  0.00     0.018 C 
BRANCH   9  10
ATOM     10  C   UNL A   1      46.901  25.195  33.544  1.00  0.00    -0.017 C 
ATOM     11  C   UNL A   1      46.678  26.627  33.059  1.00  0.00     0.007 C 
ATOM     12  C   UNL A   1      48.252  25.092  34.258  1.00  0.00     0.007 C 
ENDBRANCH   9  10
ENDBRANCH   8   9
BRANCH   8  13
ATOM     13  C   UNL A   1      45.494  22.197  35.269  1.00  0.00     0.128 C 
BRANCH  13  14
ATOM     14  N   UNL A   1      45.978  20.930  34.750  1.00  0.00    -0.368 N 
ATOM     15  H   UNL A   1      45.317  20.260  34.460  1.00  0.00     0.162 HD
BRANCH  14  16
ATOM     16  C   UNL A   1      47.319  20.622  34.645  1.00  0.00     0.148 A 
ATOM     17  C   UNL A   1      48.216  20.764  35.694  1.00  0.00     0.051 A 
ATOM     18  N   UNL A   1      47.783  20.211  33.449  1.00  0.00    -0.132 NA
ATOM     19  C   UNL A   1      49.585  20.588  35.485  1.00  0.00     0.040 A 
ATOM     20  N   UNL A   1      49.143  20.031  33.225  1.00  0.00    -0.143 NA
ATOM     21  C   UNL A   1      50.026  20.218  34.229  1.00  0.00     0.151 A 
BRANCH  21  22
ATOM     22  C   UNL A   1      51.473  20.144  33.866  1.00  0.00     0.273 C 
ATOM     23  O   UNL A   1      52.099  19.138  34.212  1.00  0.00    -0.267 OA
ATOM     24  N   UNL A   1      52.094  21.157  33.116  1.00  0.00    -0.343 N 
ATOM     25  C   UNL A   1      51.541  22.463  32.794  1.00  0.00     0.146 C 
ATOM     26  C   UNL A   1      53.485  20.941  32.751  1.00  0.00     0.146 C 
ENDBRANCH  21  22
ENDBRANCH  14  16
ENDBRANCH  13  14
ENDBRANCH   8  13
ENDBRANCH   5   8
ENDBRANCH   3   4
ENDBRANCH   2   3
ENDBRANCH   1   2
BRANCH   1  27
ATOM     27  C   UNL A   1      42.758  22.361  27.993  1.00  0.00     0.002 C 
BRANCH  27  28
ATOM     28  C   UNL A   1      41.336  21.939  27.616  1.00  0.00     0.021 C 
BRANCH  28  29
ATOM     29  C   UNL A   1      40.382  23.093  27.338  1.00  0.00     0.116 C 
BRANCH  29  30
ATOM     30  N   UNL A   1      40.821  23.914  26.221  1.00  0.00    -0.352 N 
ATOM     31  C   UNL A   1      40.998  25.273  26.165  1.00  0.00     0.251 C 
ATOM     32  H   UNL A   1      41.020  23.425  25.390  1.00  0.00     0.163 HD
ATOM     33  O   UNL A   1      41.204  25.828  25.093  1.00  0.00    -0.269 OA
BRANCH  31  34
ATOM     34  C   UNL A   1      40.922  26.062  27.412  1.00  0.00     0.039 A 
ATOM     35  C   UNL A   1      41.946  26.966  27.706  1.00  0.00     0.014 A 
ATOM     36  C   UNL A   1      39.834  25.918  28.278  1.00  0.00     0.014 A 
ATOM     37  C   UNL A   1      41.851  27.766  28.847  1.00  0.00     0.010 A 
ATOM     38  C   UNL A   1      39.708  26.766  29.372  1.00  0.00     0.010 A 
ATOM     39  C   UNL A   1      40.717  27.695  29.672  1.00  0.00    -0.014 A 
BRANCH  39  40
ATOM     40  C   UNL A   1      40.565  28.571  30.862  1.00  0.00     0.031 A 
ATOM     41  C   UNL A   1      39.514  29.650  30.864  1.00  0.00     0.074 A 
ATOM     42  C   UNL A   1      41.420  28.450  31.898  1.00  0.00     0.049 A 
ATOM     43  N   UNL A   1      39.298  30.590  31.746  1.00  0.00    -0.248 NA
ATOM     44  C   UNL A   1      38.603  29.696  29.706  1.00  0.00     0.031 C 
ATOM     45  C   UNL A   1      42.503  27.468  31.993  1.00  0.00     0.029 A 
ATOM     46  N   UNL A   1      41.527  29.169  33.062  1.00  0.00    -0.354 N 
ATOM     47  C   UNL A   1      38.251  31.351  31.240  1.00  0.00     0.074 A 
ATOM     48  C   UNL A   1      37.897  30.789  29.957  1.00  0.00     0.031 C 
ATOM     49  C   UNL A   1      43.153  27.638  33.156  1.00  0.00     0.029 A 
ATOM     50  C   UNL A   1      42.569  28.770  33.868  1.00  0.00     0.049 A 
ATOM     51  H   UNL A   1      40.914  29.903  33.299  1.00  0.00     0.167 HD
ATOM     52  C   UNL A   1      37.633  32.414  31.806  1.00  0.00     0.037 A 
ATOM     53  C   UNL A   1      43.015  29.273  35.036  1.00  0.00     0.037 A 
ATOM     54  C   UNL A   1      37.962  32.936  33.106  1.00  0.00     0.049 A 
ATOM     55  C   UNL A   1      42.306  30.461  35.637  1.00  0.00     0.074 A 
ATOM     56  C   UNL A   1      37.338  33.958  33.801  1.00  0.00     0.029 A 
ATOM     57  N   UNL A   1      39.002  32.485  33.904  1.00  0.00    -0.354 N 
ATOM     58  N   UNL A   1      41.268  31.120  35.181  1.00  0.00    -0.248 NA
ATOM     59  C   UNL A   1      42.826  30.972  36.914  1.00  0.00     0.031 C 
ATOM     60  C   UNL A   1      38.037  34.163  34.993  1.00  0.00     0.029 A 
ATOM     61  C   UNL A   1      39.055  33.227  35.071  1.00  0.00     0.049 A 
ATOM     62  H   UNL A   1      39.612  31.746  33.674  1.00  0.00     0.167 HD
ATOM     63  C   UNL A   1      40.985  32.093  36.135  1.00  0.00     0.074 A 
ATOM     64  C   UNL A   1      41.957  31.933  37.195  1.00  0.00     0.031 C 
ATOM     65  C   UNL A   1      40.009  33.032  36.134  1.00  0.00     0.037 A 
BRANCH  52  66
ATOM     66  C   UNL A   1      36.532  33.094  31.038  1.00  0.00     0.058 A 
ATOM     67  C   UNL A   1      35.184  32.965  31.406  1.00  0.00     0.135 A 
ATOM     68  C   UNL A   1      36.844  33.965  29.981  1.00  0.00     0.135 A 
ATOM     69  F   UNL A   1      34.828  32.132  32.396  1.00  0.00    -0.206 F 
ATOM     70  C   UNL A   1      34.184  33.676  30.751  1.00  0.00     0.059 A 
ATOM     71  C   UNL A   1      35.862  34.706  29.332  1.00  0.00     0.059 A 
ATOM     72  F   UNL A   1      38.117  34.120  29.586  1.00  0.00    -0.206 F 
ATOM     73  C   UNL A   1      34.534  34.553  29.722  1.00  0.00     0.060 A 
BRANCH  73  74
ATOM     74  S   UNL A   1      33.228  35.513  28.927  1.00  0.00     0.124 S 
ATOM     75  O   UNL A   1      32.562  34.492  28.124  1.00  0.00    -0.237 OA
ATOM     76  O   UNL A   1      32.470  36.012  30.071  1.00  0.00    -0.237 OA
ATOM     77  O   UNL A   1      33.959  36.525  28.172  1.00  0.00    -0.744 OA
ENDBRANCH  73  74
ENDBRANCH  52  66
BRANCH  53  78
ATOM     78  C   UNL A   1      44.193  28.672  35.723  1.00  0.00     0.058 A 
ATOM     79  C   UNL A   1      44.034  27.643  36.665  1.00  0.00     0.135 A 
ATOM     80  C   UNL A   1      45.493  29.143  35.489  1.00  0.00     0.135 A 
ATOM     81  F   UNL A   1      42.810  27.159  36.928  1.00  0.00    -0.206 F 
ATOM     82  C   UNL A   1      45.112  27.137  37.383  1.00  0.00     0.059 A 
ATOM     83  C   UNL A   1      46.593  28.629  36.171  1.00  0.00     0.059 A 
ATOM     84  F   UNL A   1      45.707  30.113  34.586  1.00  0.00    -0.206 F 
ATOM     85  C   UNL A   1      46.389  27.642  37.134  1.00  0.00     0.060 A 
BRANCH  85  86
ATOM     86  S   UNL A   1      47.780  26.992  38.083  1.00  0.00     0.124 S 
ATOM     87  O   UNL A   1      47.346  27.246  39.451  1.00  0.00    -0.237 OA
ATOM     88  O   UNL A   1      47.807  25.592  37.670  1.00  0.00    -0.237 OA
ATOM     89  O   UNL A   1      48.908  27.795  37.620  1.00  0.00    -0.744 OA
ENDBRANCH  85  86
ENDBRANCH  53  78
BRANCH  65  90
ATOM     90  C   UNL A   1      39.889  33.922  37.341  1.00  0.00     0.058 A 
ATOM     91  C   UNL A   1      40.462  35.202  37.381  1.00  0.00     0.135 A 
ATOM     92  C   UNL A   1      39.119  33.513  38.442  1.00  0.00     0.135 A 
ATOM     93  F   UNL A   1      41.213  35.639  36.357  1.00  0.00    -0.206 F 
ATOM     94  C   UNL A   1      40.288  36.039  38.478  1.00  0.00     0.059 A 
ATOM     95  C   UNL A   1      38.905  34.346  39.534  1.00  0.00     0.059 A 
ATOM     96  F   UNL A   1      38.539  32.302  38.450  1.00  0.00    -0.206 F 
ATOM     97  C   UNL A   1      39.501  35.606  39.547  1.00  0.00     0.060 A 
BRANCH  97  98
ATOM     98  S   UNL A   1      39.238  36.726  40.937  1.00  0.00     0.124 S 
ATOM     99  O   UNL A   1      40.467  36.541  41.701  1.00  0.00    -0.237 OA
ATOM    100  O   UNL A   1      39.092  38.018  40.273  1.00  0.00    -0.237 OA
ATOM    101  O   UNL A   1      38.025  36.210  41.566  1.00  0.00    -0.744 OA
ENDBRANCH  97  98
ENDBRANCH  65  90
ENDBRANCH  39  40
ENDBRANCH  31  34
ENDBRANCH  29  30
ENDBRANCH  28  29
ENDBRANCH  27  28
ENDBRANCH   1  27
TORSDOF 22
ENDMDL
