MODEL 1
REMARK VINA RESULT:     -10.9      0.000      0.000
REMARK SMILES CC(C)C[C@H](NC(=O)[C@@H](NC(=O)[C@H](C)NC(=O)CNC(=O)OCc1ccccc1)C(C)C)C(=O)NCCCCCCNC(=O)c1ccc(-c2c3nc(c(-c4c(F)cc(S(=O)(=O)[O-])cc4F)c4ccc([nH]4)c(-c4c(F)cc(S(=O)(=O)[O-])cc4F)c4nc(c(-c5c(F)cc(S(=O)(=O)[O-])cc5F)c5ccc2[nH]5)C=C4)C=C3)cc1
REMARK SMILES IDX 33 1 34 2 35 3 5 5 4 6 2 7 1 8 3 9 6 10 7 11 8 13 9 14 10 15
REMARK SMILES IDX 11 16 12 18 13 19 14 20 15 21 16 22 17 24 18 25 19 26 20 27
REMARK SMILES IDX 21 29 22 30 23 31 24 32 25 33 29 34 26 35 28 36 27 37 30 38
REMARK SMILES IDX 31 39 32 40 36 41 37 42 38 43 39 44 40 45 41 46 42 47 43 48
REMARK SMILES IDX 44 50 45 51 46 52 110 53 47 54 109 55 48 56 49 57 50 58
REMARK SMILES IDX 103 59 51 60 108 61 102 62 104 63 52 64 107 65 101 66 100 67
REMARK SMILES IDX 53 69 87 70 66 71 86 72 67 73 70 74 85 75 105 76 68 77 69 78
REMARK SMILES IDX 84 80 106 81 71 82 54 83 55 84 64 85 56 86 57 87 63 88 65 89
REMARK SMILES IDX 58 90 59 91 60 92 61 93 62 94 88 95 89 96 98 97 90 98 91 99
REMARK SMILES IDX 97 100 99 101 92 102 93 103 94 104 95 105 96 106 72 107
REMARK SMILES IDX 73 108 82 109 74 110 75 111 81 112 83 113 76 114 77 115
REMARK SMILES IDX 78 116 79 117 80 118
REMARK H PARENT 35 4 6 12 10 17 15 23 19 28 42 49 104 68 70 79
REMARK Flexibility Score: inf
ROOT
ATOM      1  C   UNL A   1      36.473  23.181  24.140  1.00  0.00     0.242 C 
ATOM      2  O   UNL A   1      36.578  22.670  23.022  1.00  0.00    -0.273 OA
ATOM      3  N   UNL A   1      37.595  23.262  24.921  1.00  0.00    -0.354 N 
ATOM      4  H   UNL A   1      38.399  22.835  24.546  1.00  0.00     0.163 HD
ENDROOT
BRANCH   1   5
ATOM      5  C   UNL A   1      35.151  23.874  24.570  1.00  0.00     0.171 C 
BRANCH   5   6
ATOM      6  C   UNL A   1      34.416  23.035  25.612  1.00  0.00     0.038 C 
BRANCH   6   7
ATOM      7  C   UNL A   1      33.655  21.774  25.155  1.00  0.00    -0.015 C 
ATOM      8  C   UNL A   1      34.337  20.517  25.702  1.00  0.00     0.007 C 
ATOM      9  C   UNL A   1      32.196  21.785  25.605  1.00  0.00     0.007 C 
ENDBRANCH   6   7
ENDBRANCH   5   6
BRANCH   5  10
ATOM     10  N   UNL A   1      34.477  24.448  23.407  1.00  0.00    -0.343 N 
ATOM     11  C   UNL A   1      33.782  25.465  22.898  1.00  0.00     0.243 C 
ATOM     12  H   UNL A   1      34.586  23.796  22.677  1.00  0.00     0.164 HD
ATOM     13  O   UNL A   1      33.546  25.268  21.692  1.00  0.00    -0.273 OA
BRANCH  11  14
ATOM     14  C   UNL A   1      33.235  26.763  23.540  1.00  0.00     0.174 C 
BRANCH  14  15
ATOM     15  N   UNL A   1      33.790  27.355  24.768  1.00  0.00    -0.342 N 
ATOM     16  C   UNL A   1      33.328  27.590  26.030  1.00  0.00     0.242 C 
ATOM     17  H   UNL A   1      34.721  27.653  24.650  1.00  0.00     0.164 HD
ATOM     18  O   UNL A   1      34.190  27.693  26.909  1.00  0.00    -0.273 OA
BRANCH  16  19
ATOM     19  C   UNL A   1      31.826  27.732  26.368  1.00  0.00     0.168 C 
ATOM     20  C   UNL A   1      31.658  28.780  27.476  1.00  0.00     0.041 C 
BRANCH  19  21
ATOM     21  N   UNL A   1      31.236  26.478  26.819  1.00  0.00    -0.343 N 
ATOM     22  C   UNL A   1      30.526  25.573  26.071  1.00  0.00     0.240 C 
ATOM     23  H   UNL A   1      31.362  26.254  27.770  1.00  0.00     0.164 HD
ATOM     24  O   UNL A   1      30.118  24.540  26.601  1.00  0.00    -0.273 OA
BRANCH  22  25
ATOM     25  C   UNL A   1      30.242  25.883  24.593  1.00  0.00     0.219 C 
BRANCH  25  26
ATOM     26  N   UNL A   1      28.803  25.843  24.444  1.00  0.00    -0.312 N 
ATOM     27  C   UNL A   1      27.966  26.850  24.092  1.00  0.00     0.407 C 
ATOM     28  H   UNL A   1      28.377  24.973  24.621  1.00  0.00     0.167 HD
ATOM     29  O   UNL A   1      26.761  26.742  24.265  1.00  0.00    -0.225 OA
BRANCH  27  30
ATOM     30  O   UNL A   1      28.585  27.906  23.508  1.00  0.00    -0.445 OA
BRANCH  30  31
ATOM     31  C   UNL A   1      27.804  28.553  22.483  1.00  0.00     0.270 C 
BRANCH  31  32
ATOM     32  C   UNL A   1      28.061  30.042  22.402  1.00  0.00    -0.011 A 
ATOM     33  C   UNL A   1      28.369  30.804  23.539  1.00  0.00     0.007 A 
ATOM     34  C   UNL A   1      28.076  30.676  21.151  1.00  0.00     0.007 A 
ATOM     35  C   UNL A   1      28.664  32.162  23.437  1.00  0.00     0.000 A 
ATOM     36  C   UNL A   1      28.375  32.037  21.048  1.00  0.00     0.000 A 
ATOM     37  C   UNL A   1      28.668  32.778  22.191  1.00  0.00     0.000 A 
ENDBRANCH  31  32
ENDBRANCH  30  31
ENDBRANCH  27  30
ENDBRANCH  25  26
ENDBRANCH  22  25
ENDBRANCH  19  21
ENDBRANCH  16  19
ENDBRANCH  14  15
BRANCH  14  38
ATOM     38  C   UNL A   1      32.858  27.851  22.497  1.00  0.00     0.015 C 
ATOM     39  C   UNL A   1      31.452  27.818  21.895  1.00  0.00     0.010 C 
ATOM     40  C   UNL A   1      33.105  29.266  23.045  1.00  0.00     0.010 C 
ENDBRANCH  14  38
ENDBRANCH  11  14
ENDBRANCH   5  10
ENDBRANCH   1   5
BRANCH   3  41
ATOM     41  C   UNL A   1      37.773  23.884  26.225  1.00  0.00     0.116 C 
BRANCH  41  42
ATOM     42  C   UNL A   1      39.057  23.464  26.917  1.00  0.00     0.021 C 
BRANCH  42  43
ATOM     43  C   UNL A   1      39.546  22.054  26.593  1.00  0.00     0.002 C 
BRANCH  43  44
ATOM     44  C   UNL A   1      41.037  21.788  26.817  1.00  0.00     0.002 C 
BRANCH  44  45
ATOM     45  C   UNL A   1      41.636  22.363  28.102  1.00  0.00     0.021 C 
BRANCH  45  46
ATOM     46  C   UNL A   1      42.744  23.388  27.902  1.00  0.00     0.116 C 
BRANCH  46  47
ATOM     47  N   UNL A   1      42.752  23.961  26.568  1.00  0.00    -0.352 N 
ATOM     48  C   UNL A   1      42.422  25.237  26.189  1.00  0.00     0.251 C 
ATOM     49  H   UNL A   1      43.032  23.356  25.843  1.00  0.00     0.163 HD
ATOM     50  O   UNL A   1      42.364  25.540  25.002  1.00  0.00    -0.269 OA
BRANCH  48  51
ATOM     51  C   UNL A   1      42.102  26.227  27.236  1.00  0.00     0.039 A 
ATOM     52  C   UNL A   1      40.952  26.044  28.006  1.00  0.00     0.014 A 
ATOM     53  C   UNL A   1      42.966  27.297  27.484  1.00  0.00     0.014 A 
ATOM     54  C   UNL A   1      40.695  26.912  29.066  1.00  0.00     0.010 A 
ATOM     55  C   UNL A   1      42.748  28.111  28.588  1.00  0.00     0.010 A 
ATOM     56  C   UNL A   1      41.607  27.933  29.384  1.00  0.00    -0.014 A 
BRANCH  56  57
ATOM     57  C   UNL A   1      41.376  28.840  30.536  1.00  0.00     0.031 A 
ATOM     58  C   UNL A   1      42.213  28.688  31.778  1.00  0.00     0.074 A 
ATOM     59  C   UNL A   1      40.377  29.743  30.486  1.00  0.00     0.049 A 
ATOM     60  N   UNL A   1      42.112  29.316  32.920  1.00  0.00    -0.248 NA
ATOM     61  C   UNL A   1      43.286  27.679  31.744  1.00  0.00     0.031 C 
ATOM     62  C   UNL A   1      39.476  29.950  29.349  1.00  0.00     0.029 A 
ATOM     63  N   UNL A   1      39.940  30.649  31.420  1.00  0.00    -0.354 N 
ATOM     64  C   UNL A   1      43.084  28.763  33.744  1.00  0.00     0.074 A 
ATOM     65  C   UNL A   1      43.740  27.720  32.988  1.00  0.00     0.031 C 
ATOM     66  C   UNL A   1      38.609  30.932  29.644  1.00  0.00     0.029 A 
ATOM     67  C   UNL A   1      38.859  31.394  31.006  1.00  0.00     0.049 A 
ATOM     68  H   UNL A   1      40.360  30.756  32.303  1.00  0.00     0.167 HD
ATOM     69  C   UNL A   1      43.410  29.107  35.011  1.00  0.00     0.037 A 
ATOM     70  C   UNL A   1      38.142  32.330  31.659  1.00  0.00     0.037 A 
ATOM     71  C   UNL A   1      42.782  30.179  35.735  1.00  0.00     0.049 A 
ATOM     72  C   UNL A   1      38.530  32.689  33.071  1.00  0.00     0.074 A 
ATOM     73  C   UNL A   1      43.099  30.666  36.991  1.00  0.00     0.029 A 
ATOM     74  N   UNL A   1      41.709  30.926  35.275  1.00  0.00    -0.354 N 
ATOM     75  N   UNL A   1      39.510  32.213  33.804  1.00  0.00    -0.248 NA
ATOM     76  C   UNL A   1      37.720  33.713  33.745  1.00  0.00     0.031 C 
ATOM     77  C   UNL A   1      42.178  31.664  37.316  1.00  0.00     0.029 A 
ATOM     78  C   UNL A   1      41.329  31.847  36.236  1.00  0.00     0.049 A 
ATOM     79  H   UNL A   1      41.279  30.818  34.396  1.00  0.00     0.167 HD
ATOM     80  C   UNL A   1      39.457  32.911  35.007  1.00  0.00     0.074 A 
ATOM     81  C   UNL A   1      38.357  33.845  34.900  1.00  0.00     0.031 C 
ATOM     82  C   UNL A   1      40.248  32.790  36.100  1.00  0.00     0.037 A 
BRANCH  69  83
ATOM     83  C   UNL A   1      44.493  28.329  35.707  1.00  0.00     0.058 A 
ATOM     84  C   UNL A   1      45.840  28.716  35.647  1.00  0.00     0.135 A 
ATOM     85  C   UNL A   1      44.159  27.234  36.521  1.00  0.00     0.135 A 
ATOM     86  F   UNL A   1      46.216  29.743  34.868  1.00  0.00    -0.206 F 
ATOM     87  C   UNL A   1      46.821  28.042  36.368  1.00  0.00     0.059 A 
ATOM     88  C   UNL A   1      45.119  26.565  37.273  1.00  0.00     0.059 A 
ATOM     89  F   UNL A   1      42.886  26.819  36.608  1.00  0.00    -0.206 F 
ATOM     90  C   UNL A   1      46.448  26.975  37.188  1.00  0.00     0.060 A 
BRANCH  90  91
ATOM     91  S   UNL A   1      47.726  26.152  38.161  1.00  0.00     0.124 S 
ATOM     92  O   UNL A   1      47.120  26.141  39.489  1.00  0.00    -0.237 OA
ATOM     93  O   UNL A   1      47.831  24.854  37.501  1.00  0.00    -0.237 OA
ATOM     94  O   UNL A   1      48.886  27.026  38.009  1.00  0.00    -0.744 OA
ENDBRANCH  90  91
ENDBRANCH  69  83
BRANCH  70  95
ATOM     95  C   UNL A   1      36.987  32.999  31.000  1.00  0.00     0.058 A 
ATOM     96  C   UNL A   1      35.668  32.692  31.367  1.00  0.00     0.135 A 
ATOM     97  C   UNL A   1      37.174  33.925  29.961  1.00  0.00     0.135 A 
ATOM     98  F   UNL A   1      35.435  31.813  32.353  1.00  0.00    -0.206 F 
ATOM     99  C   UNL A   1      34.577  33.241  30.700  1.00  0.00     0.059 A 
ATOM    100  C   UNL A   1      36.099  34.513  29.301  1.00  0.00     0.059 A 
ATOM    101  F   UNL A   1      38.415  34.273  29.583  1.00  0.00    -0.206 F 
ATOM    102  C   UNL A   1      34.804  34.146  29.663  1.00  0.00     0.060 A 
BRANCH 102 103
ATOM    103  S   UNL A   1      33.382  34.845  28.797  1.00  0.00     0.124 S 
ATOM    104  O   UNL A   1      32.411  34.964  29.879  1.00  0.00    -0.237 OA
ATOM    105  O   UNL A   1      33.924  36.097  28.280  1.00  0.00    -0.237 OA
ATOM    106  O   UNL A   1      33.079  33.836  27.785  1.00  0.00    -0.744 OA
ENDBRANCH 102 103
ENDBRANCH  70  95
BRANCH  82 107
ATOM    107  C   UNL A   1      40.002  33.728  37.250  1.00  0.00     0.058 A 
ATOM    108  C   UNL A   1      40.609  34.989  37.322  1.00  0.00     0.135 A 
ATOM    109  C   UNL A   1      39.083  33.382  38.255  1.00  0.00     0.135 A 
ATOM    110  F   UNL A   1      41.500  35.366  36.391  1.00  0.00    -0.206 F 
ATOM    111  C   UNL A   1      40.329  35.871  38.361  1.00  0.00     0.059 A 
ATOM    112  C   UNL A   1      38.763  34.260  39.285  1.00  0.00     0.059 A 
ATOM    113  F   UNL A   1      38.466  32.190  38.227  1.00  0.00    -0.206 F 
ATOM    114  C   UNL A   1      39.397  35.499  39.334  1.00  0.00     0.060 A 
BRANCH 114 115
ATOM    115  S   UNL A   1      39.004  36.674  40.646  1.00  0.00     0.124 S 
ATOM    116  O   UNL A   1      40.287  36.792  41.330  1.00  0.00    -0.237 OA
ATOM    117  O   UNL A   1      38.576  37.849  39.893  1.00  0.00    -0.237 OA
ATOM    118  O   UNL A   1      37.951  36.001  41.400  1.00  0.00    -0.744 OA
ENDBRANCH 114 115
ENDBRANCH  82 107
ENDBRANCH  56  57
ENDBRANCH  48  51
ENDBRANCH  46  47
ENDBRANCH  45  46
ENDBRANCH  44  45
ENDBRANCH  43  44
ENDBRANCH  42  43
ENDBRANCH  41  42
ENDBRANCH   3  41
TORSDOF 29
ENDMDL
MODEL 2
REMARK VINA RESULT:     -10.6      1.706      8.554
REMARK SMILES CC(C)C[C@H](NC(=O)[C@@H](NC(=O)[C@H](C)NC(=O)CNC(=O)OCc1ccccc1)C(C)C)C(=O)NCCCCCCNC(=O)c1ccc(-c2c3nc(c(-c4c(F)cc(S(=O)(=O)[O-])cc4F)c4ccc([nH]4)c(-c4c(F)cc(S(=O)(=O)[O-])cc4F)c4nc(c(-c5c(F)cc(S(=O)(=O)[O-])cc5F)c5ccc2[nH]5)C=C4)C=C3)cc1
REMARK SMILES IDX 33 1 34 2 35 3 5 5 4 6 2 7 1 8 3 9 6 10 7 11 8 13 9 14 10 15
REMARK SMILES IDX 11 16 12 18 13 19 14 20 15 21 16 22 17 24 18 25 19 26 20 27
REMARK SMILES IDX 21 29 22 30 23 31 24 32 25 33 29 34 26 35 28 36 27 37 30 38
REMARK SMILES IDX 31 39 32 40 36 41 37 42 38 43 39 44 40 45 41 46 42 47 43 48
REMARK SMILES IDX 44 50 45 51 46 52 110 53 47 54 109 55 48 56 49 57 50 58
REMARK SMILES IDX 103 59 51 60 108 61 102 62 104 63 52 64 107 65 101 66 100 67
REMARK SMILES IDX 53 69 87 70 66 71 86 72 67 73 70 74 85 75 105 76 68 77 69 78
REMARK SMILES IDX 84 80 106 81 71 82 54 83 55 84 64 85 56 86 57 87 63 88 65 89
REMARK SMILES IDX 58 90 59 91 60 92 61 93 62 94 88 95 89 96 98 97 90 98 91 99
REMARK SMILES IDX 97 100 99 101 92 102 93 103 94 104 95 105 96 106 72 107
REMARK SMILES IDX 73 108 82 109 74 110 75 111 81 112 83 113 76 114 77 115
REMARK SMILES IDX 78 116 79 117 80 118
REMARK H PARENT 35 4 6 12 10 17 15 23 19 28 42 49 104 68 70 79
REMARK Flexibility Score: inf
ROOT
ATOM      1  C   UNL A   1      36.622  23.361  24.008  1.00  0.00     0.242 C 
ATOM      2  O   UNL A   1      36.692  22.773  22.927  1.00  0.00    -0.273 OA
ATOM      3  N   UNL A   1      37.757  23.447  24.770  1.00  0.00    -0.354 N 
ATOM      4  H   UNL A   1      38.538  22.965  24.416  1.00  0.00     0.163 HD
ENDROOT
BRANCH   1   5
ATOM      5  C   UNL A   1      35.335  24.134  24.406  1.00  0.00     0.171 C 
BRANCH   5   6
ATOM      6  C   UNL A   1      34.635  23.451  25.577  1.00  0.00     0.038 C 
BRANCH   6   7
ATOM      7  C   UNL A   1      35.301  22.226  26.235  1.00  0.00    -0.015 C 
ATOM      8  C   UNL A   1      34.788  22.048  27.666  1.00  0.00     0.007 C 
ATOM      9  C   UNL A   1      35.047  20.940  25.451  1.00  0.00     0.007 C 
ENDBRANCH   6   7
ENDBRANCH   5   6
BRANCH   5  10
ATOM     10  N   UNL A   1      34.617  24.573  23.210  1.00  0.00    -0.343 N 
ATOM     11  C   UNL A   1      33.769  25.443  22.664  1.00  0.00     0.243 C 
ATOM     12  H   UNL A   1      34.875  23.950  22.491  1.00  0.00     0.164 HD
ATOM     13  O   UNL A   1      33.625  25.205  21.451  1.00  0.00    -0.273 OA
BRANCH  11  14
ATOM     14  C   UNL A   1      32.966  26.620  23.271  1.00  0.00     0.174 C 
BRANCH  14  15
ATOM     15  N   UNL A   1      33.011  26.979  24.697  1.00  0.00    -0.342 N 
ATOM     16  C   UNL A   1      32.590  26.403  25.859  1.00  0.00     0.242 C 
ATOM     17  H   UNL A   1      33.451  27.847  24.849  1.00  0.00     0.164 HD
ATOM     18  O   UNL A   1      33.176  26.766  26.884  1.00  0.00    -0.273 OA
BRANCH  16  19
ATOM     19  C   UNL A   1      31.448  25.363  25.922  1.00  0.00     0.168 C 
ATOM     20  C   UNL A   1      30.123  26.089  26.196  1.00  0.00     0.041 C 
BRANCH  19  21
ATOM     21  N   UNL A   1      31.658  24.368  26.967  1.00  0.00    -0.343 N 
ATOM     22  C   UNL A   1      31.253  23.057  26.963  1.00  0.00     0.240 C 
ATOM     23  H   UNL A   1      32.147  24.671  27.765  1.00  0.00     0.164 HD
ATOM     24  O   UNL A   1      31.538  22.335  27.917  1.00  0.00    -0.273 OA
BRANCH  22  25
ATOM     25  C   UNL A   1      30.435  22.529  25.774  1.00  0.00     0.219 C 
BRANCH  25  26
ATOM     26  N   UNL A   1      31.275  22.687  24.606  1.00  0.00    -0.312 N 
ATOM     27  C   UNL A   1      32.059  21.759  24.003  1.00  0.00     0.407 C 
ATOM     28  H   UNL A   1      31.279  23.583  24.198  1.00  0.00     0.167 HD
ATOM     29  O   UNL A   1      32.910  22.100  23.196  1.00  0.00    -0.225 OA
BRANCH  27  30
ATOM     30  O   UNL A   1      31.763  20.480  24.341  1.00  0.00    -0.445 OA
BRANCH  30  31
ATOM     31  C   UNL A   1      32.145  19.505  23.350  1.00  0.00     0.270 C 
BRANCH  31  32
ATOM     32  C   UNL A   1      32.786  18.275  23.954  1.00  0.00    -0.011 A 
ATOM     33  C   UNL A   1      32.507  17.861  25.265  1.00  0.00     0.007 A 
ATOM     34  C   UNL A   1      33.622  17.471  23.165  1.00  0.00     0.007 A 
ATOM     35  C   UNL A   1      33.059  16.691  25.783  1.00  0.00     0.000 A 
ATOM     36  C   UNL A   1      34.172  16.296  23.684  1.00  0.00     0.000 A 
ATOM     37  C   UNL A   1      33.891  15.908  24.993  1.00  0.00     0.000 A 
ENDBRANCH  31  32
ENDBRANCH  30  31
ENDBRANCH  27  30
ENDBRANCH  25  26
ENDBRANCH  22  25
ENDBRANCH  19  21
ENDBRANCH  16  19
ENDBRANCH  14  15
BRANCH  14  38
ATOM     38  C   UNL A   1      32.941  27.879  22.360  1.00  0.00     0.015 C 
ATOM     39  C   UNL A   1      31.798  28.880  22.542  1.00  0.00     0.010 C 
ATOM     40  C   UNL A   1      34.267  28.655  22.437  1.00  0.00     0.010 C 
ENDBRANCH  14  38
ENDBRANCH  11  14
ENDBRANCH   5  10
ENDBRANCH   1   5
BRANCH   3  41
ATOM     41  C   UNL A   1      37.978  24.147  26.028  1.00  0.00     0.116 C 
BRANCH  41  42
ATOM     42  C   UNL A   1      39.055  23.509  26.886  1.00  0.00     0.021 C 
BRANCH  42  43
ATOM     43  C   UNL A   1      39.532  22.133  26.425  1.00  0.00     0.002 C 
BRANCH  43  44
ATOM     44  C   UNL A   1      41.047  21.933  26.350  1.00  0.00     0.002 C 
BRANCH  44  45
ATOM     45  C   UNL A   1      41.832  22.265  27.622  1.00  0.00     0.021 C 
BRANCH  45  46
ATOM     46  C   UNL A   1      42.848  23.390  27.485  1.00  0.00     0.116 C 
BRANCH  46  47
ATOM     47  N   UNL A   1      42.631  24.209  26.305  1.00  0.00    -0.352 N 
ATOM     48  C   UNL A   1      42.209  25.512  26.241  1.00  0.00     0.251 C 
ATOM     49  H   UNL A   1      42.812  23.772  25.441  1.00  0.00     0.163 HD
ATOM     50  O   UNL A   1      41.959  26.034  25.160  1.00  0.00    -0.269 OA
BRANCH  48  51
ATOM     51  C   UNL A   1      42.027  26.261  27.500  1.00  0.00     0.039 A 
ATOM     52  C   UNL A   1      42.853  27.356  27.757  1.00  0.00     0.014 A 
ATOM     53  C   UNL A   1      41.009  25.909  28.390  1.00  0.00     0.014 A 
ATOM     54  C   UNL A   1      42.622  28.135  28.890  1.00  0.00     0.010 A 
ATOM     55  C   UNL A   1      40.733  26.731  29.475  1.00  0.00     0.010 A 
ATOM     56  C   UNL A   1      41.541  27.847  29.740  1.00  0.00    -0.014 A 
BRANCH  56  57
ATOM     57  C   UNL A   1      41.249  28.689  30.926  1.00  0.00     0.031 A 
ATOM     58  C   UNL A   1      40.111  29.672  30.876  1.00  0.00     0.074 A 
ATOM     59  C   UNL A   1      42.047  28.615  32.011  1.00  0.00     0.049 A 
ATOM     60  N   UNL A   1      39.748  30.558  31.766  1.00  0.00    -0.248 NA
ATOM     61  C   UNL A   1      39.289  29.682  29.654  1.00  0.00     0.031 C 
ATOM     62  C   UNL A   1      43.204  27.728  32.155  1.00  0.00     0.029 A 
ATOM     63  N   UNL A   1      42.015  29.308  33.195  1.00  0.00    -0.354 N 
ATOM     64  C   UNL A   1      38.679  31.244  31.204  1.00  0.00     0.074 A 
ATOM     65  C   UNL A   1      38.475  30.703  29.880  1.00  0.00     0.031 C 
ATOM     66  C   UNL A   1      43.758  27.916  33.364  1.00  0.00     0.029 A 
ATOM     67  C   UNL A   1      43.027  28.968  34.064  1.00  0.00     0.049 A 
ATOM     68  H   UNL A   1      41.333  29.985  33.404  1.00  0.00     0.167 HD
ATOM     69  C   UNL A   1      37.926  32.226  31.752  1.00  0.00     0.037 A 
ATOM     70  C   UNL A   1      43.339  29.462  35.279  1.00  0.00     0.037 A 
ATOM     71  C   UNL A   1      38.111  32.722  33.089  1.00  0.00     0.049 A 
ATOM     72  C   UNL A   1      42.482  30.558  35.860  1.00  0.00     0.074 A 
ATOM     73  C   UNL A   1      37.345  33.653  33.770  1.00  0.00     0.029 A 
ATOM     74  N   UNL A   1      39.129  32.337  33.946  1.00  0.00    -0.354 N 
ATOM     75  N   UNL A   1      41.421  31.135  35.346  1.00  0.00    -0.248 NA
ATOM     76  C   UNL A   1      42.859  31.067  37.185  1.00  0.00     0.031 C 
ATOM     77  C   UNL A   1      37.938  33.876  35.014  1.00  0.00     0.029 A 
ATOM     78  C   UNL A   1      39.033  33.037  35.137  1.00  0.00     0.049 A 
ATOM     79  H   UNL A   1      39.820  31.666  33.739  1.00  0.00     0.167 HD
ATOM     80  C   UNL A   1      40.982  32.044  36.305  1.00  0.00     0.074 A 
ATOM     81  C   UNL A   1      41.886  31.934  37.429  1.00  0.00     0.031 C 
ATOM     82  C   UNL A   1      39.926  32.891  36.258  1.00  0.00     0.037 A 
BRANCH  69  83
ATOM     83  C   UNL A   1      36.832  32.835  30.921  1.00  0.00     0.058 A 
ATOM     84  C   UNL A   1      37.091  33.832  29.968  1.00  0.00     0.135 A 
ATOM     85  C   UNL A   1      35.519  32.345  31.016  1.00  0.00     0.135 A 
ATOM     86  F   UNL A   1      38.324  34.351  29.849  1.00  0.00    -0.206 F 
ATOM     87  C   UNL A   1      36.086  34.325  29.141  1.00  0.00     0.059 A 
ATOM     88  C   UNL A   1      34.506  32.802  30.180  1.00  0.00     0.059 A 
ATOM     89  F   UNL A   1      35.216  31.396  31.916  1.00  0.00    -0.206 F 
ATOM     90  C   UNL A   1      34.799  33.795  29.247  1.00  0.00     0.060 A 
BRANCH  90  91
ATOM     91  S   UNL A   1      33.524  34.404  28.125  1.00  0.00     0.124 S 
ATOM     92  O   UNL A   1      34.326  35.088  27.115  1.00  0.00    -0.237 OA
ATOM     93  O   UNL A   1      32.876  33.170  27.692  1.00  0.00    -0.237 OA
ATOM     94  O   UNL A   1      32.711  35.272  28.972  1.00  0.00    -0.744 OA
ENDBRANCH  90  91
ENDBRANCH  69  83
BRANCH  70  95
ATOM     95  C   UNL A   1      44.509  28.937  36.035  1.00  0.00     0.058 A 
ATOM     96  C   UNL A   1      44.372  27.857  36.920  1.00  0.00     0.135 A 
ATOM     97  C   UNL A   1      45.777  29.530  35.924  1.00  0.00     0.135 A 
ATOM     98  F   UNL A   1      43.181  27.256  37.065  1.00  0.00    -0.206 F 
ATOM     99  C   UNL A   1      45.435  27.412  37.702  1.00  0.00     0.059 A 
ATOM    100  C   UNL A   1      46.863  29.082  36.669  1.00  0.00     0.059 A 
ATOM    101  F   UNL A   1      45.971  30.553  35.076  1.00  0.00    -0.206 F 
ATOM    102  C   UNL A   1      46.676  28.037  37.573  1.00  0.00     0.060 A 
BRANCH 102 103
ATOM    103  S   UNL A   1      48.046  27.461  38.598  1.00  0.00     0.124 S 
ATOM    104  O   UNL A   1      47.972  26.018  38.400  1.00  0.00    -0.237 OA
ATOM    105  O   UNL A   1      49.188  28.134  37.989  1.00  0.00    -0.237 OA
ATOM    106  O   UNL A   1      47.687  27.934  39.932  1.00  0.00    -0.744 OA
ENDBRANCH 102 103
ENDBRANCH  70  95
BRANCH  82 107
ATOM    107  C   UNL A   1      39.645  33.727  37.477  1.00  0.00     0.058 A 
ATOM    108  C   UNL A   1      38.754  33.306  38.475  1.00  0.00     0.135 A 
ATOM    109  C   UNL A   1      40.337  34.932  37.679  1.00  0.00     0.135 A 
ATOM    110  F   UNL A   1      38.062  32.165  38.328  1.00  0.00    -0.206 F 
ATOM    111  C   UNL A   1      38.546  34.060  39.625  1.00  0.00     0.059 A 
ATOM    112  C   UNL A   1      40.169  35.685  38.836  1.00  0.00     0.059 A 
ATOM    113  F   UNL A   1      41.209  35.375  36.759  1.00  0.00    -0.206 F 
ATOM    114  C   UNL A   1      39.265  35.245  39.799  1.00  0.00     0.060 A 
BRANCH 114 115
ATOM    115  S   UNL A   1      39.024  36.185  41.321  1.00  0.00     0.124 S 
ATOM    116  O   UNL A   1      37.877  35.502  41.910  1.00  0.00    -0.237 OA
ATOM    117  O   UNL A   1      40.297  35.996  42.009  1.00  0.00    -0.237 OA
ATOM    118  O   UNL A   1      38.769  37.542  40.846  1.00  0.00    -0.744 OA
ENDBRANCH 114 115
ENDBRANCH  82 107
ENDBRANCH  56  57
ENDBRANCH  48  51
ENDBRANCH  46  47
ENDBRANCH  45  46
ENDBRANCH  44  45
ENDBRANCH  43  44
ENDBRANCH  42  43
ENDBRANCH  41  42
ENDBRANCH   3  41
TORSDOF 29
ENDMDL
MODEL 3
REMARK VINA RESULT:     -10.3      5.670     10.353
REMARK SMILES CC(C)C[C@H](NC(=O)[C@@H](NC(=O)[C@H](C)NC(=O)CNC(=O)OCc1ccccc1)C(C)C)C(=O)NCCCCCCNC(=O)c1ccc(-c2c3nc(c(-c4c(F)cc(S(=O)(=O)[O-])cc4F)c4ccc([nH]4)c(-c4c(F)cc(S(=O)(=O)[O-])cc4F)c4nc(c(-c5c(F)cc(S(=O)(=O)[O-])cc5F)c5ccc2[nH]5)C=C4)C=C3)cc1
REMARK SMILES IDX 33 1 34 2 35 3 5 5 4 6 2 7 1 8 3 9 6 10 7 11 8 13 9 14 10 15
REMARK SMILES IDX 11 16 12 18 13 19 14 20 15 21 16 22 17 24 18 25 19 26 20 27
REMARK SMILES IDX 21 29 22 30 23 31 24 32 25 33 29 34 26 35 28 36 27 37 30 38
REMARK SMILES IDX 31 39 32 40 36 41 37 42 38 43 39 44 40 45 41 46 42 47 43 48
REMARK SMILES IDX 44 50 45 51 46 52 110 53 47 54 109 55 48 56 49 57 50 58
REMARK SMILES IDX 103 59 51 60 108 61 102 62 104 63 52 64 107 65 101 66 100 67
REMARK SMILES IDX 53 69 87 70 66 71 86 72 67 73 70 74 85 75 105 76 68 77 69 78
REMARK SMILES IDX 84 80 106 81 71 82 54 83 55 84 64 85 56 86 57 87 63 88 65 89
REMARK SMILES IDX 58 90 59 91 60 92 61 93 62 94 88 95 89 96 98 97 90 98 91 99
REMARK SMILES IDX 97 100 99 101 92 102 93 103 94 104 95 105 96 106 72 107
REMARK SMILES IDX 73 108 82 109 74 110 75 111 81 112 83 113 76 114 77 115
REMARK SMILES IDX 78 116 79 117 80 118
REMARK H PARENT 35 4 6 12 10 17 15 23 19 28 42 49 104 68 70 79
REMARK Flexibility Score: inf
ROOT
ATOM      1  C   UNL A   1      34.347  22.956  27.300  1.00  0.00     0.242 C 
ATOM      2  O   UNL A   1      34.178  22.810  28.513  1.00  0.00    -0.273 OA
ATOM      3  N   UNL A   1      35.513  23.536  26.876  1.00  0.00    -0.354 N 
ATOM      4  H   UNL A   1      36.106  23.857  27.592  1.00  0.00     0.163 HD
ENDROOT
BRANCH   1   5
ATOM      5  C   UNL A   1      33.350  22.335  26.283  1.00  0.00     0.171 C 
BRANCH   5   6
ATOM      6  C   UNL A   1      31.950  22.251  26.883  1.00  0.00     0.038 C 
BRANCH   6   7
ATOM      7  C   UNL A   1      30.872  23.246  26.409  1.00  0.00    -0.015 C 
ATOM      8  C   UNL A   1      29.573  23.033  27.191  1.00  0.00     0.007 C 
ATOM      9  C   UNL A   1      31.316  24.699  26.568  1.00  0.00     0.007 C 
ENDBRANCH   6   7
ENDBRANCH   5   6
BRANCH   5  10
ATOM     10  N   UNL A   1      33.973  21.214  25.582  1.00  0.00    -0.343 N 
ATOM     11  C   UNL A   1      33.815  20.164  24.777  1.00  0.00     0.243 C 
ATOM     12  H   UNL A   1      34.932  21.251  25.802  1.00  0.00     0.164 HD
ATOM     13  O   UNL A   1      34.913  19.624  24.548  1.00  0.00    -0.273 OA
BRANCH  11  14
ATOM     14  C   UNL A   1      32.552  19.536  24.137  1.00  0.00     0.174 C 
BRANCH  14  15
ATOM     15  N   UNL A   1      32.027  19.936  22.822  1.00  0.00    -0.342 N 
ATOM     16  C   UNL A   1      32.085  21.061  22.053  1.00  0.00     0.242 C 
ATOM     17  H   UNL A   1      31.507  19.218  22.394  1.00  0.00     0.164 HD
ATOM     18  O   UNL A   1      31.910  20.895  20.841  1.00  0.00    -0.273 OA
BRANCH  16  19
ATOM     19  C   UNL A   1      32.344  22.470  22.633  1.00  0.00     0.168 C 
ATOM     20  C   UNL A   1      31.053  22.992  23.278  1.00  0.00     0.041 C 
BRANCH  19  21
ATOM     21  N   UNL A   1      32.774  23.421  21.615  1.00  0.00    -0.343 N 
ATOM     22  C   UNL A   1      32.815  24.789  21.715  1.00  0.00     0.240 C 
ATOM     23  H   UNL A   1      33.069  23.038  20.758  1.00  0.00     0.164 HD
ATOM     24  O   UNL A   1      33.234  25.451  20.767  1.00  0.00    -0.273 OA
BRANCH  22  25
ATOM     25  C   UNL A   1      32.315  25.460  23.004  1.00  0.00     0.219 C 
BRANCH  25  26
ATOM     26  N   UNL A   1      32.999  26.733  23.085  1.00  0.00    -0.312 N 
ATOM     27  C   UNL A   1      32.462  27.968  23.250  1.00  0.00     0.407 C 
ATOM     28  H   UNL A   1      33.981  26.698  23.011  1.00  0.00     0.167 HD
ATOM     29  O   UNL A   1      33.132  28.966  23.034  1.00  0.00    -0.225 OA
BRANCH  27  30
ATOM     30  O   UNL A   1      31.187  27.960  23.710  1.00  0.00    -0.445 OA
BRANCH  30  31
ATOM     31  C   UNL A   1      30.778  29.194  24.333  1.00  0.00     0.270 C 
BRANCH  31  32
ATOM     32  C   UNL A   1      29.717  29.927  23.540  1.00  0.00    -0.011 A 
ATOM     33  C   UNL A   1      29.328  31.237  23.856  1.00  0.00     0.007 A 
ATOM     34  C   UNL A   1      29.158  29.322  22.405  1.00  0.00     0.007 A 
ATOM     35  C   UNL A   1      28.396  31.918  23.078  1.00  0.00     0.000 A 
ATOM     36  C   UNL A   1      28.226  30.007  21.622  1.00  0.00     0.000 A 
ATOM     37  C   UNL A   1      27.844  31.304  21.960  1.00  0.00     0.000 A 
ENDBRANCH  31  32
ENDBRANCH  30  31
ENDBRANCH  27  30
ENDBRANCH  25  26
ENDBRANCH  22  25
ENDBRANCH  19  21
ENDBRANCH  16  19
ENDBRANCH  14  15
BRANCH  14  38
ATOM     38  C   UNL A   1      32.456  18.000  24.352  1.00  0.00     0.015 C 
ATOM     39  C   UNL A   1      33.335  17.093  23.488  1.00  0.00     0.010 C 
ATOM     40  C   UNL A   1      32.690  17.623  25.825  1.00  0.00     0.010 C 
ENDBRANCH  14  38
ENDBRANCH  11  14
ENDBRANCH   5  10
ENDBRANCH   1   5
BRANCH   3  41
ATOM     41  C   UNL A   1      36.004  23.748  25.522  1.00  0.00     0.116 C 
BRANCH  41  42
ATOM     42  C   UNL A   1      37.430  23.266  25.321  1.00  0.00     0.021 C 
BRANCH  42  43
ATOM     43  C   UNL A   1      38.456  23.829  26.302  1.00  0.00     0.002 C 
BRANCH  43  44
ATOM     44  C   UNL A   1      39.654  22.929  26.617  1.00  0.00     0.002 C 
BRANCH  44  45
ATOM     45  C   UNL A   1      39.595  21.509  26.049  1.00  0.00     0.021 C 
BRANCH  45  46
ATOM     46  C   UNL A   1      40.181  20.425  26.943  1.00  0.00     0.116 C 
BRANCH  46  47
ATOM     47  N   UNL A   1      41.070  19.523  26.231  1.00  0.00    -0.352 N 
ATOM     48  C   UNL A   1      42.331  19.774  25.754  1.00  0.00     0.251 C 
ATOM     49  H   UNL A   1      40.722  18.616  26.072  1.00  0.00     0.163 HD
ATOM     50  O   UNL A   1      42.914  18.942  25.066  1.00  0.00    -0.269 OA
BRANCH  48  51
ATOM     51  C   UNL A   1      42.957  21.075  26.055  1.00  0.00     0.039 A 
ATOM     52  C   UNL A   1      43.163  21.980  25.013  1.00  0.00     0.014 A 
ATOM     53  C   UNL A   1      43.287  21.413  27.371  1.00  0.00     0.014 A 
ATOM     54  C   UNL A   1      43.656  23.253  25.300  1.00  0.00     0.010 A 
ATOM     55  C   UNL A   1      43.702  22.706  27.663  1.00  0.00     0.010 A 
ATOM     56  C   UNL A   1      43.899  23.635  26.630  1.00  0.00    -0.014 A 
BRANCH  56  57
ATOM     57  C   UNL A   1      44.380  24.999  26.962  1.00  0.00     0.031 A 
ATOM     58  C   UNL A   1      43.417  26.008  27.528  1.00  0.00     0.074 A 
ATOM     59  C   UNL A   1      45.655  25.343  26.691  1.00  0.00     0.049 A 
ATOM     60  N   UNL A   1      43.613  27.271  27.800  1.00  0.00    -0.248 NA
ATOM     61  C   UNL A   1      42.044  25.545  27.797  1.00  0.00     0.031 C 
ATOM     62  C   UNL A   1      46.666  24.459  26.105  1.00  0.00     0.029 A 
ATOM     63  N   UNL A   1      46.318  26.533  26.861  1.00  0.00    -0.354 N 
ATOM     64  C   UNL A   1      42.390  27.758  28.245  1.00  0.00     0.074 A 
ATOM     65  C   UNL A   1      41.445  26.667  28.168  1.00  0.00     0.031 C 
ATOM     66  C   UNL A   1      47.823  25.130  25.983  1.00  0.00     0.029 A 
ATOM     67  C   UNL A   1      47.627  26.504  26.436  1.00  0.00     0.049 A 
ATOM     68  H   UNL A   1      45.896  27.333  27.249  1.00  0.00     0.167 HD
ATOM     69  C   UNL A   1      42.089  28.998  28.691  1.00  0.00     0.037 A 
ATOM     70  C   UNL A   1      48.556  27.479  26.402  1.00  0.00     0.037 A 
ATOM     71  C   UNL A   1      43.051  30.062  28.807  1.00  0.00     0.049 A 
ATOM     72  C   UNL A   1      48.188  28.852  26.904  1.00  0.00     0.074 A 
ATOM     73  C   UNL A   1      42.867  31.329  29.332  1.00  0.00     0.029 A 
ATOM     74  N   UNL A   1      44.371  29.987  28.391  1.00  0.00    -0.354 N 
ATOM     75  N   UNL A   1      47.047  29.270  27.401  1.00  0.00    -0.248 NA
ATOM     76  C   UNL A   1      49.231  29.886  26.847  1.00  0.00     0.031 C 
ATOM     77  C   UNL A   1      44.058  32.041  29.174  1.00  0.00     0.029 A 
ATOM     78  C   UNL A   1      45.004  31.198  28.614  1.00  0.00     0.049 A 
ATOM     79  H   UNL A   1      44.795  29.192  27.994  1.00  0.00     0.167 HD
ATOM     80  C   UNL A   1      47.251  30.601  27.753  1.00  0.00     0.074 A 
ATOM     81  C   UNL A   1      48.624  30.915  27.420  1.00  0.00     0.031 C 
ATOM     82  C   UNL A   1      46.382  31.482  28.303  1.00  0.00     0.037 A 
BRANCH  69  83
ATOM     83  C   UNL A   1      40.669  29.288  29.093  1.00  0.00     0.058 A 
ATOM     84  C   UNL A   1      40.293  29.435  30.437  1.00  0.00     0.135 A 
ATOM     85  C   UNL A   1      39.692  29.514  28.110  1.00  0.00     0.135 A 
ATOM     86  F   UNL A   1      41.183  29.211  31.417  1.00  0.00    -0.206 F 
ATOM     87  C   UNL A   1      38.997  29.793  30.793  1.00  0.00     0.059 A 
ATOM     88  C   UNL A   1      38.398  29.901  28.442  1.00  0.00     0.059 A 
ATOM     89  F   UNL A   1      39.997  29.380  26.810  1.00  0.00    -0.206 F 
ATOM     90  C   UNL A   1      38.059  30.035  29.787  1.00  0.00     0.060 A 
BRANCH  90  91
ATOM     91  S   UNL A   1      36.399  30.556  30.267  1.00  0.00     0.124 S 
ATOM     92  O   UNL A   1      35.680  30.442  29.002  1.00  0.00    -0.237 OA
ATOM     93  O   UNL A   1      36.048  29.573  31.287  1.00  0.00    -0.237 OA
ATOM     94  O   UNL A   1      36.597  31.918  30.754  1.00  0.00    -0.744 OA
ENDBRANCH  90  91
ENDBRANCH  69  83
BRANCH  70  95
ATOM     95  C   UNL A   1      49.923  27.209  25.876  1.00  0.00     0.058 A 
ATOM     96  C   UNL A   1      50.224  27.391  24.517  1.00  0.00     0.135 A 
ATOM     97  C   UNL A   1      50.943  26.722  26.708  1.00  0.00     0.135 A 
ATOM     98  F   UNL A   1      49.283  27.853  23.679  1.00  0.00    -0.206 F 
ATOM     99  C   UNL A   1      51.469  27.058  23.994  1.00  0.00     0.059 A 
ATOM    100  C   UNL A   1      52.207  26.414  26.215  1.00  0.00     0.059 A 
ATOM    101  F   UNL A   1      50.718  26.550  28.021  1.00  0.00    -0.206 F 
ATOM    102  C   UNL A   1      52.452  26.563  24.851  1.00  0.00     0.060 A 
BRANCH 102 103
ATOM    103  S   UNL A   1      54.062  26.123  24.160  1.00  0.00     0.124 S 
ATOM    104  O   UNL A   1      53.770  26.101  22.732  1.00  0.00    -0.237 OA
ATOM    105  O   UNL A   1      54.904  27.221  24.625  1.00  0.00    -0.237 OA
ATOM    106  O   UNL A   1      54.343  24.826  24.768  1.00  0.00    -0.744 OA
ENDBRANCH 102 103
ENDBRANCH  70  95
BRANCH  82 107
ATOM    107  C   UNL A   1      46.896  32.855  28.641  1.00  0.00     0.058 A 
ATOM    108  C   UNL A   1      47.506  33.137  29.872  1.00  0.00     0.135 A 
ATOM    109  C   UNL A   1      46.841  33.882  27.684  1.00  0.00     0.135 A 
ATOM    110  F   UNL A   1      47.577  32.192  30.823  1.00  0.00    -0.206 F 
ATOM    111  C   UNL A   1      48.029  34.395  30.151  1.00  0.00     0.059 A 
ATOM    112  C   UNL A   1      47.387  35.137  27.928  1.00  0.00     0.059 A 
ATOM    113  F   UNL A   1      46.277  33.662  26.485  1.00  0.00    -0.206 F 
ATOM    114  C   UNL A   1      47.971  35.387  29.168  1.00  0.00     0.060 A 
BRANCH 114 115
ATOM    115  S   UNL A   1      48.703  36.998  29.524  1.00  0.00     0.124 S 
ATOM    116  O   UNL A   1      47.717  37.903  28.943  1.00  0.00    -0.237 OA
ATOM    117  O   UNL A   1      48.776  36.991  30.981  1.00  0.00    -0.237 OA
ATOM    118  O   UNL A   1      49.989  36.947  28.836  1.00  0.00    -0.744 OA
ENDBRANCH 114 115
ENDBRANCH  82 107
ENDBRANCH  56  57
ENDBRANCH  48  51
ENDBRANCH  46  47
ENDBRANCH  45  46
ENDBRANCH  44  45
ENDBRANCH  43  44
ENDBRANCH  42  43
ENDBRANCH  41  42
ENDBRANCH   3  41
TORSDOF 29
ENDMDL
