MODEL 1
REMARK VINA RESULT:     -11.9      0.000      0.000
REMARK SMILES CC1(C)[C@H](C(=O)NCCCCCCNC(=O)c2ccc(-c3c4nc(c(-c5c(F)cc(S(=O)(=O)[O-])cc5F)c5ccc([nH]5)c(-c5c(F)cc(S(=O)(=O)[O-])cc5F)c5nc(c(-c6c(F)cc(S(=O)(=O)[O-])cc6F)c6ccc3[nH]6)C=C5)C=C4)cc2)[C@H]1C(=O)Nc1ccccc1C(=O)Nc1nccs1
REMARK SMILES IDX 10 1 9 2 8 3 7 4 5 5 6 6 4 8 1 9 2 10 3 11 83 12 84 13 85 14
REMARK SMILES IDX 86 15 87 17 88 18 92 19 89 20 91 21 90 22 93 23 94 24 95 25
REMARK SMILES IDX 96 27 97 28 100 29 98 30 99 31 11 32 12 33 13 34 14 35 15 36
REMARK SMILES IDX 16 38 17 39 18 40 82 41 19 42 81 43 20 44 21 45 22 46 75 47
REMARK SMILES IDX 23 48 80 49 74 50 76 51 24 52 79 53 73 54 72 55 25 57 59 58
REMARK SMILES IDX 38 59 58 60 39 61 42 62 57 63 77 64 40 65 41 66 56 68 78 69
REMARK SMILES IDX 43 70 26 71 27 72 36 73 28 74 29 75 35 76 37 77 30 78 31 79
REMARK SMILES IDX 32 80 33 81 34 82 60 83 61 84 70 85 62 86 63 87 69 88 71 89
REMARK SMILES IDX 64 90 65 91 66 92 67 93 68 94 44 95 45 96 54 97 46 98 47 99
REMARK SMILES IDX 53 100 55 101 48 102 49 103 50 104 51 105 52 106
REMARK H PARENT 7 7 86 16 95 26 14 37 76 56 42 67
REMARK Flexibility Score: inf
ROOT
ATOM      1  C   UNL A   1      35.985  20.908  25.341  1.00  0.00     0.002 C 
ENDROOT
BRANCH   1   2
ATOM      2  C   UNL A   1      35.750  22.004  26.384  1.00  0.00     0.021 C 
BRANCH   2   3
ATOM      3  C   UNL A   1      34.397  21.877  27.078  1.00  0.00     0.116 C 
BRANCH   3   4
ATOM      4  N   UNL A   1      33.405  21.513  26.110  1.00  0.00    -0.356 N 
ATOM      5  C   UNL A   1      32.560  22.285  25.381  1.00  0.00     0.224 C 
ATOM      6  O   UNL A   1      31.582  21.733  24.893  1.00  0.00    -0.275 OA
ATOM      7  H   UNL A   1      33.324  20.546  25.947  1.00  0.00     0.163 HD
BRANCH   5   8
ATOM      8  C   UNL A   1      32.778  23.699  25.045  1.00  0.00     0.098 C 
ATOM      9  C   UNL A   1      34.486  25.458  25.423  1.00  0.00     0.013 C 
ATOM     10  C   UNL A   1      33.883  24.487  24.431  1.00  0.00    -0.011 C 
ATOM     11  C   UNL A   1      34.989  23.980  23.512  1.00  0.00     0.013 C 
ATOM     12  C   UNL A   1      32.493  24.424  23.745  1.00  0.00     0.098 C 
BRANCH  12  13
ATOM     13  C   UNL A   1      31.072  24.836  23.772  1.00  0.00     0.228 C 
ATOM     14  O   UNL A   1      30.258  24.067  23.258  1.00  0.00    -0.274 OA
ATOM     15  N   UNL A   1      30.574  25.937  24.386  1.00  0.00    -0.325 N 
ATOM     16  H   UNL A   1      29.591  25.989  24.375  1.00  0.00     0.169 HD
BRANCH  15  17
ATOM     17  C   UNL A   1      31.185  27.009  25.028  1.00  0.00     0.054 A 
ATOM     18  C   UNL A   1      31.103  26.906  26.430  1.00  0.00     0.027 A 
ATOM     19  C   UNL A   1      31.880  28.074  24.439  1.00  0.00     0.063 A 
ATOM     20  C   UNL A   1      31.891  27.698  27.253  1.00  0.00     0.002 A 
ATOM     21  C   UNL A   1      32.684  28.857  25.295  1.00  0.00     0.016 A 
ATOM     22  C   UNL A   1      32.724  28.644  26.678  1.00  0.00     0.001 A 
BRANCH  19  23
ATOM     23  C   UNL A   1      31.937  28.449  22.983  1.00  0.00     0.259 C 
ATOM     24  O   UNL A   1      33.047  28.575  22.453  1.00  0.00    -0.269 OA
ATOM     25  N   UNL A   1      30.852  28.593  22.162  1.00  0.00    -0.298 N 
ATOM     26  H   UNL A   1      31.015  28.444  21.203  1.00  0.00     0.172 HD
BRANCH  25  27
ATOM     27  C   UNL A   1      29.578  28.916  22.507  1.00  0.00     0.189 A 
ATOM     28  N   UNL A   1      28.605  28.144  22.914  1.00  0.00    -0.229 NA
ATOM     29  S   UNL A   1      29.227  30.580  22.333  1.00  0.00    -0.105 S 
ATOM     30  C   UNL A   1      27.452  28.902  23.007  1.00  0.00     0.125 A 
ATOM     31  C   UNL A   1      27.579  30.232  22.661  1.00  0.00     0.088 A 
ENDBRANCH  25  27
ENDBRANCH  19  23
ENDBRANCH  15  17
ENDBRANCH  12  13
ENDBRANCH   5   8
ENDBRANCH   3   4
ENDBRANCH   2   3
ENDBRANCH   1   2
BRANCH   1  32
ATOM     32  C   UNL A   1      37.358  20.978  24.669  1.00  0.00     0.002 C 
BRANCH  32  33
ATOM     33  C   UNL A   1      38.318  19.863  25.091  1.00  0.00     0.021 C 
BRANCH  33  34
ATOM     34  C   UNL A   1      39.445  20.338  26.000  1.00  0.00     0.116 C 
BRANCH  34  35
ATOM     35  N   UNL A   1      40.502  19.345  26.088  1.00  0.00    -0.352 N 
ATOM     36  C   UNL A   1      41.858  19.530  26.102  1.00  0.00     0.251 C 
ATOM     37  H   UNL A   1      40.201  18.409  26.146  1.00  0.00     0.163 HD
ATOM     38  O   UNL A   1      42.611  18.585  25.889  1.00  0.00    -0.269 OA
BRANCH  36  39
ATOM     39  C   UNL A   1      42.402  20.876  26.374  1.00  0.00     0.039 A 
ATOM     40  C   UNL A   1      42.897  21.634  25.313  1.00  0.00     0.014 A 
ATOM     41  C   UNL A   1      42.434  21.377  27.680  1.00  0.00     0.014 A 
ATOM     42  C   UNL A   1      43.390  22.916  25.559  1.00  0.00     0.010 A 
ATOM     43  C   UNL A   1      42.849  22.683  27.909  1.00  0.00     0.010 A 
ATOM     44  C   UNL A   1      43.346  23.460  26.854  1.00  0.00    -0.014 A 
BRANCH  44  45
ATOM     45  C   UNL A   1      43.834  24.836  27.121  1.00  0.00     0.031 A 
ATOM     46  C   UNL A   1      45.290  25.170  26.938  1.00  0.00     0.074 A 
ATOM     47  C   UNL A   1      42.972  25.768  27.575  1.00  0.00     0.049 A 
ATOM     48  N   UNL A   1      45.911  26.299  27.160  1.00  0.00    -0.248 NA
ATOM     49  C   UNL A   1      46.169  24.086  26.471  1.00  0.00     0.031 C 
ATOM     50  C   UNL A   1      41.548  25.546  27.838  1.00  0.00     0.029 A 
ATOM     51  N   UNL A   1      43.167  27.086  27.899  1.00  0.00    -0.354 N 
ATOM     52  C   UNL A   1      47.249  26.060  26.869  1.00  0.00     0.074 A 
ATOM     53  C   UNL A   1      47.361  24.663  26.514  1.00  0.00     0.031 C 
ATOM     54  C   UNL A   1      40.994  26.696  28.257  1.00  0.00     0.029 A 
ATOM     55  C   UNL A   1      42.027  27.723  28.331  1.00  0.00     0.049 A 
ATOM     56  H   UNL A   1      44.041  27.535  27.827  1.00  0.00     0.167 HD
ATOM     57  C   UNL A   1      48.285  26.933  26.875  1.00  0.00     0.037 A 
ATOM     58  C   UNL A   1      41.839  28.990  28.749  1.00  0.00     0.037 A 
ATOM     59  C   UNL A   1      48.158  28.327  27.210  1.00  0.00     0.049 A 
ATOM     60  C   UNL A   1      43.008  29.939  28.748  1.00  0.00     0.074 A 
ATOM     61  C   UNL A   1      49.134  29.308  27.191  1.00  0.00     0.029 A 
ATOM     62  N   UNL A   1      46.984  28.940  27.626  1.00  0.00    -0.354 N 
ATOM     63  N   UNL A   1      44.254  29.712  28.406  1.00  0.00    -0.248 NA
ATOM     64  C   UNL A   1      42.742  31.318  29.178  1.00  0.00     0.031 C 
ATOM     65  C   UNL A   1      48.564  30.501  27.649  1.00  0.00     0.029 A 
ATOM     66  C   UNL A   1      47.217  30.280  27.891  1.00  0.00     0.049 A 
ATOM     67  H   UNL A   1      46.114  28.489  27.720  1.00  0.00     0.167 HD
ATOM     68  C   UNL A   1      44.914  30.928  28.548  1.00  0.00     0.074 A 
ATOM     69  C   UNL A   1      43.926  31.888  28.994  1.00  0.00     0.031 C 
ATOM     70  C   UNL A   1      46.219  31.224  28.328  1.00  0.00     0.037 A 
BRANCH  57  71
ATOM     71  C   UNL A   1      49.647  26.408  26.505  1.00  0.00     0.058 A 
ATOM     72  C   UNL A   1      50.496  25.818  27.456  1.00  0.00     0.135 A 
ATOM     73  C   UNL A   1      50.092  26.454  25.174  1.00  0.00     0.135 A 
ATOM     74  F   UNL A   1      50.132  25.762  28.747  1.00  0.00    -0.206 F 
ATOM     75  C   UNL A   1      51.745  25.316  27.105  1.00  0.00     0.059 A 
ATOM     76  C   UNL A   1      51.324  25.929  24.794  1.00  0.00     0.059 A 
ATOM     77  F   UNL A   1      49.323  27.008  24.222  1.00  0.00    -0.206 F 
ATOM     78  C   UNL A   1      52.150  25.373  25.770  1.00  0.00     0.060 A 
BRANCH  78  79
ATOM     79  S   UNL A   1      53.766  24.701  25.330  1.00  0.00     0.124 S 
ATOM     80  O   UNL A   1      53.426  23.321  24.997  1.00  0.00    -0.237 OA
ATOM     81  O   UNL A   1      54.157  25.546  24.206  1.00  0.00    -0.237 OA
ATOM     82  O   UNL A   1      54.552  24.877  26.547  1.00  0.00    -0.744 OA
ENDBRANCH  78  79
ENDBRANCH  57  71
BRANCH  58  83
ATOM     83  C   UNL A   1      40.488  29.437  29.184  1.00  0.00     0.058 A 
ATOM     84  C   UNL A   1      39.464  29.661  28.253  1.00  0.00     0.135 A 
ATOM     85  C   UNL A   1      40.194  29.647  30.541  1.00  0.00     0.135 A 
ATOM     86  F   UNL A   1      39.695  29.479  26.944  1.00  0.00    -0.206 F 
ATOM     87  C   UNL A   1      38.202  30.100  28.647  1.00  0.00     0.059 A 
ATOM     88  C   UNL A   1      38.932  30.055  30.962  1.00  0.00     0.059 A 
ATOM     89  F   UNL A   1      41.133  29.429  31.475  1.00  0.00    -0.206 F 
ATOM     90  C   UNL A   1      37.946  30.292  30.005  1.00  0.00     0.060 A 
BRANCH  90  91
ATOM     91  S   UNL A   1      36.296  30.825  30.508  1.00  0.00     0.124 S 
ATOM     92  O   UNL A   1      35.577  30.790  29.240  1.00  0.00    -0.237 OA
ATOM     93  O   UNL A   1      35.928  29.801  31.481  1.00  0.00    -0.237 OA
ATOM     94  O   UNL A   1      36.529  32.154  31.066  1.00  0.00    -0.744 OA
ENDBRANCH  90  91
ENDBRANCH  58  83
BRANCH  70  95
ATOM     95  C   UNL A   1      46.647  32.655  28.523  1.00  0.00     0.058 A 
ATOM     96  C   UNL A   1      46.542  33.609  27.500  1.00  0.00     0.135 A 
ATOM     97  C   UNL A   1      47.131  33.083  29.770  1.00  0.00     0.135 A 
ATOM     98  F   UNL A   1      46.089  33.252  26.286  1.00  0.00    -0.206 F 
ATOM     99  C   UNL A   1      46.934  34.929  27.694  1.00  0.00     0.059 A 
ATOM    100  C   UNL A   1      47.498  34.405  29.998  1.00  0.00     0.059 A 
ATOM    101  F   UNL A   1      47.241  32.215  30.789  1.00  0.00    -0.206 F 
ATOM    102  C   UNL A   1      47.411  35.318  28.948  1.00  0.00     0.060 A 
BRANCH 102 103
ATOM    103  S   UNL A   1      47.898  37.038  29.192  1.00  0.00     0.124 S 
ATOM    104  O   UNL A   1      49.336  36.974  28.950  1.00  0.00    -0.237 OA
ATOM    105  O   UNL A   1      47.114  37.732  28.174  1.00  0.00    -0.237 OA
ATOM    106  O   UNL A   1      47.506  37.311  30.571  1.00  0.00    -0.744 OA
ENDBRANCH 102 103
ENDBRANCH  70  95
ENDBRANCH  44  45
ENDBRANCH  36  39
ENDBRANCH  34  35
ENDBRANCH  33  34
ENDBRANCH  32  33
ENDBRANCH   1  32
TORSDOF 20
ENDMDL
MODEL 2
REMARK VINA RESULT:     -11.3      2.794      9.190
REMARK SMILES CC1(C)[C@H](C(=O)NCCCCCCNC(=O)c2ccc(-c3c4nc(c(-c5c(F)cc(S(=O)(=O)[O-])cc5F)c5ccc([nH]5)c(-c5c(F)cc(S(=O)(=O)[O-])cc5F)c5nc(c(-c6c(F)cc(S(=O)(=O)[O-])cc6F)c6ccc3[nH]6)C=C5)C=C4)cc2)[C@H]1C(=O)Nc1ccccc1C(=O)Nc1nccs1
REMARK SMILES IDX 10 1 9 2 8 3 7 4 5 5 6 6 4 8 1 9 2 10 3 11 83 12 84 13 85 14
REMARK SMILES IDX 86 15 87 17 88 18 92 19 89 20 91 21 90 22 93 23 94 24 95 25
REMARK SMILES IDX 96 27 97 28 100 29 98 30 99 31 11 32 12 33 13 34 14 35 15 36
REMARK SMILES IDX 16 38 17 39 18 40 82 41 19 42 81 43 20 44 21 45 22 46 75 47
REMARK SMILES IDX 23 48 80 49 74 50 76 51 24 52 79 53 73 54 72 55 25 57 59 58
REMARK SMILES IDX 38 59 58 60 39 61 42 62 57 63 77 64 40 65 41 66 56 68 78 69
REMARK SMILES IDX 43 70 26 71 27 72 36 73 28 74 29 75 35 76 37 77 30 78 31 79
REMARK SMILES IDX 32 80 33 81 34 82 60 83 61 84 70 85 62 86 63 87 69 88 71 89
REMARK SMILES IDX 64 90 65 91 66 92 67 93 68 94 44 95 45 96 54 97 46 98 47 99
REMARK SMILES IDX 53 100 55 101 48 102 49 103 50 104 51 105 52 106
REMARK H PARENT 7 7 86 16 95 26 14 37 76 56 42 67
REMARK Flexibility Score: inf
ROOT
ATOM      1  C   UNL A   1      34.313  30.355  27.635  1.00  0.00     0.002 C 
ENDROOT
BRANCH   1   2
ATOM      2  C   UNL A   1      34.520  29.007  26.941  1.00  0.00     0.021 C 
BRANCH   2   3
ATOM      3  C   UNL A   1      33.221  28.412  26.404  1.00  0.00     0.116 C 
BRANCH   3   4
ATOM      4  N   UNL A   1      33.289  28.352  24.974  1.00  0.00    -0.356 N 
ATOM      5  C   UNL A   1      33.445  27.290  24.144  1.00  0.00     0.224 C 
ATOM      6  O   UNL A   1      33.820  27.527  23.002  1.00  0.00    -0.275 OA
ATOM      7  H   UNL A   1      33.208  29.222  24.521  1.00  0.00     0.163 HD
BRANCH   5   8
ATOM      8  C   UNL A   1      33.102  25.899  24.470  1.00  0.00     0.098 C 
ATOM      9  C   UNL A   1      32.194  24.608  26.382  1.00  0.00     0.013 C 
ATOM     10  C   UNL A   1      31.908  25.200  25.019  1.00  0.00    -0.011 C 
ATOM     11  C   UNL A   1      30.458  25.669  24.987  1.00  0.00     0.013 C 
ATOM     12  C   UNL A   1      32.432  24.854  23.600  1.00  0.00     0.098 C 
BRANCH  12  13
ATOM     13  C   UNL A   1      33.488  24.214  22.786  1.00  0.00     0.228 C 
ATOM     14  O   UNL A   1      33.700  24.693  21.670  1.00  0.00    -0.274 OA
ATOM     15  N   UNL A   1      34.302  23.207  23.187  1.00  0.00    -0.325 N 
ATOM     16  H   UNL A   1      35.006  22.981  22.536  1.00  0.00     0.169 HD
BRANCH  15  17
ATOM     17  C   UNL A   1      34.333  22.429  24.339  1.00  0.00     0.054 A 
ATOM     18  C   UNL A   1      35.253  22.920  25.286  1.00  0.00     0.027 A 
ATOM     19  C   UNL A   1      33.538  21.316  24.640  1.00  0.00     0.063 A 
ATOM     20  C   UNL A   1      35.229  22.478  26.601  1.00  0.00     0.002 A 
ATOM     21  C   UNL A   1      33.520  20.894  25.988  1.00  0.00     0.016 A 
ATOM     22  C   UNL A   1      34.322  21.497  26.965  1.00  0.00     0.001 A 
BRANCH  19  23
ATOM     23  C   UNL A   1      32.632  20.548  23.715  1.00  0.00     0.259 C 
ATOM     24  O   UNL A   1      31.720  21.159  23.146  1.00  0.00    -0.269 OA
ATOM     25  N   UNL A   1      32.777  19.228  23.387  1.00  0.00    -0.298 N 
ATOM     26  H   UNL A   1      32.403  18.957  22.518  1.00  0.00     0.172 HD
BRANCH  25  27
ATOM     27  C   UNL A   1      33.372  18.244  24.111  1.00  0.00     0.189 A 
ATOM     28  N   UNL A   1      34.563  17.722  23.983  1.00  0.00    -0.229 NA
ATOM     29  S   UNL A   1      32.369  17.598  25.335  1.00  0.00    -0.105 S 
ATOM     30  C   UNL A   1      34.670  16.654  24.856  1.00  0.00     0.125 A 
ATOM     31  C   UNL A   1      33.552  16.390  25.620  1.00  0.00     0.088 A 
ENDBRANCH  25  27
ENDBRANCH  19  23
ENDBRANCH  15  17
ENDBRANCH  12  13
ENDBRANCH   5   8
ENDBRANCH   3   4
ENDBRANCH   2   3
ENDBRANCH   1   2
BRANCH   1  32
ATOM     32  C   UNL A   1      35.552  31.253  27.625  1.00  0.00     0.002 C 
BRANCH  32  33
ATOM     33  C   UNL A   1      35.386  32.556  28.412  1.00  0.00     0.021 C 
BRANCH  33  34
ATOM     34  C   UNL A   1      36.403  32.725  29.534  1.00  0.00     0.116 C 
BRANCH  34  35
ATOM     35  N   UNL A   1      36.067  31.893  30.677  1.00  0.00    -0.352 N 
ATOM     36  C   UNL A   1      36.665  30.738  31.107  1.00  0.00     0.251 C 
ATOM     37  H   UNL A   1      35.304  32.201  31.216  1.00  0.00     0.163 HD
ATOM     38  O   UNL A   1      36.089  30.007  31.906  1.00  0.00    -0.269 OA
BRANCH  36  39
ATOM     39  C   UNL A   1      38.006  30.385  30.598  1.00  0.00     0.039 A 
ATOM     40  C   UNL A   1      39.069  30.296  31.496  1.00  0.00     0.014 A 
ATOM     41  C   UNL A   1      38.208  30.156  29.233  1.00  0.00     0.014 A 
ATOM     42  C   UNL A   1      40.334  29.939  31.026  1.00  0.00     0.010 A 
ATOM     43  C   UNL A   1      39.448  29.721  28.782  1.00  0.00     0.010 A 
ATOM     44  C   UNL A   1      40.528  29.623  29.670  1.00  0.00    -0.014 A 
BRANCH  44  45
ATOM     45  C   UNL A   1      41.860  29.206  29.166  1.00  0.00     0.031 A 
ATOM     46  C   UNL A   1      42.981  30.206  29.081  1.00  0.00     0.074 A 
ATOM     47  C   UNL A   1      42.040  27.940  28.741  1.00  0.00     0.049 A 
ATOM     48  N   UNL A   1      44.198  30.043  28.630  1.00  0.00    -0.248 NA
ATOM     49  C   UNL A   1      42.691  31.575  29.535  1.00  0.00     0.031 C 
ATOM     50  C   UNL A   1      41.011  26.898  28.728  1.00  0.00     0.029 A 
ATOM     51  N   UNL A   1      43.150  27.316  28.232  1.00  0.00    -0.354 N 
ATOM     52  C   UNL A   1      44.812  31.285  28.738  1.00  0.00     0.074 A 
ATOM     53  C   UNL A   1      43.817  32.207  29.240  1.00  0.00     0.031 C 
ATOM     54  C   UNL A   1      41.547  25.757  28.262  1.00  0.00     0.029 A 
ATOM     55  C   UNL A   1      42.941  25.997  27.906  1.00  0.00     0.049 A 
ATOM     56  H   UNL A   1      44.016  27.769  28.113  1.00  0.00     0.167 HD
ATOM     57  C   UNL A   1      46.097  31.621  28.468  1.00  0.00     0.037 A 
ATOM     58  C   UNL A   1      43.776  25.085  27.371  1.00  0.00     0.037 A 
ATOM     59  C   UNL A   1      47.085  30.689  27.989  1.00  0.00     0.049 A 
ATOM     60  C   UNL A   1      45.198  25.484  27.077  1.00  0.00     0.074 A 
ATOM     61  C   UNL A   1      48.427  30.914  27.738  1.00  0.00     0.029 A 
ATOM     62  N   UNL A   1      46.840  29.357  27.686  1.00  0.00    -0.354 N 
ATOM     63  N   UNL A   1      45.780  26.647  27.248  1.00  0.00    -0.248 NA
ATOM     64  C   UNL A   1      46.078  24.445  26.528  1.00  0.00     0.031 C 
ATOM     65  C   UNL A   1      48.981  29.734  27.231  1.00  0.00     0.029 A 
ATOM     66  C   UNL A   1      48.000  28.754  27.227  1.00  0.00     0.049 A 
ATOM     67  H   UNL A   1      45.970  28.907  27.783  1.00  0.00     0.167 HD
ATOM     68  C   UNL A   1      47.104  26.470  26.859  1.00  0.00     0.074 A 
ATOM     69  C   UNL A   1      47.237  25.085  26.457  1.00  0.00     0.031 C 
ATOM     70  C   UNL A   1      48.118  27.371  26.838  1.00  0.00     0.037 A 
BRANCH  57  71
ATOM     71  C   UNL A   1      46.509  33.052  28.684  1.00  0.00     0.058 A 
ATOM     72  C   UNL A   1      47.090  33.481  29.890  1.00  0.00     0.135 A 
ATOM     73  C   UNL A   1      46.365  33.999  27.657  1.00  0.00     0.135 A 
ATOM     74  F   UNL A   1      47.237  32.624  30.913  1.00  0.00    -0.206 F 
ATOM     75  C   UNL A   1      47.488  34.800  30.078  1.00  0.00     0.059 A 
ATOM     76  C   UNL A   1      46.787  35.317  27.812  1.00  0.00     0.059 A 
ATOM     77  F   UNL A   1      45.815  33.647  26.484  1.00  0.00    -0.206 F 
ATOM     78  C   UNL A   1      47.336  35.711  29.031  1.00  0.00     0.060 A 
BRANCH  78  79
ATOM     79  S   UNL A   1      47.876  37.415  29.286  1.00  0.00     0.124 S 
ATOM     80  O   UNL A   1      46.621  38.066  29.650  1.00  0.00    -0.237 OA
ATOM     81  O   UNL A   1      48.851  37.272  30.363  1.00  0.00    -0.237 OA
ATOM     82  O   UNL A   1      48.428  37.795  27.990  1.00  0.00    -0.744 OA
ENDBRANCH  78  79
ENDBRANCH  57  71
BRANCH  58  83
ATOM     83  C   UNL A   1      43.296  23.704  27.098  1.00  0.00     0.058 A 
ATOM     84  C   UNL A   1      43.085  22.790  28.140  1.00  0.00     0.135 A 
ATOM     85  C   UNL A   1      43.034  23.271  25.788  1.00  0.00     0.135 A 
ATOM     86  F   UNL A   1      43.325  23.153  29.410  1.00  0.00    -0.206 F 
ATOM     87  C   UNL A   1      42.655  21.488  27.895  1.00  0.00     0.059 A 
ATOM     88  C   UNL A   1      42.574  21.985  25.520  1.00  0.00     0.059 A 
ATOM     89  F   UNL A   1      43.201  24.112  24.754  1.00  0.00    -0.206 F 
ATOM     90  C   UNL A   1      42.400  21.096  26.580  1.00  0.00     0.060 A 
BRANCH  90  91
ATOM     91  S   UNL A   1      41.807  19.419  26.275  1.00  0.00     0.124 S 
ATOM     92  O   UNL A   1      42.196  18.742  27.507  1.00  0.00    -0.237 OA
ATOM     93  O   UNL A   1      40.376  19.630  26.086  1.00  0.00    -0.237 OA
ATOM     94  O   UNL A   1      42.538  19.018  25.076  1.00  0.00    -0.744 OA
ENDBRANCH  90  91
ENDBRANCH  58  83
BRANCH  70  95
ATOM     95  C   UNL A   1      49.473  26.878  26.407  1.00  0.00     0.058 A 
ATOM     96  C   UNL A   1      50.395  26.343  27.319  1.00  0.00     0.135 A 
ATOM     97  C   UNL A   1      49.835  26.905  25.049  1.00  0.00     0.135 A 
ATOM     98  F   UNL A   1      50.102  26.297  28.629  1.00  0.00    -0.206 F 
ATOM     99  C   UNL A   1      51.642  25.884  26.908  1.00  0.00     0.059 A 
ATOM    100  C   UNL A   1      51.064  26.421  24.610  1.00  0.00     0.059 A 
ATOM    101  F   UNL A   1      48.987  27.394  24.131  1.00  0.00    -0.206 F 
ATOM    102  C   UNL A   1      51.968  25.927  25.549  1.00  0.00     0.060 A 
BRANCH 102 103
ATOM    103  S   UNL A   1      53.581  25.311  25.027  1.00  0.00     0.124 S 
ATOM    104  O   UNL A   1      53.662  25.820  23.661  1.00  0.00    -0.237 OA
ATOM    105  O   UNL A   1      54.481  25.938  25.991  1.00  0.00    -0.237 OA
ATOM    106  O   UNL A   1      53.450  23.863  25.150  1.00  0.00    -0.744 OA
ENDBRANCH 102 103
ENDBRANCH  70  95
ENDBRANCH  44  45
ENDBRANCH  36  39
ENDBRANCH  34  35
ENDBRANCH  33  34
ENDBRANCH  32  33
ENDBRANCH   1  32
TORSDOF 20
ENDMDL
MODEL 3
REMARK VINA RESULT:     -11.1      2.600      9.076
REMARK SMILES CC1(C)[C@H](C(=O)NCCCCCCNC(=O)c2ccc(-c3c4nc(c(-c5c(F)cc(S(=O)(=O)[O-])cc5F)c5ccc([nH]5)c(-c5c(F)cc(S(=O)(=O)[O-])cc5F)c5nc(c(-c6c(F)cc(S(=O)(=O)[O-])cc6F)c6ccc3[nH]6)C=C5)C=C4)cc2)[C@H]1C(=O)Nc1ccccc1C(=O)Nc1nccs1
REMARK SMILES IDX 10 1 9 2 8 3 7 4 5 5 6 6 4 8 1 9 2 10 3 11 83 12 84 13 85 14
REMARK SMILES IDX 86 15 87 17 88 18 92 19 89 20 91 21 90 22 93 23 94 24 95 25
REMARK SMILES IDX 96 27 97 28 100 29 98 30 99 31 11 32 12 33 13 34 14 35 15 36
REMARK SMILES IDX 16 38 17 39 18 40 82 41 19 42 81 43 20 44 21 45 22 46 75 47
REMARK SMILES IDX 23 48 80 49 74 50 76 51 24 52 79 53 73 54 72 55 25 57 59 58
REMARK SMILES IDX 38 59 58 60 39 61 42 62 57 63 77 64 40 65 41 66 56 68 78 69
REMARK SMILES IDX 43 70 26 71 27 72 36 73 28 74 29 75 35 76 37 77 30 78 31 79
REMARK SMILES IDX 32 80 33 81 34 82 60 83 61 84 70 85 62 86 63 87 69 88 71 89
REMARK SMILES IDX 64 90 65 91 66 92 67 93 68 94 44 95 45 96 54 97 46 98 47 99
REMARK SMILES IDX 53 100 55 101 48 102 49 103 50 104 51 105 52 106
REMARK H PARENT 7 7 86 16 95 26 14 37 76 56 42 67
REMARK Flexibility Score: inf
ROOT
ATOM      1  C   UNL A   1      34.477  31.118  27.917  1.00  0.00     0.002 C 
ENDROOT
BRANCH   1   2
ATOM      2  C   UNL A   1      34.961  29.682  27.701  1.00  0.00     0.021 C 
BRANCH   2   3
ATOM      3  C   UNL A   1      34.179  28.952  26.613  1.00  0.00     0.116 C 
BRANCH   3   4
ATOM      4  N   UNL A   1      32.916  29.603  26.427  1.00  0.00    -0.356 N 
ATOM      5  C   UNL A   1      31.978  29.447  25.458  1.00  0.00     0.224 C 
ATOM      6  O   UNL A   1      31.162  30.350  25.322  1.00  0.00    -0.275 OA
ATOM      7  H   UNL A   1      32.692  30.272  27.113  1.00  0.00     0.163 HD
BRANCH   5   8
ATOM      8  C   UNL A   1      31.800  28.243  24.635  1.00  0.00     0.098 C 
ATOM      9  C   UNL A   1      30.143  26.421  24.339  1.00  0.00     0.013 C 
ATOM     10  C   UNL A   1      30.718  27.700  23.767  1.00  0.00    -0.011 C 
ATOM     11  C   UNL A   1      29.597  28.473  23.082  1.00  0.00     0.013 C 
ATOM     12  C   UNL A   1      32.106  28.042  23.164  1.00  0.00     0.098 C 
BRANCH  12  13
ATOM     13  C   UNL A   1      33.538  27.685  23.055  1.00  0.00     0.228 C 
ATOM     14  O   UNL A   1      34.343  28.617  23.012  1.00  0.00    -0.274 OA
ATOM     15  N   UNL A   1      34.050  26.431  23.087  1.00  0.00    -0.325 N 
ATOM     16  H   UNL A   1      35.034  26.403  23.098  1.00  0.00     0.169 HD
BRANCH  15  17
ATOM     17  C   UNL A   1      33.454  25.175  23.106  1.00  0.00     0.054 A 
ATOM     18  C   UNL A   1      33.010  24.778  21.830  1.00  0.00     0.027 A 
ATOM     19  C   UNL A   1      33.326  24.307  24.198  1.00  0.00     0.063 A 
ATOM     20  C   UNL A   1      32.663  23.460  21.572  1.00  0.00     0.002 A 
ATOM     21  C   UNL A   1      32.984  22.968  23.908  1.00  0.00     0.016 A 
ATOM     22  C   UNL A   1      32.699  22.540  22.606  1.00  0.00     0.001 A 
BRANCH  19  23
ATOM     23  C   UNL A   1      33.580  24.604  25.652  1.00  0.00     0.259 C 
ATOM     24  O   UNL A   1      32.905  25.485  26.197  1.00  0.00    -0.269 OA
ATOM     25  N   UNL A   1      34.453  23.923  26.455  1.00  0.00    -0.298 N 
ATOM     26  H   UNL A   1      34.249  23.932  27.418  1.00  0.00     0.172 HD
BRANCH  25  27
ATOM     27  C   UNL A   1      35.568  23.237  26.088  1.00  0.00     0.189 A 
ATOM     28  N   UNL A   1      36.762  23.684  25.800  1.00  0.00    -0.229 NA
ATOM     29  S   UNL A   1      35.320  21.551  25.962  1.00  0.00    -0.105 S 
ATOM     30  C   UNL A   1      37.529  22.627  25.346  1.00  0.00     0.125 A 
ATOM     31  C   UNL A   1      36.892  21.403  25.295  1.00  0.00     0.088 A 
ENDBRANCH  25  27
ENDBRANCH  19  23
ENDBRANCH  15  17
ENDBRANCH  12  13
ENDBRANCH   5   8
ENDBRANCH   3   4
ENDBRANCH   2   3
ENDBRANCH   1   2
BRANCH   1  32
ATOM     32  C   UNL A   1      35.584  32.168  27.795  1.00  0.00     0.002 C 
BRANCH  32  33
ATOM     33  C   UNL A   1      35.543  33.249  28.878  1.00  0.00     0.021 C 
BRANCH  33  34
ATOM     34  C   UNL A   1      36.627  33.093  29.938  1.00  0.00     0.116 C 
BRANCH  34  35
ATOM     35  N   UNL A   1      36.217  32.161  30.974  1.00  0.00    -0.352 N 
ATOM     36  C   UNL A   1      36.741  30.935  31.286  1.00  0.00     0.251 C 
ATOM     37  H   UNL A   1      35.457  32.450  31.529  1.00  0.00     0.163 HD
ATOM     38  O   UNL A   1      36.106  30.153  31.987  1.00  0.00    -0.269 OA
BRANCH  36  39
ATOM     39  C   UNL A   1      38.074  30.565  30.769  1.00  0.00     0.039 A 
ATOM     40  C   UNL A   1      39.074  30.201  31.671  1.00  0.00     0.014 A 
ATOM     41  C   UNL A   1      38.333  30.592  29.395  1.00  0.00     0.014 A 
ATOM     42  C   UNL A   1      40.328  29.828  31.188  1.00  0.00     0.010 A 
ATOM     43  C   UNL A   1      39.556  30.141  28.913  1.00  0.00     0.010 A 
ATOM     44  C   UNL A   1      40.572  29.769  29.805  1.00  0.00    -0.014 A 
BRANCH  44  45
ATOM     45  C   UNL A   1      41.890  29.338  29.278  1.00  0.00     0.031 A 
ATOM     46  C   UNL A   1      43.022  30.325  29.177  1.00  0.00     0.074 A 
ATOM     47  C   UNL A   1      42.049  28.070  28.848  1.00  0.00     0.049 A 
ATOM     48  N   UNL A   1      44.230  30.148  28.707  1.00  0.00    -0.248 NA
ATOM     49  C   UNL A   1      42.755  31.696  29.638  1.00  0.00     0.031 C 
ATOM     50  C   UNL A   1      41.008  27.040  28.851  1.00  0.00     0.029 A 
ATOM     51  N   UNL A   1      43.144  27.433  28.321  1.00  0.00    -0.354 N 
ATOM     52  C   UNL A   1      44.860  31.382  28.806  1.00  0.00     0.074 A 
ATOM     53  C   UNL A   1      43.884  32.315  29.325  1.00  0.00     0.031 C 
ATOM     54  C   UNL A   1      41.522  25.894  28.375  1.00  0.00     0.029 A 
ATOM     55  C   UNL A   1      42.913  26.117  27.997  1.00  0.00     0.049 A 
ATOM     56  H   UNL A   1      44.013  27.877  28.189  1.00  0.00     0.167 HD
ATOM     57  C   UNL A   1      46.144  31.703  28.515  1.00  0.00     0.037 A 
ATOM     58  C   UNL A   1      43.730  25.197  27.447  1.00  0.00     0.037 A 
ATOM     59  C   UNL A   1      47.113  30.761  28.020  1.00  0.00     0.049 A 
ATOM     60  C   UNL A   1      45.151  25.580  27.131  1.00  0.00     0.074 A 
ATOM     61  C   UNL A   1      48.454  30.971  27.747  1.00  0.00     0.029 A 
ATOM     62  N   UNL A   1      46.848  29.432  27.719  1.00  0.00    -0.354 N 
ATOM     63  N   UNL A   1      45.750  26.736  27.294  1.00  0.00    -0.248 NA
ATOM     64  C   UNL A   1      46.010  24.531  26.566  1.00  0.00     0.031 C 
ATOM     65  C   UNL A   1      48.985  29.785  27.230  1.00  0.00     0.029 A 
ATOM     66  C   UNL A   1      47.993  28.817  27.241  1.00  0.00     0.049 A 
ATOM     67  H   UNL A   1      45.974  28.992  27.829  1.00  0.00     0.167 HD
ATOM     68  C   UNL A   1      47.064  26.544  26.883  1.00  0.00     0.074 A 
ATOM     69  C   UNL A   1      47.175  25.158  26.477  1.00  0.00     0.031 C 
ATOM     70  C   UNL A   1      48.088  27.433  26.847  1.00  0.00     0.037 A 
BRANCH  57  71
ATOM     71  C   UNL A   1      46.577  33.129  28.727  1.00  0.00     0.058 A 
ATOM     72  C   UNL A   1      46.374  34.118  27.750  1.00  0.00     0.135 A 
ATOM     73  C   UNL A   1      47.161  33.524  29.942  1.00  0.00     0.135 A 
ATOM     74  F   UNL A   1      45.835  33.796  26.562  1.00  0.00    -0.206 F 
ATOM     75  C   UNL A   1      46.757  35.439  27.959  1.00  0.00     0.059 A 
ATOM     76  C   UNL A   1      47.523  34.846  30.185  1.00  0.00     0.059 A 
ATOM     77  F   UNL A   1      47.381  32.622  30.912  1.00  0.00    -0.206 F 
ATOM     78  C   UNL A   1      47.328  35.795  29.182  1.00  0.00     0.060 A 
BRANCH  78  79
ATOM     79  S   UNL A   1      47.802  37.517  29.443  1.00  0.00     0.124 S 
ATOM     80  O   UNL A   1      47.687  38.058  28.092  1.00  0.00    -0.237 OA
ATOM     81  O   UNL A   1      46.796  37.974  30.397  1.00  0.00    -0.237 OA
ATOM     82  O   UNL A   1      49.161  37.421  29.966  1.00  0.00    -0.744 OA
ENDBRANCH  78  79
ENDBRANCH  57  71
BRANCH  58  83
ATOM     83  C   UNL A   1      43.229  23.822  27.180  1.00  0.00     0.058 A 
ATOM     84  C   UNL A   1      43.199  22.851  28.191  1.00  0.00     0.135 A 
ATOM     85  C   UNL A   1      42.766  23.452  25.907  1.00  0.00     0.135 A 
ATOM     86  F   UNL A   1      43.634  23.153  29.424  1.00  0.00    -0.206 F 
ATOM     87  C   UNL A   1      42.751  21.556  27.948  1.00  0.00     0.059 A 
ATOM     88  C   UNL A   1      42.285  22.172  25.646  1.00  0.00     0.059 A 
ATOM     89  F   UNL A   1      42.755  24.347  24.907  1.00  0.00    -0.206 F 
ATOM     90  C   UNL A   1      42.294  21.227  26.671  1.00  0.00     0.060 A 
BRANCH  90  91
ATOM     91  S   UNL A   1      41.681  19.555  26.375  1.00  0.00     0.124 S 
ATOM     92  O   UNL A   1      42.281  19.246  25.082  1.00  0.00    -0.237 OA
ATOM     93  O   UNL A   1      42.217  18.825  27.519  1.00  0.00    -0.237 OA
ATOM     94  O   UNL A   1      40.231  19.725  26.373  1.00  0.00    -0.744 OA
ENDBRANCH  90  91
ENDBRANCH  58  83
BRANCH  70  95
ATOM     95  C   UNL A   1      49.431  26.925  26.394  1.00  0.00     0.058 A 
ATOM     96  C   UNL A   1      49.826  26.965  25.048  1.00  0.00     0.135 A 
ATOM     97  C   UNL A   1      50.351  26.427  27.332  1.00  0.00     0.135 A 
ATOM     98  F   UNL A   1      48.983  27.427  24.110  1.00  0.00    -0.206 F 
ATOM     99  C   UNL A   1      51.072  26.498  24.642  1.00  0.00     0.059 A 
ATOM    100  C   UNL A   1      51.615  25.986  26.954  1.00  0.00     0.059 A 
ATOM    101  F   UNL A   1      50.031  26.378  28.635  1.00  0.00    -0.206 F 
ATOM    102  C   UNL A   1      51.961  26.011  25.604  1.00  0.00     0.060 A 
BRANCH 102 103
ATOM    103  S   UNL A   1      53.581  25.426  25.066  1.00  0.00     0.124 S 
ATOM    104  O   UNL A   1      54.472  26.356  25.752  1.00  0.00    -0.237 OA
ATOM    105  O   UNL A   1      53.596  24.052  25.561  1.00  0.00    -0.237 OA
ATOM    106  O   UNL A   1      53.528  25.562  23.614  1.00  0.00    -0.744 OA
ENDBRANCH 102 103
ENDBRANCH  70  95
ENDBRANCH  44  45
ENDBRANCH  36  39
ENDBRANCH  34  35
ENDBRANCH  33  34
ENDBRANCH  32  33
ENDBRANCH   1  32
TORSDOF 20
ENDMDL
