MODEL 1
REMARK VINA RESULT:     -11.6      0.000      0.000
REMARK SMILES CC(C)(C)OC(=O)N[C@H](Cc1ccc(N=[N+]=[N-])cc1)C(=O)NCCCCCCNC(=O)c1ccc(-c2c3nc(c(-c4c(F)cc(S(=O)(=O)[O-])cc4F)c4ccc([nH]4)c(-c4c(F)cc(S(=O)(=O)[O-])cc4F)c4nc(c(-c5c(F)cc(S(=O)(=O)[O-])cc5F)c5ccc2[nH]5)C=C4)C=C3)cc1
REMARK SMILES IDX 25 1 24 2 23 3 22 4 20 5 21 6 9 8 8 9 6 10 7 11 5 13 2 14
REMARK SMILES IDX 1 15 3 16 4 17 10 18 11 19 12 20 19 21 13 22 18 23 14 24
REMARK SMILES IDX 15 25 16 26 17 27 26 28 27 29 28 30 29 31 30 32 31 34 32 35
REMARK SMILES IDX 33 36 97 37 34 38 96 39 35 40 36 41 37 42 90 43 38 44 95 45
REMARK SMILES IDX 89 46 91 47 39 48 94 49 88 50 87 51 40 53 74 54 53 55 73 56
REMARK SMILES IDX 54 57 57 58 72 59 92 60 55 61 56 62 71 64 93 65 58 66 41 67
REMARK SMILES IDX 42 68 51 69 43 70 44 71 50 72 52 73 45 74 46 75 47 76 48 77
REMARK SMILES IDX 49 78 75 79 76 80 85 81 77 82 78 83 84 84 86 85 79 86 80 87
REMARK SMILES IDX 81 88 82 89 83 90 59 91 60 92 69 93 61 94 62 95 68 96 70 97
REMARK SMILES IDX 63 98 64 99 65 100 66 101 67 102
REMARK H PARENT 22 7 8 12 29 33 91 52 57 63
REMARK Flexibility Score: inf
ROOT
ATOM      1  C   UNL A   1      37.535  23.476  25.869  1.00  0.00     0.002 C 
ENDROOT
BRANCH   1   2
ATOM      2  C   UNL A   1      36.472  23.697  24.795  1.00  0.00     0.021 C 
BRANCH   2   3
ATOM      3  C   UNL A   1      35.157  24.334  25.261  1.00  0.00     0.116 C 
BRANCH   3   4
ATOM      4  N   UNL A   1      34.292  24.857  24.200  1.00  0.00    -0.354 N 
ATOM      5  C   UNL A   1      33.023  24.579  23.761  1.00  0.00     0.243 C 
ATOM      6  O   UNL A   1      32.639  25.200  22.762  1.00  0.00    -0.273 OA
ATOM      7  H   UNL A   1      34.723  25.575  23.682  1.00  0.00     0.163 HD
BRANCH   5   8
ATOM      8  C   UNL A   1      32.110  23.498  24.399  1.00  0.00     0.179 C 
BRANCH   8   9
ATOM      9  N   UNL A   1      31.011  24.235  25.034  1.00  0.00    -0.309 N 
ATOM     10  C   UNL A   1      31.004  25.250  25.925  1.00  0.00     0.408 C 
ATOM     11  O   UNL A   1      29.945  25.561  26.451  1.00  0.00    -0.225 OA
ATOM     12  H   UNL A   1      30.115  23.935  24.760  1.00  0.00     0.167 HD
BRANCH  10  13
ATOM     13  O   UNL A   1      32.210  25.807  26.161  1.00  0.00    -0.444 OA
BRANCH  13  14
ATOM     14  C   UNL A   1      32.294  27.259  26.188  1.00  0.00     0.106 C 
ATOM     15  C   UNL A   1      33.798  27.567  26.209  1.00  0.00     0.056 C 
ATOM     16  C   UNL A   1      31.664  27.843  27.463  1.00  0.00     0.056 C 
ATOM     17  C   UNL A   1      31.689  27.884  24.922  1.00  0.00     0.056 C 
ENDBRANCH  13  14
ENDBRANCH  10  13
ENDBRANCH   8   9
BRANCH   8  18
ATOM     18  C   UNL A   1      32.810  22.436  25.312  1.00  0.00     0.070 C 
BRANCH  18  19
ATOM     19  C   UNL A   1      33.114  21.074  24.701  1.00  0.00    -0.045 A 
ATOM     20  C   UNL A   1      32.324  20.667  23.634  1.00  0.00     0.004 A 
ATOM     21  C   UNL A   1      34.103  20.186  25.115  1.00  0.00     0.004 A 
ATOM     22  C   UNL A   1      32.321  19.372  23.125  1.00  0.00     0.010 A 
ATOM     23  C   UNL A   1      34.166  18.885  24.561  1.00  0.00     0.010 A 
ATOM     24  C   UNL A   1      33.234  18.450  23.607  1.00  0.00     0.038 A 
BRANCH  24  25
ATOM     25  N   UNL A   1      33.103  17.112  23.204  1.00  0.00    -0.061 NA
ATOM     26  N   UNL A   1      33.570  16.290  24.001  1.00  0.00     0.005 N 
ATOM     27  N   UNL A   1      33.978  15.497  24.721  1.00  0.00    -0.003 NA
ENDBRANCH  24  25
ENDBRANCH  18  19
ENDBRANCH   8  18
ENDBRANCH   5   8
ENDBRANCH   3   4
ENDBRANCH   2   3
ENDBRANCH   1   2
BRANCH   1  28
ATOM     28  C   UNL A   1      38.281  22.155  25.705  1.00  0.00     0.002 C 
BRANCH  28  29
ATOM     29  C   UNL A   1      39.533  22.023  26.578  1.00  0.00     0.021 C 
BRANCH  29  30
ATOM     30  C   UNL A   1      40.082  23.349  27.099  1.00  0.00     0.116 C 
BRANCH  30  31
ATOM     31  N   UNL A   1      40.911  24.001  26.098  1.00  0.00    -0.352 N 
ATOM     32  C   UNL A   1      41.341  25.305  26.090  1.00  0.00     0.251 C 
ATOM     33  H   UNL A   1      41.196  23.443  25.339  1.00  0.00     0.163 HD
ATOM     34  O   UNL A   1      41.765  25.820  25.063  1.00  0.00    -0.269 OA
BRANCH  32  35
ATOM     35  C   UNL A   1      41.265  26.076  27.347  1.00  0.00     0.039 A 
ATOM     36  C   UNL A   1      42.357  26.845  27.746  1.00  0.00     0.014 A 
ATOM     37  C   UNL A   1      40.081  26.078  28.093  1.00  0.00     0.014 A 
ATOM     38  C   UNL A   1      42.240  27.669  28.866  1.00  0.00     0.010 A 
ATOM     39  C   UNL A   1      39.942  26.957  29.161  1.00  0.00     0.010 A 
ATOM     40  C   UNL A   1      41.020  27.762  29.559  1.00  0.00    -0.014 A 
BRANCH  40  41
ATOM     41  C   UNL A   1      40.849  28.716  30.685  1.00  0.00     0.031 A 
ATOM     42  C   UNL A   1      41.697  28.591  31.922  1.00  0.00     0.074 A 
ATOM     43  C   UNL A   1      39.888  29.659  30.614  1.00  0.00     0.049 A 
ATOM     44  N   UNL A   1      41.662  29.301  33.020  1.00  0.00    -0.248 NA
ATOM     45  C   UNL A   1      42.698  27.512  31.937  1.00  0.00     0.031 C 
ATOM     46  C   UNL A   1      38.970  29.846  29.487  1.00  0.00     0.029 A 
ATOM     47  N   UNL A   1      39.517  30.633  31.506  1.00  0.00    -0.354 N 
ATOM     48  C   UNL A   1      42.629  28.754  33.856  1.00  0.00     0.074 A 
ATOM     49  C   UNL A   1      43.192  27.617  33.161  1.00  0.00     0.031 C 
ATOM     50  C   UNL A   1      38.163  30.887  29.745  1.00  0.00     0.029 A 
ATOM     51  C   UNL A   1      38.472  31.413  31.070  1.00  0.00     0.049 A 
ATOM     52  H   UNL A   1      39.958  30.762  32.377  1.00  0.00     0.167 HD
ATOM     53  C   UNL A   1      43.026  29.177  35.079  1.00  0.00     0.037 A 
ATOM     54  C   UNL A   1      37.825  32.430  31.673  1.00  0.00     0.037 A 
ATOM     55  C   UNL A   1      42.464  30.317  35.758  1.00  0.00     0.049 A 
ATOM     56  C   UNL A   1      38.269  32.864  33.045  1.00  0.00     0.074 A 
ATOM     57  C   UNL A   1      42.835  30.860  36.975  1.00  0.00     0.029 A 
ATOM     58  N   UNL A   1      41.407  31.081  35.285  1.00  0.00    -0.354 N 
ATOM     59  N   UNL A   1      39.236  32.384  33.789  1.00  0.00    -0.248 NA
ATOM     60  C   UNL A   1      37.535  33.980  33.658  1.00  0.00     0.031 C 
ATOM     61  C   UNL A   1      41.963  31.914  37.267  1.00  0.00     0.029 A 
ATOM     62  C   UNL A   1      41.089  32.070  36.202  1.00  0.00     0.049 A 
ATOM     63  H   UNL A   1      40.950  30.942  34.425  1.00  0.00     0.167 HD
ATOM     64  C   UNL A   1      39.243  33.153  34.948  1.00  0.00     0.074 A 
ATOM     65  C   UNL A   1      38.196  34.144  34.795  1.00  0.00     0.031 C 
ATOM     66  C   UNL A   1      40.041  33.049  36.038  1.00  0.00     0.037 A 
BRANCH  53  67
ATOM     67  C   UNL A   1      44.120  28.404  35.767  1.00  0.00     0.058 A 
ATOM     68  C   UNL A   1      43.836  27.340  36.641  1.00  0.00     0.135 A 
ATOM     69  C   UNL A   1      45.470  28.698  35.518  1.00  0.00     0.135 A 
ATOM     70  F   UNL A   1      42.563  27.023  36.931  1.00  0.00    -0.206 F 
ATOM     71  C   UNL A   1      44.849  26.618  37.263  1.00  0.00     0.059 A 
ATOM     72  C   UNL A   1      46.500  27.967  36.103  1.00  0.00     0.059 A 
ATOM     73  F   UNL A   1      45.801  29.704  34.692  1.00  0.00    -0.206 F 
ATOM     74  C   UNL A   1      46.178  26.937  36.985  1.00  0.00     0.060 A 
BRANCH  74  75
ATOM     75  S   UNL A   1      47.480  25.980  37.792  1.00  0.00     0.124 S 
ATOM     76  O   UNL A   1      47.752  26.795  38.971  1.00  0.00    -0.237 OA
ATOM     77  O   UNL A   1      46.817  24.704  38.042  1.00  0.00    -0.237 OA
ATOM     78  O   UNL A   1      48.545  25.945  36.795  1.00  0.00    -0.744 OA
ENDBRANCH  74  75
ENDBRANCH  53  67
BRANCH  54  79
ATOM     79  C   UNL A   1      36.697  33.111  30.981  1.00  0.00     0.058 A 
ATOM     80  C   UNL A   1      35.370  32.908  31.389  1.00  0.00     0.135 A 
ATOM     81  C   UNL A   1      36.922  33.986  29.907  1.00  0.00     0.135 A 
ATOM     82  F   UNL A   1      35.100  32.075  32.405  1.00  0.00    -0.206 F 
ATOM     83  C   UNL A   1      34.306  33.534  30.746  1.00  0.00     0.059 A 
ATOM     84  C   UNL A   1      35.878  34.647  29.269  1.00  0.00     0.059 A 
ATOM     85  F   UNL A   1      38.174  34.228  29.488  1.00  0.00    -0.206 F 
ATOM     86  C   UNL A   1      34.572  34.406  29.690  1.00  0.00     0.060 A 
BRANCH  86  87
ATOM     87  S   UNL A   1      33.186  35.250  28.895  1.00  0.00     0.124 S 
ATOM     88  O   UNL A   1      33.861  36.350  28.218  1.00  0.00    -0.237 OA
ATOM     89  O   UNL A   1      32.646  34.203  28.034  1.00  0.00    -0.237 OA
ATOM     90  O   UNL A   1      32.335  35.628  30.020  1.00  0.00    -0.744 OA
ENDBRANCH  86  87
ENDBRANCH  54  79
BRANCH  66  91
ATOM     91  C   UNL A   1      39.831  34.044  37.149  1.00  0.00     0.058 A 
ATOM     92  C   UNL A   1      39.109  33.718  38.307  1.00  0.00     0.135 A 
ATOM     93  C   UNL A   1      40.402  35.326  37.071  1.00  0.00     0.135 A 
ATOM     94  F   UNL A   1      38.538  32.510  38.429  1.00  0.00    -0.206 F 
ATOM     95  C   UNL A   1      38.938  34.635  39.338  1.00  0.00     0.059 A 
ATOM     96  C   UNL A   1      40.271  36.248  38.106  1.00  0.00     0.059 A 
ATOM     97  F   UNL A   1      41.111  35.688  35.991  1.00  0.00    -0.206 F 
ATOM     98  C   UNL A   1      39.525  35.897  39.230  1.00  0.00     0.060 A 
BRANCH  98  99
ATOM     99  S   UNL A   1      39.320  37.064  40.591  1.00  0.00     0.124 S 
ATOM    100  O   UNL A   1      38.787  38.233  39.901  1.00  0.00    -0.237 OA
ATOM    101  O   UNL A   1      38.385  36.362  41.465  1.00  0.00    -0.237 OA
ATOM    102  O   UNL A   1      40.673  37.211  41.121  1.00  0.00    -0.744 OA
ENDBRANCH  98  99
ENDBRANCH  66  91
ENDBRANCH  40  41
ENDBRANCH  32  35
ENDBRANCH  30  31
ENDBRANCH  29  30
ENDBRANCH  28  29
ENDBRANCH   1  28
TORSDOF 22
ENDMDL
MODEL 2
REMARK VINA RESULT:     -11.6      6.320     11.604
REMARK SMILES CC(C)(C)OC(=O)N[C@H](Cc1ccc(N=[N+]=[N-])cc1)C(=O)NCCCCCCNC(=O)c1ccc(-c2c3nc(c(-c4c(F)cc(S(=O)(=O)[O-])cc4F)c4ccc([nH]4)c(-c4c(F)cc(S(=O)(=O)[O-])cc4F)c4nc(c(-c5c(F)cc(S(=O)(=O)[O-])cc5F)c5ccc2[nH]5)C=C4)C=C3)cc1
REMARK SMILES IDX 25 1 24 2 23 3 22 4 20 5 21 6 9 8 8 9 6 10 7 11 5 13 2 14
REMARK SMILES IDX 1 15 3 16 4 17 10 18 11 19 12 20 19 21 13 22 18 23 14 24
REMARK SMILES IDX 15 25 16 26 17 27 26 28 27 29 28 30 29 31 30 32 31 34 32 35
REMARK SMILES IDX 33 36 97 37 34 38 96 39 35 40 36 41 37 42 90 43 38 44 95 45
REMARK SMILES IDX 89 46 91 47 39 48 94 49 88 50 87 51 40 53 74 54 53 55 73 56
REMARK SMILES IDX 54 57 57 58 72 59 92 60 55 61 56 62 71 64 93 65 58 66 41 67
REMARK SMILES IDX 42 68 51 69 43 70 44 71 50 72 52 73 45 74 46 75 47 76 48 77
REMARK SMILES IDX 49 78 75 79 76 80 85 81 77 82 78 83 84 84 86 85 79 86 80 87
REMARK SMILES IDX 81 88 82 89 83 90 59 91 60 92 69 93 61 94 62 95 68 96 70 97
REMARK SMILES IDX 63 98 64 99 65 100 66 101 67 102
REMARK H PARENT 22 7 8 12 29 33 91 52 57 63
REMARK Flexibility Score: inf
ROOT
ATOM      1  C   UNL A   1      32.033  29.708  26.723  1.00  0.00     0.002 C 
ENDROOT
BRANCH   1   2
ATOM      2  C   UNL A   1      31.455  29.932  25.326  1.00  0.00     0.021 C 
BRANCH   2   3
ATOM      3  C   UNL A   1      32.302  29.429  24.151  1.00  0.00     0.116 C 
BRANCH   3   4
ATOM      4  N   UNL A   1      31.583  28.666  23.129  1.00  0.00    -0.354 N 
ATOM      5  C   UNL A   1      31.462  27.335  22.820  1.00  0.00     0.243 C 
ATOM      6  O   UNL A   1      30.801  27.062  21.810  1.00  0.00    -0.273 OA
ATOM      7  H   UNL A   1      31.065  29.244  22.521  1.00  0.00     0.163 HD
BRANCH   5   8
ATOM      8  C   UNL A   1      32.163  26.202  23.615  1.00  0.00     0.179 C 
BRANCH   8   9
ATOM      9  N   UNL A   1      31.738  26.376  25.009  1.00  0.00    -0.309 N 
ATOM     10  C   UNL A   1      30.972  25.614  25.819  1.00  0.00     0.408 C 
ATOM     11  O   UNL A   1      30.603  26.082  26.887  1.00  0.00    -0.225 OA
ATOM     12  H   UNL A   1      32.073  27.200  25.430  1.00  0.00     0.167 HD
BRANCH  10  13
ATOM     13  O   UNL A   1      30.669  24.394  25.331  1.00  0.00    -0.444 OA
BRANCH  13  14
ATOM     14  C   UNL A   1      31.070  23.232  26.109  1.00  0.00     0.106 C 
ATOM     15  C   UNL A   1      29.826  22.852  26.924  1.00  0.00     0.056 C 
ATOM     16  C   UNL A   1      32.205  23.567  27.091  1.00  0.00     0.056 C 
ATOM     17  C   UNL A   1      31.440  22.046  25.206  1.00  0.00     0.056 C 
ENDBRANCH  13  14
ENDBRANCH  10  13
ENDBRANCH   8   9
BRANCH   8  18
ATOM     18  C   UNL A   1      33.708  26.049  23.409  1.00  0.00     0.070 C 
BRANCH  18  19
ATOM     19  C   UNL A   1      34.374  24.805  23.982  1.00  0.00    -0.045 A 
ATOM     20  C   UNL A   1      34.319  23.646  23.217  1.00  0.00     0.004 A 
ATOM     21  C   UNL A   1      35.025  24.708  25.208  1.00  0.00     0.004 A 
ATOM     22  C   UNL A   1      34.668  22.388  23.697  1.00  0.00     0.010 A 
ATOM     23  C   UNL A   1      35.454  23.447  25.687  1.00  0.00     0.010 A 
ATOM     24  C   UNL A   1      35.221  22.270  24.959  1.00  0.00     0.038 A 
BRANCH  24  25
ATOM     25  N   UNL A   1      35.407  20.983  25.487  1.00  0.00    -0.061 NA
ATOM     26  N   UNL A   1      36.445  20.423  25.116  1.00  0.00     0.005 N 
ATOM     27  N   UNL A   1      37.404  19.876  24.805  1.00  0.00    -0.003 NA
ENDBRANCH  24  25
ENDBRANCH  18  19
ENDBRANCH   8  18
ENDBRANCH   5   8
ENDBRANCH   3   4
ENDBRANCH   2   3
ENDBRANCH   1   2
BRANCH   1  28
ATOM     28  C   UNL A   1      33.556  29.619  26.728  1.00  0.00     0.002 C 
BRANCH  28  29
ATOM     29  C   UNL A   1      34.248  30.683  27.587  1.00  0.00     0.021 C 
BRANCH  29  30
ATOM     30  C   UNL A   1      35.366  30.147  28.478  1.00  0.00     0.116 C 
BRANCH  30  31
ATOM     31  N   UNL A   1      35.528  30.971  29.665  1.00  0.00    -0.352 N 
ATOM     32  C   UNL A   1      36.587  30.977  30.540  1.00  0.00     0.251 C 
ATOM     33  H   UNL A   1      34.795  31.596  29.865  1.00  0.00     0.163 HD
ATOM     34  O   UNL A   1      36.479  31.476  31.653  1.00  0.00    -0.269 OA
BRANCH  32  35
ATOM     35  C   UNL A   1      37.854  30.351  30.111  1.00  0.00     0.039 A 
ATOM     36  C   UNL A   1      38.160  30.288  28.753  1.00  0.00     0.014 A 
ATOM     37  C   UNL A   1      38.760  29.884  31.069  1.00  0.00     0.014 A 
ATOM     38  C   UNL A   1      39.410  29.810  28.356  1.00  0.00     0.010 A 
ATOM     39  C   UNL A   1      40.032  29.482  30.676  1.00  0.00     0.010 A 
ATOM     40  C   UNL A   1      40.370  29.440  29.315  1.00  0.00    -0.014 A 
BRANCH  40  41
ATOM     41  C   UNL A   1      41.741  29.035  28.910  1.00  0.00     0.031 A 
ATOM     42  C   UNL A   1      42.853  30.048  28.876  1.00  0.00     0.074 A 
ATOM     43  C   UNL A   1      41.968  27.765  28.518  1.00  0.00     0.049 A 
ATOM     44  N   UNL A   1      44.098  29.892  28.509  1.00  0.00    -0.248 NA
ATOM     45  C   UNL A   1      42.515  31.422  29.283  1.00  0.00     0.031 C 
ATOM     46  C   UNL A   1      40.957  26.706  28.462  1.00  0.00     0.029 A 
ATOM     47  N   UNL A   1      43.116  27.150  28.088  1.00  0.00    -0.354 N 
ATOM     48  C   UNL A   1      44.691  31.144  28.637  1.00  0.00     0.074 A 
ATOM     49  C   UNL A   1      43.653  32.060  29.058  1.00  0.00     0.031 C 
ATOM     50  C   UNL A   1      41.536  25.567  28.048  1.00  0.00     0.029 A 
ATOM     51  C   UNL A   1      42.945  25.823  27.767  1.00  0.00     0.049 A 
ATOM     52  H   UNL A   1      43.981  27.614  28.015  1.00  0.00     0.167 HD
ATOM     53  C   UNL A   1      45.986  31.490  28.444  1.00  0.00     0.037 A 
ATOM     54  C   UNL A   1      43.820  24.917  27.289  1.00  0.00     0.037 A 
ATOM     55  C   UNL A   1      47.012  30.566  28.033  1.00  0.00     0.049 A 
ATOM     56  C   UNL A   1      45.248  25.333  27.057  1.00  0.00     0.074 A 
ATOM     57  C   UNL A   1      48.364  30.806  27.863  1.00  0.00     0.029 A 
ATOM     58  N   UNL A   1      46.801  29.232  27.717  1.00  0.00    -0.354 N 
ATOM     59  N   UNL A   1      45.808  26.503  27.256  1.00  0.00    -0.248 NA
ATOM     60  C   UNL A   1      46.163  24.307  26.540  1.00  0.00     0.031 C 
ATOM     61  C   UNL A   1      48.960  29.634  27.385  1.00  0.00     0.029 A 
ATOM     62  C   UNL A   1      47.991  28.644  27.320  1.00  0.00     0.049 A 
ATOM     63  H   UNL A   1      45.933  28.771  27.768  1.00  0.00     0.167 HD
ATOM     64  C   UNL A   1      47.146  26.347  26.910  1.00  0.00     0.074 A 
ATOM     65  C   UNL A   1      47.314  24.965  26.510  1.00  0.00     0.031 C 
ATOM     66  C   UNL A   1      48.144  27.265  26.921  1.00  0.00     0.037 A 
BRANCH  53  67
ATOM     67  C   UNL A   1      46.368  32.928  28.671  1.00  0.00     0.058 A 
ATOM     68  C   UNL A   1      46.322  33.878  27.636  1.00  0.00     0.135 A 
ATOM     69  C   UNL A   1      46.742  33.376  29.948  1.00  0.00     0.135 A 
ATOM     70  F   UNL A   1      45.986  33.506  26.390  1.00  0.00    -0.206 F 
ATOM     71  C   UNL A   1      46.661  35.210  27.853  1.00  0.00     0.059 A 
ATOM     72  C   UNL A   1      47.054  34.710  30.195  1.00  0.00     0.059 A 
ATOM     73  F   UNL A   1      46.805  32.513  30.975  1.00  0.00    -0.206 F 
ATOM     74  C   UNL A   1      47.022  35.617  29.138  1.00  0.00     0.060 A 
BRANCH  74  75
ATOM     75  S   UNL A   1      47.447  37.351  29.403  1.00  0.00     0.124 S 
ATOM     76  O   UNL A   1      48.905  37.298  29.400  1.00  0.00    -0.237 OA
ATOM     77  O   UNL A   1      46.835  38.001  28.248  1.00  0.00    -0.237 OA
ATOM     78  O   UNL A   1      46.834  37.660  30.691  1.00  0.00    -0.744 OA
ENDBRANCH  74  75
ENDBRANCH  53  67
BRANCH  54  79
ATOM     79  C   UNL A   1      43.372  23.526  27.006  1.00  0.00     0.058 A 
ATOM     80  C   UNL A   1      43.156  23.089  25.690  1.00  0.00     0.135 A 
ATOM     81  C   UNL A   1      43.161  22.602  28.042  1.00  0.00     0.135 A 
ATOM     82  F   UNL A   1      43.336  23.934  24.664  1.00  0.00    -0.206 F 
ATOM     83  C   UNL A   1      42.731  21.793  25.412  1.00  0.00     0.059 A 
ATOM     84  C   UNL A   1      42.767  21.293  27.788  1.00  0.00     0.059 A 
ATOM     85  F   UNL A   1      43.369  22.963  29.318  1.00  0.00    -0.206 F 
ATOM     86  C   UNL A   1      42.544  20.901  26.469  1.00  0.00     0.060 A 
BRANCH  86  87
ATOM     87  S   UNL A   1      42.040  19.208  26.092  1.00  0.00     0.124 S 
ATOM     88  O   UNL A   1      40.605  19.367  25.889  1.00  0.00    -0.237 OA
ATOM     89  O   UNL A   1      42.827  18.914  24.898  1.00  0.00    -0.237 OA
ATOM     90  O   UNL A   1      42.431  18.468  27.289  1.00  0.00    -0.744 OA
ENDBRANCH  86  87
ENDBRANCH  54  79
BRANCH  66  91
ATOM     91  C   UNL A   1      49.516  26.802  26.508  1.00  0.00     0.058 A 
ATOM     92  C   UNL A   1      50.347  26.083  27.381  1.00  0.00     0.135 A 
ATOM     93  C   UNL A   1      49.984  27.042  25.205  1.00  0.00     0.135 A 
ATOM     94  F   UNL A   1      49.951  25.834  28.639  1.00  0.00    -0.206 F 
ATOM     95  C   UNL A   1      51.605  25.640  26.986  1.00  0.00     0.059 A 
ATOM     96  C   UNL A   1      51.225  26.578  24.778  1.00  0.00     0.059 A 
ATOM     97  F   UNL A   1      49.227  27.715  24.326  1.00  0.00    -0.206 F 
ATOM     98  C   UNL A   1      52.034  25.889  25.680  1.00  0.00     0.060 A 
BRANCH  98  99
ATOM     99  S   UNL A   1      53.655  25.279  25.174  1.00  0.00     0.124 S 
ATOM    100  O   UNL A   1      53.631  25.536  23.738  1.00  0.00    -0.237 OA
ATOM    101  O   UNL A   1      54.561  26.117  25.954  1.00  0.00    -0.237 OA
ATOM    102  O   UNL A   1      53.625  23.871  25.560  1.00  0.00    -0.744 OA
ENDBRANCH  98  99
ENDBRANCH  66  91
ENDBRANCH  40  41
ENDBRANCH  32  35
ENDBRANCH  30  31
ENDBRANCH  29  30
ENDBRANCH  28  29
ENDBRANCH   1  28
TORSDOF 22
ENDMDL
MODEL 3
REMARK VINA RESULT:     -11.3      2.939      9.256
REMARK SMILES CC(C)(C)OC(=O)N[C@H](Cc1ccc(N=[N+]=[N-])cc1)C(=O)NCCCCCCNC(=O)c1ccc(-c2c3nc(c(-c4c(F)cc(S(=O)(=O)[O-])cc4F)c4ccc([nH]4)c(-c4c(F)cc(S(=O)(=O)[O-])cc4F)c4nc(c(-c5c(F)cc(S(=O)(=O)[O-])cc5F)c5ccc2[nH]5)C=C4)C=C3)cc1
REMARK SMILES IDX 25 1 24 2 23 3 22 4 20 5 21 6 9 8 8 9 6 10 7 11 5 13 2 14
REMARK SMILES IDX 1 15 3 16 4 17 10 18 11 19 12 20 19 21 13 22 18 23 14 24
REMARK SMILES IDX 15 25 16 26 17 27 26 28 27 29 28 30 29 31 30 32 31 34 32 35
REMARK SMILES IDX 33 36 97 37 34 38 96 39 35 40 36 41 37 42 90 43 38 44 95 45
REMARK SMILES IDX 89 46 91 47 39 48 94 49 88 50 87 51 40 53 74 54 53 55 73 56
REMARK SMILES IDX 54 57 57 58 72 59 92 60 55 61 56 62 71 64 93 65 58 66 41 67
REMARK SMILES IDX 42 68 51 69 43 70 44 71 50 72 52 73 45 74 46 75 47 76 48 77
REMARK SMILES IDX 49 78 75 79 76 80 85 81 77 82 78 83 84 84 86 85 79 86 80 87
REMARK SMILES IDX 81 88 82 89 83 90 59 91 60 92 69 93 61 94 62 95 68 96 70 97
REMARK SMILES IDX 63 98 64 99 65 100 66 101 67 102
REMARK H PARENT 22 7 8 12 29 33 91 52 57 63
REMARK Flexibility Score: inf
ROOT
ATOM      1  C   UNL A   1      33.716  28.749  25.816  1.00  0.00     0.002 C 
ENDROOT
BRANCH   1   2
ATOM      2  C   UNL A   1      33.962  27.981  24.518  1.00  0.00     0.021 C 
BRANCH   2   3
ATOM      3  C   UNL A   1      33.614  28.715  23.217  1.00  0.00     0.116 C 
BRANCH   3   4
ATOM      4  N   UNL A   1      32.831  27.950  22.245  1.00  0.00    -0.354 N 
ATOM      5  C   UNL A   1      31.961  26.892  22.320  1.00  0.00     0.243 C 
ATOM      6  O   UNL A   1      31.531  26.457  21.245  1.00  0.00    -0.273 OA
ATOM      7  H   UNL A   1      32.959  28.270  21.322  1.00  0.00     0.163 HD
BRANCH   5   8
ATOM      8  C   UNL A   1      31.569  26.194  23.649  1.00  0.00     0.179 C 
BRANCH   8   9
ATOM      9  N   UNL A   1      31.212  24.818  23.282  1.00  0.00    -0.309 N 
ATOM     10  C   UNL A   1      31.710  23.625  23.671  1.00  0.00     0.408 C 
ATOM     11  O   UNL A   1      31.364  22.620  23.065  1.00  0.00    -0.225 OA
ATOM     12  H   UNL A   1      30.474  24.754  22.635  1.00  0.00     0.167 HD
BRANCH  10  13
ATOM     13  O   UNL A   1      32.580  23.680  24.700  1.00  0.00    -0.444 OA
BRANCH  13  14
ATOM     14  C   UNL A   1      33.981  23.406  24.421  1.00  0.00     0.106 C 
ATOM     15  C   UNL A   1      34.760  24.220  25.463  1.00  0.00     0.056 C 
ATOM     16  C   UNL A   1      34.391  23.895  23.022  1.00  0.00     0.056 C 
ATOM     17  C   UNL A   1      34.316  21.919  24.618  1.00  0.00     0.056 C 
ENDBRANCH  13  14
ENDBRANCH  10  13
ENDBRANCH   8   9
BRANCH   8  18
ATOM     18  C   UNL A   1      30.521  26.932  24.549  1.00  0.00     0.070 C 
BRANCH  18  19
ATOM     19  C   UNL A   1      29.660  28.002  23.892  1.00  0.00    -0.045 A 
ATOM     20  C   UNL A   1      30.129  29.309  23.934  1.00  0.00     0.004 A 
ATOM     21  C   UNL A   1      28.436  27.803  23.259  1.00  0.00     0.004 A 
ATOM     22  C   UNL A   1      29.360  30.416  23.592  1.00  0.00     0.010 A 
ATOM     23  C   UNL A   1      27.666  28.913  22.837  1.00  0.00     0.010 A 
ATOM     24  C   UNL A   1      28.097  30.229  23.058  1.00  0.00     0.038 A 
BRANCH  24  25
ATOM     25  N   UNL A   1      27.278  31.354  22.879  1.00  0.00    -0.061 NA
ATOM     26  N   UNL A   1      27.891  32.409  22.679  1.00  0.00     0.005 N 
ATOM     27  N   UNL A   1      28.424  33.404  22.478  1.00  0.00    -0.003 NA
ENDBRANCH  24  25
ENDBRANCH  18  19
ENDBRANCH   8  18
ENDBRANCH   5   8
ENDBRANCH   3   4
ENDBRANCH   2   3
ENDBRANCH   1   2
BRANCH   1  28
ATOM     28  C   UNL A   1      32.845  29.986  25.619  1.00  0.00     0.002 C 
BRANCH  28  29
ATOM     29  C   UNL A   1      32.485  30.718  26.916  1.00  0.00     0.021 C 
BRANCH  29  30
ATOM     30  C   UNL A   1      33.606  31.584  27.486  1.00  0.00     0.116 C 
BRANCH  30  31
ATOM     31  N   UNL A   1      33.166  32.959  27.662  1.00  0.00    -0.352 N 
ATOM     32  C   UNL A   1      33.518  33.826  28.667  1.00  0.00     0.251 C 
ATOM     33  H   UNL A   1      32.545  33.307  26.983  1.00  0.00     0.163 HD
ATOM     34  O   UNL A   1      32.859  34.836  28.885  1.00  0.00    -0.269 OA
BRANCH  32  35
ATOM     35  C   UNL A   1      34.702  33.504  29.489  1.00  0.00     0.039 A 
ATOM     36  C   UNL A   1      34.559  32.671  30.598  1.00  0.00     0.014 A 
ATOM     37  C   UNL A   1      35.962  33.982  29.113  1.00  0.00     0.014 A 
ATOM     38  C   UNL A   1      35.696  32.267  31.299  1.00  0.00     0.010 A 
ATOM     39  C   UNL A   1      37.098  33.516  29.766  1.00  0.00     0.010 A 
ATOM     40  C   UNL A   1      36.977  32.654  30.866  1.00  0.00    -0.014 A 
BRANCH  40  41
ATOM     41  C   UNL A   1      38.200  32.142  31.537  1.00  0.00     0.031 A 
ATOM     42  C   UNL A   1      38.629  32.705  32.865  1.00  0.00     0.074 A 
ATOM     43  C   UNL A   1      38.954  31.211  30.919  1.00  0.00     0.049 A 
ATOM     44  N   UNL A   1      39.686  32.416  33.579  1.00  0.00    -0.248 NA
ATOM     45  C   UNL A   1      37.772  33.745  33.456  1.00  0.00     0.031 C 
ATOM     46  C   UNL A   1      38.666  30.626  29.607  1.00  0.00     0.029 A 
ATOM     47  N   UNL A   1      40.118  30.596  31.307  1.00  0.00    -0.354 N 
ATOM     48  C   UNL A   1      39.624  33.239  34.699  1.00  0.00     0.074 A 
ATOM     49  C   UNL A   1      38.457  34.079  34.539  1.00  0.00     0.031 C 
ATOM     50  C   UNL A   1      39.612  29.720  29.312  1.00  0.00     0.029 A 
ATOM     51  C   UNL A   1      40.595  29.690  30.389  1.00  0.00     0.049 A 
ATOM     52  H   UNL A   1      40.568  30.785  32.161  1.00  0.00     0.167 HD
ATOM     53  C   UNL A   1      40.451  33.272  35.771  1.00  0.00     0.037 A 
ATOM     54  C   UNL A   1      41.707  28.929  30.405  1.00  0.00     0.037 A 
ATOM     55  C   UNL A   1      41.605  32.424  35.922  1.00  0.00     0.049 A 
ATOM     56  C   UNL A   1      42.625  29.003  31.597  1.00  0.00     0.074 A 
ATOM     57  C   UNL A   1      42.475  32.341  36.995  1.00  0.00     0.029 A 
ATOM     58  N   UNL A   1      42.057  31.519  34.972  1.00  0.00    -0.354 N 
ATOM     59  N   UNL A   1      42.510  29.733  32.681  1.00  0.00    -0.248 NA
ATOM     60  C   UNL A   1      43.821  28.151  31.569  1.00  0.00     0.031 C 
ATOM     61  C   UNL A   1      43.487  31.434  36.669  1.00  0.00     0.029 A 
ATOM     62  C   UNL A   1      43.213  30.900  35.419  1.00  0.00     0.049 A 
ATOM     63  H   UNL A   1      41.621  31.344  34.107  1.00  0.00     0.167 HD
ATOM     64  C   UNL A   1      43.605  29.410  33.475  1.00  0.00     0.074 A 
ATOM     65  C   UNL A   1      44.359  28.404  32.754  1.00  0.00     0.031 C 
ATOM     66  C   UNL A   1      43.956  29.901  34.689  1.00  0.00     0.037 A 
BRANCH  53  67
ATOM     67  C   UNL A   1      40.141  34.260  36.864  1.00  0.00     0.058 A 
ATOM     68  C   UNL A   1      40.614  35.583  36.821  1.00  0.00     0.135 A 
ATOM     69  C   UNL A   1      39.324  33.896  37.947  1.00  0.00     0.135 A 
ATOM     70  F   UNL A   1      41.411  35.985  35.819  1.00  0.00    -0.206 F 
ATOM     71  C   UNL A   1      40.312  36.497  37.826  1.00  0.00     0.059 A 
ATOM     72  C   UNL A   1      38.983  34.803  38.946  1.00  0.00     0.059 A 
ATOM     73  F   UNL A   1      38.845  32.645  38.040  1.00  0.00    -0.206 F 
ATOM     74  C   UNL A   1      39.493  36.098  38.882  1.00  0.00     0.060 A 
BRANCH  74  75
ATOM     75  S   UNL A   1      39.103  37.302  40.170  1.00  0.00     0.124 S 
ATOM     76  O   UNL A   1      38.331  38.289  39.421  1.00  0.00    -0.237 OA
ATOM     77  O   UNL A   1      38.347  36.500  41.126  1.00  0.00    -0.237 OA
ATOM     78  O   UNL A   1      40.414  37.749  40.628  1.00  0.00    -0.744 OA
ENDBRANCH  74  75
ENDBRANCH  53  67
BRANCH  54  79
ATOM     79  C   UNL A   1      42.009  28.026  29.261  1.00  0.00     0.058 A 
ATOM     80  C   UNL A   1      41.272  26.851  29.053  1.00  0.00     0.135 A 
ATOM     81  C   UNL A   1      43.033  28.324  28.347  1.00  0.00     0.135 A 
ATOM     82  F   UNL A   1      40.288  26.516  29.901  1.00  0.00    -0.206 F 
ATOM     83  C   UNL A   1      41.548  25.995  27.991  1.00  0.00     0.059 A 
ATOM     84  C   UNL A   1      43.308  27.500  27.261  1.00  0.00     0.059 A 
ATOM     85  F   UNL A   1      43.758  29.444  28.492  1.00  0.00    -0.206 F 
ATOM     86  C   UNL A   1      42.566  26.332  27.097  1.00  0.00     0.060 A 
BRANCH  86  87
ATOM     87  S   UNL A   1      42.884  25.238  25.694  1.00  0.00     0.124 S 
ATOM     88  O   UNL A   1      44.324  25.042  25.795  1.00  0.00    -0.237 OA
ATOM     89  O   UNL A   1      42.055  24.081  26.018  1.00  0.00    -0.237 OA
ATOM     90  O   UNL A   1      42.431  26.023  24.549  1.00  0.00    -0.744 OA
ENDBRANCH  86  87
ENDBRANCH  54  79
BRANCH  66  91
ATOM     91  C   UNL A   1      45.200  29.345  35.328  1.00  0.00     0.058 A 
ATOM     92  C   UNL A   1      45.172  28.181  36.112  1.00  0.00     0.135 A 
ATOM     93  C   UNL A   1      46.445  29.960  35.115  1.00  0.00     0.135 A 
ATOM     94  F   UNL A   1      44.007  27.558  36.353  1.00  0.00    -0.206 F 
ATOM     95  C   UNL A   1      46.328  27.661  36.682  1.00  0.00     0.059 A 
ATOM     96  C   UNL A   1      47.620  29.437  35.647  1.00  0.00     0.059 A 
ATOM     97  F   UNL A   1      46.533  31.070  34.366  1.00  0.00    -0.206 F 
ATOM     98  C   UNL A   1      47.549  28.294  36.441  1.00  0.00     0.060 A 
BRANCH  98  99
ATOM     99  S   UNL A   1      49.045  27.587  37.161  1.00  0.00     0.124 S 
ATOM    100  O   UNL A   1      49.577  28.721  37.908  1.00  0.00    -0.237 OA
ATOM    101  O   UNL A   1      48.515  26.490  37.966  1.00  0.00    -0.237 OA
ATOM    102  O   UNL A   1      49.826  27.180  35.997  1.00  0.00    -0.744 OA
ENDBRANCH  98  99
ENDBRANCH  66  91
ENDBRANCH  40  41
ENDBRANCH  32  35
ENDBRANCH  30  31
ENDBRANCH  29  30
ENDBRANCH  28  29
ENDBRANCH   1  28
TORSDOF 22
ENDMDL
