MODEL 1
REMARK VINA RESULT:     -12.5      0.000      0.000
REMARK SMILES CC[NH+]1CCC2(CC1)OC[C@@H](C(=O)NCCCCCCNC(=O)c1ccc(-c3c4nc(c(-c5c(F)cc(S(=O)(=O)[O-])cc5F)c5ccc([nH]5)c(-c5c(F)cc(S(=O)(=O)[O-])cc5F)c5nc(c(-c6c(F)cc(S(=O)(=O)[O-])cc6F)c6ccc3[nH]6)C=C5)C=C4)cc1)N2C(=O)c1ccc(Cl)c([N+](=O)[O-])c1
REMARK SMILES IDX 17 1 16 2 15 3 14 4 12 5 13 6 11 8 3 9 4 10 8 11 5 13 7 14
REMARK SMILES IDX 6 15 9 16 90 17 10 18 2 19 1 20 91 21 92 22 93 23 94 24
REMARK SMILES IDX 102 25 95 26 98 27 96 28 97 29 99 30 100 31 101 32 18 33
REMARK SMILES IDX 19 34 20 35 21 36 22 37 23 39 24 40 25 41 89 42 26 43 88 44
REMARK SMILES IDX 27 45 28 46 29 47 82 48 30 49 87 50 81 51 83 52 31 53 86 54
REMARK SMILES IDX 80 55 79 56 32 58 66 59 45 60 65 61 46 62 49 63 64 64 84 65
REMARK SMILES IDX 47 66 48 67 63 69 85 70 50 71 33 72 34 73 43 74 35 75 36 76
REMARK SMILES IDX 42 77 44 78 37 79 38 80 39 81 40 82 41 83 67 84 68 85 77 86
REMARK SMILES IDX 69 87 70 88 76 89 78 90 71 91 72 92 73 93 74 94 75 95 51 96
REMARK SMILES IDX 52 97 61 98 53 99 54 100 60 101 62 102 55 103 56 104 57 105
REMARK SMILES IDX 58 106 59 107
REMARK H PARENT 14 7 3 12 21 38 83 57 49 68
REMARK Flexibility Score: inf
ROOT
ATOM      1  C   UNL A   1      38.332  21.604  25.678  1.00  0.00     0.002 C 
ENDROOT
BRANCH   1   2
ATOM      2  C   UNL A   1      37.454  20.470  25.143  1.00  0.00     0.021 C 
BRANCH   2   3
ATOM      3  C   UNL A   1      35.969  20.803  25.068  1.00  0.00     0.116 C 
BRANCH   3   4
ATOM      4  N   UNL A   1      35.527  21.430  26.291  1.00  0.00    -0.354 N 
ATOM      5  C   UNL A   1      34.903  22.622  26.486  1.00  0.00     0.245 C 
ATOM      6  O   UNL A   1      34.538  22.878  27.642  1.00  0.00    -0.273 OA
ATOM      7  H   UNL A   1      35.704  20.914  27.110  1.00  0.00     0.163 HD
BRANCH   5   8
ATOM      8  C   UNL A   1      34.416  23.497  25.317  1.00  0.00     0.203 C 
ATOM      9  N   UNL A   1      30.765  26.441  23.226  1.00  0.00    -0.335 N 
ATOM     10  C   UNL A   1      31.754  25.585  22.589  1.00  0.00     0.267 C 
ATOM     11  C   UNL A   1      30.763  26.543  24.677  1.00  0.00     0.267 C 
ATOM     12  H   UNL A   1      29.923  25.880  23.094  1.00  0.00     0.348 HD
ATOM     13  C   UNL A   1      33.116  25.577  23.248  1.00  0.00     0.120 C 
ATOM     14  C   UNL A   1      32.096  26.398  25.387  1.00  0.00     0.120 C 
ATOM     15  C   UNL A   1      33.063  25.391  24.773  1.00  0.00     0.155 C 
ATOM     16  O   UNL A   1      34.361  25.862  25.234  1.00  0.00    -0.352 OA
ATOM     17  N   UNL A   1      33.037  23.983  25.228  1.00  0.00    -0.295 N 
ATOM     18  C   UNL A   1      35.260  24.759  25.347  1.00  0.00     0.198 C 
BRANCH   9  19
ATOM     19  C   UNL A   1      30.526  27.700  22.526  1.00  0.00     0.258 C 
ATOM     20  C   UNL A   1      29.285  28.353  23.119  1.00  0.00     0.071 C 
ENDBRANCH   9  19
BRANCH  17  21
ATOM     21  C   UNL A   1      32.057  22.995  25.247  1.00  0.00     0.257 C 
ATOM     22  O   UNL A   1      31.046  23.082  25.946  1.00  0.00    -0.269 OA
BRANCH  21  23
ATOM     23  C   UNL A   1      32.113  21.788  24.409  1.00  0.00     0.047 A 
ATOM     24  C   UNL A   1      31.900  21.852  23.031  1.00  0.00     0.016 A 
ATOM     25  C   UNL A   1      32.254  20.542  25.020  1.00  0.00     0.101 A 
ATOM     26  C   UNL A   1      31.974  20.684  22.261  1.00  0.00     0.028 A 
ATOM     27  C   UNL A   1      32.448  19.383  24.240  1.00  0.00     0.288 A 
ATOM     28  C   UNL A   1      32.295  19.449  22.848  1.00  0.00     0.118 A 
ATOM     29  Cl  UNL A   1      32.449  18.125  21.750  1.00  0.00    -0.077 Cl
BRANCH  27  30
ATOM     30  N   UNL A   1      32.901  18.176  24.949  1.00  0.00     0.064 N 
ATOM     31  O   UNL A   1      33.854  17.529  24.504  1.00  0.00    -0.258 OA
ATOM     32  O   UNL A   1      32.308  17.885  26.000  1.00  0.00    -0.258 OA
ENDBRANCH  27  30
ENDBRANCH  21  23
ENDBRANCH  17  21
ENDBRANCH   5   8
ENDBRANCH   3   4
ENDBRANCH   2   3
ENDBRANCH   1   2
BRANCH   1  33
ATOM     33  C   UNL A   1      39.739  21.186  26.106  1.00  0.00     0.002 C 
BRANCH  33  34
ATOM     34  C   UNL A   1      40.404  22.107  27.130  1.00  0.00     0.021 C 
BRANCH  34  35
ATOM     35  C   UNL A   1      39.898  23.546  27.113  1.00  0.00     0.116 C 
BRANCH  35  36
ATOM     36  N   UNL A   1      40.550  24.343  26.087  1.00  0.00    -0.352 N 
ATOM     37  C   UNL A   1      40.942  25.660  26.130  1.00  0.00     0.251 C 
ATOM     38  H   UNL A   1      40.738  23.873  25.241  1.00  0.00     0.163 HD
ATOM     39  O   UNL A   1      41.294  26.232  25.110  1.00  0.00    -0.269 OA
BRANCH  37  40
ATOM     40  C   UNL A   1      40.910  26.379  27.421  1.00  0.00     0.039 A 
ATOM     41  C   UNL A   1      41.884  27.343  27.684  1.00  0.00     0.014 A 
ATOM     42  C   UNL A   1      39.905  26.113  28.356  1.00  0.00     0.014 A 
ATOM     43  C   UNL A   1      41.808  28.095  28.858  1.00  0.00     0.010 A 
ATOM     44  C   UNL A   1      39.790  26.912  29.490  1.00  0.00     0.010 A 
ATOM     45  C   UNL A   1      40.738  27.914  29.750  1.00  0.00    -0.014 A 
BRANCH  45  46
ATOM     46  C   UNL A   1      40.575  28.775  30.950  1.00  0.00     0.031 A 
ATOM     47  C   UNL A   1      39.541  29.867  30.961  1.00  0.00     0.074 A 
ATOM     48  C   UNL A   1      41.411  28.622  31.996  1.00  0.00     0.049 A 
ATOM     49  N   UNL A   1      39.317  30.781  31.869  1.00  0.00    -0.248 NA
ATOM     50  C   UNL A   1      38.662  29.961  29.784  1.00  0.00     0.031 C 
ATOM     51  C   UNL A   1      42.480  27.624  32.085  1.00  0.00     0.029 A 
ATOM     52  N   UNL A   1      41.508  29.314  33.178  1.00  0.00    -0.354 N 
ATOM     53  C   UNL A   1      38.282  31.564  31.371  1.00  0.00     0.074 A 
ATOM     54  C   UNL A   1      37.958  31.049  30.058  1.00  0.00     0.031 C 
ATOM     55  C   UNL A   1      43.111  27.758  33.262  1.00  0.00     0.029 A 
ATOM     56  C   UNL A   1      42.527  28.879  33.992  1.00  0.00     0.049 A 
ATOM     57  H   UNL A   1      40.903  30.052  33.419  1.00  0.00     0.167 HD
ATOM     58  C   UNL A   1      37.646  32.603  31.964  1.00  0.00     0.037 A 
ATOM     59  C   UNL A   1      42.956  29.341  35.183  1.00  0.00     0.037 A 
ATOM     60  C   UNL A   1      37.964  33.095  33.280  1.00  0.00     0.049 A 
ATOM     61  C   UNL A   1      42.250  30.513  35.810  1.00  0.00     0.074 A 
ATOM     62  C   UNL A   1      37.342  34.105  33.992  1.00  0.00     0.029 A 
ATOM     63  N   UNL A   1      38.996  32.621  34.078  1.00  0.00    -0.354 N 
ATOM     64  N   UNL A   1      41.231  31.201  35.354  1.00  0.00    -0.248 NA
ATOM     65  C   UNL A   1      42.751  30.973  37.113  1.00  0.00     0.031 C 
ATOM     66  C   UNL A   1      38.030  34.278  35.196  1.00  0.00     0.029 A 
ATOM     67  C   UNL A   1      39.046  33.338  35.262  1.00  0.00     0.049 A 
ATOM     68  H   UNL A   1      39.603  31.885  33.838  1.00  0.00     0.167 HD
ATOM     69  C   UNL A   1      40.952  32.157  36.324  1.00  0.00     0.074 A 
ATOM     70  C   UNL A   1      41.902  31.951  37.398  1.00  0.00     0.031 C 
ATOM     71  C   UNL A   1      39.995  33.117  36.326  1.00  0.00     0.037 A 
BRANCH  58  72
ATOM     72  C   UNL A   1      36.544  33.280  31.196  1.00  0.00     0.058 A 
ATOM     73  C   UNL A   1      35.194  33.128  31.553  1.00  0.00     0.135 A 
ATOM     74  C   UNL A   1      36.843  34.126  30.116  1.00  0.00     0.135 A 
ATOM     75  F   UNL A   1      34.849  32.320  32.569  1.00  0.00    -0.206 F 
ATOM     76  C   UNL A   1      34.178  33.767  30.849  1.00  0.00     0.059 A 
ATOM     77  C   UNL A   1      35.845  34.799  29.417  1.00  0.00     0.059 A 
ATOM     78  F   UNL A   1      38.116  34.308  29.730  1.00  0.00    -0.206 F 
ATOM     79  C   UNL A   1      34.514  34.601  29.782  1.00  0.00     0.060 A 
BRANCH  79  80
ATOM     80  S   UNL A   1      33.184  35.427  28.884  1.00  0.00     0.124 S 
ATOM     81  O   UNL A   1      32.394  35.980  29.979  1.00  0.00    -0.237 OA
ATOM     82  O   UNL A   1      33.912  36.399  28.074  1.00  0.00    -0.237 OA
ATOM     83  O   UNL A   1      32.551  34.343  28.140  1.00  0.00    -0.744 OA
ENDBRANCH  79  80
ENDBRANCH  58  72
BRANCH  59  84
ATOM     84  C   UNL A   1      44.108  28.689  35.862  1.00  0.00     0.058 A 
ATOM     85  C   UNL A   1      43.918  27.589  36.711  1.00  0.00     0.135 A 
ATOM     86  C   UNL A   1      45.421  29.144  35.667  1.00  0.00     0.135 A 
ATOM     87  F   UNL A   1      42.681  27.121  36.935  1.00  0.00    -0.206 F 
ATOM     88  C   UNL A   1      44.986  26.970  37.354  1.00  0.00     0.059 A 
ATOM     89  C   UNL A   1      46.509  28.525  36.276  1.00  0.00     0.059 A 
ATOM     90  F   UNL A   1      45.661  30.183  34.852  1.00  0.00    -0.206 F 
ATOM     91  C   UNL A   1      46.279  27.445  37.128  1.00  0.00     0.060 A 
BRANCH  91  92
ATOM     92  S   UNL A   1      47.662  26.604  37.929  1.00  0.00     0.124 S 
ATOM     93  O   UNL A   1      47.127  25.259  38.103  1.00  0.00    -0.237 OA
ATOM     94  O   UNL A   1      48.722  26.748  36.936  1.00  0.00    -0.237 OA
ATOM     95  O   UNL A   1      47.855  27.372  39.156  1.00  0.00    -0.744 OA
ENDBRANCH  91  92
ENDBRANCH  59  84
BRANCH  71  96
ATOM     96  C   UNL A   1      39.900  34.006  37.537  1.00  0.00     0.058 A 
ATOM     97  C   UNL A   1      40.495  35.277  37.567  1.00  0.00     0.135 A 
ATOM     98  C   UNL A   1      39.143  33.609  38.651  1.00  0.00     0.135 A 
ATOM     99  F   UNL A   1      41.237  35.701  36.532  1.00  0.00    -0.206 F 
ATOM    100  C   UNL A   1      40.353  36.118  38.666  1.00  0.00     0.059 A 
ATOM    101  C   UNL A   1      38.964  34.446  39.748  1.00  0.00     0.059 A 
ATOM    102  F   UNL A   1      38.547  32.407  38.671  1.00  0.00    -0.206 F 
ATOM    103  C   UNL A   1      39.579  35.697  39.748  1.00  0.00     0.060 A 
BRANCH 103 104
ATOM    104  S   UNL A   1      39.359  36.822  41.143  1.00  0.00     0.124 S 
ATOM    105  O   UNL A   1      38.736  37.973  40.498  1.00  0.00    -0.237 OA
ATOM    106  O   UNL A   1      38.497  36.049  42.032  1.00  0.00    -0.237 OA
ATOM    107  O   UNL A   1      40.719  37.035  41.627  1.00  0.00    -0.744 OA
ENDBRANCH 103 104
ENDBRANCH  71  96
ENDBRANCH  45  46
ENDBRANCH  37  40
ENDBRANCH  35  36
ENDBRANCH  34  35
ENDBRANCH  33  34
ENDBRANCH   1  33
TORSDOF 20
ENDMDL
MODEL 2
REMARK VINA RESULT:     -12.2      3.374      9.213
REMARK SMILES CC[NH+]1CCC2(CC1)OC[C@@H](C(=O)NCCCCCCNC(=O)c1ccc(-c3c4nc(c(-c5c(F)cc(S(=O)(=O)[O-])cc5F)c5ccc([nH]5)c(-c5c(F)cc(S(=O)(=O)[O-])cc5F)c5nc(c(-c6c(F)cc(S(=O)(=O)[O-])cc6F)c6ccc3[nH]6)C=C5)C=C4)cc1)N2C(=O)c1ccc(Cl)c([N+](=O)[O-])c1
REMARK SMILES IDX 17 1 16 2 15 3 14 4 12 5 13 6 11 8 3 9 4 10 8 11 5 13 7 14
REMARK SMILES IDX 6 15 9 16 90 17 10 18 2 19 1 20 91 21 92 22 93 23 94 24
REMARK SMILES IDX 102 25 95 26 98 27 96 28 97 29 99 30 100 31 101 32 18 33
REMARK SMILES IDX 19 34 20 35 21 36 22 37 23 39 24 40 25 41 89 42 26 43 88 44
REMARK SMILES IDX 27 45 28 46 29 47 82 48 30 49 87 50 81 51 83 52 31 53 86 54
REMARK SMILES IDX 80 55 79 56 32 58 66 59 45 60 65 61 46 62 49 63 64 64 84 65
REMARK SMILES IDX 47 66 48 67 63 69 85 70 50 71 33 72 34 73 43 74 35 75 36 76
REMARK SMILES IDX 42 77 44 78 37 79 38 80 39 81 40 82 41 83 67 84 68 85 77 86
REMARK SMILES IDX 69 87 70 88 76 89 78 90 71 91 72 92 73 93 74 94 75 95 51 96
REMARK SMILES IDX 52 97 61 98 53 99 54 100 60 101 62 102 55 103 56 104 57 105
REMARK SMILES IDX 58 106 59 107
REMARK H PARENT 14 7 3 12 21 38 83 57 49 68
REMARK Flexibility Score: inf
ROOT
ATOM      1  C   UNL A   1      34.952  21.745  24.208  1.00  0.00     0.002 C 
ENDROOT
BRANCH   1   2
ATOM      2  C   UNL A   1      33.456  21.789  23.887  1.00  0.00     0.021 C 
BRANCH   2   3
ATOM      3  C   UNL A   1      33.088  22.701  22.723  1.00  0.00     0.116 C 
BRANCH   3   4
ATOM      4  N   UNL A   1      31.745  23.209  22.882  1.00  0.00    -0.354 N 
ATOM      5  C   UNL A   1      31.277  24.208  23.676  1.00  0.00     0.245 C 
ATOM      6  O   UNL A   1      30.084  24.513  23.544  1.00  0.00    -0.273 OA
ATOM      7  H   UNL A   1      31.064  22.763  22.329  1.00  0.00     0.163 HD
BRANCH   5   8
ATOM      8  C   UNL A   1      32.212  25.111  24.500  1.00  0.00     0.203 C 
ATOM      9  N   UNL A   1      33.278  29.728  26.481  1.00  0.00    -0.335 N 
ATOM     10  C   UNL A   1      34.175  28.677  26.025  1.00  0.00     0.267 C 
ATOM     11  C   UNL A   1      31.844  29.497  26.413  1.00  0.00     0.267 C 
ATOM     12  H   UNL A   1      33.379  30.399  25.719  1.00  0.00     0.348 HD
ATOM     13  C   UNL A   1      33.723  27.267  26.336  1.00  0.00     0.120 C 
ATOM     14  C   UNL A   1      31.360  28.070  26.580  1.00  0.00     0.120 C 
ATOM     15  C   UNL A   1      32.255  26.995  25.971  1.00  0.00     0.155 C 
ATOM     16  O   UNL A   1      31.911  25.808  26.742  1.00  0.00    -0.352 OA
ATOM     17  N   UNL A   1      32.030  26.563  24.574  1.00  0.00    -0.295 N 
ATOM     18  C   UNL A   1      32.101  24.643  25.940  1.00  0.00     0.198 C 
BRANCH   9  19
ATOM     19  C   UNL A   1      33.729  30.414  27.688  1.00  0.00     0.258 C 
ATOM     20  C   UNL A   1      35.165  30.872  27.474  1.00  0.00     0.071 C 
ENDBRANCH   9  19
BRANCH  17  21
ATOM     21  C   UNL A   1      32.031  27.225  23.349  1.00  0.00     0.257 C 
ATOM     22  O   UNL A   1      32.915  27.054  22.509  1.00  0.00    -0.269 OA
BRANCH  21  23
ATOM     23  C   UNL A   1      30.964  28.145  22.929  1.00  0.00     0.047 A 
ATOM     24  C   UNL A   1      31.242  29.270  22.151  1.00  0.00     0.016 A 
ATOM     25  C   UNL A   1      29.673  27.961  23.424  1.00  0.00     0.101 A 
ATOM     26  C   UNL A   1      30.200  30.119  21.758  1.00  0.00     0.028 A 
ATOM     27  C   UNL A   1      28.604  28.740  22.935  1.00  0.00     0.288 A 
ATOM     28  C   UNL A   1      28.868  29.838  22.105  1.00  0.00     0.118 A 
ATOM     29  Cl  UNL A   1      27.690  30.922  21.458  1.00  0.00    -0.077 Cl
BRANCH  27  30
ATOM     30  N   UNL A   1      27.246  28.281  23.264  1.00  0.00     0.064 N 
ATOM     31  O   UNL A   1      27.092  27.213  23.863  1.00  0.00    -0.258 OA
ATOM     32  O   UNL A   1      26.306  29.028  22.946  1.00  0.00    -0.258 OA
ENDBRANCH  27  30
ENDBRANCH  21  23
ENDBRANCH  17  21
ENDBRANCH   5   8
ENDBRANCH   3   4
ENDBRANCH   2   3
ENDBRANCH   1   2
BRANCH   1  33
ATOM     33  C   UNL A   1      35.305  21.976  25.678  1.00  0.00     0.002 C 
BRANCH  33  34
ATOM     34  C   UNL A   1      35.839  23.372  26.003  1.00  0.00     0.021 C 
BRANCH  34  35
ATOM     35  C   UNL A   1      37.102  23.763  25.242  1.00  0.00     0.116 C 
BRANCH  35  36
ATOM     36  N   UNL A   1      38.187  22.822  25.466  1.00  0.00    -0.352 N 
ATOM     37  C   UNL A   1      39.404  23.030  26.071  1.00  0.00     0.251 C 
ATOM     38  H   UNL A   1      38.029  21.907  25.138  1.00  0.00     0.163 HD
ATOM     39  O   UNL A   1      40.282  22.183  25.998  1.00  0.00    -0.269 OA
BRANCH  37  40
ATOM     40  C   UNL A   1      39.643  24.299  26.791  1.00  0.00     0.039 A 
ATOM     41  C   UNL A   1      39.102  24.466  28.066  1.00  0.00     0.014 A 
ATOM     42  C   UNL A   1      40.418  25.309  26.211  1.00  0.00     0.014 A 
ATOM     43  C   UNL A   1      39.399  25.621  28.794  1.00  0.00     0.010 A 
ATOM     44  C   UNL A   1      40.771  26.424  26.965  1.00  0.00     0.010 A 
ATOM     45  C   UNL A   1      40.269  26.589  28.266  1.00  0.00    -0.014 A 
BRANCH  45  46
ATOM     46  C   UNL A   1      40.688  27.771  29.061  1.00  0.00     0.031 A 
ATOM     47  C   UNL A   1      41.992  27.756  29.809  1.00  0.00     0.074 A 
ATOM     48  C   UNL A   1      39.855  28.826  29.172  1.00  0.00     0.049 A 
ATOM     49  N   UNL A   1      42.481  28.646  30.633  1.00  0.00    -0.248 NA
ATOM     50  C   UNL A   1      42.847  26.571  29.628  1.00  0.00     0.031 C 
ATOM     51  C   UNL A   1      38.546  28.941  28.525  1.00  0.00     0.029 A 
ATOM     52  N   UNL A   1      39.976  29.996  29.880  1.00  0.00    -0.354 N 
ATOM     53  C   UNL A   1      43.691  28.126  31.078  1.00  0.00     0.074 A 
ATOM     54  C   UNL A   1      43.838  26.820  30.471  1.00  0.00     0.031 C 
ATOM     55  C   UNL A   1      37.994  30.120  28.853  1.00  0.00     0.029 A 
ATOM     56  C   UNL A   1      38.885  30.825  29.769  1.00  0.00     0.049 A 
ATOM     57  H   UNL A   1      40.771  30.219  30.416  1.00  0.00     0.167 HD
ATOM     58  C   UNL A   1      44.606  28.695  31.899  1.00  0.00     0.037 A 
ATOM     59  C   UNL A   1      38.622  32.011  30.353  1.00  0.00     0.037 A 
ATOM     60  C   UNL A   1      44.459  30.004  32.481  1.00  0.00     0.049 A 
ATOM     61  C   UNL A   1      39.642  32.612  31.282  1.00  0.00     0.074 A 
ATOM     62  C   UNL A   1      45.354  30.694  33.280  1.00  0.00     0.029 A 
ATOM     63  N   UNL A   1      43.344  30.818  32.337  1.00  0.00    -0.354 N 
ATOM     64  N   UNL A   1      40.810  32.135  31.641  1.00  0.00    -0.248 NA
ATOM     65  C   UNL A   1      39.311  33.909  31.886  1.00  0.00     0.031 C 
ATOM     66  C   UNL A   1      44.760  31.899  33.663  1.00  0.00     0.029 A 
ATOM     67  C   UNL A   1      43.517  31.989  33.056  1.00  0.00     0.049 A 
ATOM     68  H   UNL A   1      42.548  30.595  31.803  1.00  0.00     0.167 HD
ATOM     69  C   UNL A   1      41.365  33.086  32.490  1.00  0.00     0.074 A 
ATOM     70  C   UNL A   1      40.408  34.170  32.583  1.00  0.00     0.031 C 
ATOM     71  C   UNL A   1      42.557  33.064  33.134  1.00  0.00     0.037 A 
BRANCH  58  72
ATOM     72  C   UNL A   1      45.848  27.907  32.218  1.00  0.00     0.058 A 
ATOM     73  C   UNL A   1      47.015  28.024  31.446  1.00  0.00     0.135 A 
ATOM     74  C   UNL A   1      45.885  27.057  33.335  1.00  0.00     0.135 A 
ATOM     75  F   UNL A   1      47.031  28.812  30.359  1.00  0.00    -0.206 F 
ATOM     76  C   UNL A   1      48.165  27.304  31.752  1.00  0.00     0.059 A 
ATOM     77  C   UNL A   1      47.034  26.351  33.678  1.00  0.00     0.059 A 
ATOM     78  F   UNL A   1      44.798  26.907  34.108  1.00  0.00    -0.206 F 
ATOM     79  C   UNL A   1      48.165  26.471  32.871  1.00  0.00     0.060 A 
BRANCH  79  80
ATOM     80  S   UNL A   1      49.668  25.549  33.257  1.00  0.00     0.124 S 
ATOM     81  O   UNL A   1      50.269  25.407  31.935  1.00  0.00    -0.237 OA
ATOM     82  O   UNL A   1      50.360  26.450  34.173  1.00  0.00    -0.237 OA
ATOM     83  O   UNL A   1      49.168  24.315  33.854  1.00  0.00    -0.744 OA
ENDBRANCH  79  80
ENDBRANCH  58  72
BRANCH  59  84
ATOM     84  C   UNL A   1      37.339  32.710  30.071  1.00  0.00     0.058 A 
ATOM     85  C   UNL A   1      36.176  32.405  30.794  1.00  0.00     0.135 A 
ATOM     86  C   UNL A   1      37.253  33.706  29.086  1.00  0.00     0.135 A 
ATOM     87  F   UNL A   1      36.205  31.456  31.742  1.00  0.00    -0.206 F 
ATOM     88  C   UNL A   1      34.969  33.050  30.541  1.00  0.00     0.059 A 
ATOM     89  C   UNL A   1      36.065  34.385  28.833  1.00  0.00     0.059 A 
ATOM     90  F   UNL A   1      38.340  34.048  28.377  1.00  0.00    -0.206 F 
ATOM     91  C   UNL A   1      34.925  34.041  29.559  1.00  0.00     0.060 A 
BRANCH  91  92
ATOM     92  S   UNL A   1      33.366  34.906  29.272  1.00  0.00     0.124 S 
ATOM     93  O   UNL A   1      33.834  36.209  28.812  1.00  0.00    -0.237 OA
ATOM     94  O   UNL A   1      32.730  34.063  28.265  1.00  0.00    -0.237 OA
ATOM     95  O   UNL A   1      32.728  34.891  30.585  1.00  0.00    -0.744 OA
ENDBRANCH  91  92
ENDBRANCH  59  84
BRANCH  71  96
ATOM     96  C   UNL A   1      42.918  34.257  33.976  1.00  0.00     0.058 A 
ATOM     97  C   UNL A   1      42.667  34.290  35.356  1.00  0.00     0.135 A 
ATOM     98  C   UNL A   1      43.590  35.351  33.407  1.00  0.00     0.135 A 
ATOM     99  F   UNL A   1      42.019  33.274  35.950  1.00  0.00    -0.206 F 
ATOM    100  C   UNL A   1      43.057  35.370  36.140  1.00  0.00     0.059 A 
ATOM    101  C   UNL A   1      44.016  36.429  34.176  1.00  0.00     0.059 A 
ATOM    102  F   UNL A   1      43.863  35.368  32.092  1.00  0.00    -0.206 F 
ATOM    103  C   UNL A   1      43.738  36.432  35.543  1.00  0.00     0.060 A 
BRANCH 103 104
ATOM    104  S   UNL A   1      44.287  37.801  36.583  1.00  0.00     0.124 S 
ATOM    105  O   UNL A   1      43.326  37.744  37.679  1.00  0.00    -0.237 OA
ATOM    106  O   UNL A   1      45.653  37.409  36.916  1.00  0.00    -0.237 OA
ATOM    107  O   UNL A   1      44.171  38.963  35.707  1.00  0.00    -0.744 OA
ENDBRANCH 103 104
ENDBRANCH  71  96
ENDBRANCH  45  46
ENDBRANCH  37  40
ENDBRANCH  35  36
ENDBRANCH  34  35
ENDBRANCH  33  34
ENDBRANCH   1  33
TORSDOF 20
ENDMDL
MODEL 3
REMARK VINA RESULT:     -12.0      0.848      7.822
REMARK SMILES CC[NH+]1CCC2(CC1)OC[C@@H](C(=O)NCCCCCCNC(=O)c1ccc(-c3c4nc(c(-c5c(F)cc(S(=O)(=O)[O-])cc5F)c5ccc([nH]5)c(-c5c(F)cc(S(=O)(=O)[O-])cc5F)c5nc(c(-c6c(F)cc(S(=O)(=O)[O-])cc6F)c6ccc3[nH]6)C=C5)C=C4)cc1)N2C(=O)c1ccc(Cl)c([N+](=O)[O-])c1
REMARK SMILES IDX 17 1 16 2 15 3 14 4 12 5 13 6 11 8 3 9 4 10 8 11 5 13 7 14
REMARK SMILES IDX 6 15 9 16 90 17 10 18 2 19 1 20 91 21 92 22 93 23 94 24
REMARK SMILES IDX 102 25 95 26 98 27 96 28 97 29 99 30 100 31 101 32 18 33
REMARK SMILES IDX 19 34 20 35 21 36 22 37 23 39 24 40 25 41 89 42 26 43 88 44
REMARK SMILES IDX 27 45 28 46 29 47 82 48 30 49 87 50 81 51 83 52 31 53 86 54
REMARK SMILES IDX 80 55 79 56 32 58 66 59 45 60 65 61 46 62 49 63 64 64 84 65
REMARK SMILES IDX 47 66 48 67 63 69 85 70 50 71 33 72 34 73 43 74 35 75 36 76
REMARK SMILES IDX 42 77 44 78 37 79 38 80 39 81 40 82 41 83 67 84 68 85 77 86
REMARK SMILES IDX 69 87 70 88 76 89 78 90 71 91 72 92 73 93 74 94 75 95 51 96
REMARK SMILES IDX 52 97 61 98 53 99 54 100 60 101 62 102 55 103 56 104 57 105
REMARK SMILES IDX 58 106 59 107
REMARK H PARENT 14 7 3 12 21 38 83 57 49 68
REMARK Flexibility Score: inf
ROOT
ATOM      1  C   UNL A   1      38.480  21.524  25.585  1.00  0.00     0.002 C 
ENDROOT
BRANCH   1   2
ATOM      2  C   UNL A   1      37.434  20.528  25.076  1.00  0.00     0.021 C 
BRANCH   2   3
ATOM      3  C   UNL A   1      36.029  21.102  24.942  1.00  0.00     0.116 C 
BRANCH   3   4
ATOM      4  N   UNL A   1      35.586  21.659  26.198  1.00  0.00    -0.354 N 
ATOM      5  C   UNL A   1      34.896  22.802  26.453  1.00  0.00     0.245 C 
ATOM      6  O   UNL A   1      34.551  22.996  27.626  1.00  0.00    -0.273 OA
ATOM      7  H   UNL A   1      35.820  21.128  26.994  1.00  0.00     0.163 HD
BRANCH   5   8
ATOM      8  C   UNL A   1      34.321  23.683  25.330  1.00  0.00     0.203 C 
ATOM      9  N   UNL A   1      30.450  26.498  23.467  1.00  0.00    -0.335 N 
ATOM     10  C   UNL A   1      31.454  25.709  22.768  1.00  0.00     0.267 C 
ATOM     11  C   UNL A   1      30.502  26.560  24.919  1.00  0.00     0.267 C 
ATOM     12  H   UNL A   1      29.632  25.899  23.352  1.00  0.00     0.348 HD
ATOM     13  C   UNL A   1      32.839  25.751  23.373  1.00  0.00     0.120 C 
ATOM     14  C   UNL A   1      31.867  26.463  25.573  1.00  0.00     0.120 C 
ATOM     15  C   UNL A   1      32.856  25.522  24.893  1.00  0.00     0.155 C 
ATOM     16  O   UNL A   1      34.148  26.044  25.317  1.00  0.00    -0.352 OA
ATOM     17  N   UNL A   1      32.917  24.103  25.308  1.00  0.00    -0.295 N 
ATOM     18  C   UNL A   1      35.103  24.984  25.363  1.00  0.00     0.198 C 
BRANCH   9  19
ATOM     19  C   UNL A   1      30.123  27.762  22.814  1.00  0.00     0.258 C 
ATOM     20  C   UNL A   1      31.343  28.670  22.884  1.00  0.00     0.071 C 
ENDBRANCH   9  19
BRANCH  17  21
ATOM     21  C   UNL A   1      31.987  23.066  25.336  1.00  0.00     0.257 C 
ATOM     22  O   UNL A   1      31.010  23.078  26.085  1.00  0.00    -0.269 OA
BRANCH  21  23
ATOM     23  C   UNL A   1      32.060  21.894  24.451  1.00  0.00     0.047 A 
ATOM     24  C   UNL A   1      31.821  22.005  23.081  1.00  0.00     0.016 A 
ATOM     25  C   UNL A   1      32.245  20.630  25.012  1.00  0.00     0.101 A 
ATOM     26  C   UNL A   1      31.912  20.870  22.265  1.00  0.00     0.028 A 
ATOM     27  C   UNL A   1      32.456  19.507  24.184  1.00  0.00     0.288 A 
ATOM     28  C   UNL A   1      32.275  19.622  22.798  1.00  0.00     0.118 A 
ATOM     29  Cl  UNL A   1      32.444  18.346  21.648  1.00  0.00    -0.077 Cl
BRANCH  27  30
ATOM     30  N   UNL A   1      32.952  18.287  24.838  1.00  0.00     0.064 N 
ATOM     31  O   UNL A   1      32.169  17.573  25.470  1.00  0.00    -0.258 OA
ATOM     32  O   UNL A   1      34.154  18.015  24.685  1.00  0.00    -0.258 OA
ENDBRANCH  27  30
ENDBRANCH  21  23
ENDBRANCH  17  21
ENDBRANCH   5   8
ENDBRANCH   3   4
ENDBRANCH   2   3
ENDBRANCH   1   2
BRANCH   1  33
ATOM     33  C   UNL A   1      39.704  20.894  26.249  1.00  0.00     0.002 C 
BRANCH  33  34
ATOM     34  C   UNL A   1      40.516  21.838  27.138  1.00  0.00     0.021 C 
BRANCH  34  35
ATOM     35  C   UNL A   1      40.462  23.304  26.722  1.00  0.00     0.116 C 
BRANCH  35  36
ATOM     36  N   UNL A   1      41.634  23.698  25.956  1.00  0.00    -0.352 N 
ATOM     37  C   UNL A   1      42.299  24.902  25.947  1.00  0.00     0.251 C 
ATOM     38  H   UNL A   1      42.003  23.006  25.361  1.00  0.00     0.163 HD
ATOM     39  O   UNL A   1      43.145  25.132  25.096  1.00  0.00    -0.269 OA
BRANCH  37  40
ATOM     40  C   UNL A   1      41.962  25.919  26.965  1.00  0.00     0.039 A 
ATOM     41  C   UNL A   1      41.104  25.573  28.010  1.00  0.00     0.014 A 
ATOM     42  C   UNL A   1      42.511  27.203  26.895  1.00  0.00     0.014 A 
ATOM     43  C   UNL A   1      40.853  26.494  29.029  1.00  0.00     0.010 A 
ATOM     44  C   UNL A   1      42.318  28.094  27.947  1.00  0.00     0.010 A 
ATOM     45  C   UNL A   1      41.490  27.746  29.027  1.00  0.00    -0.014 A 
BRANCH  45  46
ATOM     46  C   UNL A   1      41.327  28.701  30.153  1.00  0.00     0.031 A 
ATOM     47  C   UNL A   1      42.214  28.602  31.362  1.00  0.00     0.074 A 
ATOM     48  C   UNL A   1      40.327  29.605  30.117  1.00  0.00     0.049 A 
ATOM     49  N   UNL A   1      42.159  29.276  32.482  1.00  0.00    -0.248 NA
ATOM     50  C   UNL A   1      43.287  27.596  31.318  1.00  0.00     0.031 C 
ATOM     51  C   UNL A   1      39.376  29.771  29.015  1.00  0.00     0.029 A 
ATOM     52  N   UNL A   1      39.931  30.544  31.036  1.00  0.00    -0.354 N 
ATOM     53  C   UNL A   1      43.179  28.768  33.279  1.00  0.00     0.074 A 
ATOM     54  C   UNL A   1      43.803  27.696  32.535  1.00  0.00     0.031 C 
ATOM     55  C   UNL A   1      38.521  30.760  29.316  1.00  0.00     0.029 A 
ATOM     56  C   UNL A   1      38.828  31.269  30.649  1.00  0.00     0.049 A 
ATOM     57  H   UNL A   1      40.394  30.685  31.894  1.00  0.00     0.167 HD
ATOM     58  C   UNL A   1      43.572  29.175  34.510  1.00  0.00     0.037 A 
ATOM     59  C   UNL A   1      38.132  32.221  31.299  1.00  0.00     0.037 A 
ATOM     60  C   UNL A   1      42.957  30.257  35.235  1.00  0.00     0.049 A 
ATOM     61  C   UNL A   1      38.572  32.638  32.676  1.00  0.00     0.074 A 
ATOM     62  C   UNL A   1      43.318  30.782  36.463  1.00  0.00     0.029 A 
ATOM     63  N   UNL A   1      41.849  30.973  34.804  1.00  0.00    -0.354 N 
ATOM     64  N   UNL A   1      39.579  32.192  33.389  1.00  0.00    -0.248 NA
ATOM     65  C   UNL A   1      37.784  33.687  33.339  1.00  0.00     0.031 C 
ATOM     66  C   UNL A   1      42.397  31.778  36.800  1.00  0.00     0.029 A 
ATOM     67  C   UNL A   1      41.496  31.915  35.756  1.00  0.00     0.049 A 
ATOM     68  H   UNL A   1      41.383  30.832  33.949  1.00  0.00     0.167 HD
ATOM     69  C   UNL A   1      39.562  32.923  34.572  1.00  0.00     0.074 A 
ATOM     70  C   UNL A   1      38.452  33.848  34.474  1.00  0.00     0.031 C 
ATOM     71  C   UNL A   1      40.390  32.836  35.642  1.00  0.00     0.037 A 
BRANCH  58  72
ATOM     72  C   UNL A   1      44.721  28.447  35.154  1.00  0.00     0.058 A 
ATOM     73  C   UNL A   1      44.521  27.308  35.951  1.00  0.00     0.135 A 
ATOM     74  C   UNL A   1      46.043  28.869  34.937  1.00  0.00     0.135 A 
ATOM     75  F   UNL A   1      43.277  26.869  36.203  1.00  0.00    -0.206 F 
ATOM     76  C   UNL A   1      45.587  26.630  36.532  1.00  0.00     0.059 A 
ATOM     77  C   UNL A   1      47.127  28.187  35.484  1.00  0.00     0.059 A 
ATOM     78  F   UNL A   1      46.294  29.952  34.184  1.00  0.00    -0.206 F 
ATOM     79  C   UNL A   1      46.887  27.077  36.292  1.00  0.00     0.060 A 
BRANCH  79  80
ATOM     80  S   UNL A   1      48.259  26.182  37.051  1.00  0.00     0.124 S 
ATOM     81  O   UNL A   1      48.682  25.317  35.954  1.00  0.00    -0.237 OA
ATOM     82  O   UNL A   1      49.180  27.260  37.398  1.00  0.00    -0.237 OA
ATOM     83  O   UNL A   1      47.638  25.501  38.182  1.00  0.00    -0.744 OA
ENDBRANCH  79  80
ENDBRANCH  58  72
BRANCH  59  84
ATOM     84  C   UNL A   1      36.949  32.850  30.652  1.00  0.00     0.058 A 
ATOM     85  C   UNL A   1      35.660  32.330  30.843  1.00  0.00     0.135 A 
ATOM     86  C   UNL A   1      37.080  33.989  29.843  1.00  0.00     0.135 A 
ATOM     87  F   UNL A   1      35.483  31.239  31.603  1.00  0.00    -0.206 F 
ATOM     88  C   UNL A   1      34.544  32.907  30.244  1.00  0.00     0.059 A 
ATOM     89  C   UNL A   1      35.977  34.601  29.255  1.00  0.00     0.059 A 
ATOM     90  F   UNL A   1      38.289  34.537  29.641  1.00  0.00    -0.206 F 
ATOM     91  C   UNL A   1      34.713  34.045  29.453  1.00  0.00     0.060 A 
BRANCH  91  92
ATOM     92  S   UNL A   1      33.254  34.814  28.719  1.00  0.00     0.124 S 
ATOM     93  O   UNL A   1      33.835  35.982  28.066  1.00  0.00    -0.237 OA
ATOM     94  O   UNL A   1      32.767  33.762  27.834  1.00  0.00    -0.237 OA
ATOM     95  O   UNL A   1      32.406  35.093  29.874  1.00  0.00    -0.744 OA
ENDBRANCH  91  92
ENDBRANCH  59  84
BRANCH  71  96
ATOM     96  C   UNL A   1      40.154  33.783  36.786  1.00  0.00     0.058 A 
ATOM     97  C   UNL A   1      40.802  35.025  36.861  1.00  0.00     0.135 A 
ATOM     98  C   UNL A   1      39.213  33.474  37.781  1.00  0.00     0.135 A 
ATOM     99  F   UNL A   1      41.718  35.367  35.941  1.00  0.00    -0.206 F 
ATOM    100  C   UNL A   1      40.535  35.923  37.890  1.00  0.00     0.059 A 
ATOM    101  C   UNL A   1      38.908  34.368  38.803  1.00  0.00     0.059 A 
ATOM    102  F   UNL A   1      38.558  32.302  37.752  1.00  0.00    -0.206 F 
ATOM    103  C   UNL A   1      39.580  35.588  38.852  1.00  0.00     0.060 A 
BRANCH 103 104
ATOM    104  S   UNL A   1      39.204  36.786  40.149  1.00  0.00     0.124 S 
ATOM    105  O   UNL A   1      38.559  37.852  39.389  1.00  0.00    -0.237 OA
ATOM    106  O   UNL A   1      38.332  36.021  41.034  1.00  0.00    -0.237 OA
ATOM    107  O   UNL A   1      40.515  37.115  40.700  1.00  0.00    -0.744 OA
ENDBRANCH 103 104
ENDBRANCH  71  96
ENDBRANCH  45  46
ENDBRANCH  37  40
ENDBRANCH  35  36
ENDBRANCH  34  35
ENDBRANCH  33  34
ENDBRANCH   1  33
TORSDOF 20
ENDMDL
