MODEL 1
REMARK VINA RESULT:     -12.3      0.000      0.000
REMARK SMILES COc1cccc([C@@H]2CN(C(=O)CSc3nc(C)n[nH]3)C[C@H]2C(=O)NCCCCCCNC(=O)c2ccc(-c3c4nc(c(-c5c(F)cc(S(=O)(=O)[O-])cc5F)c5ccc([nH]5)c(-c5c(F)cc(S(=O)(=O)[O-])cc5F)c5nc(c(-c6c(F)cc(S(=O)(=O)[O-])cc6F)c6ccc3[nH]6)C=C5)C=C4)cc2)c1
REMARK SMILES IDX 28 1 27 2 26 3 25 4 23 5 24 6 22 8 8 9 9 10 10 11 21 12 7 13
REMARK SMILES IDX 3 14 4 15 101 16 5 17 6 18 2 19 1 20 11 21 12 22 13 23 14 24
REMARK SMILES IDX 15 25 16 26 20 27 17 28 19 29 18 31 29 32 30 33 31 34 32 35
REMARK SMILES IDX 33 36 34 38 35 39 36 40 100 41 37 42 99 43 38 44 39 45 40 46
REMARK SMILES IDX 93 47 41 48 98 49 92 50 94 51 42 52 97 53 91 54 90 55 43 57
REMARK SMILES IDX 77 58 56 59 76 60 57 61 60 62 75 63 95 64 58 65 59 66 74 68
REMARK SMILES IDX 96 69 61 70 44 71 45 72 54 73 46 74 47 75 53 76 55 77 48 78
REMARK SMILES IDX 49 79 50 80 51 81 52 82 78 83 79 84 88 85 80 86 81 87 87 88
REMARK SMILES IDX 89 89 82 90 83 91 84 92 85 93 86 94 62 95 63 96 72 97 64 98
REMARK SMILES IDX 65 99 71 100 73 101 66 102 67 103 68 104 69 105 70 106
REMARK H PARENT 25 7 20 30 32 37 94 56 60 67
REMARK Flexibility Score: inf
ROOT
ATOM      1  C   UNL A   1      38.961  22.738  26.504  1.00  0.00     0.002 C 
ENDROOT
BRANCH   1   2
ATOM      2  C   UNL A   1      38.318  21.984  25.338  1.00  0.00     0.021 C 
BRANCH   2   3
ATOM      3  C   UNL A   1      37.035  21.247  25.713  1.00  0.00     0.116 C 
BRANCH   3   4
ATOM      4  N   UNL A   1      36.100  22.117  26.402  1.00  0.00    -0.356 N 
ATOM      5  C   UNL A   1      35.013  22.799  25.954  1.00  0.00     0.225 C 
ATOM      6  O   UNL A   1      34.355  23.434  26.782  1.00  0.00    -0.275 OA
ATOM      7  H   UNL A   1      36.285  22.232  27.363  1.00  0.00     0.163 HD
BRANCH   5   8
ATOM      8  C   UNL A   1      34.578  22.760  24.503  1.00  0.00     0.107 C 
ATOM      9  C   UNL A   1      33.090  22.407  24.301  1.00  0.00     0.053 C 
ATOM     10  C   UNL A   1      32.688  23.225  23.071  1.00  0.00     0.128 C 
ATOM     11  N   UNL A   1      33.546  24.401  23.123  1.00  0.00    -0.341 N 
ATOM     12  C   UNL A   1      34.791  24.105  23.814  1.00  0.00     0.133 C 
BRANCH   9  13
ATOM     13  C   UNL A   1      32.774  20.938  24.163  1.00  0.00    -0.039 A 
ATOM     14  C   UNL A   1      32.664  18.682  25.075  1.00  0.00     0.119 A 
ATOM     15  C   UNL A   1      32.293  18.199  23.822  1.00  0.00     0.046 A 
ATOM     16  C   UNL A   1      32.916  20.046  25.239  1.00  0.00     0.050 A 
ATOM     17  C   UNL A   1      32.139  19.071  22.746  1.00  0.00     0.004 A 
ATOM     18  C   UNL A   1      32.374  20.434  22.917  1.00  0.00     0.004 A 
BRANCH  14  19
ATOM     19  O   UNL A   1      32.805  17.735  26.053  1.00  0.00    -0.497 OA
ATOM     20  C   UNL A   1      33.102  16.418  25.606  1.00  0.00     0.278 C 
ENDBRANCH  14  19
ENDBRANCH   9  13
BRANCH  11  21
ATOM     21  C   UNL A   1      33.319  25.640  22.571  1.00  0.00     0.233 C 
ATOM     22  O   UNL A   1      33.993  26.029  21.613  1.00  0.00    -0.274 OA
BRANCH  21  23
ATOM     23  C   UNL A   1      32.190  26.499  23.108  1.00  0.00     0.178 C 
BRANCH  23  24
ATOM     24  S   UNL A   1      32.519  28.262  22.873  1.00  0.00    -0.077 SA
BRANCH  24  25
ATOM     25  C   UNL A   1      30.963  28.945  22.602  1.00  0.00     0.184 A 
ATOM     26  N   UNL A   1      29.847  28.536  23.152  1.00  0.00    -0.206 NA
ATOM     27  N   UNL A   1      30.689  29.888  21.658  1.00  0.00    -0.254 N 
ATOM     28  C   UNL A   1      28.896  29.271  22.498  1.00  0.00     0.148 A 
ATOM     29  N   UNL A   1      29.364  30.111  21.566  1.00  0.00    -0.158 NA
ATOM     30  H   UNL A   1      31.370  30.345  21.114  1.00  0.00     0.192 HD
ATOM     31  C   UNL A   1      27.459  29.110  22.788  1.00  0.00     0.092 C 
ENDBRANCH  24  25
ENDBRANCH  23  24
ENDBRANCH  21  23
ENDBRANCH  11  21
ENDBRANCH   5   8
ENDBRANCH   3   4
ENDBRANCH   2   3
ENDBRANCH   1   2
BRANCH   1  32
ATOM     32  C   UNL A   1      40.066  21.979  27.253  1.00  0.00     0.002 C 
BRANCH  32  33
ATOM     33  C   UNL A   1      40.821  20.902  26.458  1.00  0.00     0.021 C 
BRANCH  33  34
ATOM     34  C   UNL A   1      42.101  20.430  27.126  1.00  0.00     0.116 C 
BRANCH  34  35
ATOM     35  N   UNL A   1      43.284  20.673  26.299  1.00  0.00    -0.352 N 
ATOM     36  C   UNL A   1      43.815  21.884  25.906  1.00  0.00     0.251 C 
ATOM     37  H   UNL A   1      43.761  19.871  25.983  1.00  0.00     0.163 HD
ATOM     38  O   UNL A   1      44.542  21.956  24.911  1.00  0.00    -0.269 OA
BRANCH  36  39
ATOM     39  C   UNL A   1      43.517  23.082  26.705  1.00  0.00     0.039 A 
ATOM     40  C   UNL A   1      44.059  23.298  27.976  1.00  0.00     0.014 A 
ATOM     41  C   UNL A   1      42.670  24.023  26.128  1.00  0.00     0.014 A 
ATOM     42  C   UNL A   1      43.770  24.496  28.626  1.00  0.00     0.010 A 
ATOM     43  C   UNL A   1      42.582  25.277  26.658  1.00  0.00     0.010 A 
ATOM     44  C   UNL A   1      43.032  25.482  27.950  1.00  0.00    -0.014 A 
BRANCH  44  45
ATOM     45  C   UNL A   1      42.784  26.799  28.512  1.00  0.00     0.031 A 
ATOM     46  C   UNL A   1      43.805  27.800  28.123  1.00  0.00     0.074 A 
ATOM     47  C   UNL A   1      41.612  27.131  29.100  1.00  0.00     0.049 A 
ATOM     48  N   UNL A   1      44.768  28.250  28.852  1.00  0.00    -0.248 NA
ATOM     49  C   UNL A   1      43.910  28.180  26.704  1.00  0.00     0.031 C 
ATOM     50  C   UNL A   1      40.389  26.329  29.238  1.00  0.00     0.029 A 
ATOM     51  N   UNL A   1      41.232  28.325  29.627  1.00  0.00    -0.354 N 
ATOM     52  C   UNL A   1      45.419  29.195  28.066  1.00  0.00     0.074 A 
ATOM     53  C   UNL A   1      45.028  28.911  26.712  1.00  0.00     0.031 C 
ATOM     54  C   UNL A   1      39.356  27.125  29.596  1.00  0.00     0.029 A 
ATOM     55  C   UNL A   1      39.866  28.453  29.876  1.00  0.00     0.049 A 
ATOM     56  H   UNL A   1      41.874  29.046  29.818  1.00  0.00     0.167 HD
ATOM     57  C   UNL A   1      45.975  30.303  28.632  1.00  0.00     0.037 A 
ATOM     58  C   UNL A   1      39.221  29.588  30.262  1.00  0.00     0.037 A 
ATOM     59  C   UNL A   1      46.054  30.151  30.068  1.00  0.00     0.049 A 
ATOM     60  C   UNL A   1      40.261  30.492  30.831  1.00  0.00     0.074 A 
ATOM     61  C   UNL A   1      46.638  29.227  30.916  1.00  0.00     0.029 A 
ATOM     62  N   UNL A   1      45.109  30.806  30.824  1.00  0.00    -0.354 N 
ATOM     63  N   UNL A   1      40.916  30.230  31.930  1.00  0.00    -0.248 NA
ATOM     64  C   UNL A   1      40.921  31.410  29.915  1.00  0.00     0.031 C 
ATOM     65  C   UNL A   1      45.684  29.033  31.959  1.00  0.00     0.029 A 
ATOM     66  C   UNL A   1      44.624  29.916  31.748  1.00  0.00     0.049 A 
ATOM     67  H   UNL A   1      44.832  31.745  30.721  1.00  0.00     0.167 HD
ATOM     68  C   UNL A   1      42.230  30.583  31.652  1.00  0.00     0.074 A 
ATOM     69  C   UNL A   1      42.159  31.365  30.418  1.00  0.00     0.031 C 
ATOM     70  C   UNL A   1      43.276  29.957  32.272  1.00  0.00     0.037 A 
BRANCH  57  71
ATOM     71  C   UNL A   1      46.067  31.663  27.973  1.00  0.00     0.058 A 
ATOM     72  C   UNL A   1      47.296  32.355  28.026  1.00  0.00     0.135 A 
ATOM     73  C   UNL A   1      44.960  32.430  27.546  1.00  0.00     0.135 A 
ATOM     74  F   UNL A   1      48.420  31.727  28.408  1.00  0.00    -0.206 F 
ATOM     75  C   UNL A   1      47.399  33.722  27.771  1.00  0.00     0.059 A 
ATOM     76  C   UNL A   1      45.052  33.781  27.234  1.00  0.00     0.059 A 
ATOM     77  F   UNL A   1      43.716  31.944  27.495  1.00  0.00    -0.206 F 
ATOM     78  C   UNL A   1      46.264  34.430  27.390  1.00  0.00     0.060 A 
BRANCH  78  79
ATOM     79  S   UNL A   1      46.374  36.209  27.147  1.00  0.00     0.124 S 
ATOM     80  O   UNL A   1      47.362  36.578  28.152  1.00  0.00    -0.237 OA
ATOM     81  O   UNL A   1      46.809  36.292  25.756  1.00  0.00    -0.237 OA
ATOM     82  O   UNL A   1      45.010  36.665  27.400  1.00  0.00    -0.744 OA
ENDBRANCH  78  79
ENDBRANCH  57  71
BRANCH  58  83
ATOM     83  C   UNL A   1      37.878  30.092  29.853  1.00  0.00     0.058 A 
ATOM     84  C   UNL A   1      37.017  30.708  30.785  1.00  0.00     0.135 A 
ATOM     85  C   UNL A   1      37.542  30.269  28.496  1.00  0.00     0.135 A 
ATOM     86  F   UNL A   1      37.261  30.600  32.100  1.00  0.00    -0.206 F 
ATOM     87  C   UNL A   1      35.936  31.510  30.394  1.00  0.00     0.059 A 
ATOM     88  C   UNL A   1      36.466  31.057  28.084  1.00  0.00     0.059 A 
ATOM     89  F   UNL A   1      38.309  29.760  27.521  1.00  0.00    -0.206 F 
ATOM     90  C   UNL A   1      35.687  31.703  29.037  1.00  0.00     0.060 A 
BRANCH  90  91
ATOM     91  S   UNL A   1      34.434  32.905  28.518  1.00  0.00     0.124 S 
ATOM     92  O   UNL A   1      33.465  32.056  27.835  1.00  0.00    -0.237 OA
ATOM     93  O   UNL A   1      34.003  33.470  29.792  1.00  0.00    -0.237 OA
ATOM     94  O   UNL A   1      35.182  33.817  27.657  1.00  0.00    -0.744 OA
ENDBRANCH  90  91
ENDBRANCH  58  83
BRANCH  70  95
ATOM     95  C   UNL A   1      42.990  29.097  33.476  1.00  0.00     0.058 A 
ATOM     96  C   UNL A   1      42.797  29.571  34.788  1.00  0.00     0.135 A 
ATOM     97  C   UNL A   1      42.758  27.730  33.255  1.00  0.00     0.135 A 
ATOM     98  F   UNL A   1      42.892  30.879  35.070  1.00  0.00    -0.206 F 
ATOM     99  C   UNL A   1      42.442  28.718  35.835  1.00  0.00     0.059 A 
ATOM    100  C   UNL A   1      42.370  26.869  34.275  1.00  0.00     0.059 A 
ATOM    101  F   UNL A   1      42.863  27.224  32.015  1.00  0.00    -0.206 F 
ATOM    102  C   UNL A   1      42.232  27.365  35.568  1.00  0.00     0.060 A 
BRANCH 102 103
ATOM    103  S   UNL A   1      41.736  26.262  36.909  1.00  0.00     0.124 S 
ATOM    104  O   UNL A   1      41.515  25.003  36.204  1.00  0.00    -0.237 OA
ATOM    105  O   UNL A   1      42.896  26.298  37.795  1.00  0.00    -0.237 OA
ATOM    106  O   UNL A   1      40.533  26.895  37.444  1.00  0.00    -0.744 OA
ENDBRANCH 102 103
ENDBRANCH  70  95
ENDBRANCH  44  45
ENDBRANCH  36  39
ENDBRANCH  34  35
ENDBRANCH  33  34
ENDBRANCH  32  33
ENDBRANCH   1  32
TORSDOF 22
ENDMDL
MODEL 2
REMARK VINA RESULT:     -12.1      2.901      9.813
REMARK SMILES COc1cccc([C@@H]2CN(C(=O)CSc3nc(C)n[nH]3)C[C@H]2C(=O)NCCCCCCNC(=O)c2ccc(-c3c4nc(c(-c5c(F)cc(S(=O)(=O)[O-])cc5F)c5ccc([nH]5)c(-c5c(F)cc(S(=O)(=O)[O-])cc5F)c5nc(c(-c6c(F)cc(S(=O)(=O)[O-])cc6F)c6ccc3[nH]6)C=C5)C=C4)cc2)c1
REMARK SMILES IDX 28 1 27 2 26 3 25 4 23 5 24 6 22 8 8 9 9 10 10 11 21 12 7 13
REMARK SMILES IDX 3 14 4 15 101 16 5 17 6 18 2 19 1 20 11 21 12 22 13 23 14 24
REMARK SMILES IDX 15 25 16 26 20 27 17 28 19 29 18 31 29 32 30 33 31 34 32 35
REMARK SMILES IDX 33 36 34 38 35 39 36 40 100 41 37 42 99 43 38 44 39 45 40 46
REMARK SMILES IDX 93 47 41 48 98 49 92 50 94 51 42 52 97 53 91 54 90 55 43 57
REMARK SMILES IDX 77 58 56 59 76 60 57 61 60 62 75 63 95 64 58 65 59 66 74 68
REMARK SMILES IDX 96 69 61 70 44 71 45 72 54 73 46 74 47 75 53 76 55 77 48 78
REMARK SMILES IDX 49 79 50 80 51 81 52 82 78 83 79 84 88 85 80 86 81 87 87 88
REMARK SMILES IDX 89 89 82 90 83 91 84 92 85 93 86 94 62 95 63 96 72 97 64 98
REMARK SMILES IDX 65 99 71 100 73 101 66 102 67 103 68 104 69 105 70 106
REMARK H PARENT 25 7 20 30 32 37 94 56 60 67
REMARK Flexibility Score: inf
ROOT
ATOM      1  C   UNL A   1      33.778  30.861  27.641  1.00  0.00     0.002 C 
ENDROOT
BRANCH   1   2
ATOM      2  C   UNL A   1      32.471  31.218  26.927  1.00  0.00     0.021 C 
BRANCH   2   3
ATOM      3  C   UNL A   1      31.989  30.149  25.951  1.00  0.00     0.116 C 
BRANCH   3   4
ATOM      4  N   UNL A   1      32.969  29.893  24.910  1.00  0.00    -0.356 N 
ATOM      5  C   UNL A   1      33.062  28.894  23.994  1.00  0.00     0.225 C 
ATOM      6  O   UNL A   1      33.987  28.950  23.179  1.00  0.00    -0.275 OA
ATOM      7  H   UNL A   1      33.692  30.560  24.860  1.00  0.00     0.163 HD
BRANCH   5   8
ATOM      8  C   UNL A   1      32.053  27.765  23.925  1.00  0.00     0.107 C 
ATOM      9  C   UNL A   1      31.244  27.723  22.613  1.00  0.00     0.053 C 
ATOM     10  C   UNL A   1      31.023  26.228  22.372  1.00  0.00     0.128 C 
ATOM     11  N   UNL A   1      32.187  25.589  22.971  1.00  0.00    -0.341 N 
ATOM     12  C   UNL A   1      32.725  26.400  24.051  1.00  0.00     0.133 C 
BRANCH   9  13
ATOM     13  C   UNL A   1      29.962  28.520  22.603  1.00  0.00    -0.039 A 
ATOM     14  C   UNL A   1      28.732  30.581  22.192  1.00  0.00     0.119 A 
ATOM     15  C   UNL A   1      27.583  29.996  22.723  1.00  0.00     0.046 A 
ATOM     16  C   UNL A   1      29.919  29.848  22.146  1.00  0.00     0.050 A 
ATOM     17  C   UNL A   1      27.607  28.677  23.171  1.00  0.00     0.004 A 
ATOM     18  C   UNL A   1      28.788  27.941  23.108  1.00  0.00     0.004 A 
BRANCH  14  19
ATOM     19  O   UNL A   1      28.599  31.886  21.801  1.00  0.00    -0.497 OA
ATOM     20  C   UNL A   1      28.062  32.094  20.501  1.00  0.00     0.278 C 
ENDBRANCH  14  19
ENDBRANCH   9  13
BRANCH  11  21
ATOM     21  C   UNL A   1      32.732  24.365  22.664  1.00  0.00     0.233 C 
ATOM     22  O   UNL A   1      33.636  24.277  21.828  1.00  0.00    -0.274 OA
BRANCH  21  23
ATOM     23  C   UNL A   1      32.258  23.131  23.407  1.00  0.00     0.178 C 
BRANCH  23  24
ATOM     24  S   UNL A   1      33.544  22.464  24.490  1.00  0.00    -0.077 SA
BRANCH  24  25
ATOM     25  C   UNL A   1      33.361  20.759  24.357  1.00  0.00     0.184 A 
ATOM     26  N   UNL A   1      34.227  19.867  24.771  1.00  0.00    -0.206 NA
ATOM     27  N   UNL A   1      32.368  20.142  23.660  1.00  0.00    -0.254 N 
ATOM     28  C   UNL A   1      33.712  18.694  24.290  1.00  0.00     0.148 A 
ATOM     29  N   UNL A   1      32.573  18.812  23.595  1.00  0.00    -0.158 NA
ATOM     30  H   UNL A   1      31.600  20.607  23.254  1.00  0.00     0.192 HD
ATOM     31  C   UNL A   1      34.395  17.405  24.503  1.00  0.00     0.092 C 
ENDBRANCH  24  25
ENDBRANCH  23  24
ENDBRANCH  21  23
ENDBRANCH  11  21
ENDBRANCH   5   8
ENDBRANCH   3   4
ENDBRANCH   2   3
ENDBRANCH   1   2
BRANCH   1  32
ATOM     32  C   UNL A   1      34.752  32.027  27.859  1.00  0.00     0.002 C 
BRANCH  32  33
ATOM     33  C   UNL A   1      34.127  33.395  28.175  1.00  0.00     0.021 C 
BRANCH  33  34
ATOM     34  C   UNL A   1      35.130  34.433  28.648  1.00  0.00     0.116 C 
BRANCH  34  35
ATOM     35  N   UNL A   1      34.824  34.935  29.989  1.00  0.00    -0.352 N 
ATOM     36  C   UNL A   1      35.072  34.328  31.203  1.00  0.00     0.251 C 
ATOM     37  H   UNL A   1      34.385  35.816  30.029  1.00  0.00     0.163 HD
ATOM     38  O   UNL A   1      34.424  34.644  32.204  1.00  0.00    -0.269 OA
BRANCH  36  39
ATOM     39  C   UNL A   1      36.134  33.315  31.285  1.00  0.00     0.039 A 
ATOM     40  C   UNL A   1      35.869  31.944  31.354  1.00  0.00     0.014 A 
ATOM     41  C   UNL A   1      37.445  33.782  31.272  1.00  0.00     0.014 A 
ATOM     42  C   UNL A   1      36.945  31.058  31.361  1.00  0.00     0.010 A 
ATOM     43  C   UNL A   1      38.475  32.917  31.043  1.00  0.00     0.010 A 
ATOM     44  C   UNL A   1      38.247  31.562  31.199  1.00  0.00    -0.014 A 
BRANCH  44  45
ATOM     45  C   UNL A   1      39.411  30.700  31.082  1.00  0.00     0.031 A 
ATOM     46  C   UNL A   1      40.048  30.401  32.387  1.00  0.00     0.074 A 
ATOM     47  C   UNL A   1      39.714  30.034  29.944  1.00  0.00     0.049 A 
ATOM     48  N   UNL A   1      41.132  30.915  32.858  1.00  0.00    -0.248 NA
ATOM     49  C   UNL A   1      39.288  29.616  33.375  1.00  0.00     0.031 C 
ATOM     50  C   UNL A   1      38.963  29.975  28.683  1.00  0.00     0.029 A 
ATOM     51  N   UNL A   1      40.738  29.172  29.709  1.00  0.00    -0.354 N 
ATOM     52  C   UNL A   1      41.340  30.287  34.081  1.00  0.00     0.074 A 
ATOM     53  C   UNL A   1      40.070  29.726  34.452  1.00  0.00     0.031 C 
ATOM     54  C   UNL A   1      39.430  28.961  27.918  1.00  0.00     0.029 A 
ATOM     55  C   UNL A   1      40.612  28.406  28.550  1.00  0.00     0.049 A 
ATOM     56  H   UNL A   1      41.512  29.093  30.313  1.00  0.00     0.167 HD
ATOM     57  C   UNL A   1      42.603  30.033  34.523  1.00  0.00     0.037 A 
ATOM     58  C   UNL A   1      41.422  27.380  28.171  1.00  0.00     0.037 A 
ATOM     59  C   UNL A   1      43.572  30.765  33.736  1.00  0.00     0.049 A 
ATOM     60  C   UNL A   1      42.696  27.548  28.925  1.00  0.00     0.074 A 
ATOM     61  C   UNL A   1      43.771  32.101  33.440  1.00  0.00     0.029 A 
ATOM     62  N   UNL A   1      44.263  30.063  32.775  1.00  0.00    -0.354 N 
ATOM     63  N   UNL A   1      43.514  28.549  28.740  1.00  0.00    -0.248 NA
ATOM     64  C   UNL A   1      42.797  26.893  30.221  1.00  0.00     0.031 C 
ATOM     65  C   UNL A   1      44.134  32.121  32.060  1.00  0.00     0.029 A 
ATOM     66  C   UNL A   1      44.236  30.801  31.619  1.00  0.00     0.049 A 
ATOM     67  H   UNL A   1      44.699  29.189  32.896  1.00  0.00     0.167 HD
ATOM     68  C   UNL A   1      43.907  28.927  30.017  1.00  0.00     0.074 A 
ATOM     69  C   UNL A   1      43.483  27.828  30.884  1.00  0.00     0.031 C 
ATOM     70  C   UNL A   1      44.259  30.218  30.295  1.00  0.00     0.037 A 
BRANCH  57  71
ATOM     71  C   UNL A   1      43.007  28.841  35.366  1.00  0.00     0.058 A 
ATOM     72  C   UNL A   1      43.814  29.062  36.503  1.00  0.00     0.135 A 
ATOM     73  C   UNL A   1      42.881  27.491  34.968  1.00  0.00     0.135 A 
ATOM     74  F   UNL A   1      43.999  30.304  36.980  1.00  0.00    -0.206 F 
ATOM     75  C   UNL A   1      44.518  28.038  37.134  1.00  0.00     0.059 A 
ATOM     76  C   UNL A   1      43.531  26.448  35.617  1.00  0.00     0.059 A 
ATOM     77  F   UNL A   1      42.202  27.115  33.880  1.00  0.00    -0.206 F 
ATOM     78  C   UNL A   1      44.380  26.734  36.671  1.00  0.00     0.060 A 
BRANCH  78  79
ATOM     79  S   UNL A   1      45.355  25.423  37.425  1.00  0.00     0.124 S 
ATOM     80  O   UNL A   1      44.567  25.124  38.614  1.00  0.00    -0.237 OA
ATOM     81  O   UNL A   1      45.349  24.407  36.377  1.00  0.00    -0.237 OA
ATOM     82  O   UNL A   1      46.646  26.062  37.664  1.00  0.00    -0.744 OA
ENDBRANCH  78  79
ENDBRANCH  57  71
BRANCH  58  83
ATOM     83  C   UNL A   1      41.062  26.093  27.509  1.00  0.00     0.058 A 
ATOM     84  C   UNL A   1      41.936  25.477  26.590  1.00  0.00     0.135 A 
ATOM     85  C   UNL A   1      40.012  25.286  27.994  1.00  0.00     0.135 A 
ATOM     86  F   UNL A   1      42.969  26.165  26.080  1.00  0.00    -0.206 F 
ATOM     87  C   UNL A   1      41.822  24.127  26.234  1.00  0.00     0.059 A 
ATOM     88  C   UNL A   1      39.875  23.941  27.647  1.00  0.00     0.059 A 
ATOM     89  F   UNL A   1      39.141  25.755  28.900  1.00  0.00    -0.206 F 
ATOM     90  C   UNL A   1      40.804  23.358  26.793  1.00  0.00     0.060 A 
BRANCH  90  91
ATOM     91  S   UNL A   1      40.774  21.568  26.512  1.00  0.00     0.124 S 
ATOM     92  O   UNL A   1      41.987  21.365  25.727  1.00  0.00    -0.237 OA
ATOM     93  O   UNL A   1      40.798  21.042  27.872  1.00  0.00    -0.237 OA
ATOM     94  O   UNL A   1      39.521  21.363  25.791  1.00  0.00    -0.744 OA
ENDBRANCH  90  91
ENDBRANCH  58  83
BRANCH  70  95
ATOM     95  C   UNL A   1      44.510  31.161  29.145  1.00  0.00     0.058 A 
ATOM     96  C   UNL A   1      45.672  31.181  28.349  1.00  0.00     0.135 A 
ATOM     97  C   UNL A   1      43.451  31.989  28.744  1.00  0.00     0.135 A 
ATOM     98  F   UNL A   1      46.691  30.345  28.594  1.00  0.00    -0.206 F 
ATOM     99  C   UNL A   1      45.790  32.022  27.239  1.00  0.00     0.059 A 
ATOM    100  C   UNL A   1      43.533  32.809  27.624  1.00  0.00     0.059 A 
ATOM    101  F   UNL A   1      42.292  31.971  29.422  1.00  0.00    -0.206 F 
ATOM    102  C   UNL A   1      44.713  32.836  26.887  1.00  0.00     0.060 A 
BRANCH 102 103
ATOM    103  S   UNL A   1      44.844  33.899  25.432  1.00  0.00     0.124 S 
ATOM    104  O   UNL A   1      44.007  35.035  25.808  1.00  0.00    -0.237 OA
ATOM    105  O   UNL A   1      46.277  34.162  25.359  1.00  0.00    -0.237 OA
ATOM    106  O   UNL A   1      44.316  33.067  24.353  1.00  0.00    -0.744 OA
ENDBRANCH 102 103
ENDBRANCH  70  95
ENDBRANCH  44  45
ENDBRANCH  36  39
ENDBRANCH  34  35
ENDBRANCH  33  34
ENDBRANCH  32  33
ENDBRANCH   1  32
TORSDOF 22
ENDMDL
MODEL 3
REMARK VINA RESULT:     -11.8      2.471      4.878
REMARK SMILES COc1cccc([C@@H]2CN(C(=O)CSc3nc(C)n[nH]3)C[C@H]2C(=O)NCCCCCCNC(=O)c2ccc(-c3c4nc(c(-c5c(F)cc(S(=O)(=O)[O-])cc5F)c5ccc([nH]5)c(-c5c(F)cc(S(=O)(=O)[O-])cc5F)c5nc(c(-c6c(F)cc(S(=O)(=O)[O-])cc6F)c6ccc3[nH]6)C=C5)C=C4)cc2)c1
REMARK SMILES IDX 28 1 27 2 26 3 25 4 23 5 24 6 22 8 8 9 9 10 10 11 21 12 7 13
REMARK SMILES IDX 3 14 4 15 101 16 5 17 6 18 2 19 1 20 11 21 12 22 13 23 14 24
REMARK SMILES IDX 15 25 16 26 20 27 17 28 19 29 18 31 29 32 30 33 31 34 32 35
REMARK SMILES IDX 33 36 34 38 35 39 36 40 100 41 37 42 99 43 38 44 39 45 40 46
REMARK SMILES IDX 93 47 41 48 98 49 92 50 94 51 42 52 97 53 91 54 90 55 43 57
REMARK SMILES IDX 77 58 56 59 76 60 57 61 60 62 75 63 95 64 58 65 59 66 74 68
REMARK SMILES IDX 96 69 61 70 44 71 45 72 54 73 46 74 47 75 53 76 55 77 48 78
REMARK SMILES IDX 49 79 50 80 51 81 52 82 78 83 79 84 88 85 80 86 81 87 87 88
REMARK SMILES IDX 89 89 82 90 83 91 84 92 85 93 86 94 62 95 63 96 72 97 64 98
REMARK SMILES IDX 65 99 71 100 73 101 66 102 67 103 68 104 69 105 70 106
REMARK H PARENT 25 7 20 30 32 37 94 56 60 67
REMARK Flexibility Score: inf
ROOT
ATOM      1  C   UNL A   1      37.603  23.621  25.899  1.00  0.00     0.002 C 
ENDROOT
BRANCH   1   2
ATOM      2  C   UNL A   1      37.167  22.363  25.141  1.00  0.00     0.021 C 
BRANCH   2   3
ATOM      3  C   UNL A   1      35.672  22.077  25.230  1.00  0.00     0.116 C 
BRANCH   3   4
ATOM      4  N   UNL A   1      35.195  22.136  26.600  1.00  0.00    -0.356 N 
ATOM      5  C   UNL A   1      33.951  22.337  27.108  1.00  0.00     0.225 C 
ATOM      6  O   UNL A   1      33.819  22.287  28.334  1.00  0.00    -0.275 OA
ATOM      7  H   UNL A   1      35.897  22.008  27.280  1.00  0.00     0.163 HD
BRANCH   5   8
ATOM      8  C   UNL A   1      32.745  22.570  26.221  1.00  0.00     0.107 C 
ATOM      9  C   UNL A   1      32.945  23.672  25.161  1.00  0.00     0.053 C 
ATOM     10  C   UNL A   1      32.132  23.175  23.964  1.00  0.00     0.128 C 
ATOM     11  N   UNL A   1      32.184  21.722  24.069  1.00  0.00    -0.341 N 
ATOM     12  C   UNL A   1      32.358  21.309  25.453  1.00  0.00     0.133 C 
BRANCH   9  13
ATOM     13  C   UNL A   1      32.576  25.072  25.587  1.00  0.00    -0.039 A 
ATOM     14  C   UNL A   1      33.183  27.295  26.374  1.00  0.00     0.119 A 
ATOM     15  C   UNL A   1      31.832  27.617  26.491  1.00  0.00     0.046 A 
ATOM     16  C   UNL A   1      33.550  26.021  25.936  1.00  0.00     0.050 A 
ATOM     17  C   UNL A   1      30.853  26.690  26.140  1.00  0.00     0.004 A 
ATOM     18  C   UNL A   1      31.222  25.426  25.687  1.00  0.00     0.004 A 
BRANCH  14  19
ATOM     19  O   UNL A   1      34.057  28.274  26.765  1.00  0.00    -0.497 OA
ATOM     20  C   UNL A   1      33.695  29.605  26.419  1.00  0.00     0.278 C 
ENDBRANCH  14  19
ENDBRANCH   9  13
BRANCH  11  21
ATOM     21  C   UNL A   1      32.036  20.795  23.065  1.00  0.00     0.233 C 
ATOM     22  O   UNL A   1      32.167  21.128  21.884  1.00  0.00    -0.274 OA
BRANCH  21  23
ATOM     23  C   UNL A   1      31.774  19.345  23.424  1.00  0.00     0.178 C 
BRANCH  23  24
ATOM     24  S   UNL A   1      32.837  18.219  22.489  1.00  0.00    -0.077 SA
BRANCH  24  25
ATOM     25  C   UNL A   1      33.522  17.195  23.690  1.00  0.00     0.184 A 
ATOM     26  N   UNL A   1      34.730  17.306  24.184  1.00  0.00    -0.206 NA
ATOM     27  N   UNL A   1      32.943  16.051  24.149  1.00  0.00    -0.254 N 
ATOM     28  C   UNL A   1      34.851  16.182  24.954  1.00  0.00     0.148 A 
ATOM     29  N   UNL A   1      33.780  15.376  24.960  1.00  0.00    -0.158 NA
ATOM     30  H   UNL A   1      32.033  15.756  23.918  1.00  0.00     0.192 HD
ATOM     31  C   UNL A   1      36.091  15.877  25.691  1.00  0.00     0.092 C 
ENDBRANCH  24  25
ENDBRANCH  23  24
ENDBRANCH  21  23
ENDBRANCH  11  21
ENDBRANCH   5   8
ENDBRANCH   3   4
ENDBRANCH   2   3
ENDBRANCH   1   2
BRANCH   1  32
ATOM     32  C   UNL A   1      38.934  23.508  26.656  1.00  0.00     0.002 C 
BRANCH  32  33
ATOM     33  C   UNL A   1      39.664  22.158  26.568  1.00  0.00     0.021 C 
BRANCH  33  34
ATOM     34  C   UNL A   1      41.019  22.148  27.252  1.00  0.00     0.116 C 
BRANCH  34  35
ATOM     35  N   UNL A   1      42.127  22.169  26.296  1.00  0.00    -0.352 N 
ATOM     36  C   UNL A   1      42.655  23.254  25.626  1.00  0.00     0.251 C 
ATOM     37  H   UNL A   1      42.549  21.299  26.106  1.00  0.00     0.163 HD
ATOM     38  O   UNL A   1      43.288  23.096  24.578  1.00  0.00    -0.269 OA
BRANCH  36  39
ATOM     39  C   UNL A   1      42.468  24.597  26.194  1.00  0.00     0.039 A 
ATOM     40  C   UNL A   1      41.606  25.544  25.632  1.00  0.00     0.014 A 
ATOM     41  C   UNL A   1      43.183  24.892  27.351  1.00  0.00     0.014 A 
ATOM     42  C   UNL A   1      41.445  26.766  26.282  1.00  0.00     0.010 A 
ATOM     43  C   UNL A   1      42.849  25.981  28.102  1.00  0.00     0.010 A 
ATOM     44  C   UNL A   1      42.071  26.968  27.524  1.00  0.00    -0.014 A 
BRANCH  44  45
ATOM     45  C   UNL A   1      41.865  28.167  28.319  1.00  0.00     0.031 A 
ATOM     46  C   UNL A   1      42.917  29.190  28.112  1.00  0.00     0.074 A 
ATOM     47  C   UNL A   1      40.705  28.422  28.965  1.00  0.00     0.049 A 
ATOM     48  N   UNL A   1      43.895  29.471  28.905  1.00  0.00    -0.248 NA
ATOM     49  C   UNL A   1      43.032  29.821  26.786  1.00  0.00     0.031 C 
ATOM     50  C   UNL A   1      39.458  27.645  28.963  1.00  0.00     0.029 A 
ATOM     51  N   UNL A   1      40.364  29.510  29.704  1.00  0.00    -0.354 N 
ATOM     52  C   UNL A   1      44.573  30.523  28.300  1.00  0.00     0.074 A 
ATOM     53  C   UNL A   1      44.172  30.503  26.920  1.00  0.00     0.031 C 
ATOM     54  C   UNL A   1      38.450  28.394  29.468  1.00  0.00     0.029 A 
ATOM     55  C   UNL A   1      39.002  29.632  29.982  1.00  0.00     0.049 A 
ATOM     56  H   UNL A   1      41.028  30.164  30.020  1.00  0.00     0.167 HD
ATOM     57  C   UNL A   1      45.164  31.491  29.055  1.00  0.00     0.037 A 
ATOM     58  C   UNL A   1      38.394  30.696  30.574  1.00  0.00     0.037 A 
ATOM     59  C   UNL A   1      45.241  31.076  30.439  1.00  0.00     0.049 A 
ATOM     60  C   UNL A   1      39.462  31.448  31.291  1.00  0.00     0.074 A 
ATOM     61  C   UNL A   1      45.797  29.996  31.099  1.00  0.00     0.029 A 
ATOM     62  N   UNL A   1      44.318  31.611  31.308  1.00  0.00    -0.354 N 
ATOM     63  N   UNL A   1      40.110  30.970  32.319  1.00  0.00    -0.248 NA
ATOM     64  C   UNL A   1      40.150  32.498  30.554  1.00  0.00     0.031 C 
ATOM     65  C   UNL A   1      44.838  29.643  32.096  1.00  0.00     0.029 A 
ATOM     66  C   UNL A   1      43.806  30.581  32.057  1.00  0.00     0.049 A 
ATOM     67  H   UNL A   1      44.070  32.560  31.380  1.00  0.00     0.167 HD
ATOM     68  C   UNL A   1      41.434  31.328  32.102  1.00  0.00     0.074 A 
ATOM     69  C   UNL A   1      41.386  32.324  31.032  1.00  0.00     0.031 C 
ATOM     70  C   UNL A   1      42.461  30.568  32.589  1.00  0.00     0.037 A 
BRANCH  57  71
ATOM     71  C   UNL A   1      45.299  32.945  28.655  1.00  0.00     0.058 A 
ATOM     72  C   UNL A   1      46.571  33.551  28.735  1.00  0.00     0.135 A 
ATOM     73  C   UNL A   1      44.217  33.835  28.471  1.00  0.00     0.135 A 
ATOM     74  F   UNL A   1      47.676  32.805  28.898  1.00  0.00    -0.206 F 
ATOM     75  C   UNL A   1      46.745  34.934  28.731  1.00  0.00     0.059 A 
ATOM     76  C   UNL A   1      44.374  35.214  28.410  1.00  0.00     0.059 A 
ATOM     77  F   UNL A   1      42.943  33.432  28.434  1.00  0.00    -0.206 F 
ATOM     78  C   UNL A   1      45.635  35.758  28.583  1.00  0.00     0.060 A 
BRANCH  78  79
ATOM     79  S   UNL A   1      45.844  37.543  28.667  1.00  0.00     0.124 S 
ATOM     80  O   UNL A   1      47.239  37.690  28.274  1.00  0.00    -0.237 OA
ATOM     81  O   UNL A   1      44.851  38.004  27.701  1.00  0.00    -0.237 OA
ATOM     82  O   UNL A   1      45.542  37.850  30.062  1.00  0.00    -0.744 OA
ENDBRANCH  78  79
ENDBRANCH  57  71
BRANCH  58  83
ATOM     83  C   UNL A   1      37.067  31.308  30.273  1.00  0.00     0.058 A 
ATOM     84  C   UNL A   1      36.224  31.765  31.308  1.00  0.00     0.135 A 
ATOM     85  C   UNL A   1      36.736  31.744  28.974  1.00  0.00     0.135 A 
ATOM     86  F   UNL A   1      36.466  31.408  32.578  1.00  0.00    -0.206 F 
ATOM     87  C   UNL A   1      35.169  32.657  31.079  1.00  0.00     0.059 A 
ATOM     88  C   UNL A   1      35.684  32.626  28.722  1.00  0.00     0.059 A 
ATOM     89  F   UNL A   1      37.488  31.402  27.918  1.00  0.00    -0.206 F 
ATOM     90  C   UNL A   1      34.926  33.107  29.783  1.00  0.00     0.060 A 
BRANCH  90  91
ATOM     91  S   UNL A   1      33.710  34.421  29.503  1.00  0.00     0.124 S 
ATOM     92  O   UNL A   1      33.302  34.751  30.864  1.00  0.00    -0.237 OA
ATOM     93  O   UNL A   1      34.502  35.432  28.810  1.00  0.00    -0.237 OA
ATOM     94  O   UNL A   1      32.691  33.766  28.687  1.00  0.00    -0.744 OA
ENDBRANCH  90  91
ENDBRANCH  58  83
BRANCH  70  95
ATOM     95  C   UNL A   1      42.150  29.510  33.618  1.00  0.00     0.058 A 
ATOM     96  C   UNL A   1      41.694  28.209  33.334  1.00  0.00     0.135 A 
ATOM     97  C   UNL A   1      42.472  29.793  34.954  1.00  0.00     0.135 A 
ATOM     98  F   UNL A   1      41.465  27.817  32.072  1.00  0.00    -0.206 F 
ATOM     99  C   UNL A   1      41.519  27.254  34.339  1.00  0.00     0.059 A 
ATOM    100  C   UNL A   1      42.339  28.848  35.965  1.00  0.00     0.059 A 
ATOM    101  F   UNL A   1      42.972  30.995  35.284  1.00  0.00    -0.206 F 
ATOM    102  C   UNL A   1      41.843  27.586  35.654  1.00  0.00     0.060 A 
BRANCH 102 103
ATOM    103  S   UNL A   1      41.655  26.345  36.954  1.00  0.00     0.124 S 
ATOM    104  O   UNL A   1      40.397  26.744  37.578  1.00  0.00    -0.237 OA
ATOM    105  O   UNL A   1      41.621  25.097  36.199  1.00  0.00    -0.237 OA
ATOM    106  O   UNL A   1      42.846  26.532  37.779  1.00  0.00    -0.744 OA
ENDBRANCH 102 103
ENDBRANCH  70  95
ENDBRANCH  44  45
ENDBRANCH  36  39
ENDBRANCH  34  35
ENDBRANCH  33  34
ENDBRANCH  32  33
ENDBRANCH   1  32
TORSDOF 22
ENDMDL
