MODEL 1
REMARK VINA RESULT:     -10.9      0.000      0.000
REMARK SMILES CCC[NH2+][C@@]1(C(=O)NCCCCCCNC(=O)c2ccc(-c3c4nc(c(-c5c(F)cc(S(=O)(=O)[O-])cc5F)c5ccc([nH]5)c(-c5c(F)cc(S(=O)(=O)[O-])cc5F)c5nc(c(-c6c(F)cc(S(=O)(=O)[O-])cc6F)c6ccc3[nH]6)C=C5)C=C4)cc2)CC[C@@H](SC2CCCC2)C1
REMARK SMILES IDX 11 1 10 2 9 3 8 4 6 5 7 6 5 8 84 9 93 10 85 11 86 12 4 13
REMARK SMILES IDX 3 16 2 17 1 18 87 19 88 20 89 21 92 22 90 23 91 24 12 25
REMARK SMILES IDX 13 26 14 27 15 28 16 29 17 31 18 32 19 33 83 34 20 35 82 36
REMARK SMILES IDX 21 37 22 38 23 39 76 40 24 41 81 42 75 43 77 44 25 45 80 46
REMARK SMILES IDX 74 47 73 48 26 50 60 51 39 52 59 53 40 54 43 55 58 56 78 57
REMARK SMILES IDX 41 58 42 59 57 61 79 62 44 63 27 64 28 65 37 66 29 67 30 68
REMARK SMILES IDX 36 69 38 70 31 71 32 72 33 73 34 74 35 75 61 76 62 77 71 78
REMARK SMILES IDX 63 79 64 80 70 81 72 82 65 83 66 84 67 85 68 86 69 87 45 88
REMARK SMILES IDX 46 89 55 90 47 91 48 92 54 93 56 94 49 95 50 96 51 97 52 98
REMARK SMILES IDX 53 99
REMARK H PARENT 8 7 4 14 4 15 15 30 77 49 43 60
REMARK Flexibility Score: inf
ROOT
ATOM      1  C   UNL A   1      36.443  23.384  23.820  1.00  0.00     0.002 C 
ENDROOT
BRANCH   1   2
ATOM      2  C   UNL A   1      35.076  22.917  23.340  1.00  0.00     0.021 C 
BRANCH   2   3
ATOM      3  C   UNL A   1      34.093  24.050  23.102  1.00  0.00     0.116 C 
BRANCH   3   4
ATOM      4  N   UNL A   1      32.741  23.606  22.963  1.00  0.00    -0.351 N 
ATOM      5  C   UNL A   1      31.586  24.137  23.446  1.00  0.00     0.281 C 
ATOM      6  O   UNL A   1      30.617  23.370  23.356  1.00  0.00    -0.268 OA
ATOM      7  H   UNL A   1      32.628  22.785  22.432  1.00  0.00     0.163 HD
BRANCH   5   8
ATOM      8  C   UNL A   1      31.470  25.603  24.081  1.00  0.00     0.176 C 
ATOM      9  C   UNL A   1      30.056  26.052  24.512  1.00  0.00     0.080 C 
ATOM     10  C   UNL A   1      31.943  26.695  23.087  1.00  0.00     0.093 C 
ATOM     11  C   UNL A   1      29.508  27.025  23.471  1.00  0.00     0.022 C 
ATOM     12  C   UNL A   1      30.715  27.531  22.684  1.00  0.00     0.054 C 
BRANCH   8  13
ATOM     13  N   UNL A   1      32.381  25.639  25.273  1.00  0.00    -0.334 N 
ATOM     14  H   UNL A   1      32.619  24.679  25.520  1.00  0.00     0.347 HD
ATOM     15  H   UNL A   1      33.190  26.196  25.001  1.00  0.00     0.347 HD
BRANCH  13  16
ATOM     16  C   UNL A   1      31.812  26.289  26.463  1.00  0.00     0.261 C 
BRANCH  16  17
ATOM     17  C   UNL A   1      32.448  27.661  26.706  1.00  0.00     0.058 C 
ATOM     18  C   UNL A   1      33.878  27.761  26.201  1.00  0.00     0.010 C 
ENDBRANCH  16  17
ENDBRANCH  13  16
ENDBRANCH   8  13
BRANCH  12  19
ATOM     19  S   UNL A   1      30.926  29.332  22.446  1.00  0.00    -0.155 SA
BRANCH  19  20
ATOM     20  C   UNL A   1      29.296  30.124  22.589  1.00  0.00     0.047 C 
ATOM     21  C   UNL A   1      29.030  31.083  23.737  1.00  0.00     0.014 C 
ATOM     22  C   UNL A   1      28.812  30.882  21.362  1.00  0.00     0.014 C 
ATOM     23  C   UNL A   1      27.660  31.645  23.393  1.00  0.00     0.001 C 
ATOM     24  C   UNL A   1      27.659  31.754  21.868  1.00  0.00     0.001 C 
ENDBRANCH  19  20
ENDBRANCH  12  19
ENDBRANCH   5   8
ENDBRANCH   3   4
ENDBRANCH   2   3
ENDBRANCH   1   2
BRANCH   1  25
ATOM     25  C   UNL A   1      36.560  23.563  25.338  1.00  0.00     0.002 C 
BRANCH  25  26
ATOM     26  C   UNL A   1      37.865  23.055  25.961  1.00  0.00     0.021 C 
BRANCH  26  27
ATOM     27  C   UNL A   1      38.700  24.126  26.656  1.00  0.00     0.116 C 
BRANCH  27  28
ATOM     28  N   UNL A   1      40.082  24.102  26.208  1.00  0.00    -0.352 N 
ATOM     29  C   UNL A   1      41.092  24.986  26.466  1.00  0.00     0.251 C 
ATOM     30  H   UNL A   1      40.326  23.338  25.636  1.00  0.00     0.163 HD
ATOM     31  O   UNL A   1      42.131  24.942  25.807  1.00  0.00    -0.269 OA
BRANCH  29  32
ATOM     32  C   UNL A   1      40.929  25.992  27.532  1.00  0.00     0.039 A 
ATOM     33  C   UNL A   1      39.957  25.789  28.513  1.00  0.00     0.014 A 
ATOM     34  C   UNL A   1      41.724  27.142  27.550  1.00  0.00     0.014 A 
ATOM     35  C   UNL A   1      39.812  26.721  29.540  1.00  0.00     0.010 A 
ATOM     36  C   UNL A   1      41.630  28.030  28.615  1.00  0.00     0.010 A 
ATOM     37  C   UNL A   1      40.664  27.836  29.613  1.00  0.00    -0.014 A 
BRANCH  37  38
ATOM     38  C   UNL A   1      40.548  28.822  30.716  1.00  0.00     0.031 A 
ATOM     39  C   UNL A   1      41.423  28.694  31.933  1.00  0.00     0.074 A 
ATOM     40  C   UNL A   1      39.615  29.792  30.644  1.00  0.00     0.049 A 
ATOM     41  N   UNL A   1      41.422  29.407  33.028  1.00  0.00    -0.248 NA
ATOM     42  C   UNL A   1      42.410  27.601  31.929  1.00  0.00     0.031 C 
ATOM     43  C   UNL A   1      38.682  29.988  29.532  1.00  0.00     0.029 A 
ATOM     44  N   UNL A   1      39.290  30.789  31.528  1.00  0.00    -0.354 N 
ATOM     45  C   UNL A   1      42.395  28.844  33.846  1.00  0.00     0.074 A 
ATOM     46  C   UNL A   1      42.925  27.696  33.145  1.00  0.00     0.031 C 
ATOM     47  C   UNL A   1      37.906  31.053  29.792  1.00  0.00     0.029 A 
ATOM     48  C   UNL A   1      38.254  31.588  31.103  1.00  0.00     0.049 A 
ATOM     49  H   UNL A   1      39.755  30.920  32.387  1.00  0.00     0.167 HD
ATOM     50  C   UNL A   1      42.824  29.263  35.060  1.00  0.00     0.037 A 
ATOM     51  C   UNL A   1      37.649  32.628  31.709  1.00  0.00     0.037 A 
ATOM     52  C   UNL A   1      42.303  30.421  35.740  1.00  0.00     0.049 A 
ATOM     53  C   UNL A   1      38.136  33.067  33.064  1.00  0.00     0.074 A 
ATOM     54  C   UNL A   1      42.703  30.961  36.948  1.00  0.00     0.029 A 
ATOM     55  N   UNL A   1      41.267  31.215  35.270  1.00  0.00    -0.354 N 
ATOM     56  N   UNL A   1      39.098  32.561  33.798  1.00  0.00    -0.248 NA
ATOM     57  C   UNL A   1      37.460  34.222  33.670  1.00  0.00     0.031 C 
ATOM     58  C   UNL A   1      41.875  32.051  37.234  1.00  0.00     0.029 A 
ATOM     59  C   UNL A   1      40.998  32.228  36.175  1.00  0.00     0.049 A 
ATOM     60  H   UNL A   1      40.791  31.078  34.418  1.00  0.00     0.167 HD
ATOM     61  C   UNL A   1      39.166  33.355  34.938  1.00  0.00     0.074 A 
ATOM     62  C   UNL A   1      38.153  34.380  34.790  1.00  0.00     0.031 C 
ATOM     63  C   UNL A   1      39.992  33.247  36.007  1.00  0.00     0.037 A 
BRANCH  50  64
ATOM     64  C   UNL A   1      43.911  28.465  35.732  1.00  0.00     0.058 A 
ATOM     65  C   UNL A   1      43.617  27.426  36.629  1.00  0.00     0.135 A 
ATOM     66  C   UNL A   1      45.262  28.721  35.449  1.00  0.00     0.135 A 
ATOM     67  F   UNL A   1      42.343  27.148  36.950  1.00  0.00    -0.206 F 
ATOM     68  C   UNL A   1      44.624  26.690  37.247  1.00  0.00     0.059 A 
ATOM     69  C   UNL A   1      46.285  27.977  36.031  1.00  0.00     0.059 A 
ATOM     70  F   UNL A   1      45.602  29.704  34.599  1.00  0.00    -0.206 F 
ATOM     71  C   UNL A   1      45.956  26.973  36.940  1.00  0.00     0.060 A 
BRANCH  71  72
ATOM     72  S   UNL A   1      47.248  26.005  37.746  1.00  0.00     0.124 S 
ATOM     73  O   UNL A   1      47.317  24.832  36.879  1.00  0.00    -0.237 OA
ATOM     74  O   UNL A   1      48.395  26.905  37.687  1.00  0.00    -0.237 OA
ATOM     75  O   UNL A   1      46.711  25.765  39.082  1.00  0.00    -0.744 OA
ENDBRANCH  71  72
ENDBRANCH  50  64
BRANCH  51  76
ATOM     76  C   UNL A   1      36.531  33.335  31.029  1.00  0.00     0.058 A 
ATOM     77  C   UNL A   1      36.767  34.164  29.922  1.00  0.00     0.135 A 
ATOM     78  C   UNL A   1      35.203  33.187  31.461  1.00  0.00     0.135 A 
ATOM     79  F   UNL A   1      38.019  34.341  29.473  1.00  0.00    -0.206 F 
ATOM     80  C   UNL A   1      35.732  34.837  29.280  1.00  0.00     0.059 A 
ATOM     81  C   UNL A   1      34.148  33.827  30.819  1.00  0.00     0.059 A 
ATOM     82  F   UNL A   1      34.920  32.391  32.504  1.00  0.00    -0.206 F 
ATOM     83  C   UNL A   1      34.424  34.658  29.735  1.00  0.00     0.060 A 
BRANCH  83  84
ATOM     84  S   UNL A   1      33.085  35.501  28.866  1.00  0.00     0.124 S 
ATOM     85  O   UNL A   1      33.816  36.497  28.092  1.00  0.00    -0.237 OA
ATOM     86  O   UNL A   1      32.483  34.413  28.102  1.00  0.00    -0.237 OA
ATOM     87  O   UNL A   1      32.260  36.025  29.951  1.00  0.00    -0.744 OA
ENDBRANCH  83  84
ENDBRANCH  51  76
BRANCH  63  88
ATOM     88  C   UNL A   1      39.869  34.288  37.087  1.00  0.00     0.058 A 
ATOM     89  C   UNL A   1      39.081  34.082  38.229  1.00  0.00     0.135 A 
ATOM     90  C   UNL A   1      40.600  35.485  37.001  1.00  0.00     0.135 A 
ATOM     91  F   UNL A   1      38.357  32.959  38.358  1.00  0.00    -0.206 F 
ATOM     92  C   UNL A   1      39.003  35.037  39.238  1.00  0.00     0.059 A 
ATOM     93  C   UNL A   1      40.562  36.439  38.012  1.00  0.00     0.059 A 
ATOM     94  F   UNL A   1      41.379  35.728  35.934  1.00  0.00    -0.206 F 
ATOM     95  C   UNL A   1      39.751  36.212  39.122  1.00  0.00     0.060 A 
BRANCH  95  96
ATOM     96  S   UNL A   1      39.671  37.423  40.457  1.00  0.00     0.124 S 
ATOM     97  O   UNL A   1      40.824  38.266  40.159  1.00  0.00    -0.237 OA
ATOM     98  O   UNL A   1      38.364  38.038  40.243  1.00  0.00    -0.237 OA
ATOM     99  O   UNL A   1      39.784  36.608  41.664  1.00  0.00    -0.744 OA
ENDBRANCH  95  96
ENDBRANCH  63  88
ENDBRANCH  37  38
ENDBRANCH  29  32
ENDBRANCH  27  28
ENDBRANCH  26  27
ENDBRANCH  25  26
ENDBRANCH   1  25
TORSDOF 21
ENDMDL
MODEL 2
REMARK VINA RESULT:     -10.8      6.835     12.467
REMARK SMILES CCC[NH2+][C@@]1(C(=O)NCCCCCCNC(=O)c2ccc(-c3c4nc(c(-c5c(F)cc(S(=O)(=O)[O-])cc5F)c5ccc([nH]5)c(-c5c(F)cc(S(=O)(=O)[O-])cc5F)c5nc(c(-c6c(F)cc(S(=O)(=O)[O-])cc6F)c6ccc3[nH]6)C=C5)C=C4)cc2)CC[C@@H](SC2CCCC2)C1
REMARK SMILES IDX 11 1 10 2 9 3 8 4 6 5 7 6 5 8 84 9 93 10 85 11 86 12 4 13
REMARK SMILES IDX 3 16 2 17 1 18 87 19 88 20 89 21 92 22 90 23 91 24 12 25
REMARK SMILES IDX 13 26 14 27 15 28 16 29 17 31 18 32 19 33 83 34 20 35 82 36
REMARK SMILES IDX 21 37 22 38 23 39 76 40 24 41 81 42 75 43 77 44 25 45 80 46
REMARK SMILES IDX 74 47 73 48 26 50 60 51 39 52 59 53 40 54 43 55 58 56 78 57
REMARK SMILES IDX 41 58 42 59 57 61 79 62 44 63 27 64 28 65 37 66 29 67 30 68
REMARK SMILES IDX 36 69 38 70 31 71 32 72 33 73 34 74 35 75 61 76 62 77 71 78
REMARK SMILES IDX 63 79 64 80 70 81 72 82 65 83 66 84 67 85 68 86 69 87 45 88
REMARK SMILES IDX 46 89 55 90 47 91 48 92 54 93 56 94 49 95 50 96 51 97 52 98
REMARK SMILES IDX 53 99
REMARK H PARENT 8 7 4 14 4 15 15 30 77 49 43 60
REMARK Flexibility Score: inf
ROOT
ATOM      1  C   UNL A   1      33.836  28.003  26.146  1.00  0.00     0.002 C 
ENDROOT
BRANCH   1   2
ATOM      2  C   UNL A   1      32.606  27.112  26.245  1.00  0.00     0.021 C 
BRANCH   2   3
ATOM      3  C   UNL A   1      32.807  25.726  25.659  1.00  0.00     0.116 C 
BRANCH   3   4
ATOM      4  N   UNL A   1      32.582  24.675  26.603  1.00  0.00    -0.351 N 
ATOM      5  C   UNL A   1      32.691  23.328  26.463  1.00  0.00     0.281 C 
ATOM      6  O   UNL A   1      32.183  22.692  27.398  1.00  0.00    -0.268 OA
ATOM      7  H   UNL A   1      32.305  24.976  27.499  1.00  0.00     0.163 HD
BRANCH   5   8
ATOM      8  C   UNL A   1      33.395  22.610  25.214  1.00  0.00     0.176 C 
ATOM      9  C   UNL A   1      32.970  23.103  23.814  1.00  0.00     0.080 C 
ATOM     10  C   UNL A   1      33.109  21.085  25.198  1.00  0.00     0.093 C 
ATOM     11  C   UNL A   1      32.015  22.082  23.199  1.00  0.00     0.022 C 
ATOM     12  C   UNL A   1      32.219  20.785  23.978  1.00  0.00     0.054 C 
BRANCH   8  13
ATOM     13  N   UNL A   1      34.874  22.800  25.374  1.00  0.00    -0.334 N 
ATOM     14  H   UNL A   1      35.037  23.308  26.244  1.00  0.00     0.347 HD
ATOM     15  H   UNL A   1      35.287  21.868  25.370  1.00  0.00     0.347 HD
BRANCH  13  16
ATOM     16  C   UNL A   1      35.520  23.544  24.283  1.00  0.00     0.261 C 
BRANCH  16  17
ATOM     17  C   UNL A   1      36.606  22.705  23.602  1.00  0.00     0.058 C 
ATOM     18  C   UNL A   1      37.012  21.479  24.404  1.00  0.00     0.010 C 
ENDBRANCH  16  17
ENDBRANCH  13  16
ENDBRANCH   8  13
BRANCH  12  19
ATOM     19  S   UNL A   1      32.501  19.231  23.055  1.00  0.00    -0.155 SA
BRANCH  19  20
ATOM     20  C   UNL A   1      33.290  18.035  24.174  1.00  0.00     0.047 C 
ATOM     21  C   UNL A   1      32.434  17.256  25.158  1.00  0.00     0.014 C 
ATOM     22  C   UNL A   1      34.148  16.967  23.512  1.00  0.00     0.014 C 
ATOM     23  C   UNL A   1      33.424  16.267  25.752  1.00  0.00     0.001 C 
ATOM     24  C   UNL A   1      34.346  15.898  24.591  1.00  0.00     0.001 C 
ENDBRANCH  19  20
ENDBRANCH  12  19
ENDBRANCH   5   8
ENDBRANCH   3   4
ENDBRANCH   2   3
ENDBRANCH   1   2
BRANCH   1  25
ATOM     25  C   UNL A   1      34.158  28.793  27.420  1.00  0.00     0.002 C 
BRANCH  25  26
ATOM     26  C   UNL A   1      34.440  30.286  27.214  1.00  0.00     0.021 C 
BRANCH  26  27
ATOM     27  C   UNL A   1      35.709  30.794  27.890  1.00  0.00     0.116 C 
BRANCH  27  28
ATOM     28  N   UNL A   1      35.588  30.776  29.339  1.00  0.00    -0.352 N 
ATOM     29  C   UNL A   1      36.421  30.223  30.271  1.00  0.00     0.251 C 
ATOM     30  H   UNL A   1      34.790  31.227  29.700  1.00  0.00     0.163 HD
ATOM     31  O   UNL A   1      36.038  30.090  31.434  1.00  0.00    -0.269 OA
BRANCH  29  32
ATOM     32  C   UNL A   1      37.772  29.786  29.877  1.00  0.00     0.039 A 
ATOM     33  C   UNL A   1      38.119  29.792  28.524  1.00  0.00     0.014 A 
ATOM     34  C   UNL A   1      38.689  29.356  30.841  1.00  0.00     0.014 A 
ATOM     35  C   UNL A   1      39.404  29.406  28.143  1.00  0.00     0.010 A 
ATOM     36  C   UNL A   1      39.990  29.046  30.466  1.00  0.00     0.010 A 
ATOM     37  C   UNL A   1      40.357  29.054  29.113  1.00  0.00    -0.014 A 
BRANCH  37  38
ATOM     38  C   UNL A   1      41.739  28.671  28.730  1.00  0.00     0.031 A 
ATOM     39  C   UNL A   1      42.824  29.713  28.698  1.00  0.00     0.074 A 
ATOM     40  C   UNL A   1      41.998  27.403  28.355  1.00  0.00     0.049 A 
ATOM     41  N   UNL A   1      44.070  29.594  28.323  1.00  0.00    -0.248 NA
ATOM     42  C   UNL A   1      42.451  31.074  29.118  1.00  0.00     0.031 C 
ATOM     43  C   UNL A   1      41.015  26.318  28.305  1.00  0.00     0.029 A 
ATOM     44  N   UNL A   1      43.162  26.814  27.934  1.00  0.00    -0.354 N 
ATOM     45  C   UNL A   1      44.625  30.863  28.447  1.00  0.00     0.074 A 
ATOM     46  C   UNL A   1      43.566  31.748  28.879  1.00  0.00     0.031 C 
ATOM     47  C   UNL A   1      41.623  25.192  27.900  1.00  0.00     0.029 A 
ATOM     48  C   UNL A   1      43.025  25.482  27.619  1.00  0.00     0.049 A 
ATOM     49  H   UNL A   1      44.016  27.299  27.864  1.00  0.00     0.167 HD
ATOM     50  C   UNL A   1      45.908  31.248  28.245  1.00  0.00     0.037 A 
ATOM     51  C   UNL A   1      43.926  24.599  27.148  1.00  0.00     0.037 A 
ATOM     52  C   UNL A   1      46.959  30.353  27.837  1.00  0.00     0.049 A 
ATOM     53  C   UNL A   1      45.342  25.054  26.920  1.00  0.00     0.074 A 
ATOM     54  C   UNL A   1      48.301  30.630  27.654  1.00  0.00     0.029 A 
ATOM     55  N   UNL A   1      46.785  29.008  27.544  1.00  0.00    -0.354 N 
ATOM     56  N   UNL A   1      45.866  26.243  27.101  1.00  0.00    -0.248 NA
ATOM     57  C   UNL A   1      46.293  24.047  26.431  1.00  0.00     0.031 C 
ATOM     58  C   UNL A   1      48.930  29.465  27.202  1.00  0.00     0.029 A 
ATOM     59  C   UNL A   1      47.991  28.446  27.160  1.00  0.00     0.049 A 
ATOM     60  H   UNL A   1      45.929  28.523  27.601  1.00  0.00     0.167 HD
ATOM     61  C   UNL A   1      47.213  26.120  26.780  1.00  0.00     0.074 A 
ATOM     62  C   UNL A   1      47.425  24.738  26.401  1.00  0.00     0.031 C 
ATOM     63  C   UNL A   1      48.186  27.064  26.797  1.00  0.00     0.037 A 
BRANCH  50  64
ATOM     64  C   UNL A   1      46.245  32.699  28.465  1.00  0.00     0.058 A 
ATOM     65  C   UNL A   1      46.660  33.179  29.718  1.00  0.00     0.135 A 
ATOM     66  C   UNL A   1      46.186  33.614  27.402  1.00  0.00     0.135 A 
ATOM     67  F   UNL A   1      46.719  32.353  30.774  1.00  0.00    -0.206 F 
ATOM     68  C   UNL A   1      46.972  34.521  29.917  1.00  0.00     0.059 A 
ATOM     69  C   UNL A   1      46.524  34.954  27.570  1.00  0.00     0.059 A 
ATOM     70  F   UNL A   1      45.795  33.211  26.182  1.00  0.00    -0.206 F 
ATOM     71  C   UNL A   1      46.902  35.401  28.836  1.00  0.00     0.060 A 
BRANCH  71  72
ATOM     72  S   UNL A   1      47.317  37.136  29.111  1.00  0.00     0.124 S 
ATOM     73  O   UNL A   1      46.399  37.487  30.189  1.00  0.00    -0.237 OA
ATOM     74  O   UNL A   1      48.728  37.064  29.478  1.00  0.00    -0.237 OA
ATOM     75  O   UNL A   1      47.039  37.761  27.822  1.00  0.00    -0.744 OA
ENDBRANCH  71  72
ENDBRANCH  50  64
BRANCH  51  76
ATOM     76  C   UNL A   1      43.519  23.194  26.880  1.00  0.00     0.058 A 
ATOM     77  C   UNL A   1      43.277  22.299  27.933  1.00  0.00     0.135 A 
ATOM     78  C   UNL A   1      43.350  22.719  25.570  1.00  0.00     0.135 A 
ATOM     79  F   UNL A   1      43.429  22.702  29.203  1.00  0.00    -0.206 F 
ATOM     80  C   UNL A   1      42.903  20.979  27.698  1.00  0.00     0.059 A 
ATOM     81  C   UNL A   1      42.949  21.413  25.309  1.00  0.00     0.059 A 
ATOM     82  F   UNL A   1      43.551  23.540  24.526  1.00  0.00    -0.206 F 
ATOM     83  C   UNL A   1      42.737  20.547  26.381  1.00  0.00     0.060 A 
BRANCH  83  84
ATOM     84  S   UNL A   1      42.207  18.846  26.089  1.00  0.00     0.124 S 
ATOM     85  O   UNL A   1      40.826  19.037  25.662  1.00  0.00    -0.237 OA
ATOM     86  O   UNL A   1      43.141  18.408  25.056  1.00  0.00    -0.237 OA
ATOM     87  O   UNL A   1      42.384  18.212  27.392  1.00  0.00    -0.744 OA
ENDBRANCH  83  84
ENDBRANCH  51  76
BRANCH  63  88
ATOM     88  C   UNL A   1      49.582  26.629  26.439  1.00  0.00     0.058 A 
ATOM     89  C   UNL A   1      50.434  26.029  27.378  1.00  0.00     0.135 A 
ATOM     90  C   UNL A   1      50.047  26.760  25.120  1.00  0.00     0.135 A 
ATOM     91  F   UNL A   1      50.041  25.885  28.654  1.00  0.00    -0.206 F 
ATOM     92  C   UNL A   1      51.710  25.598  27.028  1.00  0.00     0.059 A 
ATOM     93  C   UNL A   1      51.306  26.308  24.741  1.00  0.00     0.059 A 
ATOM     94  F   UNL A   1      49.267  27.317  24.179  1.00  0.00    -0.206 F 
ATOM     95  C   UNL A   1      52.136  25.738  25.705  1.00  0.00     0.060 A 
BRANCH  95  96
ATOM     96  S   UNL A   1      53.777  25.137  25.257  1.00  0.00     0.124 S 
ATOM     97  O   UNL A   1      53.621  23.697  25.435  1.00  0.00    -0.237 OA
ATOM     98  O   UNL A   1      53.911  25.594  23.878  1.00  0.00    -0.237 OA
ATOM     99  O   UNL A   1      54.656  25.797  26.219  1.00  0.00    -0.744 OA
ENDBRANCH  95  96
ENDBRANCH  63  88
ENDBRANCH  37  38
ENDBRANCH  29  32
ENDBRANCH  27  28
ENDBRANCH  26  27
ENDBRANCH  25  26
ENDBRANCH   1  25
TORSDOF 21
ENDMDL
MODEL 3
REMARK VINA RESULT:     -10.5      6.552     12.010
REMARK SMILES CCC[NH2+][C@@]1(C(=O)NCCCCCCNC(=O)c2ccc(-c3c4nc(c(-c5c(F)cc(S(=O)(=O)[O-])cc5F)c5ccc([nH]5)c(-c5c(F)cc(S(=O)(=O)[O-])cc5F)c5nc(c(-c6c(F)cc(S(=O)(=O)[O-])cc6F)c6ccc3[nH]6)C=C5)C=C4)cc2)CC[C@@H](SC2CCCC2)C1
REMARK SMILES IDX 11 1 10 2 9 3 8 4 6 5 7 6 5 8 84 9 93 10 85 11 86 12 4 13
REMARK SMILES IDX 3 16 2 17 1 18 87 19 88 20 89 21 92 22 90 23 91 24 12 25
REMARK SMILES IDX 13 26 14 27 15 28 16 29 17 31 18 32 19 33 83 34 20 35 82 36
REMARK SMILES IDX 21 37 22 38 23 39 76 40 24 41 81 42 75 43 77 44 25 45 80 46
REMARK SMILES IDX 74 47 73 48 26 50 60 51 39 52 59 53 40 54 43 55 58 56 78 57
REMARK SMILES IDX 41 58 42 59 57 61 79 62 44 63 27 64 28 65 37 66 29 67 30 68
REMARK SMILES IDX 36 69 38 70 31 71 32 72 33 73 34 74 35 75 61 76 62 77 71 78
REMARK SMILES IDX 63 79 64 80 70 81 72 82 65 83 66 84 67 85 68 86 69 87 45 88
REMARK SMILES IDX 46 89 55 90 47 91 48 92 54 93 56 94 49 95 50 96 51 97 52 98
REMARK SMILES IDX 53 99
REMARK H PARENT 8 7 4 14 4 15 15 30 77 49 43 60
REMARK Flexibility Score: inf
ROOT
ATOM      1  C   UNL A   1      32.763  29.495  27.643  1.00  0.00     0.002 C 
ENDROOT
BRANCH   1   2
ATOM      2  C   UNL A   1      31.661  29.894  26.671  1.00  0.00     0.021 C 
BRANCH   2   3
ATOM      3  C   UNL A   1      32.085  29.846  25.214  1.00  0.00     0.116 C 
BRANCH   3   4
ATOM      4  N   UNL A   1      30.998  30.032  24.303  1.00  0.00    -0.351 N 
ATOM      5  C   UNL A   1      30.444  29.173  23.407  1.00  0.00     0.281 C 
ATOM      6  O   UNL A   1      29.686  29.725  22.598  1.00  0.00    -0.268 OA
ATOM      7  H   UNL A   1      30.585  30.925  24.328  1.00  0.00     0.163 HD
BRANCH   5   8
ATOM      8  C   UNL A   1      30.737  27.597  23.376  1.00  0.00     0.176 C 
ATOM      9  C   UNL A   1      29.532  26.672  23.653  1.00  0.00     0.080 C 
ATOM     10  C   UNL A   1      31.795  27.193  24.436  1.00  0.00     0.093 C 
ATOM     11  C   UNL A   1      29.636  26.137  25.079  1.00  0.00     0.022 C 
ATOM     12  C   UNL A   1      31.090  26.335  25.502  1.00  0.00     0.054 C 
BRANCH   8  13
ATOM     13  N   UNL A   1      31.299  27.281  22.021  1.00  0.00    -0.334 N 
ATOM     14  H   UNL A   1      30.648  27.632  21.318  1.00  0.00     0.347 HD
ATOM     15  H   UNL A   1      32.215  27.725  21.978  1.00  0.00     0.347 HD
BRANCH  13  16
ATOM     16  C   UNL A   1      31.519  25.851  21.765  1.00  0.00     0.261 C 
BRANCH  16  17
ATOM     17  C   UNL A   1      32.771  25.623  20.912  1.00  0.00     0.058 C 
ATOM     18  C   UNL A   1      32.470  25.464  19.430  1.00  0.00     0.010 C 
ENDBRANCH  16  17
ENDBRANCH  13  16
ENDBRANCH   8  13
BRANCH  12  19
ATOM     19  S   UNL A   1      32.002  24.925  26.228  1.00  0.00    -0.155 SA
BRANCH  19  20
ATOM     20  C   UNL A   1      32.054  23.584  25.001  1.00  0.00     0.047 C 
ATOM     21  C   UNL A   1      33.274  23.437  24.108  1.00  0.00     0.014 C 
ATOM     22  C   UNL A   1      31.823  22.179  25.537  1.00  0.00     0.014 C 
ATOM     23  C   UNL A   1      33.001  22.128  23.383  1.00  0.00     0.001 C 
ATOM     24  C   UNL A   1      32.307  21.248  24.421  1.00  0.00     0.001 C 
ENDBRANCH  19  20
ENDBRANCH  12  19
ENDBRANCH   5   8
ENDBRANCH   3   4
ENDBRANCH   2   3
ENDBRANCH   1   2
BRANCH   1  25
ATOM     25  C   UNL A   1      34.081  29.081  26.978  1.00  0.00     0.002 C 
BRANCH  25  26
ATOM     26  C   UNL A   1      35.345  29.350  27.804  1.00  0.00     0.021 C 
BRANCH  26  27
ATOM     27  C   UNL A   1      35.593  30.819  28.129  1.00  0.00     0.116 C 
BRANCH  27  28
ATOM     28  N   UNL A   1      35.584  31.059  29.563  1.00  0.00    -0.352 N 
ATOM     29  C   UNL A   1      36.506  30.703  30.507  1.00  0.00     0.251 C 
ATOM     30  H   UNL A   1      34.799  31.548  29.903  1.00  0.00     0.163 HD
ATOM     31  O   UNL A   1      36.218  30.771  31.703  1.00  0.00    -0.269 OA
BRANCH  29  32
ATOM     32  C   UNL A   1      37.839  30.234  30.087  1.00  0.00     0.039 A 
ATOM     33  C   UNL A   1      38.276  30.508  28.790  1.00  0.00     0.014 A 
ATOM     34  C   UNL A   1      38.649  29.512  30.970  1.00  0.00     0.014 A 
ATOM     35  C   UNL A   1      39.546  30.092  28.391  1.00  0.00     0.010 A 
ATOM     36  C   UNL A   1      39.941  29.167  30.596  1.00  0.00     0.010 A 
ATOM     37  C   UNL A   1      40.398  29.441  29.298  1.00  0.00    -0.014 A 
BRANCH  37  38
ATOM     38  C   UNL A   1      41.765  29.020  28.903  1.00  0.00     0.031 A 
ATOM     39  C   UNL A   1      42.881  30.028  28.873  1.00  0.00     0.074 A 
ATOM     40  C   UNL A   1      41.983  27.748  28.516  1.00  0.00     0.049 A 
ATOM     41  N   UNL A   1      44.121  29.875  28.488  1.00  0.00    -0.248 NA
ATOM     42  C   UNL A   1      42.553  31.397  29.306  1.00  0.00     0.031 C 
ATOM     43  C   UNL A   1      40.967  26.694  28.464  1.00  0.00     0.029 A 
ATOM     44  N   UNL A   1      43.127  27.127  28.083  1.00  0.00    -0.354 N 
ATOM     45  C   UNL A   1      44.715  31.125  28.620  1.00  0.00     0.074 A 
ATOM     46  C   UNL A   1      43.686  32.038  29.065  1.00  0.00     0.031 C 
ATOM     47  C   UNL A   1      41.539  25.553  28.046  1.00  0.00     0.029 A 
ATOM     48  C   UNL A   1      42.947  25.803  27.758  1.00  0.00     0.049 A 
ATOM     49  H   UNL A   1      43.995  27.587  28.011  1.00  0.00     0.167 HD
ATOM     50  C   UNL A   1      46.007  31.473  28.413  1.00  0.00     0.037 A 
ATOM     51  C   UNL A   1      43.818  24.896  27.274  1.00  0.00     0.037 A 
ATOM     52  C   UNL A   1      47.028  30.550  27.990  1.00  0.00     0.049 A 
ATOM     53  C   UNL A   1      45.246  25.311  27.040  1.00  0.00     0.074 A 
ATOM     54  C   UNL A   1      48.377  30.788  27.800  1.00  0.00     0.029 A 
ATOM     55  N   UNL A   1      46.811  29.213  27.687  1.00  0.00    -0.354 N 
ATOM     56  N   UNL A   1      45.806  26.481  27.228  1.00  0.00    -0.248 NA
ATOM     57  C   UNL A   1      46.162  24.279  26.537  1.00  0.00     0.031 C 
ATOM     58  C   UNL A   1      48.968  29.608  27.334  1.00  0.00     0.029 A 
ATOM     59  C   UNL A   1      47.998  28.618  27.291  1.00  0.00     0.049 A 
ATOM     60  H   UNL A   1      45.942  28.754  27.745  1.00  0.00     0.167 HD
ATOM     61  C   UNL A   1      47.147  26.320  26.897  1.00  0.00     0.074 A 
ATOM     62  C   UNL A   1      47.314  24.936  26.506  1.00  0.00     0.031 C 
ATOM     63  C   UNL A   1      48.149  27.235  26.915  1.00  0.00     0.037 A 
BRANCH  50  64
ATOM     64  C   UNL A   1      46.390  32.911  28.642  1.00  0.00     0.058 A 
ATOM     65  C   UNL A   1      46.778  33.380  29.907  1.00  0.00     0.135 A 
ATOM     66  C   UNL A   1      46.401  33.825  27.576  1.00  0.00     0.135 A 
ATOM     67  F   UNL A   1      46.770  32.554  30.966  1.00  0.00    -0.206 F 
ATOM     68  C   UNL A   1      47.133  34.709  30.115  1.00  0.00     0.059 A 
ATOM     69  C   UNL A   1      46.782  35.153  27.754  1.00  0.00     0.059 A 
ATOM     70  F   UNL A   1      46.038  33.433  26.344  1.00  0.00    -0.206 F 
ATOM     71  C   UNL A   1      47.132  35.588  29.031  1.00  0.00     0.060 A 
BRANCH  71  72
ATOM     72  S   UNL A   1      47.601  37.308  29.318  1.00  0.00     0.124 S 
ATOM     73  O   UNL A   1      47.676  37.350  30.775  1.00  0.00    -0.237 OA
ATOM     74  O   UNL A   1      48.876  37.404  28.615  1.00  0.00    -0.237 OA
ATOM     75  O   UNL A   1      46.503  38.063  28.725  1.00  0.00    -0.744 OA
ENDBRANCH  71  72
ENDBRANCH  50  64
BRANCH  51  76
ATOM     76  C   UNL A   1      43.367  23.506  26.997  1.00  0.00     0.058 A 
ATOM     77  C   UNL A   1      43.106  23.080  25.686  1.00  0.00     0.135 A 
ATOM     78  C   UNL A   1      43.200  22.573  28.033  1.00  0.00     0.135 A 
ATOM     79  F   UNL A   1      43.245  23.935  24.663  1.00  0.00    -0.206 F 
ATOM     80  C   UNL A   1      42.676  21.785  25.413  1.00  0.00     0.059 A 
ATOM     81  C   UNL A   1      42.799  21.264  27.781  1.00  0.00     0.059 A 
ATOM     82  F   UNL A   1      43.455  22.925  29.303  1.00  0.00    -0.206 F 
ATOM     83  C   UNL A   1      42.530  20.883  26.468  1.00  0.00     0.060 A 
BRANCH  83  84
ATOM     84  S   UNL A   1      42.015  19.193  26.097  1.00  0.00     0.124 S 
ATOM     85  O   UNL A   1      42.798  18.903  24.901  1.00  0.00    -0.237 OA
ATOM     86  O   UNL A   1      42.410  18.480  27.307  1.00  0.00    -0.237 OA
ATOM     87  O   UNL A   1      40.575  19.318  25.894  1.00  0.00    -0.744 OA
ENDBRANCH  83  84
ENDBRANCH  51  76
BRANCH  63  88
ATOM     88  C   UNL A   1      49.528  26.760  26.545  1.00  0.00     0.058 A 
ATOM     89  C   UNL A   1      50.371  26.135  27.476  1.00  0.00     0.135 A 
ATOM     90  C   UNL A   1      49.986  26.880  25.222  1.00  0.00     0.135 A 
ATOM     91  F   UNL A   1      49.986  26.001  28.755  1.00  0.00    -0.206 F 
ATOM     92  C   UNL A   1      51.631  25.668  27.114  1.00  0.00     0.059 A 
ATOM     93  C   UNL A   1      51.228  26.392  24.832  1.00  0.00     0.059 A 
ATOM     94  F   UNL A   1      49.213  27.460  24.289  1.00  0.00    -0.206 F 
ATOM     95  C   UNL A   1      52.049  25.798  25.788  1.00  0.00     0.060 A 
BRANCH  95  96
ATOM     96  S   UNL A   1      53.669  25.151  25.325  1.00  0.00     0.124 S 
ATOM     97  O   UNL A   1      54.515  25.696  26.381  1.00  0.00    -0.237 OA
ATOM     98  O   UNL A   1      53.452  23.709  25.367  1.00  0.00    -0.237 OA
ATOM     99  O   UNL A   1      53.891  25.708  23.994  1.00  0.00    -0.744 OA
ENDBRANCH  95  96
ENDBRANCH  63  88
ENDBRANCH  37  38
ENDBRANCH  29  32
ENDBRANCH  27  28
ENDBRANCH  26  27
ENDBRANCH  25  26
ENDBRANCH   1  25
TORSDOF 21
ENDMDL
