MODEL 1
REMARK VINA RESULT:     -11.8      0.000      0.000
REMARK SMILES COc1cccc(NC(=O)[C@@H]2[C@@H](C(=O)NCCCCCCNC(=O)c3ccc(-c4c5nc(c(-c6c(F)cc(S(=O)(=O)[O-])cc6F)c6ccc([nH]6)c(-c6c(F)cc(S(=O)(=O)[O-])cc6F)c6nc(c(-c7c(F)cc(S(=O)(=O)[O-])cc7F)c7ccc4[nH]7)C=C6)C=C5)cc3)[C@H]3C=C[C@@H]2C3)c1
REMARK SMILES IDX 18 1 17 2 16 3 15 4 13 5 14 6 12 8 11 9 94 10 91 11 93 12
REMARK SMILES IDX 95 13 92 14 9 15 8 16 10 18 7 19 3 20 4 21 96 22 5 23 6 24
REMARK SMILES IDX 2 25 1 26 19 27 20 28 21 29 22 30 23 31 24 33 25 34 26 35
REMARK SMILES IDX 90 36 27 37 89 38 28 39 29 40 30 41 83 42 31 43 88 44 82 45
REMARK SMILES IDX 84 46 32 47 87 48 81 49 80 50 33 52 67 53 46 54 66 55 47 56
REMARK SMILES IDX 50 57 65 58 85 59 48 60 49 61 64 63 86 64 51 65 34 66 35 67
REMARK SMILES IDX 44 68 36 69 37 70 43 71 45 72 38 73 39 74 40 75 41 76 42 77
REMARK SMILES IDX 68 78 69 79 78 80 70 81 71 82 77 83 79 84 72 85 73 86 74 87
REMARK SMILES IDX 75 88 76 89 52 90 53 91 62 92 54 93 55 94 61 95 63 96 56 97
REMARK SMILES IDX 57 98 58 99 59 100 60 101
REMARK H PARENT 15 7 8 17 22 32 84 51 50 62
REMARK Flexibility Score: inf
ROOT
ATOM      1  C   UNL A   1      38.307  22.203  25.897  1.00  0.00     0.002 C 
ENDROOT
BRANCH   1   2
ATOM      2  C   UNL A   1      37.478  21.494  24.812  1.00  0.00     0.021 C 
BRANCH   2   3
ATOM      3  C   UNL A   1      36.199  20.825  25.324  1.00  0.00     0.116 C 
BRANCH   3   4
ATOM      4  N   UNL A   1      35.463  21.706  26.221  1.00  0.00    -0.356 N 
ATOM      5  C   UNL A   1      34.546  22.680  25.957  1.00  0.00     0.224 C 
ATOM      6  O   UNL A   1      34.244  23.443  26.877  1.00  0.00    -0.275 OA
ATOM      7  H   UNL A   1      35.662  21.576  27.177  1.00  0.00     0.163 HD
BRANCH   5   8
ATOM      8  C   UNL A   1      33.887  22.753  24.585  1.00  0.00     0.098 C 
ATOM      9  C   UNL A   1      33.084  24.080  24.324  1.00  0.00     0.099 C 
ATOM     10  C   UNL A   1      31.656  23.539  24.004  1.00  0.00     0.025 C 
ATOM     11  C   UNL A   1      32.783  21.661  24.455  1.00  0.00     0.025 C 
ATOM     12  C   UNL A   1      31.076  22.973  25.279  1.00  0.00    -0.027 C 
ATOM     13  C   UNL A   1      31.963  22.216  23.288  1.00  0.00     0.017 C 
ATOM     14  C   UNL A   1      31.742  21.839  25.544  1.00  0.00    -0.027 C 
BRANCH   9  15
ATOM     15  C   UNL A   1      33.633  24.859  23.129  1.00  0.00     0.228 C 
ATOM     16  N   UNL A   1      33.656  26.221  23.090  1.00  0.00    -0.326 N 
ATOM     17  H   UNL A   1      34.224  26.580  22.370  1.00  0.00     0.169 HD
ATOM     18  O   UNL A   1      34.154  24.274  22.173  1.00  0.00    -0.274 OA
BRANCH  16  19
ATOM     19  C   UNL A   1      33.038  27.220  23.858  1.00  0.00     0.044 A 
ATOM     20  C   UNL A   1      31.084  28.635  24.146  1.00  0.00     0.120 A 
ATOM     21  C   UNL A   1      31.711  29.290  25.201  1.00  0.00     0.046 A 
ATOM     22  C   UNL A   1      31.734  27.586  23.489  1.00  0.00     0.072 A 
ATOM     23  C   UNL A   1      32.975  28.883  25.617  1.00  0.00     0.006 A 
ATOM     24  C   UNL A   1      33.632  27.846  24.950  1.00  0.00     0.026 A 
BRANCH  20  25
ATOM     25  O   UNL A   1      29.938  29.206  23.669  1.00  0.00    -0.497 OA
ATOM     26  C   UNL A   1      29.020  28.288  23.087  1.00  0.00     0.278 C 
ENDBRANCH  20  25
ENDBRANCH  16  19
ENDBRANCH   9  15
ENDBRANCH   5   8
ENDBRANCH   3   4
ENDBRANCH   2   3
ENDBRANCH   1   2
BRANCH   1  27
ATOM     27  C   UNL A   1      39.747  21.703  26.056  1.00  0.00     0.002 C 
BRANCH  27  28
ATOM     28  C   UNL A   1      40.396  21.963  27.421  1.00  0.00     0.021 C 
BRANCH  28  29
ATOM     29  C   UNL A   1      41.462  23.058  27.458  1.00  0.00     0.116 C 
BRANCH  29  30
ATOM     30  N   UNL A   1      41.438  23.921  26.285  1.00  0.00    -0.352 N 
ATOM     31  C   UNL A   1      41.270  25.284  26.209  1.00  0.00     0.251 C 
ATOM     32  H   UNL A   1      41.558  23.462  25.422  1.00  0.00     0.163 HD
ATOM     33  O   UNL A   1      41.154  25.832  25.115  1.00  0.00    -0.269 OA
BRANCH  31  34
ATOM     34  C   UNL A   1      41.195  26.091  27.448  1.00  0.00     0.039 A 
ATOM     35  C   UNL A   1      42.214  27.007  27.720  1.00  0.00     0.014 A 
ATOM     36  C   UNL A   1      40.116  25.962  28.327  1.00  0.00     0.014 A 
ATOM     37  C   UNL A   1      42.110  27.852  28.830  1.00  0.00     0.010 A 
ATOM     38  C   UNL A   1      39.985  26.846  29.400  1.00  0.00     0.010 A 
ATOM     39  C   UNL A   1      40.974  27.808  29.655  1.00  0.00    -0.014 A 
BRANCH  39  40
ATOM     40  C   UNL A   1      40.799  28.785  30.765  1.00  0.00     0.031 A 
ATOM     41  C   UNL A   1      41.629  28.679  32.017  1.00  0.00     0.074 A 
ATOM     42  C   UNL A   1      39.846  29.737  30.669  1.00  0.00     0.049 A 
ATOM     43  N   UNL A   1      41.582  29.413  33.099  1.00  0.00    -0.248 NA
ATOM     44  C   UNL A   1      42.623  27.596  32.067  1.00  0.00     0.031 C 
ATOM     45  C   UNL A   1      38.936  29.910  29.534  1.00  0.00     0.029 A 
ATOM     46  N   UNL A   1      39.477  30.731  31.542  1.00  0.00    -0.354 N 
ATOM     47  C   UNL A   1      42.529  28.875  33.964  1.00  0.00     0.074 A 
ATOM     48  C   UNL A   1      43.104  27.727  33.296  1.00  0.00     0.031 C 
ATOM     49  C   UNL A   1      38.127  30.956  29.773  1.00  0.00     0.029 A 
ATOM     50  C   UNL A   1      38.437  31.510  31.087  1.00  0.00     0.049 A 
ATOM     51  H   UNL A   1      39.916  30.874  32.410  1.00  0.00     0.167 HD
ATOM     52  C   UNL A   1      42.901  29.312  35.191  1.00  0.00     0.037 A 
ATOM     53  C   UNL A   1      37.799  32.547  31.665  1.00  0.00     0.037 A 
ATOM     54  C   UNL A   1      42.351  30.474  35.839  1.00  0.00     0.049 A 
ATOM     55  C   UNL A   1      38.246  33.024  33.021  1.00  0.00     0.074 A 
ATOM     56  C   UNL A   1      42.715  31.033  37.053  1.00  0.00     0.029 A 
ATOM     57  N   UNL A   1      41.327  31.257  35.331  1.00  0.00    -0.354 N 
ATOM     58  N   UNL A   1      39.197  32.547  33.789  1.00  0.00    -0.248 NA
ATOM     59  C   UNL A   1      37.542  34.183  33.587  1.00  0.00     0.031 C 
ATOM     60  C   UNL A   1      41.883  32.131  37.298  1.00  0.00     0.029 A 
ATOM     61  C   UNL A   1      41.032  32.283  36.215  1.00  0.00     0.049 A 
ATOM     62  H   UNL A   1      40.874  31.106  34.471  1.00  0.00     0.167 HD
ATOM     63  C   UNL A   1      39.223  33.366  34.913  1.00  0.00     0.074 A 
ATOM     64  C   UNL A   1      38.202  34.374  34.721  1.00  0.00     0.031 C 
ATOM     65  C   UNL A   1      40.022  33.290  36.006  1.00  0.00     0.037 A 
BRANCH  52  66
ATOM     66  C   UNL A   1      43.965  28.538  35.920  1.00  0.00     0.058 A 
ATOM     67  C   UNL A   1      43.644  27.466  36.767  1.00  0.00     0.135 A 
ATOM     68  C   UNL A   1      45.325  28.828  35.717  1.00  0.00     0.135 A 
ATOM     69  F   UNL A   1      42.360  27.155  37.007  1.00  0.00    -0.206 F 
ATOM     70  C   UNL A   1      44.631  26.720  37.402  1.00  0.00     0.059 A 
ATOM     71  C   UNL A   1      46.329  28.078  36.322  1.00  0.00     0.059 A 
ATOM     72  F   UNL A   1      45.687  29.843  34.916  1.00  0.00    -0.206 F 
ATOM     73  C   UNL A   1      45.972  27.032  37.171  1.00  0.00     0.060 A 
BRANCH  73  74
ATOM     74  S   UNL A   1      47.241  26.038  37.983  1.00  0.00     0.124 S 
ATOM     75  O   UNL A   1      48.377  26.232  37.090  1.00  0.00    -0.237 OA
ATOM     76  O   UNL A   1      47.348  26.676  39.292  1.00  0.00    -0.237 OA
ATOM     77  O   UNL A   1      46.668  24.695  37.989  1.00  0.00    -0.744 OA
ENDBRANCH  73  74
ENDBRANCH  52  66
BRANCH  53  78
ATOM     78  C   UNL A   1      36.675  33.221  30.960  1.00  0.00     0.058 A 
ATOM     79  C   UNL A   1      36.912  34.087  29.881  1.00  0.00     0.135 A 
ATOM     80  C   UNL A   1      35.344  33.022  31.357  1.00  0.00     0.135 A 
ATOM     81  F   UNL A   1      38.167  34.315  29.468  1.00  0.00    -0.206 F 
ATOM     82  C   UNL A   1      35.873  34.752  29.239  1.00  0.00     0.059 A 
ATOM     83  C   UNL A   1      34.286  33.656  30.714  1.00  0.00     0.059 A 
ATOM     84  F   UNL A   1      35.062  32.188  32.372  1.00  0.00    -0.206 F 
ATOM     85  C   UNL A   1      34.562  34.532  29.665  1.00  0.00     0.060 A 
BRANCH  85  86
ATOM     86  S   UNL A   1      33.216  35.377  28.808  1.00  0.00     0.124 S 
ATOM     87  O   UNL A   1      32.440  35.900  29.926  1.00  0.00    -0.237 OA
ATOM     88  O   UNL A   1      33.931  36.365  28.008  1.00  0.00    -0.237 OA
ATOM     89  O   UNL A   1      32.582  34.306  28.044  1.00  0.00    -0.744 OA
ENDBRANCH  85  86
ENDBRANCH  53  78
BRANCH  65  90
ATOM     90  C   UNL A   1      39.856  34.344  37.064  1.00  0.00     0.058 A 
ATOM     91  C   UNL A   1      39.022  34.148  38.175  1.00  0.00     0.135 A 
ATOM     92  C   UNL A   1      40.585  35.542  36.993  1.00  0.00     0.135 A 
ATOM     93  F   UNL A   1      38.298  33.023  38.287  1.00  0.00    -0.206 F 
ATOM     94  C   UNL A   1      38.900  35.113  39.170  1.00  0.00     0.059 A 
ATOM     95  C   UNL A   1      40.499  36.510  37.989  1.00  0.00     0.059 A 
ATOM     96  F   UNL A   1      41.405  35.774  35.956  1.00  0.00    -0.206 F 
ATOM     97  C   UNL A   1      39.644  36.290  39.069  1.00  0.00     0.060 A 
BRANCH  97  98
ATOM     98  S   UNL A   1      39.508  37.518  40.386  1.00  0.00     0.124 S 
ATOM     99  O   UNL A   1      38.229  38.145  40.072  1.00  0.00    -0.237 OA
ATOM    100  O   UNL A   1      39.529  36.692  41.590  1.00  0.00    -0.237 OA
ATOM    101  O   UNL A   1      40.685  38.359  40.190  1.00  0.00    -0.744 OA
ENDBRANCH  97  98
ENDBRANCH  65  90
ENDBRANCH  39  40
ENDBRANCH  31  34
ENDBRANCH  29  30
ENDBRANCH  28  29
ENDBRANCH  27  28
ENDBRANCH   1  27
TORSDOF 19
ENDMDL
MODEL 2
REMARK VINA RESULT:     -11.6      4.574     10.352
REMARK SMILES COc1cccc(NC(=O)[C@@H]2[C@@H](C(=O)NCCCCCCNC(=O)c3ccc(-c4c5nc(c(-c6c(F)cc(S(=O)(=O)[O-])cc6F)c6ccc([nH]6)c(-c6c(F)cc(S(=O)(=O)[O-])cc6F)c6nc(c(-c7c(F)cc(S(=O)(=O)[O-])cc7F)c7ccc4[nH]7)C=C6)C=C5)cc3)[C@H]3C=C[C@@H]2C3)c1
REMARK SMILES IDX 18 1 17 2 16 3 15 4 13 5 14 6 12 8 11 9 94 10 91 11 93 12
REMARK SMILES IDX 95 13 92 14 9 15 8 16 10 18 7 19 3 20 4 21 96 22 5 23 6 24
REMARK SMILES IDX 2 25 1 26 19 27 20 28 21 29 22 30 23 31 24 33 25 34 26 35
REMARK SMILES IDX 90 36 27 37 89 38 28 39 29 40 30 41 83 42 31 43 88 44 82 45
REMARK SMILES IDX 84 46 32 47 87 48 81 49 80 50 33 52 67 53 46 54 66 55 47 56
REMARK SMILES IDX 50 57 65 58 85 59 48 60 49 61 64 63 86 64 51 65 34 66 35 67
REMARK SMILES IDX 44 68 36 69 37 70 43 71 45 72 38 73 39 74 40 75 41 76 42 77
REMARK SMILES IDX 68 78 69 79 78 80 70 81 71 82 77 83 79 84 72 85 73 86 74 87
REMARK SMILES IDX 75 88 76 89 52 90 53 91 62 92 54 93 55 94 61 95 63 96 56 97
REMARK SMILES IDX 57 98 58 99 59 100 60 101
REMARK H PARENT 15 7 8 17 22 32 84 51 50 62
REMARK Flexibility Score: inf
ROOT
ATOM      1  C   UNL A   1      30.528  26.233  26.023  1.00  0.00     0.002 C 
ENDROOT
BRANCH   1   2
ATOM      2  C   UNL A   1      30.539  24.920  25.219  1.00  0.00     0.021 C 
BRANCH   2   3
ATOM      3  C   UNL A   1      30.445  25.104  23.702  1.00  0.00     0.116 C 
BRANCH   3   4
ATOM      4  N   UNL A   1      29.829  26.378  23.359  1.00  0.00    -0.356 N 
ATOM      5  C   UNL A   1      30.351  27.485  22.759  1.00  0.00     0.224 C 
ATOM      6  O   UNL A   1      29.683  28.521  22.793  1.00  0.00    -0.275 OA
ATOM      7  H   UNL A   1      28.877  26.452  23.601  1.00  0.00     0.163 HD
BRANCH   5   8
ATOM      8  C   UNL A   1      31.682  27.397  22.023  1.00  0.00     0.098 C 
ATOM      9  C   UNL A   1      32.553  26.145  22.411  1.00  0.00     0.099 C 
ATOM     10  C   UNL A   1      33.877  26.810  22.902  1.00  0.00     0.025 C 
ATOM     11  C   UNL A   1      32.605  28.586  22.424  1.00  0.00     0.025 C 
ATOM     12  C   UNL A   1      33.589  27.511  24.210  1.00  0.00    -0.027 C 
ATOM     13  C   UNL A   1      33.973  28.048  21.999  1.00  0.00     0.017 C 
ATOM     14  C   UNL A   1      32.837  28.584  23.923  1.00  0.00    -0.027 C 
BRANCH   9  15
ATOM     15  C   UNL A   1      32.831  25.243  21.209  1.00  0.00     0.228 C 
ATOM     16  N   UNL A   1      32.939  23.888  21.319  1.00  0.00    -0.326 N 
ATOM     17  H   UNL A   1      32.901  23.423  20.453  1.00  0.00     0.169 HD
ATOM     18  O   UNL A   1      32.893  25.707  20.065  1.00  0.00    -0.274 OA
BRANCH  16  19
ATOM     19  C   UNL A   1      33.093  23.018  22.409  1.00  0.00     0.044 A 
ATOM     20  C   UNL A   1      34.518  22.304  24.244  1.00  0.00     0.120 A 
ATOM     21  C   UNL A   1      33.625  21.278  24.541  1.00  0.00     0.046 A 
ATOM     22  C   UNL A   1      34.244  23.188  23.195  1.00  0.00     0.072 A 
ATOM     23  C   UNL A   1      32.449  21.150  23.809  1.00  0.00     0.006 A 
ATOM     24  C   UNL A   1      32.183  22.022  22.751  1.00  0.00     0.026 A 
BRANCH  20  25
ATOM     25  O   UNL A   1      35.732  22.254  24.868  1.00  0.00    -0.497 OA
ATOM     26  C   UNL A   1      36.847  22.205  23.985  1.00  0.00     0.278 C 
ENDBRANCH  20  25
ENDBRANCH  16  19
ENDBRANCH   9  15
ENDBRANCH   5   8
ENDBRANCH   3   4
ENDBRANCH   2   3
ENDBRANCH   1   2
BRANCH   1  27
ATOM     27  C   UNL A   1      31.778  26.496  26.869  1.00  0.00     0.002 C 
BRANCH  27  28
ATOM     28  C   UNL A   1      31.888  27.900  27.476  1.00  0.00     0.021 C 
BRANCH  28  29
ATOM     29  C   UNL A   1      33.299  28.480  27.571  1.00  0.00     0.116 C 
BRANCH  29  30
ATOM     30  N   UNL A   1      33.315  29.931  27.698  1.00  0.00    -0.352 N 
ATOM     31  C   UNL A   1      34.340  30.760  28.089  1.00  0.00     0.251 C 
ATOM     32  H   UNL A   1      32.469  30.382  27.473  1.00  0.00     0.163 HD
ATOM     33  O   UNL A   1      34.134  31.961  28.257  1.00  0.00    -0.269 OA
BRANCH  31  34
ATOM     34  C   UNL A   1      35.688  30.204  28.342  1.00  0.00     0.039 A 
ATOM     35  C   UNL A   1      36.614  30.176  27.296  1.00  0.00     0.014 A 
ATOM     36  C   UNL A   1      36.046  29.730  29.608  1.00  0.00     0.014 A 
ATOM     37  C   UNL A   1      37.924  29.750  27.540  1.00  0.00     0.010 A 
ATOM     38  C   UNL A   1      37.369  29.363  29.862  1.00  0.00     0.010 A 
ATOM     39  C   UNL A   1      38.324  29.381  28.834  1.00  0.00    -0.014 A 
BRANCH  39  40
ATOM     40  C   UNL A   1      39.745  29.045  29.128  1.00  0.00     0.031 A 
ATOM     41  C   UNL A   1      40.665  30.072  29.733  1.00  0.00     0.074 A 
ATOM     42  C   UNL A   1      40.224  27.828  28.794  1.00  0.00     0.049 A 
ATOM     43  N   UNL A   1      41.938  29.971  30.016  1.00  0.00    -0.248 NA
ATOM     44  C   UNL A   1      40.084  31.389  30.039  1.00  0.00     0.031 C 
ATOM     45  C   UNL A   1      39.451  26.764  28.148  1.00  0.00     0.029 A 
ATOM     46  N   UNL A   1      41.476  27.283  28.940  1.00  0.00    -0.354 N 
ATOM     47  C   UNL A   1      42.316  31.210  30.521  1.00  0.00     0.074 A 
ATOM     48  C   UNL A   1      41.146  32.061  30.464  1.00  0.00     0.031 C 
ATOM     49  C   UNL A   1      40.240  25.691  27.970  1.00  0.00     0.029 A 
ATOM     50  C   UNL A   1      41.581  25.998  28.458  1.00  0.00     0.049 A 
ATOM     51  H   UNL A   1      42.228  27.766  29.351  1.00  0.00     0.167 HD
ATOM     52  C   UNL A   1      43.520  31.597  31.007  1.00  0.00     0.037 A 
ATOM     53  C   UNL A   1      42.638  25.163  28.409  1.00  0.00     0.037 A 
ATOM     54  C   UNL A   1      44.673  30.739  31.093  1.00  0.00     0.049 A 
ATOM     55  C   UNL A   1      43.959  25.611  28.974  1.00  0.00     0.074 A 
ATOM     56  C   UNL A   1      45.915  31.023  31.635  1.00  0.00     0.029 A 
ATOM     57  N   UNL A   1      44.729  29.434  30.630  1.00  0.00    -0.354 N 
ATOM     58  N   UNL A   1      44.273  26.763  29.517  1.00  0.00    -0.248 NA
ATOM     59  C   UNL A   1      45.067  24.646  28.929  1.00  0.00     0.031 C 
ATOM     60  C   UNL A   1      46.735  29.902  31.463  1.00  0.00     0.029 A 
ATOM     61  C   UNL A   1      45.989  28.905  30.855  1.00  0.00     0.049 A 
ATOM     62  H   UNL A   1      43.984  28.954  30.202  1.00  0.00     0.167 HD
ATOM     63  C   UNL A   1      45.604  26.650  29.904  1.00  0.00     0.074 A 
ATOM     64  C   UNL A   1      46.034  25.315  29.544  1.00  0.00     0.031 C 
ATOM     65  C   UNL A   1      46.400  27.569  30.504  1.00  0.00     0.037 A 
BRANCH  52  66
ATOM     66  C   UNL A   1      43.657  33.012  31.499  1.00  0.00     0.058 A 
ATOM     67  C   UNL A   1      43.479  33.340  32.851  1.00  0.00     0.135 A 
ATOM     68  C   UNL A   1      44.036  34.040  30.620  1.00  0.00     0.135 A 
ATOM     69  F   UNL A   1      43.104  32.399  33.732  1.00  0.00    -0.206 F 
ATOM     70  C   UNL A   1      43.655  34.640  33.313  1.00  0.00     0.059 A 
ATOM     71  C   UNL A   1      44.242  35.343  31.065  1.00  0.00     0.059 A 
ATOM     72  F   UNL A   1      44.218  33.781  29.315  1.00  0.00    -0.206 F 
ATOM     73  C   UNL A   1      44.039  35.635  32.413  1.00  0.00     0.060 A 
BRANCH  73  74
ATOM     74  S   UNL A   1      44.286  37.311  33.034  1.00  0.00     0.124 S 
ATOM     75  O   UNL A   1      45.385  37.114  33.972  1.00  0.00    -0.237 OA
ATOM     76  O   UNL A   1      44.615  38.050  31.818  1.00  0.00    -0.237 OA
ATOM     77  O   UNL A   1      42.998  37.644  33.636  1.00  0.00    -0.744 OA
ENDBRANCH  73  74
ENDBRANCH  52  66
BRANCH  53  78
ATOM     78  C   UNL A   1      42.492  23.807  27.813  1.00  0.00     0.058 A 
ATOM     79  C   UNL A   1      42.331  22.673  28.624  1.00  0.00     0.135 A 
ATOM     80  C   UNL A   1      42.523  23.616  26.423  1.00  0.00     0.135 A 
ATOM     81  F   UNL A   1      42.302  22.803  29.959  1.00  0.00    -0.206 F 
ATOM     82  C   UNL A   1      42.232  21.396  28.081  1.00  0.00     0.059 A 
ATOM     83  C   UNL A   1      42.400  22.352  25.855  1.00  0.00     0.059 A 
ATOM     84  F   UNL A   1      42.656  24.670  25.602  1.00  0.00    -0.206 F 
ATOM     85  C   UNL A   1      42.271  21.245  26.694  1.00  0.00     0.060 A 
BRANCH  85  86
ATOM     86  S   UNL A   1      42.113  19.589  25.995  1.00  0.00     0.124 S 
ATOM     87  O   UNL A   1      40.685  19.526  25.709  1.00  0.00    -0.237 OA
ATOM     88  O   UNL A   1      42.995  19.658  24.834  1.00  0.00    -0.237 OA
ATOM     89  O   UNL A   1      42.581  18.725  27.075  1.00  0.00    -0.744 OA
ENDBRANCH  85  86
ENDBRANCH  53  78
BRANCH  65  90
ATOM     90  C   UNL A   1      47.804  27.156  30.847  1.00  0.00     0.058 A 
ATOM     91  C   UNL A   1      48.100  26.455  32.026  1.00  0.00     0.135 A 
ATOM     92  C   UNL A   1      48.858  27.417  29.956  1.00  0.00     0.135 A 
ATOM     93  F   UNL A   1      47.129  26.187  32.914  1.00  0.00    -0.206 F 
ATOM     94  C   UNL A   1      49.396  26.045  32.320  1.00  0.00     0.059 A 
ATOM     95  C   UNL A   1      50.157  26.993  30.218  1.00  0.00     0.059 A 
ATOM     96  F   UNL A   1      48.627  28.075  28.809  1.00  0.00    -0.206 F 
ATOM     97  C   UNL A   1      50.418  26.316  31.409  1.00  0.00     0.060 A 
BRANCH  97  98
ATOM     98  S   UNL A   1      52.088  25.744  31.784  1.00  0.00     0.124 S 
ATOM     99  O   UNL A   1      52.449  26.604  32.906  1.00  0.00    -0.237 OA
ATOM    100  O   UNL A   1      51.874  24.336  32.108  1.00  0.00    -0.237 OA
ATOM    101  O   UNL A   1      52.818  25.990  30.543  1.00  0.00    -0.744 OA
ENDBRANCH  97  98
ENDBRANCH  65  90
ENDBRANCH  39  40
ENDBRANCH  31  34
ENDBRANCH  29  30
ENDBRANCH  28  29
ENDBRANCH  27  28
ENDBRANCH   1  27
TORSDOF 19
ENDMDL
MODEL 3
REMARK VINA RESULT:     -11.6      0.967      8.138
REMARK SMILES COc1cccc(NC(=O)[C@@H]2[C@@H](C(=O)NCCCCCCNC(=O)c3ccc(-c4c5nc(c(-c6c(F)cc(S(=O)(=O)[O-])cc6F)c6ccc([nH]6)c(-c6c(F)cc(S(=O)(=O)[O-])cc6F)c6nc(c(-c7c(F)cc(S(=O)(=O)[O-])cc7F)c7ccc4[nH]7)C=C6)C=C5)cc3)[C@H]3C=C[C@@H]2C3)c1
REMARK SMILES IDX 18 1 17 2 16 3 15 4 13 5 14 6 12 8 11 9 94 10 91 11 93 12
REMARK SMILES IDX 95 13 92 14 9 15 8 16 10 18 7 19 3 20 4 21 96 22 5 23 6 24
REMARK SMILES IDX 2 25 1 26 19 27 20 28 21 29 22 30 23 31 24 33 25 34 26 35
REMARK SMILES IDX 90 36 27 37 89 38 28 39 29 40 30 41 83 42 31 43 88 44 82 45
REMARK SMILES IDX 84 46 32 47 87 48 81 49 80 50 33 52 67 53 46 54 66 55 47 56
REMARK SMILES IDX 50 57 65 58 85 59 48 60 49 61 64 63 86 64 51 65 34 66 35 67
REMARK SMILES IDX 44 68 36 69 37 70 43 71 45 72 38 73 39 74 40 75 41 76 42 77
REMARK SMILES IDX 68 78 69 79 78 80 70 81 71 82 77 83 79 84 72 85 73 86 74 87
REMARK SMILES IDX 75 88 76 89 52 90 53 91 62 92 54 93 55 94 61 95 63 96 56 97
REMARK SMILES IDX 57 98 58 99 59 100 60 101
REMARK H PARENT 15 7 8 17 22 32 84 51 50 62
REMARK Flexibility Score: inf
ROOT
ATOM      1  C   UNL A   1      37.256  21.324  24.456  1.00  0.00     0.002 C 
ENDROOT
BRANCH   1   2
ATOM      2  C   UNL A   1      36.448  20.110  24.949  1.00  0.00     0.021 C 
BRANCH   2   3
ATOM      3  C   UNL A   1      34.931  20.321  24.968  1.00  0.00     0.116 C 
BRANCH   3   4
ATOM      4  N   UNL A   1      34.531  21.195  26.062  1.00  0.00    -0.356 N 
ATOM      5  C   UNL A   1      33.940  22.424  26.048  1.00  0.00     0.224 C 
ATOM      6  O   UNL A   1      33.919  23.058  27.105  1.00  0.00    -0.275 OA
ATOM      7  H   UNL A   1      34.719  20.840  26.961  1.00  0.00     0.163 HD
BRANCH   5   8
ATOM      8  C   UNL A   1      33.280  22.937  24.775  1.00  0.00     0.098 C 
ATOM      9  C   UNL A   1      32.984  24.482  24.777  1.00  0.00     0.099 C 
ATOM     10  C   UNL A   1      31.442  24.518  24.539  1.00  0.00     0.025 C 
ATOM     11  C   UNL A   1      31.856  22.322  24.616  1.00  0.00     0.025 C 
ATOM     12  C   UNL A   1      30.766  23.986  25.781  1.00  0.00    -0.027 C 
ATOM     13  C   UNL A   1      31.226  23.303  23.625  1.00  0.00     0.017 C 
ATOM     14  C   UNL A   1      31.002  22.666  25.821  1.00  0.00    -0.027 C 
BRANCH   9  15
ATOM     15  C   UNL A   1      33.710  25.209  23.645  1.00  0.00     0.228 C 
ATOM     16  N   UNL A   1      33.783  26.568  23.576  1.00  0.00    -0.326 N 
ATOM     17  H   UNL A   1      34.452  26.889  22.929  1.00  0.00     0.169 HD
ATOM     18  O   UNL A   1      34.331  24.580  22.781  1.00  0.00    -0.274 OA
BRANCH  16  19
ATOM     19  C   UNL A   1      33.104  27.606  24.232  1.00  0.00     0.044 A 
ATOM     20  C   UNL A   1      33.059  29.106  26.143  1.00  0.00     0.120 A 
ATOM     21  C   UNL A   1      31.819  29.589  25.738  1.00  0.00     0.046 A 
ATOM     22  C   UNL A   1      33.714  28.133  25.381  1.00  0.00     0.072 A 
ATOM     23  C   UNL A   1      31.243  29.120  24.561  1.00  0.00     0.006 A 
ATOM     24  C   UNL A   1      31.889  28.136  23.808  1.00  0.00     0.026 A 
BRANCH  20  25
ATOM     25  O   UNL A   1      33.472  29.462  27.396  1.00  0.00    -0.497 OA
ATOM     26  C   UNL A   1      33.889  30.817  27.516  1.00  0.00     0.278 C 
ENDBRANCH  20  25
ENDBRANCH  16  19
ENDBRANCH   9  15
ENDBRANCH   5   8
ENDBRANCH   3   4
ENDBRANCH   2   3
ENDBRANCH   1   2
BRANCH   1  27
ATOM     27  C   UNL A   1      38.007  22.099  25.544  1.00  0.00     0.002 C 
BRANCH  27  28
ATOM     28  C   UNL A   1      37.442  23.484  25.885  1.00  0.00     0.021 C 
BRANCH  28  29
ATOM     29  C   UNL A   1      38.404  24.446  26.582  1.00  0.00     0.116 C 
BRANCH  29  30
ATOM     30  N   UNL A   1      39.706  24.524  25.935  1.00  0.00    -0.352 N 
ATOM     31  C   UNL A   1      40.811  25.263  26.286  1.00  0.00     0.251 C 
ATOM     32  H   UNL A   1      39.810  23.966  25.130  1.00  0.00     0.163 HD
ATOM     33  O   UNL A   1      41.792  25.298  25.546  1.00  0.00    -0.269 OA
BRANCH  31  34
ATOM     34  C   UNL A   1      40.809  26.048  27.541  1.00  0.00     0.039 A 
ATOM     35  C   UNL A   1      41.741  27.077  27.695  1.00  0.00     0.014 A 
ATOM     36  C   UNL A   1      39.881  25.786  28.553  1.00  0.00     0.014 A 
ATOM     37  C   UNL A   1      41.690  27.897  28.827  1.00  0.00     0.010 A 
ATOM     38  C   UNL A   1      39.794  26.642  29.653  1.00  0.00     0.010 A 
ATOM     39  C   UNL A   1      40.689  27.713  29.795  1.00  0.00    -0.014 A 
BRANCH  39  40
ATOM     40  C   UNL A   1      40.551  28.656  30.940  1.00  0.00     0.031 A 
ATOM     41  C   UNL A   1      39.518  29.752  30.909  1.00  0.00     0.074 A 
ATOM     42  C   UNL A   1      41.399  28.562  31.985  1.00  0.00     0.049 A 
ATOM     43  N   UNL A   1      39.284  30.688  31.793  1.00  0.00    -0.248 NA
ATOM     44  C   UNL A   1      38.651  29.817  29.722  1.00  0.00     0.031 C 
ATOM     45  C   UNL A   1      42.481  27.582  32.110  1.00  0.00     0.029 A 
ATOM     46  N   UNL A   1      41.492  29.304  33.137  1.00  0.00    -0.354 N 
ATOM     47  C   UNL A   1      38.255  31.460  31.266  1.00  0.00     0.074 A 
ATOM     48  C   UNL A   1      37.939  30.908  29.966  1.00  0.00     0.031 C 
ATOM     49  C   UNL A   1      43.117  27.774  33.279  1.00  0.00     0.029 A 
ATOM     50  C   UNL A   1      42.511  28.905  33.973  1.00  0.00     0.049 A 
ATOM     51  H   UNL A   1      40.887  30.051  33.346  1.00  0.00     0.167 HD
ATOM     52  C   UNL A   1      37.617  32.517  31.824  1.00  0.00     0.037 A 
ATOM     53  C   UNL A   1      42.917  29.399  35.160  1.00  0.00     0.037 A 
ATOM     54  C   UNL A   1      37.911  33.042  33.133  1.00  0.00     0.049 A 
ATOM     55  C   UNL A   1      42.177  30.561  35.767  1.00  0.00     0.074 A 
ATOM     56  C   UNL A   1      37.270  34.067  33.810  1.00  0.00     0.029 A 
ATOM     57  N   UNL A   1      38.924  32.588  33.962  1.00  0.00    -0.354 N 
ATOM     58  N   UNL A   1      41.156  31.229  35.285  1.00  0.00    -0.248 NA
ATOM     59  C   UNL A   1      42.638  31.033  37.080  1.00  0.00     0.031 C 
ATOM     60  C   UNL A   1      37.922  34.258  35.033  1.00  0.00     0.029 A 
ATOM     61  C   UNL A   1      38.939  33.323  35.136  1.00  0.00     0.049 A 
ATOM     62  H   UNL A   1      39.542  31.853  33.749  1.00  0.00     0.167 HD
ATOM     63  C   UNL A   1      40.834  32.178  36.249  1.00  0.00     0.074 A 
ATOM     64  C   UNL A   1      41.761  31.993  37.346  1.00  0.00     0.031 C 
ATOM     65  C   UNL A   1      39.859  33.119  36.228  1.00  0.00     0.037 A 
BRANCH  52  66
ATOM     66  C   UNL A   1      36.524  33.177  31.030  1.00  0.00     0.058 A 
ATOM     67  C   UNL A   1      35.169  32.969  31.331  1.00  0.00     0.135 A 
ATOM     68  C   UNL A   1      36.835  34.080  30.000  1.00  0.00     0.135 A 
ATOM     69  F   UNL A   1      34.816  32.106  32.297  1.00  0.00    -0.206 F 
ATOM     70  C   UNL A   1      34.160  33.618  30.628  1.00  0.00     0.059 A 
ATOM     71  C   UNL A   1      35.842  34.760  29.300  1.00  0.00     0.059 A 
ATOM     72  F   UNL A   1      38.115  34.315  29.671  1.00  0.00    -0.206 F 
ATOM     73  C   UNL A   1      34.506  34.514  29.615  1.00  0.00     0.060 A 
BRANCH  73  74
ATOM     74  S   UNL A   1      33.185  35.366  28.729  1.00  0.00     0.124 S 
ATOM     75  O   UNL A   1      32.443  35.974  29.828  1.00  0.00    -0.237 OA
ATOM     76  O   UNL A   1      33.926  36.291  27.877  1.00  0.00    -0.237 OA
ATOM     77  O   UNL A   1      32.496  34.287  28.026  1.00  0.00    -0.744 OA
ENDBRANCH  73  74
ENDBRANCH  52  66
BRANCH  53  78
ATOM     78  C   UNL A   1      44.075  28.788  35.867  1.00  0.00     0.058 A 
ATOM     79  C   UNL A   1      45.378  29.271  35.675  1.00  0.00     0.135 A 
ATOM     80  C   UNL A   1      43.903  27.701  36.738  1.00  0.00     0.135 A 
ATOM     81  F   UNL A   1      45.594  30.303  34.846  1.00  0.00    -0.206 F 
ATOM     82  C   UNL A   1      46.473  28.684  36.300  1.00  0.00     0.059 A 
ATOM     83  C   UNL A   1      44.980  27.113  37.396  1.00  0.00     0.059 A 
ATOM     84  F   UNL A   1      42.674  27.213  36.971  1.00  0.00    -0.206 F 
ATOM     85  C   UNL A   1      46.264  27.602  37.158  1.00  0.00     0.060 A 
BRANCH  85  86
ATOM     86  S   UNL A   1      47.686  26.863  37.988  1.00  0.00     0.124 S 
ATOM     87  O   UNL A   1      47.241  25.485  38.160  1.00  0.00    -0.237 OA
ATOM     88  O   UNL A   1      48.755  27.073  37.017  1.00  0.00    -0.237 OA
ATOM     89  O   UNL A   1      47.802  27.648  39.213  1.00  0.00    -0.744 OA
ENDBRANCH  85  86
ENDBRANCH  53  78
BRANCH  65  90
ATOM     90  C   UNL A   1      39.713  33.998  37.438  1.00  0.00     0.058 A 
ATOM     91  C   UNL A   1      40.281  35.279  37.493  1.00  0.00     0.135 A 
ATOM     92  C   UNL A   1      38.946  33.573  38.536  1.00  0.00     0.135 A 
ATOM     93  F   UNL A   1      41.029  35.730  36.473  1.00  0.00    -0.206 F 
ATOM     94  C   UNL A   1      40.112  36.102  38.602  1.00  0.00     0.059 A 
ATOM     95  C   UNL A   1      38.742  34.389  39.644  1.00  0.00     0.059 A 
ATOM     96  F   UNL A   1      38.371  32.359  38.530  1.00  0.00    -0.206 F 
ATOM     97  C   UNL A   1      39.339  35.648  39.672  1.00  0.00     0.060 A 
BRANCH  97  98
ATOM     98  S   UNL A   1      39.095  36.740  41.089  1.00  0.00     0.124 S 
ATOM     99  O   UNL A   1      38.490  37.909  40.459  1.00  0.00    -0.237 OA
ATOM    100  O   UNL A   1      38.210  35.953  41.944  1.00  0.00    -0.237 OA
ATOM    101  O   UNL A   1      40.446  36.933  41.607  1.00  0.00    -0.744 OA
ENDBRANCH  97  98
ENDBRANCH  65  90
ENDBRANCH  39  40
ENDBRANCH  31  34
ENDBRANCH  29  30
ENDBRANCH  28  29
ENDBRANCH  27  28
ENDBRANCH   1  27
TORSDOF 19
ENDMDL
