MODEL 1
REMARK VINA RESULT:     -11.8      0.000      0.000
REMARK SMILES C[C@H]1[C@H](C(=O)NCCCCCCNC(=O)c2ccc(-c3c4nc(c(-c5c(F)cc(S(=O)(=O)[O-])cc5F)c5ccc([nH]5)c(-c5c(F)cc(S(=O)(=O)[O-])cc5F)c5nc(c(-c6c(F)cc(S(=O)(=O)[O-])cc6F)c6ccc3[nH]6)C=C5)C=C4)cc2)CC[N@@H+]1Cc1ccc(C(F)(F)F)cc1
REMARK SMILES IDX 9 1 8 2 7 3 6 4 4 5 5 6 3 8 1 9 2 10 84 11 82 12 83 13 85 15
REMARK SMILES IDX 86 16 87 17 95 18 88 19 94 20 89 21 90 22 91 23 92 24 93 25
REMARK SMILES IDX 10 26 11 27 12 28 13 29 14 30 15 32 16 33 17 34 81 35 18 36
REMARK SMILES IDX 80 37 19 38 20 39 21 40 74 41 22 42 79 43 73 44 75 45 23 46
REMARK SMILES IDX 78 47 72 48 71 49 24 51 58 52 37 53 57 54 38 55 41 56 56 57
REMARK SMILES IDX 76 58 39 59 40 60 55 62 77 63 42 64 25 65 26 66 35 67 27 68
REMARK SMILES IDX 28 69 34 70 36 71 29 72 30 73 31 74 32 75 33 76 59 77 60 78
REMARK SMILES IDX 69 79 61 80 62 81 68 82 70 83 63 84 64 85 65 86 66 87 67 88
REMARK SMILES IDX 43 89 44 90 53 91 45 92 46 93 52 94 54 95 47 96 48 97 49 98
REMARK SMILES IDX 50 99 51 100
REMARK H PARENT 6 7 84 14 13 31 75 50 41 61
REMARK Flexibility Score: inf
ROOT
ATOM      1  C   UNL A   1      31.828  28.262  27.208  1.00  0.00     0.002 C 
ENDROOT
BRANCH   1   2
ATOM      2  C   UNL A   1      31.372  27.257  26.136  1.00  0.00     0.021 C 
BRANCH   2   3
ATOM      3  C   UNL A   1      32.039  25.873  26.187  1.00  0.00     0.116 C 
BRANCH   3   4
ATOM      4  N   UNL A   1      31.258  24.891  26.914  1.00  0.00    -0.356 N 
ATOM      5  C   UNL A   1      30.958  23.595  26.642  1.00  0.00     0.229 C 
ATOM      6  O   UNL A   1      30.395  22.973  27.554  1.00  0.00    -0.275 OA
ATOM      7  H   UNL A   1      30.877  25.225  27.757  1.00  0.00     0.163 HD
BRANCH   5   8
ATOM      8  C   UNL A   1      31.296  22.854  25.350  1.00  0.00     0.142 C 
ATOM      9  C   UNL A   1      30.568  23.984  23.227  1.00  0.00     0.076 C 
ATOM     10  C   UNL A   1      31.770  23.646  24.118  1.00  0.00     0.193 C 
ATOM     11  N   UNL A   1      32.651  22.725  23.360  1.00  0.00    -0.328 N 
ATOM     12  C   UNL A   1      32.297  21.721  25.476  1.00  0.00     0.081 C 
ATOM     13  C   UNL A   1      32.589  21.419  24.013  1.00  0.00     0.263 C 
ATOM     14  H   UNL A   1      32.284  22.650  22.411  1.00  0.00     0.348 HD
BRANCH  11  15
ATOM     15  C   UNL A   1      33.995  23.211  22.988  1.00  0.00     0.299 C 
BRANCH  15  16
ATOM     16  C   UNL A   1      35.086  23.158  24.042  1.00  0.00     0.006 A 
ATOM     17  C   UNL A   1      36.182  22.305  23.889  1.00  0.00     0.010 A 
ATOM     18  C   UNL A   1      35.044  23.963  25.190  1.00  0.00     0.010 A 
ATOM     19  C   UNL A   1      37.280  22.406  24.749  1.00  0.00     0.013 A 
ATOM     20  C   UNL A   1      36.168  24.121  26.002  1.00  0.00     0.013 A 
ATOM     21  C   UNL A   1      37.328  23.390  25.745  1.00  0.00     0.056 A 
BRANCH  21  22
ATOM     22  C   UNL A   1      38.623  23.753  26.431  1.00  0.00     0.416 C 
ATOM     23  F   UNL A   1      39.510  22.726  26.508  1.00  0.00    -0.166 F 
ATOM     24  F   UNL A   1      39.273  24.747  25.754  1.00  0.00    -0.166 F 
ATOM     25  F   UNL A   1      38.461  24.223  27.697  1.00  0.00    -0.166 F 
ENDBRANCH  21  22
ENDBRANCH  15  16
ENDBRANCH  11  15
ENDBRANCH   5   8
ENDBRANCH   3   4
ENDBRANCH   2   3
ENDBRANCH   1   2
BRANCH   1  26
ATOM     26  C   UNL A   1      32.989  29.208  26.857  1.00  0.00     0.002 C 
BRANCH  26  27
ATOM     27  C   UNL A   1      34.417  28.831  27.272  1.00  0.00     0.021 C 
BRANCH  27  28
ATOM     28  C   UNL A   1      35.401  29.949  27.627  1.00  0.00     0.116 C 
BRANCH  28  29
ATOM     29  N   UNL A   1      35.339  30.286  29.039  1.00  0.00    -0.352 N 
ATOM     30  C   UNL A   1      36.270  30.097  30.033  1.00  0.00     0.251 C 
ATOM     31  H   UNL A   1      34.501  30.716  29.328  1.00  0.00     0.163 HD
ATOM     32  O   UNL A   1      35.897  30.138  31.205  1.00  0.00    -0.269 OA
BRANCH  30  33
ATOM     33  C   UNL A   1      37.713  29.870  29.741  1.00  0.00     0.039 A 
ATOM     34  C   UNL A   1      38.167  30.036  28.425  1.00  0.00     0.014 A 
ATOM     35  C   UNL A   1      38.589  29.357  30.703  1.00  0.00     0.014 A 
ATOM     36  C   UNL A   1      39.482  29.695  28.076  1.00  0.00     0.010 A 
ATOM     37  C   UNL A   1      39.917  29.059  30.363  1.00  0.00     0.010 A 
ATOM     38  C   UNL A   1      40.371  29.198  29.041  1.00  0.00    -0.014 A 
BRANCH  38  39
ATOM     39  C   UNL A   1      41.749  28.759  28.669  1.00  0.00     0.031 A 
ATOM     40  C   UNL A   1      42.882  29.756  28.647  1.00  0.00     0.074 A 
ATOM     41  C   UNL A   1      41.988  27.479  28.322  1.00  0.00     0.049 A 
ATOM     42  N   UNL A   1      44.132  29.586  28.290  1.00  0.00    -0.248 NA
ATOM     43  C   UNL A   1      42.562  31.130  29.063  1.00  0.00     0.031 C 
ATOM     44  C   UNL A   1      40.986  26.413  28.277  1.00  0.00     0.029 A 
ATOM     45  N   UNL A   1      43.150  26.857  27.931  1.00  0.00    -0.354 N 
ATOM     46  C   UNL A   1      44.738  30.832  28.417  1.00  0.00     0.074 A 
ATOM     47  C   UNL A   1      43.710  31.756  28.846  1.00  0.00     0.031 C 
ATOM     48  C   UNL A   1      41.577  25.269  27.894  1.00  0.00     0.029 A 
ATOM     49  C   UNL A   1      42.993  25.523  27.635  1.00  0.00     0.049 A 
ATOM     50  H   UNL A   1      44.014  27.324  27.867  1.00  0.00     0.167 HD
ATOM     51  C   UNL A   1      46.035  31.175  28.215  1.00  0.00     0.037 A 
ATOM     52  C   UNL A   1      43.882  24.608  27.199  1.00  0.00     0.037 A 
ATOM     53  C   UNL A   1      47.069  30.251  27.825  1.00  0.00     0.049 A 
ATOM     54  C   UNL A   1      45.318  25.007  26.987  1.00  0.00     0.074 A 
ATOM     55  C   UNL A   1      48.421  30.494  27.652  1.00  0.00     0.029 A 
ATOM     56  N   UNL A   1      46.869  28.905  27.552  1.00  0.00    -0.354 N 
ATOM     57  N   UNL A   1      45.880  26.182  27.152  1.00  0.00    -0.248 NA
ATOM     58  C   UNL A   1      46.242  23.958  26.533  1.00  0.00     0.031 C 
ATOM     59  C   UNL A   1      49.033  29.304  27.242  1.00  0.00     0.029 A 
ATOM     60  C   UNL A   1      48.068  28.310  27.196  1.00  0.00     0.049 A 
ATOM     61  H   UNL A   1      46.001  28.442  27.604  1.00  0.00     0.167 HD
ATOM     62  C   UNL A   1      47.225  26.006  26.844  1.00  0.00     0.074 A 
ATOM     63  C   UNL A   1      47.395  24.612  26.493  1.00  0.00     0.031 C 
ATOM     64  C   UNL A   1      48.228  26.920  26.852  1.00  0.00     0.037 A 
BRANCH  51  65
ATOM     65  C   UNL A   1      46.412  32.618  28.415  1.00  0.00     0.058 A 
ATOM     66  C   UNL A   1      46.354  33.547  27.364  1.00  0.00     0.135 A 
ATOM     67  C   UNL A   1      46.813  33.085  29.678  1.00  0.00     0.135 A 
ATOM     68  F   UNL A   1      45.987  33.153  26.134  1.00  0.00    -0.206 F 
ATOM     69  C   UNL A   1      46.713  34.879  27.548  1.00  0.00     0.059 A 
ATOM     70  C   UNL A   1      47.153  34.419  29.891  1.00  0.00     0.059 A 
ATOM     71  F   UNL A   1      46.882  32.241  30.720  1.00  0.00    -0.206 F 
ATOM     72  C   UNL A   1      47.118  35.304  28.814  1.00  0.00     0.060 A 
BRANCH  72  73
ATOM     73  S   UNL A   1      47.598  37.030  29.039  1.00  0.00     0.124 S 
ATOM     74  O   UNL A   1      49.052  36.942  28.924  1.00  0.00    -0.237 OA
ATOM     75  O   UNL A   1      46.917  37.691  27.925  1.00  0.00    -0.237 OA
ATOM     76  O   UNL A   1      47.090  37.356  30.361  1.00  0.00    -0.744 OA
ENDBRANCH  72  73
ENDBRANCH  51  65
BRANCH  52  77
ATOM     77  C   UNL A   1      43.443  23.209  26.952  1.00  0.00     0.058 A 
ATOM     78  C   UNL A   1      43.317  22.714  25.646  1.00  0.00     0.135 A 
ATOM     79  C   UNL A   1      43.158  22.336  28.013  1.00  0.00     0.135 A 
ATOM     80  F   UNL A   1      43.568  23.514  24.598  1.00  0.00    -0.206 F 
ATOM     81  C   UNL A   1      42.917  21.405  25.398  1.00  0.00     0.059 A 
ATOM     82  C   UNL A   1      42.777  21.016  27.791  1.00  0.00     0.059 A 
ATOM     83  F   UNL A   1      43.275  22.759  29.281  1.00  0.00    -0.206 F 
ATOM     84  C   UNL A   1      42.653  20.562  26.478  1.00  0.00     0.060 A 
BRANCH  84  85
ATOM     85  S   UNL A   1      42.194  18.845  26.150  1.00  0.00     0.124 S 
ATOM     86  O   UNL A   1      42.460  18.218  27.439  1.00  0.00    -0.237 OA
ATOM     87  O   UNL A   1      40.788  18.969  25.776  1.00  0.00    -0.237 OA
ATOM     88  O   UNL A   1      43.091  18.463  25.063  1.00  0.00    -0.744 OA
ENDBRANCH  84  85
ENDBRANCH  52  77
BRANCH  64  89
ATOM     89  C   UNL A   1      49.606  26.439  26.492  1.00  0.00     0.058 A 
ATOM     90  C   UNL A   1      50.082  26.493  25.173  1.00  0.00     0.135 A 
ATOM     91  C   UNL A   1      50.479  25.967  27.486  1.00  0.00     0.135 A 
ATOM     92  F   UNL A   1      49.285  26.930  24.185  1.00  0.00    -0.206 F 
ATOM     93  C   UNL A   1      51.369  26.079  24.848  1.00  0.00     0.059 A 
ATOM     94  C   UNL A   1      51.778  25.569  27.187  1.00  0.00     0.059 A 
ATOM     95  F   UNL A   1      50.076  25.905  28.765  1.00  0.00    -0.206 F 
ATOM     96  C   UNL A   1      52.211  25.618  25.863  1.00  0.00     0.060 A 
BRANCH  96  97
ATOM     97  S   UNL A   1      53.892  25.117  25.435  1.00  0.00     0.124 S 
ATOM     98  O   UNL A   1      53.757  23.667  25.360  1.00  0.00    -0.237 OA
ATOM     99  O   UNL A   1      54.112  25.801  24.164  1.00  0.00    -0.237 OA
ATOM    100  O   UNL A   1      54.690  25.617  26.552  1.00  0.00    -0.744 OA
ENDBRANCH  96  97
ENDBRANCH  64  89
ENDBRANCH  38  39
ENDBRANCH  30  33
ENDBRANCH  28  29
ENDBRANCH  27  28
ENDBRANCH  26  27
ENDBRANCH   1  26
TORSDOF 19
ENDMDL
MODEL 2
REMARK VINA RESULT:     -11.7      3.201      4.199
REMARK SMILES C[C@H]1[C@H](C(=O)NCCCCCCNC(=O)c2ccc(-c3c4nc(c(-c5c(F)cc(S(=O)(=O)[O-])cc5F)c5ccc([nH]5)c(-c5c(F)cc(S(=O)(=O)[O-])cc5F)c5nc(c(-c6c(F)cc(S(=O)(=O)[O-])cc6F)c6ccc3[nH]6)C=C5)C=C4)cc2)CC[N@@H+]1Cc1ccc(C(F)(F)F)cc1
REMARK SMILES IDX 9 1 8 2 7 3 6 4 4 5 5 6 3 8 1 9 2 10 84 11 82 12 83 13 85 15
REMARK SMILES IDX 86 16 87 17 95 18 88 19 94 20 89 21 90 22 91 23 92 24 93 25
REMARK SMILES IDX 10 26 11 27 12 28 13 29 14 30 15 32 16 33 17 34 81 35 18 36
REMARK SMILES IDX 80 37 19 38 20 39 21 40 74 41 22 42 79 43 73 44 75 45 23 46
REMARK SMILES IDX 78 47 72 48 71 49 24 51 58 52 37 53 57 54 38 55 41 56 56 57
REMARK SMILES IDX 76 58 39 59 40 60 55 62 77 63 42 64 25 65 26 66 35 67 27 68
REMARK SMILES IDX 28 69 34 70 36 71 29 72 30 73 31 74 32 75 33 76 59 77 60 78
REMARK SMILES IDX 69 79 61 80 62 81 68 82 70 83 63 84 64 85 65 86 66 87 67 88
REMARK SMILES IDX 43 89 44 90 53 91 45 92 46 93 52 94 54 95 47 96 48 97 49 98
REMARK SMILES IDX 50 99 51 100
REMARK H PARENT 6 7 84 14 13 31 75 50 41 61
REMARK Flexibility Score: inf
ROOT
ATOM      1  C   UNL A   1      32.411  28.838  23.063  1.00  0.00     0.002 C 
ENDROOT
BRANCH   1   2
ATOM      2  C   UNL A   1      33.221  27.641  22.538  1.00  0.00     0.021 C 
BRANCH   2   3
ATOM      3  C   UNL A   1      32.409  26.528  21.857  1.00  0.00     0.116 C 
BRANCH   3   4
ATOM      4  N   UNL A   1      33.145  25.287  21.723  1.00  0.00    -0.356 N 
ATOM      5  C   UNL A   1      33.518  24.353  22.636  1.00  0.00     0.229 C 
ATOM      6  O   UNL A   1      34.007  23.314  22.173  1.00  0.00    -0.275 OA
ATOM      7  H   UNL A   1      33.427  25.083  20.802  1.00  0.00     0.163 HD
BRANCH   5   8
ATOM      8  C   UNL A   1      33.339  24.467  24.150  1.00  0.00     0.142 C 
ATOM      9  C   UNL A   1      30.976  24.283  24.983  1.00  0.00     0.076 C 
ATOM     10  C   UNL A   1      32.324  23.560  24.869  1.00  0.00     0.193 C 
ATOM     11  N   UNL A   1      32.853  23.369  26.240  1.00  0.00    -0.328 N 
ATOM     12  C   UNL A   1      34.605  24.344  24.979  1.00  0.00     0.081 C 
ATOM     13  C   UNL A   1      34.029  24.225  26.383  1.00  0.00     0.263 C 
ATOM     14  H   UNL A   1      32.133  23.666  26.898  1.00  0.00     0.348 HD
BRANCH  11  15
ATOM     15  C   UNL A   1      32.984  21.985  26.739  1.00  0.00     0.299 C 
BRANCH  15  16
ATOM     16  C   UNL A   1      33.280  20.891  25.729  1.00  0.00     0.006 A 
ATOM     17  C   UNL A   1      34.597  20.522  25.444  1.00  0.00     0.010 A 
ATOM     18  C   UNL A   1      32.254  20.207  25.060  1.00  0.00     0.010 A 
ATOM     19  C   UNL A   1      34.861  19.384  24.676  1.00  0.00     0.013 A 
ATOM     20  C   UNL A   1      32.511  19.027  24.359  1.00  0.00     0.013 A 
ATOM     21  C   UNL A   1      33.819  18.565  24.219  1.00  0.00     0.056 A 
BRANCH  21  22
ATOM     22  C   UNL A   1      34.081  17.166  23.715  1.00  0.00     0.416 C 
ATOM     23  F   UNL A   1      35.088  16.527  24.368  1.00  0.00    -0.166 F 
ATOM     24  F   UNL A   1      32.980  16.373  23.879  1.00  0.00    -0.166 F 
ATOM     25  F   UNL A   1      34.379  17.106  22.390  1.00  0.00    -0.166 F 
ENDBRANCH  21  22
ENDBRANCH  15  16
ENDBRANCH  11  15
ENDBRANCH   5   8
ENDBRANCH   3   4
ENDBRANCH   2   3
ENDBRANCH   1   2
BRANCH   1  26
ATOM     26  C   UNL A   1      32.564  29.212  24.547  1.00  0.00     0.002 C 
BRANCH  26  27
ATOM     27  C   UNL A   1      33.427  28.330  25.460  1.00  0.00     0.021 C 
BRANCH  27  28
ATOM     28  C   UNL A   1      33.326  28.517  26.976  1.00  0.00     0.116 C 
BRANCH  28  29
ATOM     29  N   UNL A   1      33.423  29.918  27.348  1.00  0.00    -0.352 N 
ATOM     30  C   UNL A   1      34.400  30.578  28.055  1.00  0.00     0.251 C 
ATOM     31  H   UNL A   1      32.673  30.481  27.047  1.00  0.00     0.163 HD
ATOM     32  O   UNL A   1      34.132  31.673  28.550  1.00  0.00    -0.269 OA
BRANCH  30  33
ATOM     33  C   UNL A   1      35.774  30.026  28.222  1.00  0.00     0.039 A 
ATOM     34  C   UNL A   1      36.153  29.534  29.478  1.00  0.00     0.014 A 
ATOM     35  C   UNL A   1      36.735  30.121  27.211  1.00  0.00     0.014 A 
ATOM     36  C   UNL A   1      37.476  29.137  29.720  1.00  0.00     0.010 A 
ATOM     37  C   UNL A   1      38.048  29.682  27.440  1.00  0.00     0.010 A 
ATOM     38  C   UNL A   1      38.441  29.212  28.704  1.00  0.00    -0.014 A 
BRANCH  38  39
ATOM     39  C   UNL A   1      39.869  28.868  28.968  1.00  0.00     0.031 A 
ATOM     40  C   UNL A   1      40.797  29.894  29.570  1.00  0.00     0.074 A 
ATOM     41  C   UNL A   1      40.350  27.650  28.647  1.00  0.00     0.049 A 
ATOM     42  N   UNL A   1      42.082  29.811  29.816  1.00  0.00    -0.248 NA
ATOM     43  C   UNL A   1      40.205  31.194  29.925  1.00  0.00     0.031 C 
ATOM     44  C   UNL A   1      39.574  26.568  28.039  1.00  0.00     0.029 A 
ATOM     45  N   UNL A   1      41.612  27.121  28.777  1.00  0.00    -0.354 N 
ATOM     46  C   UNL A   1      42.454  31.049  30.331  1.00  0.00     0.074 A 
ATOM     47  C   UNL A   1      41.267  31.878  30.326  1.00  0.00     0.031 C 
ATOM     48  C   UNL A   1      40.372  25.501  27.861  1.00  0.00     0.029 A 
ATOM     49  C   UNL A   1      41.723  25.831  28.312  1.00  0.00     0.049 A 
ATOM     50  H   UNL A   1      42.367  27.618  29.166  1.00  0.00     0.167 HD
ATOM     51  C   UNL A   1      43.666  31.455  30.786  1.00  0.00     0.037 A 
ATOM     52  C   UNL A   1      42.788  25.008  28.247  1.00  0.00     0.037 A 
ATOM     53  C   UNL A   1      44.840  30.622  30.828  1.00  0.00     0.049 A 
ATOM     54  C   UNL A   1      44.123  25.476  28.763  1.00  0.00     0.074 A 
ATOM     55  C   UNL A   1      46.096  30.927  31.323  1.00  0.00     0.029 A 
ATOM     56  N   UNL A   1      44.903  29.316  30.362  1.00  0.00    -0.354 N 
ATOM     57  N   UNL A   1      44.444  26.636  29.284  1.00  0.00    -0.248 NA
ATOM     58  C   UNL A   1      45.240  24.522  28.685  1.00  0.00     0.031 C 
ATOM     59  C   UNL A   1      46.928  29.819  31.127  1.00  0.00     0.029 A 
ATOM     60  C   UNL A   1      46.179  28.810  30.543  1.00  0.00     0.049 A 
ATOM     61  H   UNL A   1      44.151  28.823  29.961  1.00  0.00     0.167 HD
ATOM     62  C   UNL A   1      45.792  26.544  29.616  1.00  0.00     0.074 A 
ATOM     63  C   UNL A   1      46.223  25.212  29.248  1.00  0.00     0.031 C 
ATOM     64  C   UNL A   1      46.598  27.480  30.176  1.00  0.00     0.037 A 
BRANCH  51  65
ATOM     65  C   UNL A   1      43.784  32.872  31.278  1.00  0.00     0.058 A 
ATOM     66  C   UNL A   1      43.594  33.202  32.630  1.00  0.00     0.135 A 
ATOM     67  C   UNL A   1      44.117  33.912  30.394  1.00  0.00     0.135 A 
ATOM     68  F   UNL A   1      43.264  32.249  33.516  1.00  0.00    -0.206 F 
ATOM     69  C   UNL A   1      43.693  34.514  33.081  1.00  0.00     0.059 A 
ATOM     70  C   UNL A   1      44.247  35.229  30.828  1.00  0.00     0.059 A 
ATOM     71  F   UNL A   1      44.316  33.654  29.091  1.00  0.00    -0.206 F 
ATOM     72  C   UNL A   1      44.014  35.522  32.171  1.00  0.00     0.060 A 
BRANCH  72  73
ATOM     73  S   UNL A   1      44.125  37.224  32.763  1.00  0.00     0.124 S 
ATOM     74  O   UNL A   1      43.997  37.973  31.515  1.00  0.00    -0.237 OA
ATOM     75  O   UNL A   1      42.980  37.314  33.671  1.00  0.00    -0.237 OA
ATOM     76  O   UNL A   1      45.430  37.280  33.400  1.00  0.00    -0.744 OA
ENDBRANCH  72  73
ENDBRANCH  51  65
BRANCH  52  77
ATOM     77  C   UNL A   1      42.633  23.638  27.689  1.00  0.00     0.058 A 
ATOM     78  C   UNL A   1      42.730  23.408  26.308  1.00  0.00     0.135 A 
ATOM     79  C   UNL A   1      42.402  22.533  28.522  1.00  0.00     0.135 A 
ATOM     80  F   UNL A   1      42.939  24.435  25.471  1.00  0.00    -0.206 F 
ATOM     81  C   UNL A   1      42.597  22.132  25.771  1.00  0.00     0.059 A 
ATOM     82  C   UNL A   1      42.287  21.244  28.010  1.00  0.00     0.059 A 
ATOM     83  F   UNL A   1      42.312  22.699  29.850  1.00  0.00    -0.206 F 
ATOM     84  C   UNL A   1      42.378  21.055  26.631  1.00  0.00     0.060 A 
BRANCH  84  85
ATOM     85  S   UNL A   1      42.269  19.392  25.932  1.00  0.00     0.124 S 
ATOM     86  O   UNL A   1      42.809  18.581  27.016  1.00  0.00    -0.237 OA
ATOM     87  O   UNL A   1      40.836  19.257  25.684  1.00  0.00    -0.237 OA
ATOM     88  O   UNL A   1      43.097  19.480  24.732  1.00  0.00    -0.744 OA
ENDBRANCH  84  85
ENDBRANCH  52  77
BRANCH  64  89
ATOM     89  C   UNL A   1      48.025  27.093  30.448  1.00  0.00     0.058 A 
ATOM     90  C   UNL A   1      49.039  27.312  29.503  1.00  0.00     0.135 A 
ATOM     91  C   UNL A   1      48.392  26.545  31.688  1.00  0.00     0.135 A 
ATOM     92  F   UNL A   1      48.740  27.828  28.300  1.00  0.00    -0.206 F 
ATOM     93  C   UNL A   1      50.363  26.983  29.769  1.00  0.00     0.059 A 
ATOM     94  C   UNL A   1      49.714  26.229  31.984  1.00  0.00     0.059 A 
ATOM     95  F   UNL A   1      47.462  26.325  32.631  1.00  0.00    -0.206 F 
ATOM     96  C   UNL A   1      50.692  26.443  31.014  1.00  0.00     0.060 A 
BRANCH  96  97
ATOM     97  S   UNL A   1      52.421  26.054  31.363  1.00  0.00     0.124 S 
ATOM     98  O   UNL A   1      53.011  26.119  30.030  1.00  0.00    -0.237 OA
ATOM     99  O   UNL A   1      52.806  27.122  32.280  1.00  0.00    -0.237 OA
ATOM    100  O   UNL A   1      52.355  24.722  31.956  1.00  0.00    -0.744 OA
ENDBRANCH  96  97
ENDBRANCH  64  89
ENDBRANCH  38  39
ENDBRANCH  30  33
ENDBRANCH  28  29
ENDBRANCH  27  28
ENDBRANCH  26  27
ENDBRANCH   1  26
TORSDOF 19
ENDMDL
MODEL 3
REMARK VINA RESULT:     -11.3      2.181      3.020
REMARK SMILES C[C@H]1[C@H](C(=O)NCCCCCCNC(=O)c2ccc(-c3c4nc(c(-c5c(F)cc(S(=O)(=O)[O-])cc5F)c5ccc([nH]5)c(-c5c(F)cc(S(=O)(=O)[O-])cc5F)c5nc(c(-c6c(F)cc(S(=O)(=O)[O-])cc6F)c6ccc3[nH]6)C=C5)C=C4)cc2)CC[N@@H+]1Cc1ccc(C(F)(F)F)cc1
REMARK SMILES IDX 9 1 8 2 7 3 6 4 4 5 5 6 3 8 1 9 2 10 84 11 82 12 83 13 85 15
REMARK SMILES IDX 86 16 87 17 95 18 88 19 94 20 89 21 90 22 91 23 92 24 93 25
REMARK SMILES IDX 10 26 11 27 12 28 13 29 14 30 15 32 16 33 17 34 81 35 18 36
REMARK SMILES IDX 80 37 19 38 20 39 21 40 74 41 22 42 79 43 73 44 75 45 23 46
REMARK SMILES IDX 78 47 72 48 71 49 24 51 58 52 37 53 57 54 38 55 41 56 56 57
REMARK SMILES IDX 76 58 39 59 40 60 55 62 77 63 42 64 25 65 26 66 35 67 27 68
REMARK SMILES IDX 28 69 34 70 36 71 29 72 30 73 31 74 32 75 33 76 59 77 60 78
REMARK SMILES IDX 69 79 61 80 62 81 68 82 70 83 63 84 64 85 65 86 66 87 67 88
REMARK SMILES IDX 43 89 44 90 53 91 45 92 46 93 52 94 54 95 47 96 48 97 49 98
REMARK SMILES IDX 50 99 51 100
REMARK H PARENT 6 7 84 14 13 31 75 50 41 61
REMARK Flexibility Score: inf
ROOT
ATOM      1  C   UNL A   1      31.753  27.949  27.271  1.00  0.00     0.002 C 
ENDROOT
BRANCH   1   2
ATOM      2  C   UNL A   1      31.429  26.656  26.504  1.00  0.00     0.021 C 
BRANCH   2   3
ATOM      3  C   UNL A   1      32.628  25.754  26.171  1.00  0.00     0.116 C 
BRANCH   3   4
ATOM      4  N   UNL A   1      32.590  24.479  26.860  1.00  0.00    -0.356 N 
ATOM      5  C   UNL A   1      33.091  23.260  26.532  1.00  0.00     0.229 C 
ATOM      6  O   UNL A   1      33.027  22.397  27.419  1.00  0.00    -0.275 OA
ATOM      7  H   UNL A   1      32.116  24.501  27.721  1.00  0.00     0.163 HD
BRANCH   5   8
ATOM      8  C   UNL A   1      33.752  22.896  25.203  1.00  0.00     0.142 C 
ATOM      9  C   UNL A   1      32.474  21.284  23.760  1.00  0.00     0.076 C 
ATOM     10  C   UNL A   1      32.888  22.750  23.936  1.00  0.00     0.193 C 
ATOM     11  N   UNL A   1      33.772  23.111  22.802  1.00  0.00    -0.328 N 
ATOM     12  C   UNL A   1      34.906  23.781  24.771  1.00  0.00     0.081 C 
ATOM     13  C   UNL A   1      35.117  23.314  23.337  1.00  0.00     0.263 C 
ATOM     14  H   UNL A   1      33.780  22.328  22.149  1.00  0.00     0.348 HD
BRANCH  11  15
ATOM     15  C   UNL A   1      33.284  24.128  21.849  1.00  0.00     0.299 C 
BRANCH  15  16
ATOM     16  C   UNL A   1      32.568  25.344  22.410  1.00  0.00     0.006 A 
ATOM     17  C   UNL A   1      33.251  26.549  22.594  1.00  0.00     0.010 A 
ATOM     18  C   UNL A   1      31.208  25.307  22.750  1.00  0.00     0.010 A 
ATOM     19  C   UNL A   1      32.548  27.715  22.913  1.00  0.00     0.013 A 
ATOM     20  C   UNL A   1      30.494  26.482  22.992  1.00  0.00     0.013 A 
ATOM     21  C   UNL A   1      31.150  27.713  23.006  1.00  0.00     0.056 A 
BRANCH  21  22
ATOM     22  C   UNL A   1      30.358  28.997  22.986  1.00  0.00     0.416 C 
ATOM     23  F   UNL A   1      29.022  28.821  23.163  1.00  0.00    -0.166 F 
ATOM     24  F   UNL A   1      30.752  29.831  23.995  1.00  0.00    -0.166 F 
ATOM     25  F   UNL A   1      30.506  29.717  21.842  1.00  0.00    -0.166 F 
ENDBRANCH  21  22
ENDBRANCH  15  16
ENDBRANCH  11  15
ENDBRANCH   5   8
ENDBRANCH   3   4
ENDBRANCH   2   3
ENDBRANCH   1   2
BRANCH   1  26
ATOM     26  C   UNL A   1      32.915  28.816  26.757  1.00  0.00     0.002 C 
BRANCH  26  27
ATOM     27  C   UNL A   1      34.179  28.962  27.614  1.00  0.00     0.021 C 
BRANCH  27  28
ATOM     28  C   UNL A   1      34.961  30.278  27.557  1.00  0.00     0.116 C 
BRANCH  28  29
ATOM     29  N   UNL A   1      35.179  30.826  28.883  1.00  0.00    -0.352 N 
ATOM     30  C   UNL A   1      36.179  30.566  29.792  1.00  0.00     0.251 C 
ATOM     31  H   UNL A   1      34.510  31.486  29.177  1.00  0.00     0.163 HD
ATOM     32  O   UNL A   1      35.997  30.871  30.971  1.00  0.00    -0.269 OA
BRANCH  30  33
ATOM     33  C   UNL A   1      37.477  29.953  29.396  1.00  0.00     0.039 A 
ATOM     34  C   UNL A   1      38.384  29.591  30.401  1.00  0.00     0.014 A 
ATOM     35  C   UNL A   1      37.875  29.865  28.058  1.00  0.00     0.014 A 
ATOM     36  C   UNL A   1      39.672  29.143  30.072  1.00  0.00     0.010 A 
ATOM     37  C   UNL A   1      39.147  29.375  27.729  1.00  0.00     0.010 A 
ATOM     38  C   UNL A   1      40.070  29.035  28.731  1.00  0.00    -0.014 A 
BRANCH  38  39
ATOM     39  C   UNL A   1      41.462  28.635  28.368  1.00  0.00     0.031 A 
ATOM     40  C   UNL A   1      42.558  29.672  28.315  1.00  0.00     0.074 A 
ATOM     41  C   UNL A   1      41.747  27.355  28.059  1.00  0.00     0.049 A 
ATOM     42  N   UNL A   1      43.813  29.537  27.960  1.00  0.00    -0.248 NA
ATOM     43  C   UNL A   1      42.189  31.045  28.691  1.00  0.00     0.031 C 
ATOM     44  C   UNL A   1      40.784  26.253  28.047  1.00  0.00     0.029 A 
ATOM     45  N   UNL A   1      42.930  26.765  27.682  1.00  0.00    -0.354 N 
ATOM     46  C   UNL A   1      44.374  30.807  28.049  1.00  0.00     0.074 A 
ATOM     47  C   UNL A   1      43.314  31.706  28.453  1.00  0.00     0.031 C 
ATOM     48  C   UNL A   1      41.416  25.120  27.695  1.00  0.00     0.029 A 
ATOM     49  C   UNL A   1      42.821  25.418  27.426  1.00  0.00     0.049 A 
ATOM     50  H   UNL A   1      43.777  27.260  27.603  1.00  0.00     0.167 HD
ATOM     51  C   UNL A   1      45.658  31.190  27.834  1.00  0.00     0.037 A 
ATOM     52  C   UNL A   1      43.742  24.523  27.015  1.00  0.00     0.037 A 
ATOM     53  C   UNL A   1      46.724  30.293  27.468  1.00  0.00     0.049 A 
ATOM     54  C   UNL A   1      45.162  24.968  26.787  1.00  0.00     0.074 A 
ATOM     55  C   UNL A   1      48.066  30.580  27.284  1.00  0.00     0.029 A 
ATOM     56  N   UNL A   1      46.572  28.934  27.235  1.00  0.00    -0.354 N 
ATOM     57  N   UNL A   1      45.681  26.166  26.917  1.00  0.00    -0.248 NA
ATOM     58  C   UNL A   1      46.123  23.939  26.362  1.00  0.00     0.031 C 
ATOM     59  C   UNL A   1      48.720  29.401  26.908  1.00  0.00     0.029 A 
ATOM     60  C   UNL A   1      47.791  28.372  26.894  1.00  0.00     0.049 A 
ATOM     61  H   UNL A   1      45.722  28.441  27.302  1.00  0.00     0.167 HD
ATOM     62  C   UNL A   1      47.032  26.030  26.611  1.00  0.00     0.074 A 
ATOM     63  C   UNL A   1      47.252  24.633  26.300  1.00  0.00     0.031 C 
ATOM     64  C   UNL A   1      48.001  26.979  26.590  1.00  0.00     0.037 A 
BRANCH  51  65
ATOM     65  C   UNL A   1      45.983  32.651  27.990  1.00  0.00     0.058 A 
ATOM     66  C   UNL A   1      45.790  33.566  26.942  1.00  0.00     0.135 A 
ATOM     67  C   UNL A   1      46.469  33.149  29.211  1.00  0.00     0.135 A 
ATOM     68  F   UNL A   1      45.337  33.142  25.752  1.00  0.00    -0.206 F 
ATOM     69  C   UNL A   1      46.101  34.914  27.085  1.00  0.00     0.059 A 
ATOM     70  C   UNL A   1      46.763  34.500  29.385  1.00  0.00     0.059 A 
ATOM     71  F   UNL A   1      46.667  32.321  30.248  1.00  0.00    -0.206 F 
ATOM     72  C   UNL A   1      46.593  35.370  28.309  1.00  0.00     0.060 A 
BRANCH  72  73
ATOM     73  S   UNL A   1      47.010  37.119  28.480  1.00  0.00     0.124 S 
ATOM     74  O   UNL A   1      45.876  37.611  29.258  1.00  0.00    -0.237 OA
ATOM     75  O   UNL A   1      48.287  37.068  29.192  1.00  0.00    -0.237 OA
ATOM     76  O   UNL A   1      47.081  37.589  27.106  1.00  0.00    -0.744 OA
ENDBRANCH  72  73
ENDBRANCH  51  65
BRANCH  52  77
ATOM     77  C   UNL A   1      43.353  23.103  26.809  1.00  0.00     0.058 A 
ATOM     78  C   UNL A   1      43.285  22.553  25.521  1.00  0.00     0.135 A 
ATOM     79  C   UNL A   1      43.060  22.263  27.895  1.00  0.00     0.135 A 
ATOM     80  F   UNL A   1      43.546  23.320  24.451  1.00  0.00    -0.206 F 
ATOM     81  C   UNL A   1      42.933  21.224  25.312  1.00  0.00     0.059 A 
ATOM     82  C   UNL A   1      42.727  20.924  27.713  1.00  0.00     0.059 A 
ATOM     83  F   UNL A   1      43.122  22.738  29.148  1.00  0.00    -0.206 F 
ATOM     84  C   UNL A   1      42.659  20.415  26.417  1.00  0.00     0.060 A 
BRANCH  84  85
ATOM     85  S   UNL A   1      42.263  18.674  26.142  1.00  0.00     0.124 S 
ATOM     86  O   UNL A   1      42.543  18.099  27.453  1.00  0.00    -0.237 OA
ATOM     87  O   UNL A   1      40.856  18.736  25.758  1.00  0.00    -0.237 OA
ATOM     88  O   UNL A   1      43.180  18.289  25.072  1.00  0.00    -0.744 OA
ENDBRANCH  84  85
ENDBRANCH  52  77
BRANCH  64  89
ATOM     89  C   UNL A   1      49.395  26.538  26.241  1.00  0.00     0.058 A 
ATOM     90  C   UNL A   1      49.919  26.712  24.951  1.00  0.00     0.135 A 
ATOM     91  C   UNL A   1      50.234  25.983  27.221  1.00  0.00     0.135 A 
ATOM     92  F   UNL A   1      49.156  27.232  23.976  1.00  0.00    -0.206 F 
ATOM     93  C   UNL A   1      51.221  26.334  24.639  1.00  0.00     0.059 A 
ATOM     94  C   UNL A   1      51.546  25.618  26.936  1.00  0.00     0.059 A 
ATOM     95  F   UNL A   1      49.784  25.805  28.473  1.00  0.00    -0.206 F 
ATOM     96  C   UNL A   1      52.028  25.788  25.639  1.00  0.00     0.060 A 
BRANCH  96  97
ATOM     97  S   UNL A   1      53.727  25.334  25.232  1.00  0.00     0.124 S 
ATOM     98  O   UNL A   1      54.474  26.023  26.278  1.00  0.00    -0.237 OA
ATOM     99  O   UNL A   1      53.697  23.878  25.329  1.00  0.00    -0.237 OA
ATOM    100  O   UNL A   1      53.905  25.861  23.882  1.00  0.00    -0.744 OA
ENDBRANCH  96  97
ENDBRANCH  64  89
ENDBRANCH  38  39
ENDBRANCH  30  33
ENDBRANCH  28  29
ENDBRANCH  27  28
ENDBRANCH  26  27
ENDBRANCH   1  26
TORSDOF 19
ENDMDL
