MODEL 1
REMARK VINA RESULT:     -12.2      0.000      0.000
REMARK SMILES COc1c[nH]c(C[N@H+]2CCC[C@@H](c3ccc(C(=O)NCCCCCCNC(=O)c4ccc(-c5c6nc(c(-c7c(F)cc(S(=O)(=O)[O-])cc7F)c7ccc([nH]7)c(-c7c(F)cc(S(=O)(=O)[O-])cc7F)c7nc(c(-c8c(F)cc(S(=O)(=O)[O-])cc8F)c8ccc5[nH]8)C=C7)C=C6)cc4)cc3)C2)cc1=O
REMARK SMILES IDX 22 1 21 2 20 3 19 4 17 5 18 6 16 8 13 9 14 10 96 11 15 12
REMARK SMILES IDX 95 13 12 14 8 15 9 16 97 17 10 19 11 20 7 21 6 22 3 23 4 24
REMARK SMILES IDX 99 25 5 26 98 27 100 28 2 30 1 31 23 32 24 33 25 34 26 35
REMARK SMILES IDX 27 36 28 38 29 39 30 40 94 41 31 42 93 43 32 44 33 45 34 46
REMARK SMILES IDX 87 47 35 48 92 49 86 50 88 51 36 52 91 53 85 54 84 55 37 57
REMARK SMILES IDX 71 58 50 59 70 60 51 61 54 62 69 63 89 64 52 65 53 66 68 68
REMARK SMILES IDX 90 69 55 70 38 71 39 72 48 73 40 74 41 75 47 76 49 77 42 78
REMARK SMILES IDX 43 79 44 80 45 81 46 82 72 83 73 84 82 85 74 86 75 87 81 88
REMARK SMILES IDX 83 89 76 90 77 91 78 92 79 93 80 94 56 95 57 96 66 97 58 98
REMARK SMILES IDX 59 99 65 100 67 101 60 102 61 103 62 104 63 105 64 106
REMARK H PARENT 19 7 8 18 5 29 26 37 88 56 54 67
REMARK Flexibility Score: inf
ROOT
ATOM      1  C   UNL A   1      35.155  33.004  28.610  1.00  0.00     0.002 C 
ENDROOT
BRANCH   1   2
ATOM      2  C   UNL A   1      35.682  31.873  27.718  1.00  0.00     0.021 C 
BRANCH   2   3
ATOM      3  C   UNL A   1      34.843  30.598  27.814  1.00  0.00     0.116 C 
BRANCH   3   4
ATOM      4  N   UNL A   1      33.522  30.845  27.275  1.00  0.00    -0.352 N 
ATOM      5  C   UNL A   1      32.738  30.125  26.414  1.00  0.00     0.251 C 
ATOM      6  O   UNL A   1      31.650  30.604  26.090  1.00  0.00    -0.269 OA
ATOM      7  H   UNL A   1      33.111  31.686  27.584  1.00  0.00     0.163 HD
BRANCH   5   8
ATOM      8  C   UNL A   1      33.106  28.764  25.933  1.00  0.00     0.039 A 
ATOM      9  C   UNL A   1      33.639  26.252  24.759  1.00  0.00    -0.039 A 
ATOM     10  C   UNL A   1      33.819  27.439  24.032  1.00  0.00     0.005 A 
ATOM     11  C   UNL A   1      33.292  26.347  26.110  1.00  0.00     0.005 A 
ATOM     12  C   UNL A   1      33.536  28.676  24.606  1.00  0.00     0.014 A 
ATOM     13  C   UNL A   1      33.060  27.597  26.699  1.00  0.00     0.014 A 
BRANCH   9  14
ATOM     14  C   UNL A   1      33.798  24.885  24.105  1.00  0.00     0.074 C 
ATOM     15  N   UNL A   1      32.963  22.491  24.243  1.00  0.00    -0.329 N 
ATOM     16  C   UNL A   1      32.537  22.565  22.839  1.00  0.00     0.262 C 
ATOM     17  C   UNL A   1      32.987  23.818  24.872  1.00  0.00     0.270 C 
ATOM     18  H   UNL A   1      33.923  22.146  24.248  1.00  0.00     0.348 HD
ATOM     19  C   UNL A   1      33.409  23.528  22.031  1.00  0.00     0.062 C 
ATOM     20  C   UNL A   1      33.383  24.931  22.630  1.00  0.00     0.020 C 
BRANCH  15  21
ATOM     21  C   UNL A   1      32.165  21.513  25.016  1.00  0.00     0.317 C 
BRANCH  21  22
ATOM     22  C   UNL A   1      32.503  20.037  24.799  1.00  0.00     0.074 A 
ATOM     23  C   UNL A   1      32.842  17.204  24.661  1.00  0.00     0.182 A 
ATOM     24  C   UNL A   1      32.835  17.878  25.820  1.00  0.00     0.133 A 
ATOM     25  C   UNL A   1      32.749  18.032  23.407  1.00  0.00     0.223 A 
ATOM     26  N   UNL A   1      32.747  19.240  25.905  1.00  0.00    -0.357 N 
ATOM     27  C   UNL A   1      32.540  19.502  23.563  1.00  0.00     0.083 A 
ATOM     28  O   UNL A   1      32.809  17.546  22.281  1.00  0.00    -0.286 OA
ATOM     29  H   UNL A   1      32.860  19.669  26.783  1.00  0.00     0.166 HD
BRANCH  23  30
ATOM     30  O   UNL A   1      32.846  15.824  24.642  1.00  0.00    -0.491 OA
ATOM     31  C   UNL A   1      32.345  15.270  25.853  1.00  0.00     0.278 C 
ENDBRANCH  23  30
ENDBRANCH  21  22
ENDBRANCH  15  21
ENDBRANCH   9  14
ENDBRANCH   5   8
ENDBRANCH   3   4
ENDBRANCH   2   3
ENDBRANCH   1   2
BRANCH   1  32
ATOM     32  C   UNL A   1      36.218  34.023  29.036  1.00  0.00     0.002 C 
BRANCH  32  33
ATOM     33  C   UNL A   1      36.465  34.095  30.545  1.00  0.00     0.021 C 
BRANCH  33  34
ATOM     34  C   UNL A   1      37.355  32.978  31.082  1.00  0.00     0.116 C 
BRANCH  34  35
ATOM     35  N   UNL A   1      36.568  31.828  31.498  1.00  0.00    -0.352 N 
ATOM     36  C   UNL A   1      36.772  30.498  31.228  1.00  0.00     0.251 C 
ATOM     37  H   UNL A   1      35.778  32.031  32.049  1.00  0.00     0.163 HD
ATOM     38  O   UNL A   1      35.876  29.685  31.429  1.00  0.00    -0.269 OA
BRANCH  36  39
ATOM     39  C   UNL A   1      38.075  30.055  30.688  1.00  0.00     0.039 A 
ATOM     40  C   UNL A   1      38.254  29.998  29.305  1.00  0.00     0.014 A 
ATOM     41  C   UNL A   1      39.111  29.685  31.550  1.00  0.00     0.014 A 
ATOM     42  C   UNL A   1      39.492  29.615  28.786  1.00  0.00     0.010 A 
ATOM     43  C   UNL A   1      40.364  29.374  31.033  1.00  0.00     0.010 A 
ATOM     44  C   UNL A   1      40.565  29.327  29.645  1.00  0.00    -0.014 A 
BRANCH  44  45
ATOM     45  C   UNL A   1      41.903  28.970  29.111  1.00  0.00     0.031 A 
ATOM     46  C   UNL A   1      42.976  30.019  28.999  1.00  0.00     0.074 A 
ATOM     47  C   UNL A   1      42.128  27.717  28.668  1.00  0.00     0.049 A 
ATOM     48  N   UNL A   1      44.181  29.917  28.501  1.00  0.00    -0.248 NA
ATOM     49  C   UNL A   1      42.642  31.365  29.490  1.00  0.00     0.031 C 
ATOM     50  C   UNL A   1      41.150  26.627  28.678  1.00  0.00     0.029 A 
ATOM     51  N   UNL A   1      43.248  27.150  28.114  1.00  0.00    -0.354 N 
ATOM     52  C   UNL A   1      44.743  31.184  28.604  1.00  0.00     0.074 A 
ATOM     53  C   UNL A   1      43.729  32.051  29.163  1.00  0.00     0.031 C 
ATOM     54  C   UNL A   1      41.718  25.519  28.176  1.00  0.00     0.029 A 
ATOM     55  C   UNL A   1      43.086  25.828  27.771  1.00  0.00     0.049 A 
ATOM     56  H   UNL A   1      44.089  27.643  27.973  1.00  0.00     0.167 HD
ATOM     57  C   UNL A   1      45.998  31.583  28.286  1.00  0.00     0.037 A 
ATOM     58  C   UNL A   1      43.941  24.964  27.190  1.00  0.00     0.037 A 
ATOM     59  C   UNL A   1      47.008  30.707  27.752  1.00  0.00     0.049 A 
ATOM     60  C   UNL A   1      45.328  25.430  26.842  1.00  0.00     0.074 A 
ATOM     61  C   UNL A   1      48.327  30.998  27.450  1.00  0.00     0.029 A 
ATOM     62  N   UNL A   1      46.812  29.369  27.436  1.00  0.00    -0.354 N 
ATOM     63  N   UNL A   1      45.864  26.616  27.008  1.00  0.00    -0.248 NA
ATOM     64  C   UNL A   1      46.229  24.443  26.235  1.00  0.00     0.031 C 
ATOM     65  C   UNL A   1      48.915  29.849  26.910  1.00  0.00     0.029 A 
ATOM     66  C   UNL A   1      47.978  28.828  26.922  1.00  0.00     0.049 A 
ATOM     67  H   UNL A   1      45.968  28.878  27.560  1.00  0.00     0.167 HD
ATOM     68  C   UNL A   1      47.172  26.511  26.550  1.00  0.00     0.074 A 
ATOM     69  C   UNL A   1      47.351  25.140  26.112  1.00  0.00     0.031 C 
ATOM     70  C   UNL A   1      48.140  27.460  26.496  1.00  0.00     0.037 A 
BRANCH  57  71
ATOM     71  C   UNL A   1      46.349  33.028  28.510  1.00  0.00     0.058 A 
ATOM     72  C   UNL A   1      46.126  34.003  27.523  1.00  0.00     0.135 A 
ATOM     73  C   UNL A   1      46.883  33.453  29.737  1.00  0.00     0.135 A 
ATOM     74  F   UNL A   1      45.632  33.651  26.325  1.00  0.00    -0.206 F 
ATOM     75  C   UNL A   1      46.448  35.340  27.733  1.00  0.00     0.059 A 
ATOM     76  C   UNL A   1      47.184  34.790  29.981  1.00  0.00     0.059 A 
ATOM     77  F   UNL A   1      47.116  32.565  30.716  1.00  0.00    -0.206 F 
ATOM     78  C   UNL A   1      46.978  35.724  28.966  1.00  0.00     0.060 A 
BRANCH  78  79
ATOM     79  S   UNL A   1      47.385  37.463  29.225  1.00  0.00     0.124 S 
ATOM     80  O   UNL A   1      48.832  37.398  29.402  1.00  0.00    -0.237 OA
ATOM     81  O   UNL A   1      46.926  38.079  27.984  1.00  0.00    -0.237 OA
ATOM     82  O   UNL A   1      46.622  37.819  30.417  1.00  0.00    -0.744 OA
ENDBRANCH  78  79
ENDBRANCH  57  71
BRANCH  58  83
ATOM     83  C   UNL A   1      43.513  23.565  26.919  1.00  0.00     0.058 A 
ATOM     84  C   UNL A   1      43.416  22.626  27.956  1.00  0.00     0.135 A 
ATOM     85  C   UNL A   1      43.178  23.143  25.623  1.00  0.00     0.135 A 
ATOM     86  F   UNL A   1      43.730  22.979  29.211  1.00  0.00    -0.206 F 
ATOM     87  C   UNL A   1      43.019  21.314  27.718  1.00  0.00     0.059 A 
ATOM     88  C   UNL A   1      42.754  21.845  25.363  1.00  0.00     0.059 A 
ATOM     89  F   UNL A   1      43.237  24.008  24.597  1.00  0.00    -0.206 F 
ATOM     90  C   UNL A   1      42.686  20.934  26.417  1.00  0.00     0.060 A 
BRANCH  90  91
ATOM     91  S   UNL A   1      42.125  19.242  26.125  1.00  0.00     0.124 S 
ATOM     92  O   UNL A   1      42.401  18.616  27.412  1.00  0.00    -0.237 OA
ATOM     93  O   UNL A   1      40.715  19.440  25.798  1.00  0.00    -0.237 OA
ATOM     94  O   UNL A   1      42.961  18.799  25.013  1.00  0.00    -0.744 OA
ENDBRANCH  90  91
ENDBRANCH  58  83
BRANCH  70  95
ATOM     95  C   UNL A   1      49.487  27.045  25.973  1.00  0.00     0.058 A 
ATOM     96  C   UNL A   1      50.471  26.502  26.815  1.00  0.00     0.135 A 
ATOM     97  C   UNL A   1      49.778  27.143  24.603  1.00  0.00     0.135 A 
ATOM     98  F   UNL A   1      50.246  26.392  28.134  1.00  0.00    -0.206 F 
ATOM     99  C   UNL A   1      51.704  26.093  26.320  1.00  0.00     0.059 A 
ATOM    100  C   UNL A   1      50.995  26.714  24.082  1.00  0.00     0.059 A 
ATOM    101  F   UNL A   1      48.869  27.645  23.753  1.00  0.00    -0.206 F 
ATOM    102  C   UNL A   1      51.957  26.200  24.951  1.00  0.00     0.060 A 
BRANCH 102 103
ATOM    103  S   UNL A   1      53.549  25.634  24.317  1.00  0.00     0.124 S 
ATOM    104  O   UNL A   1      53.508  24.214  24.648  1.00  0.00    -0.237 OA
ATOM    105  O   UNL A   1      53.454  25.959  22.898  1.00  0.00    -0.237 OA
ATOM    106  O   UNL A   1      54.516  26.427  25.072  1.00  0.00    -0.744 OA
ENDBRANCH 102 103
ENDBRANCH  70  95
ENDBRANCH  44  45
ENDBRANCH  36  39
ENDBRANCH  34  35
ENDBRANCH  33  34
ENDBRANCH  32  33
ENDBRANCH   1  32
TORSDOF 20
ENDMDL
MODEL 2
REMARK VINA RESULT:     -12.0      6.349     12.460
REMARK SMILES COc1c[nH]c(C[N@H+]2CCC[C@@H](c3ccc(C(=O)NCCCCCCNC(=O)c4ccc(-c5c6nc(c(-c7c(F)cc(S(=O)(=O)[O-])cc7F)c7ccc([nH]7)c(-c7c(F)cc(S(=O)(=O)[O-])cc7F)c7nc(c(-c8c(F)cc(S(=O)(=O)[O-])cc8F)c8ccc5[nH]8)C=C7)C=C6)cc4)cc3)C2)cc1=O
REMARK SMILES IDX 22 1 21 2 20 3 19 4 17 5 18 6 16 8 13 9 14 10 96 11 15 12
REMARK SMILES IDX 95 13 12 14 8 15 9 16 97 17 10 19 11 20 7 21 6 22 3 23 4 24
REMARK SMILES IDX 99 25 5 26 98 27 100 28 2 30 1 31 23 32 24 33 25 34 26 35
REMARK SMILES IDX 27 36 28 38 29 39 30 40 94 41 31 42 93 43 32 44 33 45 34 46
REMARK SMILES IDX 87 47 35 48 92 49 86 50 88 51 36 52 91 53 85 54 84 55 37 57
REMARK SMILES IDX 71 58 50 59 70 60 51 61 54 62 69 63 89 64 52 65 53 66 68 68
REMARK SMILES IDX 90 69 55 70 38 71 39 72 48 73 40 74 41 75 47 76 49 77 42 78
REMARK SMILES IDX 43 79 44 80 45 81 46 82 72 83 73 84 82 85 74 86 75 87 81 88
REMARK SMILES IDX 83 89 76 90 77 91 78 92 79 93 80 94 56 95 57 96 66 97 58 98
REMARK SMILES IDX 59 99 65 100 67 101 60 102 61 103 62 104 63 105 64 106
REMARK H PARENT 19 7 8 18 5 29 26 37 88 56 54 67
REMARK Flexibility Score: inf
ROOT
ATOM      1  C   UNL A   1      35.873  22.018  24.431  1.00  0.00     0.002 C 
ENDROOT
BRANCH   1   2
ATOM      2  C   UNL A   1      35.757  20.812  25.373  1.00  0.00     0.021 C 
BRANCH   2   3
ATOM      3  C   UNL A   1      35.596  19.487  24.628  1.00  0.00     0.116 C 
BRANCH   3   4
ATOM      4  N   UNL A   1      34.415  18.800  25.110  1.00  0.00    -0.352 N 
ATOM      5  C   UNL A   1      33.097  19.172  25.155  1.00  0.00     0.251 C 
ATOM      6  O   UNL A   1      32.296  18.388  25.665  1.00  0.00    -0.269 OA
ATOM      7  H   UNL A   1      34.591  17.901  25.472  1.00  0.00     0.163 HD
BRANCH   5   8
ATOM      8  C   UNL A   1      32.593  20.431  24.540  1.00  0.00     0.039 A 
ATOM      9  C   UNL A   1      31.876  22.792  23.167  1.00  0.00    -0.039 A 
ATOM     10  C   UNL A   1      32.149  21.607  22.467  1.00  0.00     0.005 A 
ATOM     11  C   UNL A   1      31.863  22.749  24.564  1.00  0.00     0.005 A 
ATOM     12  C   UNL A   1      32.523  20.449  23.144  1.00  0.00     0.014 A 
ATOM     13  C   UNL A   1      32.187  21.568  25.243  1.00  0.00     0.014 A 
BRANCH   9  14
ATOM     14  C   UNL A   1      31.613  24.105  22.439  1.00  0.00     0.074 C 
ATOM     15  N   UNL A   1      30.770  26.469  22.820  1.00  0.00    -0.329 N 
ATOM     16  C   UNL A   1      32.033  26.999  22.288  1.00  0.00     0.262 C 
ATOM     17  C   UNL A   1      30.942  25.125  23.386  1.00  0.00     0.270 C 
ATOM     18  H   UNL A   1      30.127  26.378  22.034  1.00  0.00     0.348 HD
ATOM     19  C   UNL A   1      32.652  26.056  21.255  1.00  0.00     0.062 C 
ATOM     20  C   UNL A   1      32.907  24.675  21.850  1.00  0.00     0.020 C 
BRANCH  15  21
ATOM     21  C   UNL A   1      30.132  27.406  23.774  1.00  0.00     0.317 C 
BRANCH  21  22
ATOM     22  C   UNL A   1      31.040  28.005  24.849  1.00  0.00     0.074 A 
ATOM     23  C   UNL A   1      32.594  29.480  26.737  1.00  0.00     0.182 A 
ATOM     24  C   UNL A   1      32.585  29.763  25.427  1.00  0.00     0.133 A 
ATOM     25  C   UNL A   1      31.801  28.273  27.165  1.00  0.00     0.223 A 
ATOM     26  N   UNL A   1      31.906  29.025  24.497  1.00  0.00    -0.357 N 
ATOM     27  C   UNL A   1      30.989  27.576  26.125  1.00  0.00     0.083 A 
ATOM     28  O   UNL A   1      31.777  27.868  28.324  1.00  0.00    -0.286 OA
ATOM     29  H   UNL A   1      32.038  29.228  23.543  1.00  0.00     0.166 HD
BRANCH  23  30
ATOM     30  O   UNL A   1      33.227  30.312  27.639  1.00  0.00    -0.491 OA
ATOM     31  C   UNL A   1      34.642  30.273  27.502  1.00  0.00     0.278 C 
ENDBRANCH  23  30
ENDBRANCH  21  22
ENDBRANCH  15  21
ENDBRANCH   9  14
ENDBRANCH   5   8
ENDBRANCH   3   4
ENDBRANCH   2   3
ENDBRANCH   1   2
BRANCH   1  32
ATOM     32  C   UNL A   1      37.119  22.882  24.658  1.00  0.00     0.002 C 
BRANCH  32  33
ATOM     33  C   UNL A   1      37.557  22.999  26.120  1.00  0.00     0.021 C 
BRANCH  33  34
ATOM     34  C   UNL A   1      38.385  24.244  26.422  1.00  0.00     0.116 C 
BRANCH  34  35
ATOM     35  N   UNL A   1      39.795  24.025  26.136  1.00  0.00    -0.352 N 
ATOM     36  C   UNL A   1      40.878  24.784  26.501  1.00  0.00     0.251 C 
ATOM     37  H   UNL A   1      40.000  23.221  25.607  1.00  0.00     0.163 HD
ATOM     38  O   UNL A   1      41.964  24.606  25.959  1.00  0.00    -0.269 OA
BRANCH  36  39
ATOM     39  C   UNL A   1      40.724  25.819  27.545  1.00  0.00     0.039 A 
ATOM     40  C   UNL A   1      39.730  25.666  28.513  1.00  0.00     0.014 A 
ATOM     41  C   UNL A   1      41.554  26.944  27.557  1.00  0.00     0.014 A 
ATOM     42  C   UNL A   1      39.600  26.621  29.523  1.00  0.00     0.010 A 
ATOM     43  C   UNL A   1      41.471  27.855  28.604  1.00  0.00     0.010 A 
ATOM     44  C   UNL A   1      40.487  27.708  29.593  1.00  0.00    -0.014 A 
BRANCH  44  45
ATOM     45  C   UNL A   1      40.398  28.704  30.690  1.00  0.00     0.031 A 
ATOM     46  C   UNL A   1      41.265  28.561  31.912  1.00  0.00     0.074 A 
ATOM     47  C   UNL A   1      39.491  29.698  30.613  1.00  0.00     0.049 A 
ATOM     48  N   UNL A   1      41.287  29.289  32.998  1.00  0.00    -0.248 NA
ATOM     49  C   UNL A   1      42.217  27.439  31.923  1.00  0.00     0.031 C 
ATOM     50  C   UNL A   1      38.560  29.909  29.502  1.00  0.00     0.029 A 
ATOM     51  N   UNL A   1      39.194  30.711  31.490  1.00  0.00    -0.354 N 
ATOM     52  C   UNL A   1      42.239  28.706  33.826  1.00  0.00     0.074 A 
ATOM     53  C   UNL A   1      42.735  27.534  33.139  1.00  0.00     0.031 C 
ATOM     54  C   UNL A   1      37.813  30.996  29.753  1.00  0.00     0.029 A 
ATOM     55  C   UNL A   1      38.181  31.535  31.058  1.00  0.00     0.049 A 
ATOM     56  H   UNL A   1      39.662  30.836  32.347  1.00  0.00     0.167 HD
ATOM     57  C   UNL A   1      42.678  29.124  35.038  1.00  0.00     0.037 A 
ATOM     58  C   UNL A   1      37.610  32.601  31.651  1.00  0.00     0.037 A 
ATOM     59  C   UNL A   1      42.195  30.306  35.703  1.00  0.00     0.049 A 
ATOM     60  C   UNL A   1      38.111  33.046  32.999  1.00  0.00     0.074 A 
ATOM     61  C   UNL A   1      42.614  30.850  36.905  1.00  0.00     0.029 A 
ATOM     62  N   UNL A   1      41.181  31.127  35.226  1.00  0.00    -0.354 N 
ATOM     63  N   UNL A   1      39.060  32.521  33.738  1.00  0.00    -0.248 NA
ATOM     64  C   UNL A   1      37.472  34.228  33.589  1.00  0.00     0.031 C 
ATOM     65  C   UNL A   1      41.824  31.971  37.177  1.00  0.00     0.029 A 
ATOM     66  C   UNL A   1      40.947  32.158  36.121  1.00  0.00     0.049 A 
ATOM     67  H   UNL A   1      40.700  30.995  34.378  1.00  0.00     0.167 HD
ATOM     68  C   UNL A   1      39.148  33.324  34.869  1.00  0.00     0.074 A 
ATOM     69  C   UNL A   1      38.166  34.378  34.710  1.00  0.00     0.031 C 
ATOM     70  C   UNL A   1      39.968  33.202  35.943  1.00  0.00     0.037 A 
BRANCH  57  71
ATOM     71  C   UNL A   1      43.736  28.301  35.720  1.00  0.00     0.058 A 
ATOM     72  C   UNL A   1      45.104  28.526  35.497  1.00  0.00     0.135 A 
ATOM     73  C   UNL A   1      43.380  27.297  36.636  1.00  0.00     0.135 A 
ATOM     74  F   UNL A   1      45.501  29.462  34.620  1.00  0.00    -0.206 F 
ATOM     75  C   UNL A   1      46.080  27.765  36.132  1.00  0.00     0.059 A 
ATOM     76  C   UNL A   1      44.341  26.545  37.306  1.00  0.00     0.059 A 
ATOM     77  F   UNL A   1      42.088  27.040  36.889  1.00  0.00    -0.206 F 
ATOM     78  C   UNL A   1      45.689  26.776  37.036  1.00  0.00     0.060 A 
BRANCH  78  79
ATOM     79  S   UNL A   1      46.969  25.803  37.855  1.00  0.00     0.124 S 
ATOM     80  O   UNL A   1      47.760  25.347  36.716  1.00  0.00    -0.237 OA
ATOM     81  O   UNL A   1      47.610  26.792  38.716  1.00  0.00    -0.237 OA
ATOM     82  O   UNL A   1      46.215  24.765  38.551  1.00  0.00    -0.744 OA
ENDBRANCH  78  79
ENDBRANCH  57  71
BRANCH  58  83
ATOM     83  C   UNL A   1      36.511  33.333  30.965  1.00  0.00     0.058 A 
ATOM     84  C   UNL A   1      36.775  34.172  29.873  1.00  0.00     0.135 A 
ATOM     85  C   UNL A   1      35.176  33.195  31.375  1.00  0.00     0.135 A 
ATOM     86  F   UNL A   1      38.035  34.341  29.447  1.00  0.00    -0.206 F 
ATOM     87  C   UNL A   1      35.758  34.863  29.222  1.00  0.00     0.059 A 
ATOM     88  C   UNL A   1      34.139  33.854  30.724  1.00  0.00     0.059 A 
ATOM     89  F   UNL A   1      34.867  32.389  32.403  1.00  0.00    -0.206 F 
ATOM     90  C   UNL A   1      34.442  34.695  29.653  1.00  0.00     0.060 A 
BRANCH  90  91
ATOM     91  S   UNL A   1      33.123  35.558  28.771  1.00  0.00     0.124 S 
ATOM     92  O   UNL A   1      32.304  36.046  29.874  1.00  0.00    -0.237 OA
ATOM     93  O   UNL A   1      33.865  36.573  28.028  1.00  0.00    -0.237 OA
ATOM     94  O   UNL A   1      32.524  34.508  27.954  1.00  0.00    -0.744 OA
ENDBRANCH  90  91
ENDBRANCH  58  83
BRANCH  70  95
ATOM     95  C   UNL A   1      39.861  34.250  37.017  1.00  0.00     0.058 A 
ATOM     96  C   UNL A   1      40.503  35.493  36.902  1.00  0.00     0.135 A 
ATOM     97  C   UNL A   1      39.063  34.026  38.151  1.00  0.00     0.135 A 
ATOM     98  F   UNL A   1      41.283  35.756  35.841  1.00  0.00    -0.206 F 
ATOM     99  C   UNL A   1      40.376  36.469  37.885  1.00  0.00     0.059 A 
ATOM    100  C   UNL A   1      38.899  34.998  39.132  1.00  0.00     0.059 A 
ATOM    101  F   UNL A   1      38.419  32.858  38.304  1.00  0.00    -0.206 F 
ATOM    102  C   UNL A   1      39.569  36.213  38.996  1.00  0.00     0.060 A 
BRANCH 102 103
ATOM    103  S   UNL A   1      39.387  37.501  40.247  1.00  0.00     0.124 S 
ATOM    104  O   UNL A   1      38.392  38.371  39.630  1.00  0.00    -0.237 OA
ATOM    105  O   UNL A   1      38.934  36.744  41.411  1.00  0.00    -0.237 OA
ATOM    106  O   UNL A   1      40.730  38.062  40.356  1.00  0.00    -0.744 OA
ENDBRANCH 102 103
ENDBRANCH  70  95
ENDBRANCH  44  45
ENDBRANCH  36  39
ENDBRANCH  34  35
ENDBRANCH  33  34
ENDBRANCH  32  33
ENDBRANCH   1  32
TORSDOF 20
ENDMDL
MODEL 3
REMARK VINA RESULT:     -11.3      3.176     10.169
REMARK SMILES COc1c[nH]c(C[N@H+]2CCC[C@@H](c3ccc(C(=O)NCCCCCCNC(=O)c4ccc(-c5c6nc(c(-c7c(F)cc(S(=O)(=O)[O-])cc7F)c7ccc([nH]7)c(-c7c(F)cc(S(=O)(=O)[O-])cc7F)c7nc(c(-c8c(F)cc(S(=O)(=O)[O-])cc8F)c8ccc5[nH]8)C=C7)C=C6)cc4)cc3)C2)cc1=O
REMARK SMILES IDX 22 1 21 2 20 3 19 4 17 5 18 6 16 8 13 9 14 10 96 11 15 12
REMARK SMILES IDX 95 13 12 14 8 15 9 16 97 17 10 19 11 20 7 21 6 22 3 23 4 24
REMARK SMILES IDX 99 25 5 26 98 27 100 28 2 30 1 31 23 32 24 33 25 34 26 35
REMARK SMILES IDX 27 36 28 38 29 39 30 40 94 41 31 42 93 43 32 44 33 45 34 46
REMARK SMILES IDX 87 47 35 48 92 49 86 50 88 51 36 52 91 53 85 54 84 55 37 57
REMARK SMILES IDX 71 58 50 59 70 60 51 61 54 62 69 63 89 64 52 65 53 66 68 68
REMARK SMILES IDX 90 69 55 70 38 71 39 72 48 73 40 74 41 75 47 76 49 77 42 78
REMARK SMILES IDX 43 79 44 80 45 81 46 82 72 83 73 84 82 85 74 86 75 87 81 88
REMARK SMILES IDX 83 89 76 90 77 91 78 92 79 93 80 94 56 95 57 96 66 97 58 98
REMARK SMILES IDX 59 99 65 100 67 101 60 102 61 103 62 104 63 105 64 106
REMARK H PARENT 19 7 8 18 5 29 26 37 88 56 54 67
REMARK Flexibility Score: inf
ROOT
ATOM      1  C   UNL A   1      36.002  21.363  24.208  1.00  0.00     0.002 C 
ENDROOT
BRANCH   1   2
ATOM      2  C   UNL A   1      35.690  20.265  25.233  1.00  0.00     0.021 C 
BRANCH   2   3
ATOM      3  C   UNL A   1      35.446  18.900  24.588  1.00  0.00     0.116 C 
BRANCH   3   4
ATOM      4  N   UNL A   1      34.239  18.315  25.134  1.00  0.00    -0.352 N 
ATOM      5  C   UNL A   1      32.957  18.789  25.230  1.00  0.00     0.251 C 
ATOM      6  O   UNL A   1      32.122  18.077  25.789  1.00  0.00    -0.269 OA
ATOM      7  H   UNL A   1      34.361  17.410  25.505  1.00  0.00     0.163 HD
BRANCH   5   8
ATOM      8  C   UNL A   1      32.524  20.073  24.614  1.00  0.00     0.039 A 
ATOM      9  C   UNL A   1      31.941  22.471  23.240  1.00  0.00    -0.039 A 
ATOM     10  C   UNL A   1      32.156  21.274  22.540  1.00  0.00     0.005 A 
ATOM     11  C   UNL A   1      31.917  22.427  24.638  1.00  0.00     0.005 A 
ATOM     12  C   UNL A   1      32.464  20.097  23.217  1.00  0.00     0.014 A 
ATOM     13  C   UNL A   1      32.174  21.229  25.317  1.00  0.00     0.014 A 
BRANCH   9  14
ATOM     14  C   UNL A   1      31.752  23.796  22.514  1.00  0.00     0.074 C 
ATOM     15  N   UNL A   1      30.831  26.141  22.834  1.00  0.00    -0.329 N 
ATOM     16  C   UNL A   1      32.143  26.698  22.480  1.00  0.00     0.262 C 
ATOM     17  C   UNL A   1      30.950  24.786  23.388  1.00  0.00     0.270 C 
ATOM     18  H   UNL A   1      30.295  26.059  21.971  1.00  0.00     0.348 HD
ATOM     19  C   UNL A   1      32.904  25.788  21.514  1.00  0.00     0.062 C 
ATOM     20  C   UNL A   1      33.103  24.397  22.108  1.00  0.00     0.020 C 
BRANCH  15  21
ATOM     21  C   UNL A   1      30.061  27.047  23.718  1.00  0.00     0.317 C 
BRANCH  21  22
ATOM     22  C   UNL A   1      30.867  27.826  24.759  1.00  0.00     0.074 A 
ATOM     23  C   UNL A   1      32.137  29.597  26.604  1.00  0.00     0.182 A 
ATOM     24  C   UNL A   1      31.970  29.898  25.309  1.00  0.00     0.133 A 
ATOM     25  C   UNL A   1      31.696  28.223  27.033  1.00  0.00     0.223 A 
ATOM     26  N   UNL A   1      31.431  29.037  24.394  1.00  0.00    -0.357 N 
ATOM     27  C   UNL A   1      31.010  27.369  26.018  1.00  0.00     0.083 A 
ATOM     28  O   UNL A   1      31.851  27.798  28.175  1.00  0.00    -0.286 OA
ATOM     29  H   UNL A   1      31.442  29.288  23.443  1.00  0.00     0.166 HD
BRANCH  23  30
ATOM     30  O   UNL A   1      32.608  30.539  27.498  1.00  0.00    -0.491 OA
ATOM     31  C   UNL A   1      34.002  30.774  27.343  1.00  0.00     0.278 C 
ENDBRANCH  23  30
ENDBRANCH  21  22
ENDBRANCH  15  21
ENDBRANCH   9  14
ENDBRANCH   5   8
ENDBRANCH   3   4
ENDBRANCH   2   3
ENDBRANCH   1   2
BRANCH   1  32
ATOM     32  C   UNL A   1      35.499  22.757  24.600  1.00  0.00     0.002 C 
BRANCH  32  33
ATOM     33  C   UNL A   1      36.600  23.751  24.978  1.00  0.00     0.021 C 
BRANCH  33  34
ATOM     34  C   UNL A   1      37.176  23.538  26.374  1.00  0.00     0.116 C 
BRANCH  34  35
ATOM     35  N   UNL A   1      38.283  22.593  26.351  1.00  0.00    -0.352 N 
ATOM     36  C   UNL A   1      39.629  22.838  26.459  1.00  0.00     0.251 C 
ATOM     37  H   UNL A   1      38.032  21.648  26.243  1.00  0.00     0.163 HD
ATOM     38  O   UNL A   1      40.438  21.966  26.156  1.00  0.00    -0.269 OA
BRANCH  36  39
ATOM     39  C   UNL A   1      40.095  24.157  26.934  1.00  0.00     0.039 A 
ATOM     40  C   UNL A   1      40.468  24.305  28.271  1.00  0.00     0.014 A 
ATOM     41  C   UNL A   1      40.148  25.248  26.061  1.00  0.00     0.014 A 
ATOM     42  C   UNL A   1      40.943  25.539  28.721  1.00  0.00     0.010 A 
ATOM     43  C   UNL A   1      40.688  26.454  26.493  1.00  0.00     0.010 A 
ATOM     44  C   UNL A   1      41.083  26.615  27.829  1.00  0.00    -0.014 A 
BRANCH  44  45
ATOM     45  C   UNL A   1      41.635  27.918  28.278  1.00  0.00     0.031 A 
ATOM     46  C   UNL A   1      43.119  28.166  28.227  1.00  0.00     0.074 A 
ATOM     47  C   UNL A   1      40.807  28.850  28.790  1.00  0.00     0.049 A 
ATOM     48  N   UNL A   1      43.795  29.210  28.632  1.00  0.00    -0.248 NA
ATOM     49  C   UNL A   1      43.954  27.090  27.670  1.00  0.00     0.031 C 
ATOM     50  C   UNL A   1      39.357  28.703  28.936  1.00  0.00     0.029 A 
ATOM     51  N   UNL A   1      41.065  30.101  29.291  1.00  0.00    -0.354 N 
ATOM     52  C   UNL A   1      45.131  28.912  28.394  1.00  0.00     0.074 A 
ATOM     53  C   UNL A   1      45.175  27.569  27.858  1.00  0.00     0.031 C 
ATOM     54  C   UNL A   1      38.852  29.828  29.469  1.00  0.00     0.029 A 
ATOM     55  C   UNL A   1      39.944  30.758  29.739  1.00  0.00     0.049 A 
ATOM     56  H   UNL A   1      41.969  30.491  29.327  1.00  0.00     0.167 HD
ATOM     57  C   UNL A   1      46.220  29.696  28.580  1.00  0.00     0.037 A 
ATOM     58  C   UNL A   1      39.812  31.972  30.309  1.00  0.00     0.037 A 
ATOM     59  C   UNL A   1      46.164  31.041  29.092  1.00  0.00     0.049 A 
ATOM     60  C   UNL A   1      41.035  32.823  30.510  1.00  0.00     0.074 A 
ATOM     61  C   UNL A   1      47.202  31.940  29.264  1.00  0.00     0.029 A 
ATOM     62  N   UNL A   1      45.007  31.680  29.517  1.00  0.00    -0.354 N 
ATOM     63  N   UNL A   1      42.285  32.551  30.216  1.00  0.00    -0.248 NA
ATOM     64  C   UNL A   1      40.833  34.147  31.111  1.00  0.00     0.031 C 
ATOM     65  C   UNL A   1      46.680  33.105  29.836  1.00  0.00     0.029 A 
ATOM     66  C   UNL A   1      45.310  32.952  29.973  1.00  0.00     0.049 A 
ATOM     67  H   UNL A   1      44.105  31.287  29.498  1.00  0.00     0.167 HD
ATOM     68  C   UNL A   1      43.014  33.680  30.574  1.00  0.00     0.074 A 
ATOM     69  C   UNL A   1      42.063  34.643  31.092  1.00  0.00     0.031 C 
ATOM     70  C   UNL A   1      44.349  33.900  30.481  1.00  0.00     0.037 A 
BRANCH  57  71
ATOM     71  C   UNL A   1      47.564  29.121  28.226  1.00  0.00     0.058 A 
ATOM     72  C   UNL A   1      48.034  29.103  26.902  1.00  0.00     0.135 A 
ATOM     73  C   UNL A   1      48.410  28.613  29.225  1.00  0.00     0.135 A 
ATOM     74  F   UNL A   1      47.261  29.562  25.905  1.00  0.00    -0.206 F 
ATOM     75  C   UNL A   1      49.279  28.574  26.578  1.00  0.00     0.059 A 
ATOM     76  C   UNL A   1      49.673  28.106  28.927  1.00  0.00     0.059 A 
ATOM     77  F   UNL A   1      48.014  28.605  30.507  1.00  0.00    -0.206 F 
ATOM     78  C   UNL A   1      50.092  28.078  27.598  1.00  0.00     0.060 A 
BRANCH  78  79
ATOM     79  S   UNL A   1      51.706  27.400  27.160  1.00  0.00     0.124 S 
ATOM     80  O   UNL A   1      51.955  28.050  25.877  1.00  0.00    -0.237 OA
ATOM     81  O   UNL A   1      52.543  27.847  28.269  1.00  0.00    -0.237 OA
ATOM     82  O   UNL A   1      51.468  25.962  27.099  1.00  0.00    -0.744 OA
ENDBRANCH  78  79
ENDBRANCH  57  71
BRANCH  58  83
ATOM     83  C   UNL A   1      38.465  32.459  30.713  1.00  0.00     0.058 A 
ATOM     84  C   UNL A   1      38.007  32.307  32.030  1.00  0.00     0.135 A 
ATOM     85  C   UNL A   1      37.617  33.101  29.797  1.00  0.00     0.135 A 
ATOM     86  F   UNL A   1      38.779  31.695  32.941  1.00  0.00    -0.206 F 
ATOM     87  C   UNL A   1      36.751  32.756  32.422  1.00  0.00     0.059 A 
ATOM     88  C   UNL A   1      36.367  33.582  30.171  1.00  0.00     0.059 A 
ATOM     89  F   UNL A   1      38.014  33.289  28.528  1.00  0.00    -0.206 F 
ATOM     90  C   UNL A   1      35.938  33.396  31.485  1.00  0.00     0.060 A 
BRANCH  90  91
ATOM     91  S   UNL A   1      34.328  34.020  32.015  1.00  0.00     0.124 S 
ATOM     92  O   UNL A   1      33.772  34.501  30.756  1.00  0.00    -0.237 OA
ATOM     93  O   UNL A   1      33.705  32.823  32.574  1.00  0.00    -0.237 OA
ATOM     94  O   UNL A   1      34.673  35.050  32.990  1.00  0.00    -0.744 OA
ENDBRANCH  90  91
ENDBRANCH  58  83
BRANCH  70  95
ATOM     95  C   UNL A   1      44.860  35.245  30.922  1.00  0.00     0.058 A 
ATOM     96  C   UNL A   1      44.913  36.338  30.043  1.00  0.00     0.135 A 
ATOM     97  C   UNL A   1      45.251  35.454  32.254  1.00  0.00     0.135 A 
ATOM     98  F   UNL A   1      44.557  36.191  28.757  1.00  0.00    -0.206 F 
ATOM     99  C   UNL A   1      45.359  37.587  30.465  1.00  0.00     0.059 A 
ATOM    100  C   UNL A   1      45.673  36.701  32.705  1.00  0.00     0.059 A 
ATOM    101  F   UNL A   1      45.209  34.444  33.138  1.00  0.00    -0.206 F 
ATOM    102  C   UNL A   1      45.734  37.759  31.799  1.00  0.00     0.060 A 
BRANCH 102 103
ATOM    103  S   UNL A   1      46.278  39.393  32.340  1.00  0.00     0.124 S 
ATOM    104  O   UNL A   1      47.125  39.804  31.226  1.00  0.00    -0.237 OA
ATOM    105  O   UNL A   1      45.016  40.112  32.478  1.00  0.00    -0.237 OA
ATOM    106  O   UNL A   1      46.977  39.121  33.593  1.00  0.00    -0.744 OA
ENDBRANCH 102 103
ENDBRANCH  70  95
ENDBRANCH  44  45
ENDBRANCH  36  39
ENDBRANCH  34  35
ENDBRANCH  33  34
ENDBRANCH  32  33
ENDBRANCH   1  32
TORSDOF 20
ENDMDL
