MODEL 1
REMARK VINA RESULT:     -10.3      0.000      0.000
REMARK SMILES CC[NH2+]CCC(=O)NC1(CC(=O)NCCCCCCNC(=O)c2ccc(-c3c4nc(c(-c5c(F)cc(S(=O)(=O)[O-])cc5F)c5ccc([nH]5)c(-c5c(F)cc(S(=O)(=O)[O-])cc5F)c5nc(c(-c6c(F)cc(S(=O)(=O)[O-])cc6F)c6ccc3[nH]6)C=C5)C=C4)cc2)CCC1
REMARK SMILES IDX 15 1 14 2 13 3 11 4 12 5 10 7 9 8 89 9 91 10 90 11 8 12 6 13
REMARK SMILES IDX 7 14 5 16 4 17 3 18 2 21 1 22 16 23 17 24 18 25 19 26 20 27
REMARK SMILES IDX 21 28 22 30 23 31 24 32 88 33 25 34 87 35 26 36 27 37 28 38
REMARK SMILES IDX 81 39 29 40 86 41 80 42 82 43 30 44 85 45 79 46 78 47 31 49
REMARK SMILES IDX 65 50 44 51 64 52 45 53 48 54 63 55 83 56 46 57 47 58 62 60
REMARK SMILES IDX 84 61 49 62 32 63 33 64 42 65 34 66 35 67 41 68 43 69 36 70
REMARK SMILES IDX 37 71 38 72 39 73 40 74 66 75 67 76 76 77 68 78 69 79 75 80
REMARK SMILES IDX 77 81 70 82 71 83 72 84 73 85 74 86 50 87 51 88 60 89 52 90
REMARK SMILES IDX 53 91 59 92 61 93 54 94 55 95 56 96 57 97 58 98
REMARK H PARENT 13 6 8 15 3 19 3 20 20 29 82 48 48 59
REMARK Flexibility Score: inf
ROOT
ATOM      1  C   UNL A   1      38.977  23.482  26.589  1.00  0.00     0.021 C 
ENDROOT
BRANCH   1   2
ATOM      2  C   UNL A   1      37.636  23.191  25.913  1.00  0.00     0.116 C 
BRANCH   2   3
ATOM      3  N   UNL A   1      37.645  21.833  25.404  1.00  0.00    -0.356 N 
ATOM      4  C   UNL A   1      36.579  21.062  25.042  1.00  0.00     0.222 C 
ATOM      5  O   UNL A   1      36.708  19.838  25.005  1.00  0.00    -0.275 OA
ATOM      6  H   UNL A   1      38.531  21.414  25.308  1.00  0.00     0.163 HD
BRANCH   4   7
ATOM      7  C   UNL A   1      35.299  21.723  24.604  1.00  0.00     0.128 C 
BRANCH   7   8
ATOM      8  C   UNL A   1      34.106  21.765  25.581  1.00  0.00     0.049 C 
ATOM      9  C   UNL A   1      33.079  22.727  24.938  1.00  0.00     0.029 C 
ATOM     10  C   UNL A   1      34.119  22.725  26.805  1.00  0.00     0.029 C 
ATOM     11  C   UNL A   1      33.594  23.836  25.890  1.00  0.00     0.005 C 
BRANCH   8  12
ATOM     12  N   UNL A   1      33.709  20.395  25.995  1.00  0.00    -0.350 N 
ATOM     13  C   UNL A   1      32.965  19.404  25.417  1.00  0.00     0.226 C 
ATOM     14  O   UNL A   1      32.517  18.533  26.173  1.00  0.00    -0.275 OA
ATOM     15  H   UNL A   1      34.057  20.145  26.881  1.00  0.00     0.164 HD
BRANCH  13  16
ATOM     16  C   UNL A   1      32.736  19.272  23.921  1.00  0.00     0.161 C 
BRANCH  16  17
ATOM     17  C   UNL A   1      33.138  17.940  23.275  1.00  0.00     0.270 C 
BRANCH  17  18
ATOM     18  N   UNL A   1      32.510  16.747  23.853  1.00  0.00    -0.346 N 
ATOM     19  H   UNL A   1      31.833  17.052  24.553  1.00  0.00     0.346 HD
ATOM     20  H   UNL A   1      32.086  16.242  23.075  1.00  0.00     0.346 HD
BRANCH  18  21
ATOM     21  C   UNL A   1      33.436  15.813  24.494  1.00  0.00     0.257 C 
ATOM     22  C   UNL A   1      32.681  14.935  25.490  1.00  0.00     0.071 C 
ENDBRANCH  18  21
ENDBRANCH  17  18
ENDBRANCH  16  17
ENDBRANCH  13  16
ENDBRANCH   8  12
ENDBRANCH   7   8
ENDBRANCH   4   7
ENDBRANCH   2   3
ENDBRANCH   1   2
BRANCH   1  23
ATOM     23  C   UNL A   1      39.909  22.275  26.632  1.00  0.00     0.002 C 
BRANCH  23  24
ATOM     24  C   UNL A   1      40.779  22.210  27.891  1.00  0.00     0.002 C 
BRANCH  24  25
ATOM     25  C   UNL A   1      42.284  22.055  27.640  1.00  0.00     0.021 C 
BRANCH  25  26
ATOM     26  C   UNL A   1      43.071  23.364  27.637  1.00  0.00     0.116 C 
BRANCH  26  27
ATOM     27  N   UNL A   1      42.909  24.082  26.383  1.00  0.00    -0.352 N 
ATOM     28  C   UNL A   1      42.310  25.291  26.138  1.00  0.00     0.251 C 
ATOM     29  H   UNL A   1      43.287  23.634  25.592  1.00  0.00     0.163 HD
ATOM     30  O   UNL A   1      42.019  25.605  24.989  1.00  0.00    -0.269 OA
BRANCH  28  31
ATOM     31  C   UNL A   1      42.016  26.206  27.259  1.00  0.00     0.039 A 
ATOM     32  C   UNL A   1      40.895  25.961  28.056  1.00  0.00     0.014 A 
ATOM     33  C   UNL A   1      42.822  27.323  27.498  1.00  0.00     0.014 A 
ATOM     34  C   UNL A   1      40.608  26.813  29.123  1.00  0.00     0.010 A 
ATOM     35  C   UNL A   1      42.573  28.132  28.603  1.00  0.00     0.010 A 
ATOM     36  C   UNL A   1      41.459  27.891  29.421  1.00  0.00    -0.014 A 
BRANCH  36  37
ATOM     37  C   UNL A   1      41.197  28.778  30.581  1.00  0.00     0.031 A 
ATOM     38  C   UNL A   1      42.023  28.650  31.831  1.00  0.00     0.074 A 
ATOM     39  C   UNL A   1      40.177  29.655  30.528  1.00  0.00     0.049 A 
ATOM     40  N   UNL A   1      41.911  29.294  32.964  1.00  0.00    -0.248 NA
ATOM     41  C   UNL A   1      43.100  27.646  31.816  1.00  0.00     0.031 C 
ATOM     42  C   UNL A   1      39.279  29.838  29.386  1.00  0.00     0.029 A 
ATOM     43  N   UNL A   1      39.717  30.552  31.458  1.00  0.00    -0.354 N 
ATOM     44  C   UNL A   1      42.887  28.765  33.801  1.00  0.00     0.074 A 
ATOM     45  C   UNL A   1      43.550  27.712  33.061  1.00  0.00     0.031 C 
ATOM     46  C   UNL A   1      38.392  30.804  29.673  1.00  0.00     0.029 A 
ATOM     47  C   UNL A   1      38.634  31.283  31.031  1.00  0.00     0.049 A 
ATOM     48  H   UNL A   1      40.123  30.661  32.348  1.00  0.00     0.167 HD
ATOM     49  C   UNL A   1      43.212  29.135  35.062  1.00  0.00     0.037 A 
ATOM     50  C   UNL A   1      37.915  32.230  31.663  1.00  0.00     0.037 A 
ATOM     51  C   UNL A   1      42.563  30.201  35.781  1.00  0.00     0.049 A 
ATOM     52  C   UNL A   1      38.296  32.627  33.062  1.00  0.00     0.074 A 
ATOM     53  C   UNL A   1      42.864  30.701  37.035  1.00  0.00     0.029 A 
ATOM     54  N   UNL A   1      41.478  30.927  35.311  1.00  0.00    -0.354 N 
ATOM     55  N   UNL A   1      39.267  32.164  33.815  1.00  0.00    -0.248 NA
ATOM     56  C   UNL A   1      37.491  33.678  33.698  1.00  0.00     0.031 C 
ATOM     57  C   UNL A   1      41.932  31.700  37.342  1.00  0.00     0.029 A 
ATOM     58  C   UNL A   1      41.081  31.855  36.260  1.00  0.00     0.049 A 
ATOM     59  H   UNL A   1      41.053  30.802  34.431  1.00  0.00     0.167 HD
ATOM     60  C   UNL A   1      39.203  32.884  35.003  1.00  0.00     0.074 A 
ATOM     61  C   UNL A   1      38.106  33.820  34.864  1.00  0.00     0.031 C 
ATOM     62  C   UNL A   1      39.985  32.780  36.106  1.00  0.00     0.037 A 
BRANCH  49  63
ATOM     63  C   UNL A   1      44.317  28.376  35.747  1.00  0.00     0.058 A 
ATOM     64  C   UNL A   1      45.661  28.770  35.643  1.00  0.00     0.135 A 
ATOM     65  C   UNL A   1      44.026  27.246  36.531  1.00  0.00     0.135 A 
ATOM     66  F   UNL A   1      45.997  29.833  34.897  1.00  0.00    -0.206 F 
ATOM     67  C   UNL A   1      46.680  28.051  36.259  1.00  0.00     0.059 A 
ATOM     68  C   UNL A   1      45.027  26.530  37.180  1.00  0.00     0.059 A 
ATOM     69  F   UNL A   1      42.759  26.825  36.667  1.00  0.00    -0.206 F 
ATOM     70  C   UNL A   1      46.354  26.929  37.022  1.00  0.00     0.060 A 
BRANCH  70  71
ATOM     71  S   UNL A   1      47.688  25.998  37.802  1.00  0.00     0.124 S 
ATOM     72  O   UNL A   1      47.995  26.841  38.953  1.00  0.00    -0.237 OA
ATOM     73  O   UNL A   1      47.045  24.723  38.105  1.00  0.00    -0.237 OA
ATOM     74  O   UNL A   1      48.718  25.947  36.769  1.00  0.00    -0.744 OA
ENDBRANCH  70  71
ENDBRANCH  49  63
BRANCH  50  75
ATOM     75  C   UNL A   1      36.785  32.890  30.959  1.00  0.00     0.058 A 
ATOM     76  C   UNL A   1      35.457  32.607  31.312  1.00  0.00     0.135 A 
ATOM     77  C   UNL A   1      37.006  33.840  29.950  1.00  0.00     0.135 A 
ATOM     78  F   UNL A   1      35.195  31.701  32.267  1.00  0.00    -0.206 F 
ATOM     79  C   UNL A   1      34.386  33.237  30.685  1.00  0.00     0.059 A 
ATOM     80  C   UNL A   1      35.952  34.501  29.325  1.00  0.00     0.059 A 
ATOM     81  F   UNL A   1      38.259  34.158  29.589  1.00  0.00    -0.206 F 
ATOM     82  C   UNL A   1      34.645  34.188  29.697  1.00  0.00     0.060 A 
BRANCH  82  83
ATOM     83  S   UNL A   1      33.251  35.049  28.939  1.00  0.00     0.124 S 
ATOM     84  O   UNL A   1      32.803  34.074  27.953  1.00  0.00    -0.237 OA
ATOM     85  O   UNL A   1      32.365  35.261  30.080  1.00  0.00    -0.237 OA
ATOM     86  O   UNL A   1      33.860  36.261  28.398  1.00  0.00    -0.744 OA
ENDBRANCH  82  83
ENDBRANCH  50  75
BRANCH  62  87
ATOM     87  C   UNL A   1      39.700  33.721  37.243  1.00  0.00     0.058 A 
ATOM     88  C   UNL A   1      38.897  33.342  38.330  1.00  0.00     0.135 A 
ATOM     89  C   UNL A   1      40.280  35.000  37.271  1.00  0.00     0.135 A 
ATOM     90  F   UNL A   1      38.313  32.133  38.350  1.00  0.00    -0.206 F 
ATOM     91  C   UNL A   1      38.661  34.206  39.394  1.00  0.00     0.059 A 
ATOM     92  C   UNL A   1      40.079  35.870  38.337  1.00  0.00     0.059 A 
ATOM     93  F   UNL A   1      41.064  35.408  36.259  1.00  0.00    -0.206 F 
ATOM     94  C   UNL A   1      39.258  35.468  39.390  1.00  0.00     0.060 A 
BRANCH  94  95
ATOM     95  S   UNL A   1      38.973  36.567  40.793  1.00  0.00     0.124 S 
ATOM     96  O   UNL A   1      40.313  36.678  41.356  1.00  0.00    -0.237 OA
ATOM     97  O   UNL A   1      38.453  37.768  40.148  1.00  0.00    -0.237 OA
ATOM     98  O   UNL A   1      38.008  35.834  41.608  1.00  0.00    -0.744 OA
ENDBRANCH  94  95
ENDBRANCH  62  87
ENDBRANCH  36  37
ENDBRANCH  28  31
ENDBRANCH  26  27
ENDBRANCH  25  26
ENDBRANCH  24  25
ENDBRANCH  23  24
ENDBRANCH   1  23
TORSDOF 22
ENDMDL
MODEL 2
REMARK VINA RESULT:      -9.9      0.495      8.355
REMARK SMILES CC[NH2+]CCC(=O)NC1(CC(=O)NCCCCCCNC(=O)c2ccc(-c3c4nc(c(-c5c(F)cc(S(=O)(=O)[O-])cc5F)c5ccc([nH]5)c(-c5c(F)cc(S(=O)(=O)[O-])cc5F)c5nc(c(-c6c(F)cc(S(=O)(=O)[O-])cc6F)c6ccc3[nH]6)C=C5)C=C4)cc2)CCC1
REMARK SMILES IDX 15 1 14 2 13 3 11 4 12 5 10 7 9 8 89 9 91 10 90 11 8 12 6 13
REMARK SMILES IDX 7 14 5 16 4 17 3 18 2 21 1 22 16 23 17 24 18 25 19 26 20 27
REMARK SMILES IDX 21 28 22 30 23 31 24 32 88 33 25 34 87 35 26 36 27 37 28 38
REMARK SMILES IDX 81 39 29 40 86 41 80 42 82 43 30 44 85 45 79 46 78 47 31 49
REMARK SMILES IDX 65 50 44 51 64 52 45 53 48 54 63 55 83 56 46 57 47 58 62 60
REMARK SMILES IDX 84 61 49 62 32 63 33 64 42 65 34 66 35 67 41 68 43 69 36 70
REMARK SMILES IDX 37 71 38 72 39 73 40 74 66 75 67 76 76 77 68 78 69 79 75 80
REMARK SMILES IDX 77 81 70 82 71 83 72 84 73 85 74 86 50 87 51 88 60 89 52 90
REMARK SMILES IDX 53 91 59 92 61 93 54 94 55 95 56 96 57 97 58 98
REMARK H PARENT 13 6 8 15 3 19 3 20 20 29 82 48 48 59
REMARK Flexibility Score: inf
ROOT
ATOM      1  C   UNL A   1      38.922  23.517  26.525  1.00  0.00     0.021 C 
ENDROOT
BRANCH   1   2
ATOM      2  C   UNL A   1      37.657  23.318  25.687  1.00  0.00     0.116 C 
BRANCH   2   3
ATOM      3  N   UNL A   1      37.609  21.945  25.219  1.00  0.00    -0.356 N 
ATOM      4  C   UNL A   1      36.510  21.163  25.015  1.00  0.00     0.222 C 
ATOM      5  O   UNL A   1      36.640  19.939  24.996  1.00  0.00    -0.275 OA
ATOM      6  H   UNL A   1      38.478  21.526  25.024  1.00  0.00     0.163 HD
BRANCH   4   7
ATOM      7  C   UNL A   1      35.183  21.809  24.723  1.00  0.00     0.128 C 
BRANCH   7   8
ATOM      8  C   UNL A   1      34.086  21.789  25.808  1.00  0.00     0.049 C 
ATOM      9  C   UNL A   1      33.039  22.836  25.357  1.00  0.00     0.029 C 
ATOM     10  C   UNL A   1      34.244  22.625  27.110  1.00  0.00     0.029 C 
ATOM     11  C   UNL A   1      33.678  23.833  26.356  1.00  0.00     0.005 C 
BRANCH   8  12
ATOM     12  N   UNL A   1      33.678  20.397  26.127  1.00  0.00    -0.350 N 
ATOM     13  C   UNL A   1      32.921  19.456  25.485  1.00  0.00     0.226 C 
ATOM     14  O   UNL A   1      32.470  18.537  26.182  1.00  0.00    -0.275 OA
ATOM     15  H   UNL A   1      34.031  20.081  26.990  1.00  0.00     0.164 HD
BRANCH  13  16
ATOM     16  C   UNL A   1      32.679  19.433  23.986  1.00  0.00     0.161 C 
BRANCH  16  17
ATOM     17  C   UNL A   1      33.067  18.148  23.243  1.00  0.00     0.270 C 
BRANCH  17  18
ATOM     18  N   UNL A   1      32.502  16.910  23.793  1.00  0.00    -0.346 N 
ATOM     19  H   UNL A   1      31.869  17.160  24.553  1.00  0.00     0.346 HD
ATOM     20  H   UNL A   1      32.036  16.439  23.018  1.00  0.00     0.346 HD
BRANCH  18  21
ATOM     21  C   UNL A   1      33.487  15.963  24.316  1.00  0.00     0.257 C 
ATOM     22  C   UNL A   1      32.849  15.094  25.398  1.00  0.00     0.071 C 
ENDBRANCH  18  21
ENDBRANCH  17  18
ENDBRANCH  16  17
ENDBRANCH  13  16
ENDBRANCH   8  12
ENDBRANCH   7   8
ENDBRANCH   4   7
ENDBRANCH   2   3
ENDBRANCH   1   2
BRANCH   1  23
ATOM     23  C   UNL A   1      39.825  22.289  26.562  1.00  0.00     0.002 C 
BRANCH  23  24
ATOM     24  C   UNL A   1      40.746  22.235  27.784  1.00  0.00     0.002 C 
BRANCH  24  25
ATOM     25  C   UNL A   1      42.239  22.078  27.473  1.00  0.00     0.021 C 
BRANCH  25  26
ATOM     26  C   UNL A   1      43.038  23.380  27.492  1.00  0.00     0.116 C 
BRANCH  26  27
ATOM     27  N   UNL A   1      42.822  24.157  26.282  1.00  0.00    -0.352 N 
ATOM     28  C   UNL A   1      42.210  25.373  26.120  1.00  0.00     0.251 C 
ATOM     29  H   UNL A   1      43.169  23.749  25.455  1.00  0.00     0.163 HD
ATOM     30  O   UNL A   1      41.871  25.740  25.000  1.00  0.00    -0.269 OA
BRANCH  28  31
ATOM     31  C   UNL A   1      41.959  26.231  27.294  1.00  0.00     0.039 A 
ATOM     32  C   UNL A   1      40.897  25.919  28.145  1.00  0.00     0.014 A 
ATOM     33  C   UNL A   1      42.746  27.362  27.532  1.00  0.00     0.014 A 
ATOM     34  C   UNL A   1      40.651  26.717  29.264  1.00  0.00     0.010 A 
ATOM     35  C   UNL A   1      42.542  28.117  28.684  1.00  0.00     0.010 A 
ATOM     36  C   UNL A   1      41.487  27.808  29.556  1.00  0.00    -0.014 A 
BRANCH  36  37
ATOM     37  C   UNL A   1      41.273  28.638  30.767  1.00  0.00     0.031 A 
ATOM     38  C   UNL A   1      40.160  29.648  30.803  1.00  0.00     0.074 A 
ATOM     39  C   UNL A   1      42.119  28.521  31.808  1.00  0.00     0.049 A 
ATOM     40  N   UNL A   1      39.849  30.500  31.746  1.00  0.00    -0.248 NA
ATOM     41  C   UNL A   1      39.299  29.731  29.613  1.00  0.00     0.031 C 
ATOM     42  C   UNL A   1      43.262  27.607  31.869  1.00  0.00     0.029 A 
ATOM     43  N   UNL A   1      42.156  29.179  33.011  1.00  0.00    -0.354 N 
ATOM     44  C   UNL A   1      38.772  31.231  31.259  1.00  0.00     0.074 A 
ATOM     45  C   UNL A   1      38.514  30.755  29.916  1.00  0.00     0.031 C 
ATOM     46  C   UNL A   1      43.872  27.746  33.057  1.00  0.00     0.029 A 
ATOM     47  C   UNL A   1      43.189  28.782  33.826  1.00  0.00     0.049 A 
ATOM     48  H   UNL A   1      41.505  29.872  33.266  1.00  0.00     0.167 HD
ATOM     49  C   UNL A   1      38.053  32.196  31.880  1.00  0.00     0.037 A 
ATOM     50  C   UNL A   1      43.546  29.206  35.053  1.00  0.00     0.037 A 
ATOM     51  C   UNL A   1      38.302  32.645  33.225  1.00  0.00     0.049 A 
ATOM     52  C   UNL A   1      42.732  30.276  35.724  1.00  0.00     0.074 A 
ATOM     53  C   UNL A   1      37.588  33.566  33.971  1.00  0.00     0.029 A 
ATOM     54  N   UNL A   1      39.350  32.210  34.024  1.00  0.00    -0.354 N 
ATOM     55  N   UNL A   1      41.673  30.909  35.276  1.00  0.00    -0.248 NA
ATOM     56  C   UNL A   1      43.155  30.688  37.069  1.00  0.00     0.031 C 
ATOM     57  C   UNL A   1      38.231  33.721  35.205  1.00  0.00     0.029 A 
ATOM     58  C   UNL A   1      39.317  32.861  35.246  1.00  0.00     0.049 A 
ATOM     59  H   UNL A   1      40.018  31.536  33.761  1.00  0.00     0.167 HD
ATOM     60  C   UNL A   1      41.289  31.776  36.293  1.00  0.00     0.074 A 
ATOM     61  C   UNL A   1      42.223  31.579  37.383  1.00  0.00     0.031 C 
ATOM     62  C   UNL A   1      40.255  32.653  36.321  1.00  0.00     0.037 A 
BRANCH  49  63
ATOM     63  C   UNL A   1      36.931  32.835  31.105  1.00  0.00     0.058 A 
ATOM     64  C   UNL A   1      35.592  32.457  31.294  1.00  0.00     0.135 A 
ATOM     65  C   UNL A   1      37.198  33.851  30.172  1.00  0.00     0.135 A 
ATOM     66  F   UNL A   1      35.281  31.482  32.162  1.00  0.00    -0.206 F 
ATOM     67  C   UNL A   1      34.562  33.034  30.558  1.00  0.00     0.059 A 
ATOM     68  C   UNL A   1      36.180  34.463  29.447  1.00  0.00     0.059 A 
ATOM     69  F   UNL A   1      38.460  34.254  29.953  1.00  0.00    -0.206 F 
ATOM     70  C   UNL A   1      34.866  34.034  29.633  1.00  0.00     0.060 A 
BRANCH  70  71
ATOM     71  S   UNL A   1      33.521  34.763  28.676  1.00  0.00     0.124 S 
ATOM     72  O   UNL A   1      32.535  35.030  29.719  1.00  0.00    -0.237 OA
ATOM     73  O   UNL A   1      34.156  35.939  28.089  1.00  0.00    -0.237 OA
ATOM     74  O   UNL A   1      33.166  33.709  27.731  1.00  0.00    -0.744 OA
ENDBRANCH  70  71
ENDBRANCH  49  63
BRANCH  50  75
ATOM     75  C   UNL A   1      44.713  28.587  35.735  1.00  0.00     0.058 A 
ATOM     76  C   UNL A   1      46.007  29.097  35.548  1.00  0.00     0.135 A 
ATOM     77  C   UNL A   1      44.557  27.504  36.614  1.00  0.00     0.135 A 
ATOM     78  F   UNL A   1      46.206  30.129  34.714  1.00  0.00    -0.206 F 
ATOM     79  C   UNL A   1      47.107  28.551  36.202  1.00  0.00     0.059 A 
ATOM     80  C   UNL A   1      45.638  26.956  37.297  1.00  0.00     0.059 A 
ATOM     81  F   UNL A   1      43.337  26.992  36.839  1.00  0.00    -0.206 F 
ATOM     82  C   UNL A   1      46.911  27.484  37.080  1.00  0.00     0.060 A 
BRANCH  82  83
ATOM     83  S   UNL A   1      48.335  26.828  37.976  1.00  0.00     0.124 S 
ATOM     84  O   UNL A   1      48.612  25.604  37.233  1.00  0.00    -0.237 OA
ATOM     85  O   UNL A   1      49.312  27.903  37.827  1.00  0.00    -0.237 OA
ATOM     86  O   UNL A   1      47.823  26.643  39.330  1.00  0.00    -0.744 OA
ENDBRANCH  82  83
ENDBRANCH  50  75
BRANCH  62  87
ATOM     87  C   UNL A   1      40.062  33.449  37.582  1.00  0.00     0.058 A 
ATOM     88  C   UNL A   1      40.777  34.632  37.825  1.00  0.00     0.135 A 
ATOM     89  C   UNL A   1      39.110  33.050  38.535  1.00  0.00     0.135 A 
ATOM     90  F   UNL A   1      41.703  35.052  36.949  1.00  0.00    -0.206 F 
ATOM     91  C   UNL A   1      40.572  35.380  38.980  1.00  0.00     0.059 A 
ATOM     92  C   UNL A   1      38.870  33.797  39.684  1.00  0.00     0.059 A 
ATOM     93  F   UNL A   1      38.392  31.931  38.346  1.00  0.00    -0.206 F 
ATOM     94  C   UNL A   1      39.614  34.956  39.902  1.00  0.00     0.060 A 
BRANCH  94  95
ATOM     95  S   UNL A   1      39.333  35.954  41.380  1.00  0.00     0.124 S 
ATOM     96  O   UNL A   1      40.159  35.263  42.363  1.00  0.00    -0.237 OA
ATOM     97  O   UNL A   1      39.808  37.269  40.963  1.00  0.00    -0.237 OA
ATOM     98  O   UNL A   1      37.892  35.853  41.589  1.00  0.00    -0.744 OA
ENDBRANCH  94  95
ENDBRANCH  62  87
ENDBRANCH  36  37
ENDBRANCH  28  31
ENDBRANCH  26  27
ENDBRANCH  25  26
ENDBRANCH  24  25
ENDBRANCH  23  24
ENDBRANCH   1  23
TORSDOF 22
ENDMDL
MODEL 3
REMARK VINA RESULT:      -9.6      3.573      9.688
REMARK SMILES CC[NH2+]CCC(=O)NC1(CC(=O)NCCCCCCNC(=O)c2ccc(-c3c4nc(c(-c5c(F)cc(S(=O)(=O)[O-])cc5F)c5ccc([nH]5)c(-c5c(F)cc(S(=O)(=O)[O-])cc5F)c5nc(c(-c6c(F)cc(S(=O)(=O)[O-])cc6F)c6ccc3[nH]6)C=C5)C=C4)cc2)CCC1
REMARK SMILES IDX 15 1 14 2 13 3 11 4 12 5 10 7 9 8 89 9 91 10 90 11 8 12 6 13
REMARK SMILES IDX 7 14 5 16 4 17 3 18 2 21 1 22 16 23 17 24 18 25 19 26 20 27
REMARK SMILES IDX 21 28 22 30 23 31 24 32 88 33 25 34 87 35 26 36 27 37 28 38
REMARK SMILES IDX 81 39 29 40 86 41 80 42 82 43 30 44 85 45 79 46 78 47 31 49
REMARK SMILES IDX 65 50 44 51 64 52 45 53 48 54 63 55 83 56 46 57 47 58 62 60
REMARK SMILES IDX 84 61 49 62 32 63 33 64 42 65 34 66 35 67 41 68 43 69 36 70
REMARK SMILES IDX 37 71 38 72 39 73 40 74 66 75 67 76 76 77 68 78 69 79 75 80
REMARK SMILES IDX 77 81 70 82 71 83 72 84 73 85 74 86 50 87 51 88 60 89 52 90
REMARK SMILES IDX 53 91 59 92 61 93 54 94 55 95 56 96 57 97 58 98
REMARK H PARENT 13 6 8 15 3 19 3 20 20 29 82 48 48 59
REMARK Flexibility Score: inf
ROOT
ATOM      1  C   UNL A   1      30.766  27.498  24.223  1.00  0.00     0.021 C 
ENDROOT
BRANCH   1   2
ATOM      2  C   UNL A   1      30.316  26.655  23.028  1.00  0.00     0.116 C 
BRANCH   2   3
ATOM      3  N   UNL A   1      31.396  26.584  22.062  1.00  0.00    -0.356 N 
ATOM      4  C   UNL A   1      32.446  25.714  22.035  1.00  0.00     0.222 C 
ATOM      5  O   UNL A   1      33.459  26.016  21.405  1.00  0.00    -0.275 OA
ATOM      6  H   UNL A   1      31.367  27.248  21.335  1.00  0.00     0.163 HD
BRANCH   4   7
ATOM      7  C   UNL A   1      32.311  24.367  22.694  1.00  0.00     0.128 C 
BRANCH   7   8
ATOM      8  C   UNL A   1      33.368  23.932  23.730  1.00  0.00     0.049 C 
ATOM      9  C   UNL A   1      32.611  23.039  24.742  1.00  0.00     0.029 C 
ATOM     10  C   UNL A   1      33.725  24.852  24.932  1.00  0.00     0.029 C 
ATOM     11  C   UNL A   1      32.531  24.262  25.689  1.00  0.00     0.005 C 
BRANCH   8  12
ATOM     12  N   UNL A   1      34.600  23.444  23.060  1.00  0.00    -0.350 N 
ATOM     13  C   UNL A   1      35.822  23.019  23.504  1.00  0.00     0.226 C 
ATOM     14  O   UNL A   1      36.748  23.034  22.683  1.00  0.00    -0.275 OA
ATOM     15  H   UNL A   1      34.521  23.422  22.079  1.00  0.00     0.164 HD
BRANCH  13  16
ATOM     16  C   UNL A   1      36.078  22.466  24.895  1.00  0.00     0.161 C 
BRANCH  16  17
ATOM     17  C   UNL A   1      37.284  21.532  25.056  1.00  0.00     0.270 C 
BRANCH  17  18
ATOM     18  N   UNL A   1      38.542  22.188  25.432  1.00  0.00    -0.346 N 
ATOM     19  H   UNL A   1      39.057  21.559  26.048  1.00  0.00     0.346 HD
ATOM     20  H   UNL A   1      39.031  22.389  24.561  1.00  0.00     0.346 HD
BRANCH  18  21
ATOM     21  C   UNL A   1      38.385  23.470  26.121  1.00  0.00     0.257 C 
ATOM     22  C   UNL A   1      39.452  23.611  27.204  1.00  0.00     0.071 C 
ENDBRANCH  18  21
ENDBRANCH  17  18
ENDBRANCH  16  17
ENDBRANCH  13  16
ENDBRANCH   8  12
ENDBRANCH   7   8
ENDBRANCH   4   7
ENDBRANCH   2   3
ENDBRANCH   1   2
BRANCH   1  23
ATOM     23  C   UNL A   1      31.134  28.931  23.851  1.00  0.00     0.002 C 
BRANCH  23  24
ATOM     24  C   UNL A   1      32.336  29.481  24.622  1.00  0.00     0.002 C 
BRANCH  24  25
ATOM     25  C   UNL A   1      33.372  28.436  25.054  1.00  0.00     0.021 C 
BRANCH  25  26
ATOM     26  C   UNL A   1      34.225  28.838  26.257  1.00  0.00     0.116 C 
BRANCH  26  27
ATOM     27  N   UNL A   1      33.937  30.197  26.685  1.00  0.00    -0.352 N 
ATOM     28  C   UNL A   1      34.489  30.928  27.706  1.00  0.00     0.251 C 
ATOM     29  H   UNL A   1      33.243  30.662  26.164  1.00  0.00     0.163 HD
ATOM     30  O   UNL A   1      33.930  31.947  28.096  1.00  0.00    -0.269 OA
BRANCH  28  31
ATOM     31  C   UNL A   1      35.751  30.483  28.329  1.00  0.00     0.039 A 
ATOM     32  C   UNL A   1      36.963  30.889  27.766  1.00  0.00     0.014 A 
ATOM     33  C   UNL A   1      35.738  29.637  29.443  1.00  0.00     0.014 A 
ATOM     34  C   UNL A   1      38.165  30.482  28.348  1.00  0.00     0.010 A 
ATOM     35  C   UNL A   1      36.935  29.289  30.061  1.00  0.00     0.010 A 
ATOM     36  C   UNL A   1      38.160  29.700  29.515  1.00  0.00    -0.014 A 
BRANCH  36  37
ATOM     37  C   UNL A   1      39.426  29.300  30.177  1.00  0.00     0.031 A 
ATOM     38  C   UNL A   1      39.895  30.020  31.410  1.00  0.00     0.074 A 
ATOM     39  C   UNL A   1      40.181  28.328  29.629  1.00  0.00     0.049 A 
ATOM     40  N   UNL A   1      40.996  29.852  32.096  1.00  0.00    -0.248 NA
ATOM     41  C   UNL A   1      39.024  31.088  31.927  1.00  0.00     0.031 C 
ATOM     42  C   UNL A   1      39.851  27.588  28.409  1.00  0.00     0.029 A 
ATOM     43  N   UNL A   1      41.385  27.801  30.021  1.00  0.00    -0.354 N 
ATOM     44  C   UNL A   1      40.961  30.802  33.111  1.00  0.00     0.074 A 
ATOM     45  C   UNL A   1      39.752  31.574  32.922  1.00  0.00     0.031 C 
ATOM     46  C   UNL A   1      40.816  26.688  28.166  1.00  0.00     0.029 A 
ATOM     47  C   UNL A   1      41.850  26.810  29.190  1.00  0.00     0.049 A 
ATOM     48  H   UNL A   1      41.871  28.104  30.821  1.00  0.00     0.167 HD
ATOM     49  C   UNL A   1      41.845  30.998  34.117  1.00  0.00     0.037 A 
ATOM     50  C   UNL A   1      42.982  26.083  29.245  1.00  0.00     0.037 A 
ATOM     51  C   UNL A   1      43.033  30.207  34.311  1.00  0.00     0.049 A 
ATOM     52  C   UNL A   1      43.948  26.316  30.373  1.00  0.00     0.074 A 
ATOM     53  C   UNL A   1      43.957  30.279  35.339  1.00  0.00     0.029 A 
ATOM     54  N   UNL A   1      43.465  29.203  33.455  1.00  0.00    -0.354 N 
ATOM     55  N   UNL A   1      43.866  27.172  31.365  1.00  0.00    -0.248 NA
ATOM     56  C   UNL A   1      45.158  25.484  30.395  1.00  0.00     0.031 C 
ATOM     57  C   UNL A   1      44.970  29.349  35.081  1.00  0.00     0.029 A 
ATOM     58  C   UNL A   1      44.654  28.664  33.918  1.00  0.00     0.049 A 
ATOM     59  H   UNL A   1      42.993  28.916  32.640  1.00  0.00     0.167 HD
ATOM     60  C   UNL A   1      45.000  26.964  32.142  1.00  0.00     0.074 A 
ATOM     61  C   UNL A   1      45.747  25.895  31.511  1.00  0.00     0.031 C 
ATOM     62  C   UNL A   1      45.385  27.599  33.276  1.00  0.00     0.037 A 
BRANCH  49  63
ATOM     63  C   UNL A   1      41.562  32.117  35.083  1.00  0.00     0.058 A 
ATOM     64  C   UNL A   1      42.180  33.373  34.964  1.00  0.00     0.135 A 
ATOM     65  C   UNL A   1      40.647  31.937  36.134  1.00  0.00     0.135 A 
ATOM     66  F   UNL A   1      43.073  33.596  33.987  1.00  0.00    -0.206 F 
ATOM     67  C   UNL A   1      41.932  34.396  35.873  1.00  0.00     0.059 A 
ATOM     68  C   UNL A   1      40.360  32.957  37.037  1.00  0.00     0.059 A 
ATOM     69  F   UNL A   1      40.024  30.758  36.294  1.00  0.00    -0.206 F 
ATOM     70  C   UNL A   1      41.024  34.177  36.910  1.00  0.00     0.060 A 
BRANCH  70  71
ATOM     71  S   UNL A   1      40.723  35.508  38.090  1.00  0.00     0.124 S 
ATOM     72  O   UNL A   1      40.341  36.602  37.202  1.00  0.00    -0.237 OA
ATOM     73  O   UNL A   1      39.651  34.960  38.915  1.00  0.00    -0.237 OA
ATOM     74  O   UNL A   1      42.009  35.664  38.762  1.00  0.00    -0.744 OA
ENDBRANCH  70  71
ENDBRANCH  49  63
BRANCH  50  75
ATOM     75  C   UNL A   1      43.241  25.043  28.216  1.00  0.00     0.058 A 
ATOM     76  C   UNL A   1      43.906  25.364  27.023  1.00  0.00     0.135 A 
ATOM     77  C   UNL A   1      42.867  23.705  28.416  1.00  0.00     0.135 A 
ATOM     78  F   UNL A   1      44.279  26.631  26.783  1.00  0.00    -0.206 F 
ATOM     79  C   UNL A   1      44.185  24.399  26.061  1.00  0.00     0.059 A 
ATOM     80  C   UNL A   1      43.155  22.717  27.480  1.00  0.00     0.059 A 
ATOM     81  F   UNL A   1      42.244  23.344  29.549  1.00  0.00    -0.206 F 
ATOM     82  C   UNL A   1      43.811  23.076  26.302  1.00  0.00     0.060 A 
BRANCH  82  83
ATOM     83  S   UNL A   1      44.238  21.819  25.078  1.00  0.00     0.124 S 
ATOM     84  O   UNL A   1      45.648  21.589  25.371  1.00  0.00    -0.237 OA
ATOM     85  O   UNL A   1      43.327  20.732  25.424  1.00  0.00    -0.237 OA
ATOM     86  O   UNL A   1      43.957  22.479  23.807  1.00  0.00    -0.744 OA
ENDBRANCH  82  83
ENDBRANCH  50  75
BRANCH  62  87
ATOM     87  C   UNL A   1      46.660  27.137  33.926  1.00  0.00     0.058 A 
ATOM     88  C   UNL A   1      47.896  27.733  33.630  1.00  0.00     0.135 A 
ATOM     89  C   UNL A   1      46.637  26.121  34.895  1.00  0.00     0.135 A 
ATOM     90  F   UNL A   1      47.974  28.703  32.706  1.00  0.00    -0.206 F 
ATOM     91  C   UNL A   1      49.068  27.321  34.256  1.00  0.00     0.059 A 
ATOM     92  C   UNL A   1      47.792  25.713  35.553  1.00  0.00     0.059 A 
ATOM     93  F   UNL A   1      45.478  25.526  35.222  1.00  0.00    -0.206 F 
ATOM     94  C   UNL A   1      49.006  26.312  35.217  1.00  0.00     0.060 A 
BRANCH  94  95
ATOM     95  S   UNL A   1      50.529  25.811  36.048  1.00  0.00     0.124 S 
ATOM     96  O   UNL A   1      50.073  25.651  37.424  1.00  0.00    -0.237 OA
ATOM     97  O   UNL A   1      50.876  24.579  35.347  1.00  0.00    -0.237 OA
ATOM     98  O   UNL A   1      51.430  26.935  35.812  1.00  0.00    -0.744 OA
ENDBRANCH  94  95
ENDBRANCH  62  87
ENDBRANCH  36  37
ENDBRANCH  28  31
ENDBRANCH  26  27
ENDBRANCH  25  26
ENDBRANCH  24  25
ENDBRANCH  23  24
ENDBRANCH   1  23
TORSDOF 22
ENDMDL
