MODEL 1
REMARK VINA RESULT:     -10.5      0.000      0.000
REMARK SMILES Cc1cc(Br)cc([N+](=O)[O-])c1OCCC[C@@](C)([NH3+])C(=O)NCCCCCCNC(=O)c1ccc(-c2c3nc(c(-c4c(F)cc(S(=O)(=O)[O-])cc4F)c4ccc([nH]4)c(-c4c(F)cc(S(=O)(=O)[O-])cc4F)c4nc(c(-c5c(F)cc(S(=O)(=O)[O-])cc5F)c5ccc2[nH]5)C=C4)C=C3)cc1
REMARK SMILES IDX 23 1 22 2 21 3 19 4 20 5 16 7 17 8 15 9 14 10 13 11 12 12
REMARK SMILES IDX 11 13 1 14 2 15 3 16 4 17 7 18 5 19 6 20 8 21 9 22 10 23
REMARK SMILES IDX 18 24 24 28 25 29 26 30 27 31 28 32 29 33 30 35 31 36 32 37
REMARK SMILES IDX 96 38 33 39 95 40 34 41 35 42 36 43 89 44 37 45 94 46 88 47
REMARK SMILES IDX 90 48 38 49 93 50 87 51 86 52 39 54 73 55 52 56 72 57 53 58
REMARK SMILES IDX 56 59 71 60 91 61 54 62 55 63 70 65 92 66 57 67 40 68 41 69
REMARK SMILES IDX 50 70 42 71 43 72 49 73 51 74 44 75 45 76 46 77 47 78 48 79
REMARK SMILES IDX 74 80 75 81 84 82 76 83 77 84 83 85 85 86 78 87 79 88 80 89
REMARK SMILES IDX 81 90 82 91 58 92 59 93 68 94 60 95 61 96 67 97 69 98 62 99
REMARK SMILES IDX 63 100 64 101 65 102 66 103
REMARK H PARENT 21 6 18 25 18 26 18 27 28 34 90 53 56 64
REMARK Flexibility Score: inf
ROOT
ATOM      1  C   UNL A   1      34.343  31.214  28.011  1.00  0.00     0.021 C 
ENDROOT
BRANCH   1   2
ATOM      2  C   UNL A   1      33.551  30.485  26.922  1.00  0.00     0.116 C 
BRANCH   2   3
ATOM      3  N   UNL A   1      32.457  29.710  27.476  1.00  0.00    -0.351 N 
ATOM      4  C   UNL A   1      31.741  28.654  27.015  1.00  0.00     0.280 C 
ATOM      5  O   UNL A   1      31.167  28.007  27.902  1.00  0.00    -0.268 OA
ATOM      6  H   UNL A   1      32.177  30.013  28.369  1.00  0.00     0.163 HD
BRANCH   4   7
ATOM      7  C   UNL A   1      31.635  28.220  25.520  1.00  0.00     0.171 C 
ATOM      8  C   UNL A   1      31.066  29.434  24.772  1.00  0.00     0.090 C 
BRANCH   7   9
ATOM      9  C   UNL A   1      32.995  27.751  24.886  1.00  0.00     0.082 C 
BRANCH   9  10
ATOM     10  C   UNL A   1      33.924  26.776  25.641  1.00  0.00     0.049 C 
BRANCH  10  11
ATOM     11  C   UNL A   1      33.760  25.259  25.356  1.00  0.00     0.230 C 
BRANCH  11  12
ATOM     12  O   UNL A   1      32.560  25.017  24.600  1.00  0.00    -0.487 OA
BRANCH  12  13
ATOM     13  C   UNL A   1      32.187  23.705  24.386  1.00  0.00     0.200 A 
ATOM     14  C   UNL A   1      33.151  23.704  22.023  1.00  0.00     0.049 C 
ATOM     15  C   UNL A   1      32.693  23.024  23.263  1.00  0.00    -0.001 A 
ATOM     16  C   UNL A   1      32.833  21.625  23.278  1.00  0.00     0.023 A 
ATOM     17  C   UNL A   1      32.400  20.885  24.363  1.00  0.00     0.025 A 
ATOM     18  C   UNL A   1      31.653  22.926  25.428  1.00  0.00     0.312 A 
ATOM     19  Br  UNL A   1      32.685  19.019  24.384  1.00  0.00    -0.051 Br
ATOM     20  C   UNL A   1      31.761  21.519  25.419  1.00  0.00     0.105 A 
BRANCH  18  21
ATOM     21  N   UNL A   1      30.906  23.529  26.530  1.00  0.00     0.066 N 
ATOM     22  O   UNL A   1      30.172  24.493  26.261  1.00  0.00    -0.258 OA
ATOM     23  O   UNL A   1      31.108  23.109  27.677  1.00  0.00    -0.258 OA
ENDBRANCH  18  21
ENDBRANCH  12  13
ENDBRANCH  11  12
ENDBRANCH  10  11
ENDBRANCH   9  10
ENDBRANCH   7   9
BRANCH   7  24
ATOM     24  N   UNL A   1      30.650  27.138  25.281  1.00  0.00    -0.345 N 
ATOM     25  H   UNL A   1      30.154  27.315  24.406  1.00  0.00     0.345 HD
ATOM     26  H   UNL A   1      29.982  27.110  26.051  1.00  0.00     0.345 HD
ATOM     27  H   UNL A   1      31.136  26.242  25.221  1.00  0.00     0.345 HD
ENDBRANCH   7  24
ENDBRANCH   4   7
ENDBRANCH   2   3
ENDBRANCH   1   2
BRANCH   1  28
ATOM     28  C   UNL A   1      34.154  32.737  28.063  1.00  0.00     0.002 C 
BRANCH  28  29
ATOM     29  C   UNL A   1      35.436  33.573  27.992  1.00  0.00     0.002 C 
BRANCH  29  30
ATOM     30  C   UNL A   1      36.015  34.006  29.339  1.00  0.00     0.021 C 
BRANCH  30  31
ATOM     31  C   UNL A   1      37.047  33.054  29.927  1.00  0.00     0.116 C 
BRANCH  31  32
ATOM     32  N   UNL A   1      36.444  32.068  30.807  1.00  0.00    -0.352 N 
ATOM     33  C   UNL A   1      36.826  30.766  31.030  1.00  0.00     0.251 C 
ATOM     34  H   UNL A   1      35.657  32.373  31.312  1.00  0.00     0.163 HD
ATOM     35  O   UNL A   1      36.093  30.008  31.653  1.00  0.00    -0.269 OA
BRANCH  33  36
ATOM     36  C   UNL A   1      38.117  30.282  30.489  1.00  0.00     0.039 A 
ATOM     37  C   UNL A   1      38.267  30.154  29.106  1.00  0.00     0.014 A 
ATOM     38  C   UNL A   1      39.179  29.970  31.343  1.00  0.00     0.014 A 
ATOM     39  C   UNL A   1      39.503  29.772  28.578  1.00  0.00     0.010 A 
ATOM     40  C   UNL A   1      40.430  29.665  30.812  1.00  0.00     0.010 A 
ATOM     41  C   UNL A   1      40.605  29.558  29.424  1.00  0.00    -0.014 A 
BRANCH  41  42
ATOM     42  C   UNL A   1      41.946  29.226  28.875  1.00  0.00     0.031 A 
ATOM     43  C   UNL A   1      42.243  27.830  28.397  1.00  0.00     0.074 A 
ATOM     44  C   UNL A   1      42.913  30.166  28.865  1.00  0.00     0.049 A 
ATOM     45  N   UNL A   1      43.367  27.334  27.945  1.00  0.00    -0.248 NA
ATOM     46  C   UNL A   1      41.141  26.857  28.460  1.00  0.00     0.031 C 
ATOM     47  C   UNL A   1      42.763  31.540  29.348  1.00  0.00     0.029 A 
ATOM     48  N   UNL A   1      44.218  30.105  28.442  1.00  0.00    -0.354 N 
ATOM     49  C   UNL A   1      43.110  25.992  27.683  1.00  0.00     0.074 A 
ATOM     50  C   UNL A   1      41.743  25.739  28.078  1.00  0.00     0.031 C 
ATOM     51  C   UNL A   1      43.921  32.197  29.173  1.00  0.00     0.029 A 
ATOM     52  C   UNL A   1      44.908  31.284  28.604  1.00  0.00     0.049 A 
ATOM     53  H   UNL A   1      44.623  29.293  28.060  1.00  0.00     0.167 HD
ATOM     54  C   UNL A   1      43.932  25.064  27.139  1.00  0.00     0.037 A 
ATOM     55  C   UNL A   1      46.192  31.593  28.334  1.00  0.00     0.037 A 
ATOM     56  C   UNL A   1      45.287  25.330  26.726  1.00  0.00     0.049 A 
ATOM     57  C   UNL A   1      47.086  30.544  27.734  1.00  0.00     0.074 A 
ATOM     58  C   UNL A   1      46.182  24.472  26.111  1.00  0.00     0.029 A 
ATOM     59  N   UNL A   1      45.943  26.542  26.890  1.00  0.00    -0.354 N 
ATOM     60  N   UNL A   1      46.807  29.298  27.431  1.00  0.00    -0.248 NA
ATOM     61  C   UNL A   1      48.469  30.941  27.432  1.00  0.00     0.031 C 
ATOM     62  C   UNL A   1      47.395  25.150  25.948  1.00  0.00     0.029 A 
ATOM     63  C   UNL A   1      47.239  26.448  26.409  1.00  0.00     0.049 A 
ATOM     64  H   UNL A   1      45.545  27.349  27.288  1.00  0.00     0.167 HD
ATOM     65  C   UNL A   1      47.970  28.772  26.877  1.00  0.00     0.074 A 
ATOM     66  C   UNL A   1      48.951  29.837  26.876  1.00  0.00     0.031 C 
ATOM     67  C   UNL A   1      48.202  27.520  26.409  1.00  0.00     0.037 A 
BRANCH  54  68
ATOM     68  C   UNL A   1      43.391  23.671  26.955  1.00  0.00     0.058 A 
ATOM     69  C   UNL A   1      42.988  23.196  25.695  1.00  0.00     0.135 A 
ATOM     70  C   UNL A   1      43.307  22.788  28.043  1.00  0.00     0.135 A 
ATOM     71  F   UNL A   1      43.033  24.002  24.622  1.00  0.00    -0.206 F 
ATOM     72  C   UNL A   1      42.494  21.907  25.527  1.00  0.00     0.059 A 
ATOM     73  C   UNL A   1      42.844  21.484  27.892  1.00  0.00     0.059 A 
ATOM     74  F   UNL A   1      43.677  23.188  29.269  1.00  0.00    -0.206 F 
ATOM     75  C   UNL A   1      42.425  21.058  26.633  1.00  0.00     0.060 A 
BRANCH  75  76
ATOM     76  S   UNL A   1      41.786  19.386  26.396  1.00  0.00     0.124 S 
ATOM     77  O   UNL A   1      42.207  18.737  27.634  1.00  0.00    -0.237 OA
ATOM     78  O   UNL A   1      40.353  19.616  26.257  1.00  0.00    -0.237 OA
ATOM     79  O   UNL A   1      42.466  18.929  25.188  1.00  0.00    -0.744 OA
ENDBRANCH  75  76
ENDBRANCH  54  68
BRANCH  55  80
ATOM     80  C   UNL A   1      46.698  32.965  28.610  1.00  0.00     0.058 A 
ATOM     81  C   UNL A   1      46.594  33.981  27.649  1.00  0.00     0.135 A 
ATOM     82  C   UNL A   1      47.284  33.290  29.844  1.00  0.00     0.135 A 
ATOM     83  F   UNL A   1      46.049  33.718  26.452  1.00  0.00    -0.206 F 
ATOM     84  C   UNL A   1      47.067  35.267  27.892  1.00  0.00     0.059 A 
ATOM     85  C   UNL A   1      47.739  34.576  30.122  1.00  0.00     0.059 A 
ATOM     86  F   UNL A   1      47.392  32.359  30.805  1.00  0.00    -0.206 F 
ATOM     87  C   UNL A   1      47.635  35.555  29.134  1.00  0.00     0.060 A 
BRANCH  87  88
ATOM     88  S   UNL A   1      48.201  37.239  29.458  1.00  0.00     0.124 S 
ATOM     89  O   UNL A   1      48.748  37.112  30.804  1.00  0.00    -0.237 OA
ATOM     90  O   UNL A   1      49.174  37.446  28.389  1.00  0.00    -0.237 OA
ATOM     91  O   UNL A   1      46.979  38.031  29.344  1.00  0.00    -0.744 OA
ENDBRANCH  87  88
ENDBRANCH  55  80
BRANCH  67  92
ATOM     92  C   UNL A   1      49.559  27.240  25.823  1.00  0.00     0.058 A 
ATOM     93  C   UNL A   1      50.659  26.907  26.628  1.00  0.00     0.135 A 
ATOM     94  C   UNL A   1      49.746  27.252  24.430  1.00  0.00     0.135 A 
ATOM     95  F   UNL A   1      50.536  26.888  27.965  1.00  0.00    -0.206 F 
ATOM     96  C   UNL A   1      51.903  26.619  26.075  1.00  0.00     0.059 A 
ATOM     97  C   UNL A   1      50.973  26.938  23.854  1.00  0.00     0.059 A 
ATOM     98  F   UNL A   1      48.723  27.553  23.613  1.00  0.00    -0.206 F 
ATOM     99  C   UNL A   1      52.049  26.634  24.687  1.00  0.00     0.060 A 
BRANCH  99 100
ATOM    100  S   UNL A   1      53.659  26.223  23.981  1.00  0.00     0.124 S 
ATOM    101  O   UNL A   1      53.901  24.902  24.549  1.00  0.00    -0.237 OA
ATOM    102  O   UNL A   1      53.388  26.257  22.547  1.00  0.00    -0.237 OA
ATOM    103  O   UNL A   1      54.529  27.288  24.473  1.00  0.00    -0.744 OA
ENDBRANCH  99 100
ENDBRANCH  67  92
ENDBRANCH  41  42
ENDBRANCH  33  36
ENDBRANCH  31  32
ENDBRANCH  30  31
ENDBRANCH  29  30
ENDBRANCH  28  29
ENDBRANCH   1  28
TORSDOF 23
ENDMDL
MODEL 2
REMARK VINA RESULT:     -10.2      1.394      8.271
REMARK SMILES Cc1cc(Br)cc([N+](=O)[O-])c1OCCC[C@@](C)([NH3+])C(=O)NCCCCCCNC(=O)c1ccc(-c2c3nc(c(-c4c(F)cc(S(=O)(=O)[O-])cc4F)c4ccc([nH]4)c(-c4c(F)cc(S(=O)(=O)[O-])cc4F)c4nc(c(-c5c(F)cc(S(=O)(=O)[O-])cc5F)c5ccc2[nH]5)C=C4)C=C3)cc1
REMARK SMILES IDX 23 1 22 2 21 3 19 4 20 5 16 7 17 8 15 9 14 10 13 11 12 12
REMARK SMILES IDX 11 13 1 14 2 15 3 16 4 17 7 18 5 19 6 20 8 21 9 22 10 23
REMARK SMILES IDX 18 24 24 28 25 29 26 30 27 31 28 32 29 33 30 35 31 36 32 37
REMARK SMILES IDX 96 38 33 39 95 40 34 41 35 42 36 43 89 44 37 45 94 46 88 47
REMARK SMILES IDX 90 48 38 49 93 50 87 51 86 52 39 54 73 55 52 56 72 57 53 58
REMARK SMILES IDX 56 59 71 60 91 61 54 62 55 63 70 65 92 66 57 67 40 68 41 69
REMARK SMILES IDX 50 70 42 71 43 72 49 73 51 74 44 75 45 76 46 77 47 78 48 79
REMARK SMILES IDX 74 80 75 81 84 82 76 83 77 84 83 85 85 86 78 87 79 88 80 89
REMARK SMILES IDX 81 90 82 91 58 92 59 93 68 94 60 95 61 96 67 97 69 98 62 99
REMARK SMILES IDX 63 100 64 101 65 102 66 103
REMARK H PARENT 21 6 18 25 18 26 18 27 28 34 90 53 56 64
REMARK Flexibility Score: inf
ROOT
ATOM      1  C   UNL A   1      34.377  29.594  26.113  1.00  0.00     0.021 C 
ENDROOT
BRANCH   1   2
ATOM      2  C   UNL A   1      32.926  29.787  25.664  1.00  0.00     0.116 C 
BRANCH   2   3
ATOM      3  N   UNL A   1      31.987  29.233  26.620  1.00  0.00    -0.351 N 
ATOM      4  C   UNL A   1      31.546  27.973  26.866  1.00  0.00     0.280 C 
ATOM      5  O   UNL A   1      31.063  27.819  27.996  1.00  0.00    -0.268 OA
ATOM      6  H   UNL A   1      31.586  29.910  27.212  1.00  0.00     0.163 HD
BRANCH   4   7
ATOM      7  C   UNL A   1      31.639  26.775  25.871  1.00  0.00     0.171 C 
ATOM      8  C   UNL A   1      32.998  26.112  26.142  1.00  0.00     0.090 C 
BRANCH   7   9
ATOM      9  C   UNL A   1      30.467  25.735  26.002  1.00  0.00     0.082 C 
BRANCH   9  10
ATOM     10  C   UNL A   1      30.731  24.222  25.848  1.00  0.00     0.049 C 
BRANCH  10  11
ATOM     11  C   UNL A   1      31.110  23.697  24.437  1.00  0.00     0.230 C 
BRANCH  11  12
ATOM     12  O   UNL A   1      32.003  22.574  24.542  1.00  0.00    -0.487 OA
BRANCH  12  13
ATOM     13  C   UNL A   1      33.326  22.830  24.841  1.00  0.00     0.200 A 
ATOM     14  C   UNL A   1      33.038  22.065  27.259  1.00  0.00     0.049 C 
ATOM     15  C   UNL A   1      33.859  22.351  26.053  1.00  0.00    -0.001 A 
ATOM     16  C   UNL A   1      35.231  22.072  26.170  1.00  0.00     0.023 A 
ATOM     17  C   UNL A   1      36.097  22.340  25.125  1.00  0.00     0.025 A 
ATOM     18  C   UNL A   1      34.238  23.198  23.836  1.00  0.00     0.312 A 
ATOM     19  Br  UNL A   1      37.919  21.870  25.287  1.00  0.00    -0.051 Br
ATOM     20  C   UNL A   1      35.621  22.952  23.975  1.00  0.00     0.105 A 
BRANCH  18  21
ATOM     21  N   UNL A   1      33.807  23.911  22.634  1.00  0.00     0.066 N 
ATOM     22  O   UNL A   1      33.558  25.122  22.748  1.00  0.00    -0.258 OA
ATOM     23  O   UNL A   1      33.628  23.261  21.596  1.00  0.00    -0.258 OA
ENDBRANCH  18  21
ENDBRANCH  12  13
ENDBRANCH  11  12
ENDBRANCH  10  11
ENDBRANCH   9  10
ENDBRANCH   7   9
BRANCH   7  24
ATOM     24  N   UNL A   1      31.700  27.185  24.448  1.00  0.00    -0.345 N 
ATOM     25  H   UNL A   1      32.045  28.143  24.383  1.00  0.00     0.345 HD
ATOM     26  H   UNL A   1      30.768  27.131  24.038  1.00  0.00     0.345 HD
ATOM     27  H   UNL A   1      32.330  26.562  23.941  1.00  0.00     0.345 HD
ENDBRANCH   7  24
ENDBRANCH   4   7
ENDBRANCH   2   3
ENDBRANCH   1   2
BRANCH   1  28
ATOM     28  C   UNL A   1      34.665  29.917  27.586  1.00  0.00     0.002 C 
BRANCH  28  29
ATOM     29  C   UNL A   1      34.257  31.317  28.056  1.00  0.00     0.002 C 
BRANCH  29  30
ATOM     30  C   UNL A   1      35.298  32.415  27.833  1.00  0.00     0.021 C 
BRANCH  30  31
ATOM     31  C   UNL A   1      36.477  32.381  28.795  1.00  0.00     0.116 C 
BRANCH  31  32
ATOM     32  N   UNL A   1      36.111  31.841  30.093  1.00  0.00    -0.352 N 
ATOM     33  C   UNL A   1      36.698  30.814  30.794  1.00  0.00     0.251 C 
ATOM     34  H   UNL A   1      35.339  32.267  30.529  1.00  0.00     0.163 HD
ATOM     35  O   UNL A   1      36.146  30.351  31.784  1.00  0.00    -0.269 OA
BRANCH  33  36
ATOM     36  C   UNL A   1      37.989  30.258  30.328  1.00  0.00     0.039 A 
ATOM     37  C   UNL A   1      38.199  30.090  28.957  1.00  0.00     0.014 A 
ATOM     38  C   UNL A   1      38.993  29.917  31.240  1.00  0.00     0.014 A 
ATOM     39  C   UNL A   1      39.440  29.638  28.499  1.00  0.00     0.010 A 
ATOM     40  C   UNL A   1      40.252  29.542  30.778  1.00  0.00     0.010 A 
ATOM     41  C   UNL A   1      40.489  29.394  29.403  1.00  0.00    -0.014 A 
BRANCH  41  42
ATOM     42  C   UNL A   1      41.837  28.987  28.929  1.00  0.00     0.031 A 
ATOM     43  C   UNL A   1      42.940  30.005  28.820  1.00  0.00     0.074 A 
ATOM     44  C   UNL A   1      42.050  27.714  28.537  1.00  0.00     0.049 A 
ATOM     45  N   UNL A   1      44.160  29.856  28.371  1.00  0.00    -0.248 NA
ATOM     46  C   UNL A   1      42.622  31.378  29.247  1.00  0.00     0.031 C 
ATOM     47  C   UNL A   1      41.047  26.647  28.548  1.00  0.00     0.029 A 
ATOM     48  N   UNL A   1      43.177  27.103  28.045  1.00  0.00    -0.354 N 
ATOM     49  C   UNL A   1      44.749  31.114  28.449  1.00  0.00     0.074 A 
ATOM     50  C   UNL A   1      43.737  32.024  28.936  1.00  0.00     0.031 C 
ATOM     51  C   UNL A   1      41.609  25.510  28.106  1.00  0.00     0.029 A 
ATOM     52  C   UNL A   1      42.999  25.774  27.743  1.00  0.00     0.049 A 
ATOM     53  H   UNL A   1      44.032  27.574  27.919  1.00  0.00     0.167 HD
ATOM     54  C   UNL A   1      46.025  31.470  28.166  1.00  0.00     0.037 A 
ATOM     55  C   UNL A   1      43.854  24.870  27.225  1.00  0.00     0.037 A 
ATOM     56  C   UNL A   1      47.034  30.552  27.704  1.00  0.00     0.049 A 
ATOM     57  C   UNL A   1      45.264  25.291  26.914  1.00  0.00     0.074 A 
ATOM     58  C   UNL A   1      48.370  30.803  27.444  1.00  0.00     0.029 A 
ATOM     59  N   UNL A   1      46.819  29.209  27.428  1.00  0.00    -0.354 N 
ATOM     60  N   UNL A   1      45.822  26.469  27.058  1.00  0.00    -0.248 NA
ATOM     61  C   UNL A   1      46.163  24.260  26.378  1.00  0.00     0.031 C 
ATOM     62  C   UNL A   1      48.950  29.625  26.964  1.00  0.00     0.029 A 
ATOM     63  C   UNL A   1      47.992  28.624  26.979  1.00  0.00     0.049 A 
ATOM     64  H   UNL A   1      45.960  28.741  27.536  1.00  0.00     0.167 HD
ATOM     65  C   UNL A   1      47.145  26.314  26.656  1.00  0.00     0.074 A 
ATOM     66  C   UNL A   1      47.306  24.926  26.276  1.00  0.00     0.031 C 
ATOM     67  C   UNL A   1      48.137  27.238  26.609  1.00  0.00     0.037 A 
BRANCH  54  68
ATOM     68  C   UNL A   1      46.404  32.916  28.349  1.00  0.00     0.058 A 
ATOM     69  C   UNL A   1      46.275  33.850  27.307  1.00  0.00     0.135 A 
ATOM     70  C   UNL A   1      46.867  33.382  29.590  1.00  0.00     0.135 A 
ATOM     71  F   UNL A   1      45.851  33.458  26.096  1.00  0.00    -0.206 F 
ATOM     72  C   UNL A   1      46.621  35.186  27.481  1.00  0.00     0.059 A 
ATOM     73  C   UNL A   1      47.189  34.720  29.795  1.00  0.00     0.059 A 
ATOM     74  F   UNL A   1      47.010  32.534  30.620  1.00  0.00    -0.206 F 
ATOM     75  C   UNL A   1      47.078  35.612  28.729  1.00  0.00     0.060 A 
BRANCH  75  76
ATOM     76  S   UNL A   1      47.516  37.350  28.938  1.00  0.00     0.124 S 
ATOM     77  O   UNL A   1      46.224  38.001  28.739  1.00  0.00    -0.237 OA
ATOM     78  O   UNL A   1      48.036  37.380  30.300  1.00  0.00    -0.237 OA
ATOM     79  O   UNL A   1      48.502  37.582  27.887  1.00  0.00    -0.744 OA
ENDBRANCH  75  76
ENDBRANCH  54  68
BRANCH  55  80
ATOM     80  C   UNL A   1      43.402  23.472  26.988  1.00  0.00     0.058 A 
ATOM     81  C   UNL A   1      43.089  23.022  25.698  1.00  0.00     0.135 A 
ATOM     82  C   UNL A   1      43.287  22.555  28.046  1.00  0.00     0.135 A 
ATOM     83  F   UNL A   1      43.176  23.862  24.655  1.00  0.00    -0.206 F 
ATOM     84  C   UNL A   1      42.662  21.718  25.462  1.00  0.00     0.059 A 
ATOM     85  C   UNL A   1      42.888  21.239  27.833  1.00  0.00     0.059 A 
ATOM     86  F   UNL A   1      43.590  22.930  29.298  1.00  0.00    -0.206 F 
ATOM     87  C   UNL A   1      42.568  20.833  26.537  1.00  0.00     0.060 A 
BRANCH  87  88
ATOM     88  S   UNL A   1      42.060  19.130  26.215  1.00  0.00     0.124 S 
ATOM     89  O   UNL A   1      42.266  18.511  27.519  1.00  0.00    -0.237 OA
ATOM     90  O   UNL A   1      40.672  19.299  25.798  1.00  0.00    -0.237 OA
ATOM     91  O   UNL A   1      42.976  18.702  25.161  1.00  0.00    -0.744 OA
ENDBRANCH  87  88
ENDBRANCH  55  80
BRANCH  67  92
ATOM     92  C   UNL A   1      49.497  26.773  26.164  1.00  0.00     0.058 A 
ATOM     93  C   UNL A   1      49.930  26.915  24.837  1.00  0.00     0.135 A 
ATOM     94  C   UNL A   1      50.399  26.228  27.094  1.00  0.00     0.135 A 
ATOM     95  F   UNL A   1      49.106  27.424  23.909  1.00  0.00    -0.206 F 
ATOM     96  C   UNL A   1      51.202  26.512  24.441  1.00  0.00     0.059 A 
ATOM     97  C   UNL A   1      51.685  25.845  26.726  1.00  0.00     0.059 A 
ATOM     98  F   UNL A   1      50.040  26.080  28.379  1.00  0.00    -0.206 F 
ATOM     99  C   UNL A   1      52.073  25.980  25.394  1.00  0.00     0.060 A 
BRANCH  99 100
ATOM    100  S   UNL A   1      53.732  25.493  24.873  1.00  0.00     0.124 S 
ATOM    101  O   UNL A   1      53.799  26.066  23.534  1.00  0.00    -0.237 OA
ATOM    102  O   UNL A   1      54.574  26.132  25.880  1.00  0.00    -0.237 OA
ATOM    103  O   UNL A   1      53.693  24.034  24.932  1.00  0.00    -0.744 OA
ENDBRANCH  99 100
ENDBRANCH  67  92
ENDBRANCH  41  42
ENDBRANCH  33  36
ENDBRANCH  31  32
ENDBRANCH  30  31
ENDBRANCH  29  30
ENDBRANCH  28  29
ENDBRANCH   1  28
TORSDOF 23
ENDMDL
MODEL 3
REMARK VINA RESULT:     -10.1      6.404     11.851
REMARK SMILES Cc1cc(Br)cc([N+](=O)[O-])c1OCCC[C@@](C)([NH3+])C(=O)NCCCCCCNC(=O)c1ccc(-c2c3nc(c(-c4c(F)cc(S(=O)(=O)[O-])cc4F)c4ccc([nH]4)c(-c4c(F)cc(S(=O)(=O)[O-])cc4F)c4nc(c(-c5c(F)cc(S(=O)(=O)[O-])cc5F)c5ccc2[nH]5)C=C4)C=C3)cc1
REMARK SMILES IDX 23 1 22 2 21 3 19 4 20 5 16 7 17 8 15 9 14 10 13 11 12 12
REMARK SMILES IDX 11 13 1 14 2 15 3 16 4 17 7 18 5 19 6 20 8 21 9 22 10 23
REMARK SMILES IDX 18 24 24 28 25 29 26 30 27 31 28 32 29 33 30 35 31 36 32 37
REMARK SMILES IDX 96 38 33 39 95 40 34 41 35 42 36 43 89 44 37 45 94 46 88 47
REMARK SMILES IDX 90 48 38 49 93 50 87 51 86 52 39 54 73 55 52 56 72 57 53 58
REMARK SMILES IDX 56 59 71 60 91 61 54 62 55 63 70 65 92 66 57 67 40 68 41 69
REMARK SMILES IDX 50 70 42 71 43 72 49 73 51 74 44 75 45 76 46 77 47 78 48 79
REMARK SMILES IDX 74 80 75 81 84 82 76 83 77 84 83 85 85 86 78 87 79 88 80 89
REMARK SMILES IDX 81 90 82 91 58 92 59 93 68 94 60 95 61 96 67 97 69 98 62 99
REMARK SMILES IDX 63 100 64 101 65 102 66 103
REMARK H PARENT 21 6 18 25 18 26 18 27 28 34 90 53 56 64
REMARK Flexibility Score: inf
ROOT
ATOM      1  C   UNL A   1      41.008  22.185  27.091  1.00  0.00     0.021 C 
ENDROOT
BRANCH   1   2
ATOM      2  C   UNL A   1      39.654  22.586  26.499  1.00  0.00     0.116 C 
BRANCH   2   3
ATOM      3  N   UNL A   1      38.935  21.442  25.971  1.00  0.00    -0.351 N 
ATOM      4  C   UNL A   1      37.735  21.303  25.354  1.00  0.00     0.280 C 
ATOM      5  O   UNL A   1      37.623  20.262  24.693  1.00  0.00    -0.268 OA
ATOM      6  H   UNL A   1      39.417  20.591  26.085  1.00  0.00     0.163 HD
BRANCH   4   7
ATOM      7  C   UNL A   1      36.570  22.341  25.404  1.00  0.00     0.171 C 
ATOM      8  C   UNL A   1      36.673  23.149  24.102  1.00  0.00     0.090 C 
BRANCH   7   9
ATOM      9  C   UNL A   1      35.142  21.700  25.560  1.00  0.00     0.082 C 
BRANCH   9  10
ATOM     10  C   UNL A   1      33.880  22.587  25.612  1.00  0.00     0.049 C 
BRANCH  10  11
ATOM     11  C   UNL A   1      33.385  23.213  24.280  1.00  0.00     0.230 C 
BRANCH  11  12
ATOM     12  O   UNL A   1      33.182  24.629  24.436  1.00  0.00    -0.487 OA
BRANCH  12  13
ATOM     13  C   UNL A   1      32.025  25.174  23.916  1.00  0.00     0.200 A 
ATOM     14  C   UNL A   1      30.661  24.504  25.967  1.00  0.00     0.049 C 
ATOM     15  C   UNL A   1      30.904  25.329  24.754  1.00  0.00    -0.001 A 
ATOM     16  C   UNL A   1      29.954  26.332  24.499  1.00  0.00     0.023 A 
ATOM     17  C   UNL A   1      30.057  27.132  23.375  1.00  0.00     0.025 A 
ATOM     18  C   UNL A   1      32.049  25.920  22.725  1.00  0.00     0.312 A 
ATOM     19  Br  UNL A   1      28.811  28.525  23.111  1.00  0.00    -0.051 Br
ATOM     20  C   UNL A   1      31.069  26.899  22.454  1.00  0.00     0.105 A 
BRANCH  18  21
ATOM     21  N   UNL A   1      33.045  25.672  21.684  1.00  0.00     0.066 N 
ATOM     22  O   UNL A   1      33.194  24.499  21.306  1.00  0.00    -0.258 OA
ATOM     23  O   UNL A   1      33.744  26.618  21.301  1.00  0.00    -0.258 OA
ENDBRANCH  18  21
ENDBRANCH  12  13
ENDBRANCH  11  12
ENDBRANCH  10  11
ENDBRANCH   9  10
ENDBRANCH   7   9
BRANCH   7  24
ATOM     24  N   UNL A   1      36.714  23.348  26.483  1.00  0.00    -0.345 N 
ATOM     25  H   UNL A   1      36.360  22.961  27.359  1.00  0.00     0.345 HD
ATOM     26  H   UNL A   1      36.183  24.184  26.241  1.00  0.00     0.345 HD
ATOM     27  H   UNL A   1      37.699  23.590  26.592  1.00  0.00     0.345 HD
ENDBRANCH   7  24
ENDBRANCH   4   7
ENDBRANCH   2   3
ENDBRANCH   1   2
BRANCH   1  28
ATOM     28  C   UNL A   1      41.308  22.735  28.493  1.00  0.00     0.002 C 
BRANCH  28  29
ATOM     29  C   UNL A   1      42.776  22.689  28.929  1.00  0.00     0.002 C 
BRANCH  29  30
ATOM     30  C   UNL A   1      43.801  22.889  27.811  1.00  0.00     0.021 C 
BRANCH  30  31
ATOM     31  C   UNL A   1      44.000  24.334  27.378  1.00  0.00     0.116 C 
BRANCH  31  32
ATOM     32  N   UNL A   1      43.265  24.649  26.165  1.00  0.00    -0.352 N 
ATOM     33  C   UNL A   1      42.229  25.536  25.993  1.00  0.00     0.251 C 
ATOM     34  H   UNL A   1      43.547  24.162  25.358  1.00  0.00     0.163 HD
ATOM     35  O   UNL A   1      41.588  25.538  24.949  1.00  0.00    -0.269 OA
BRANCH  33  36
ATOM     36  C   UNL A   1      41.878  26.471  27.087  1.00  0.00     0.039 A 
ATOM     37  C   UNL A   1      40.905  26.091  28.015  1.00  0.00     0.014 A 
ATOM     38  C   UNL A   1      42.517  27.709  27.204  1.00  0.00     0.014 A 
ATOM     39  C   UNL A   1      40.619  26.929  29.096  1.00  0.00     0.010 A 
ATOM     40  C   UNL A   1      42.287  28.505  28.323  1.00  0.00     0.010 A 
ATOM     41  C   UNL A   1      41.332  28.127  29.279  1.00  0.00    -0.014 A 
BRANCH  41  42
ATOM     42  C   UNL A   1      41.095  28.993  30.464  1.00  0.00     0.031 A 
ATOM     43  C   UNL A   1      41.926  28.819  31.706  1.00  0.00     0.074 A 
ATOM     44  C   UNL A   1      40.090  29.892  30.442  1.00  0.00     0.049 A 
ATOM     45  N   UNL A   1      41.829  29.433  32.858  1.00  0.00    -0.248 NA
ATOM     46  C   UNL A   1      42.989  27.802  31.659  1.00  0.00     0.031 C 
ATOM     47  C   UNL A   1      39.182  30.119  29.315  1.00  0.00     0.029 A 
ATOM     48  N   UNL A   1      39.657  30.777  31.399  1.00  0.00    -0.354 N 
ATOM     49  C   UNL A   1      42.806  28.871  33.672  1.00  0.00     0.074 A 
ATOM     50  C   UNL A   1      43.447  27.828  32.902  1.00  0.00     0.031 C 
ATOM     51  C   UNL A   1      38.317  31.094  29.637  1.00  0.00     0.029 A 
ATOM     52  C   UNL A   1      38.579  31.535  31.004  1.00  0.00     0.049 A 
ATOM     53  H   UNL A   1      40.078  30.860  32.285  1.00  0.00     0.167 HD
ATOM     54  C   UNL A   1      43.154  29.211  34.936  1.00  0.00     0.037 A 
ATOM     55  C   UNL A   1      37.876  32.472  31.669  1.00  0.00     0.037 A 
ATOM     56  C   UNL A   1      42.525  30.266  35.688  1.00  0.00     0.049 A 
ATOM     57  C   UNL A   1      38.278  32.829  33.074  1.00  0.00     0.074 A 
ATOM     58  C   UNL A   1      42.843  30.727  36.955  1.00  0.00     0.029 A 
ATOM     59  N   UNL A   1      41.450  31.024  35.246  1.00  0.00    -0.354 N 
ATOM     60  N   UNL A   1      39.248  32.333  33.804  1.00  0.00    -0.248 NA
ATOM     61  C   UNL A   1      37.497  33.878  33.744  1.00  0.00     0.031 C 
ATOM     62  C   UNL A   1      41.929  31.728  37.297  1.00  0.00     0.029 A 
ATOM     63  C   UNL A   1      41.076  31.932  36.223  1.00  0.00     0.049 A 
ATOM     64  H   UNL A   1      41.016  30.930  34.368  1.00  0.00     0.167 HD
ATOM     65  C   UNL A   1      39.211  33.028  35.009  1.00  0.00     0.074 A 
ATOM     66  C   UNL A   1      38.131  33.987  34.904  1.00  0.00     0.031 C 
ATOM     67  C   UNL A   1      40.002  32.886  36.102  1.00  0.00     0.037 A 
BRANCH  54  68
ATOM     68  C   UNL A   1      44.266  28.434  35.588  1.00  0.00     0.058 A 
ATOM     69  C   UNL A   1      45.602  28.866  35.528  1.00  0.00     0.135 A 
ATOM     70  C   UNL A   1      43.991  27.264  36.314  1.00  0.00     0.135 A 
ATOM     71  F   UNL A   1      45.925  29.970  34.837  1.00  0.00    -0.206 F 
ATOM     72  C   UNL A   1      46.627  28.150  36.137  1.00  0.00     0.059 A 
ATOM     73  C   UNL A   1      44.997  26.549  36.957  1.00  0.00     0.059 A 
ATOM     74  F   UNL A   1      42.734  26.804  36.405  1.00  0.00    -0.206 F 
ATOM     75  C   UNL A   1      46.314  26.991  36.849  1.00  0.00     0.060 A 
BRANCH  75  76
ATOM     76  S   UNL A   1      47.656  26.077  37.638  1.00  0.00     0.124 S 
ATOM     77  O   UNL A   1      48.805  26.924  37.328  1.00  0.00    -0.237 OA
ATOM     78  O   UNL A   1      47.243  26.059  39.037  1.00  0.00    -0.237 OA
ATOM     79  O   UNL A   1      47.632  24.784  36.962  1.00  0.00    -0.744 OA
ENDBRANCH  75  76
ENDBRANCH  54  68
BRANCH  55  80
ATOM     80  C   UNL A   1      36.732  33.153  31.003  1.00  0.00     0.058 A 
ATOM     81  C   UNL A   1      36.944  34.081  29.973  1.00  0.00     0.135 A 
ATOM     82  C   UNL A   1      35.406  32.881  31.375  1.00  0.00     0.135 A 
ATOM     83  F   UNL A   1      38.194  34.381  29.587  1.00  0.00    -0.206 F 
ATOM     84  C   UNL A   1      35.885  34.728  29.345  1.00  0.00     0.059 A 
ATOM     85  C   UNL A   1      34.329  33.495  30.743  1.00  0.00     0.059 A 
ATOM     86  F   UNL A   1      35.148  31.989  32.344  1.00  0.00    -0.206 F 
ATOM     87  C   UNL A   1      34.579  34.425  29.735  1.00  0.00     0.060 A 
BRANCH  87  88
ATOM     88  S   UNL A   1      33.210  35.234  28.879  1.00  0.00     0.124 S 
ATOM     89  O   UNL A   1      33.911  36.239  28.088  1.00  0.00    -0.237 OA
ATOM     90  O   UNL A   1      32.621  34.127  28.131  1.00  0.00    -0.237 OA
ATOM     91  O   UNL A   1      32.389  35.749  29.972  1.00  0.00    -0.744 OA
ENDBRANCH  87  88
ENDBRANCH  55  80
BRANCH  67  92
ATOM     92  C   UNL A   1      39.755  33.812  37.261  1.00  0.00     0.058 A 
ATOM     93  C   UNL A   1      38.876  33.476  38.302  1.00  0.00     0.135 A 
ATOM     94  C   UNL A   1      40.451  35.029  37.357  1.00  0.00     0.135 A 
ATOM     95  F   UNL A   1      38.181  32.328  38.256  1.00  0.00    -0.206 F 
ATOM     96  C   UNL A   1      38.677  34.324  39.387  1.00  0.00     0.059 A 
ATOM     97  C   UNL A   1      40.290  35.878  38.447  1.00  0.00     0.059 A 
ATOM     98  F   UNL A   1      41.313  35.393  36.394  1.00  0.00    -0.206 F 
ATOM     99  C   UNL A   1      39.392  35.522  39.452  1.00  0.00     0.060 A 
BRANCH  99 100
ATOM    100  S   UNL A   1      39.151  36.598  40.882  1.00  0.00     0.124 S 
ATOM    101  O   UNL A   1      40.519  36.767  41.356  1.00  0.00    -0.237 OA
ATOM    102  O   UNL A   1      38.536  37.779  40.283  1.00  0.00    -0.237 OA
ATOM    103  O   UNL A   1      38.276  35.817  41.752  1.00  0.00    -0.744 OA
ENDBRANCH  99 100
ENDBRANCH  67  92
ENDBRANCH  41  42
ENDBRANCH  33  36
ENDBRANCH  31  32
ENDBRANCH  30  31
ENDBRANCH  29  30
ENDBRANCH  28  29
ENDBRANCH   1  28
TORSDOF 23
ENDMDL
