MODEL 1
REMARK VINA RESULT:      -9.0      0.000      0.000
REMARK SMILES Cc1ccc(S(=O)(=O)n2cc(C(=O)C(=O)N[C@@H](Cc3c[nH]c4ccccc34)C(=O)NCC(=O)NCCCCCCNC(=O)c3ccc(-c4c5nc(c(-c6c(F)cc(S(=O)(=O)[O-])cc6F)c6ccc([nH]6)c(-c6c(F)cc(S(=O)(=O)[O-])cc6F)c6nc(c(-c7c(F)cc(S(=O)(=O)[O-])cc7F)c7ccc4[nH]7)C=C6)C=C5)cc3)c3ccccc32)cc1
REMARK SMILES IDX 35 1 34 2 32 3 33 4 31 6 30 7 28 8 29 9 17 11 16 12 14 13
REMARK SMILES IDX 15 14 12 16 13 17 11 18 9 19 10 20 115 21 110 22 114 23
REMARK SMILES IDX 111 24 113 25 112 26 6 27 7 28 8 29 5 30 1 31 2 32 3 33
REMARK SMILES IDX 117 34 4 35 116 36 18 37 19 38 20 39 27 40 21 41 22 42 26 43
REMARK SMILES IDX 23 45 25 46 24 47 36 48 37 49 38 50 39 51 40 52 41 53 42 54
REMARK SMILES IDX 43 56 44 57 45 58 109 59 46 60 108 61 47 62 48 63 49 64
REMARK SMILES IDX 102 65 50 66 107 67 101 68 103 69 51 70 106 71 100 72 99 73
REMARK SMILES IDX 52 75 86 76 65 77 85 78 66 79 69 80 84 81 104 82 67 83 68 84
REMARK SMILES IDX 83 86 105 87 70 88 53 89 54 90 63 91 55 92 56 93 62 94 64 95
REMARK SMILES IDX 57 96 58 97 59 98 60 99 61 100 87 101 88 102 97 103 89 104
REMARK SMILES IDX 90 105 96 106 98 107 91 108 92 109 93 110 94 111 95 112
REMARK SMILES IDX 71 113 72 114 81 115 73 116 74 117 80 118 82 119 75 120
REMARK SMILES IDX 76 121 77 122 78 123 79 124
REMARK H PARENT 34 5 30 10 16 15 21 44 41 55 103 74 69 85
REMARK Flexibility Score: inf
ROOT
ATOM      1  C   UNL A   1      45.435  30.873  30.302  1.00  0.00     0.116 C 
ENDROOT
BRANCH   1   2
ATOM      2  N   UNL A   1      46.455  31.842  29.966  1.00  0.00    -0.355 N 
ATOM      3  C   UNL A   1      46.311  33.198  29.897  1.00  0.00     0.239 C 
ATOM      4  O   UNL A   1      47.306  33.903  29.711  1.00  0.00    -0.273 OA
ATOM      5  H   UNL A   1      47.350  31.486  29.763  1.00  0.00     0.163 HD
BRANCH   3   6
ATOM      6  C   UNL A   1      44.953  33.810  30.235  1.00  0.00     0.216 C 
BRANCH   6   7
ATOM      7  N   UNL A   1      44.726  35.218  29.961  1.00  0.00    -0.345 N 
ATOM      8  C   UNL A   1      43.650  35.832  29.390  1.00  0.00     0.243 C 
ATOM      9  O   UNL A   1      43.461  37.011  29.719  1.00  0.00    -0.273 OA
ATOM     10  H   UNL A   1      45.459  35.819  30.229  1.00  0.00     0.164 HD
BRANCH   8  11
ATOM     11  C   UNL A   1      42.589  35.113  28.499  1.00  0.00     0.176 C 
BRANCH  11  12
ATOM     12  N   UNL A   1      41.159  35.426  28.723  1.00  0.00    -0.337 N 
ATOM     13  C   UNL A   1      40.175  34.742  29.434  1.00  0.00     0.293 C 
ATOM     14  O   UNL A   1      38.994  35.027  29.265  1.00  0.00    -0.265 OA
ATOM     15  H   UNL A   1      40.851  36.259  28.298  1.00  0.00     0.164 HD
BRANCH  13  16
ATOM     16  C   UNL A   1      40.548  33.686  30.483  1.00  0.00     0.252 C 
ATOM     17  O   UNL A   1      41.489  33.988  31.216  1.00  0.00    -0.283 OA
BRANCH  16  18
ATOM     18  C   UNL A   1      39.915  32.349  30.550  1.00  0.00     0.054 A 
ATOM     19  N   UNL A   1      39.379  30.145  30.516  1.00  0.00    -0.240 N 
ATOM     20  C   UNL A   1      40.372  31.069  30.188  1.00  0.00     0.117 A 
ATOM     21  C   UNL A   1      38.350  30.830  31.181  1.00  0.00     0.065 A 
ATOM     22  C   UNL A   1      38.540  32.179  30.905  1.00  0.00     0.012 A 
ATOM     23  C   UNL A   1      37.155  30.362  31.768  1.00  0.00     0.028 A 
ATOM     24  C   UNL A   1      37.439  33.053  31.042  1.00  0.00     0.011 A 
ATOM     25  C   UNL A   1      36.070  31.231  31.844  1.00  0.00     0.002 A 
ATOM     26  C   UNL A   1      36.197  32.552  31.442  1.00  0.00     0.001 A 
BRANCH  19  27
ATOM     27  S   UNL A   1      38.776  28.793  29.605  1.00  0.00     0.268 S 
ATOM     28  O   UNL A   1      37.862  29.429  28.670  1.00  0.00    -0.201 OA
ATOM     29  O   UNL A   1      38.271  27.928  30.667  1.00  0.00    -0.201 OA
BRANCH  27  30
ATOM     30  C   UNL A   1      39.669  27.635  28.636  1.00  0.00     0.088 A 
ATOM     31  C   UNL A   1      41.620  25.525  25.402  1.00  0.00     0.044 C 
ATOM     32  C   UNL A   1      40.979  26.231  26.563  1.00  0.00    -0.051 A 
ATOM     33  C   UNL A   1      40.943  27.618  26.531  1.00  0.00     0.005 A 
ATOM     34  C   UNL A   1      40.380  25.560  27.654  1.00  0.00     0.005 A 
ATOM     35  C   UNL A   1      40.308  28.299  27.556  1.00  0.00     0.022 A 
ATOM     36  C   UNL A   1      39.715  26.254  28.698  1.00  0.00     0.022 A 
ENDBRANCH  27  30
ENDBRANCH  19  27
ENDBRANCH  16  18
ENDBRANCH  13  16
ENDBRANCH  11  12
BRANCH  11  37
ATOM     37  C   UNL A   1      42.984  35.131  26.986  1.00  0.00     0.072 C 
BRANCH  37  38
ATOM     38  C   UNL A   1      44.198  34.334  26.564  1.00  0.00    -0.020 A 
ATOM     39  C   UNL A   1      44.239  32.962  26.373  1.00  0.00     0.087 A 
ATOM     40  C   UNL A   1      45.540  34.806  26.341  1.00  0.00     0.003 A 
ATOM     41  N   UNL A   1      45.544  32.584  26.191  1.00  0.00    -0.361 N 
ATOM     42  C   UNL A   1      46.366  33.682  26.277  1.00  0.00     0.046 A 
ATOM     43  C   UNL A   1      46.150  36.078  26.329  1.00  0.00     0.010 A 
ATOM     44  H   UNL A   1      45.848  31.662  26.024  1.00  0.00     0.166 HD
ATOM     45  C   UNL A   1      47.763  33.761  26.342  1.00  0.00     0.026 A 
ATOM     46  C   UNL A   1      47.543  36.176  26.421  1.00  0.00     0.001 A 
ATOM     47  C   UNL A   1      48.334  35.031  26.455  1.00  0.00     0.002 A 
ENDBRANCH  37  38
ENDBRANCH  11  37
ENDBRANCH   8  11
ENDBRANCH   6   7
ENDBRANCH   3   6
ENDBRANCH   1   2
BRANCH   1  48
ATOM     48  C   UNL A   1      45.365  29.738  29.298  1.00  0.00     0.021 C 
BRANCH  48  49
ATOM     49  C   UNL A   1      43.999  29.558  28.636  1.00  0.00     0.002 C 
BRANCH  49  50
ATOM     50  C   UNL A   1      43.992  29.355  27.110  1.00  0.00     0.002 C 
BRANCH  50  51
ATOM     51  C   UNL A   1      45.046  28.408  26.531  1.00  0.00     0.021 C 
BRANCH  51  52
ATOM     52  C   UNL A   1      44.714  26.933  26.639  1.00  0.00     0.116 C 
BRANCH  52  53
ATOM     53  N   UNL A   1      45.831  26.015  26.494  1.00  0.00    -0.352 N 
ATOM     54  C   UNL A   1      46.806  26.029  27.498  1.00  0.00     0.251 C 
ATOM     55  H   UNL A   1      45.900  25.409  25.721  1.00  0.00     0.163 HD
ATOM     56  O   UNL A   1      47.851  26.632  27.443  1.00  0.00    -0.269 OA
BRANCH  54  57
ATOM     57  C   UNL A   1      46.307  25.447  28.770  1.00  0.00     0.039 A 
ATOM     58  C   UNL A   1      45.025  24.907  28.866  1.00  0.00     0.014 A 
ATOM     59  C   UNL A   1      47.052  25.745  29.912  1.00  0.00     0.014 A 
ATOM     60  C   UNL A   1      44.430  24.790  30.125  1.00  0.00     0.010 A 
ATOM     61  C   UNL A   1      46.425  25.726  31.138  1.00  0.00     0.010 A 
ATOM     62  C   UNL A   1      45.102  25.274  31.248  1.00  0.00    -0.014 A 
BRANCH  62  63
ATOM     63  C   UNL A   1      44.525  25.413  32.585  1.00  0.00     0.031 A 
ATOM     64  C   UNL A   1      44.050  26.739  33.051  1.00  0.00     0.074 A 
ATOM     65  C   UNL A   1      44.230  24.309  33.304  1.00  0.00     0.049 A 
ATOM     66  N   UNL A   1      43.654  26.999  34.251  1.00  0.00    -0.248 NA
ATOM     67  C   UNL A   1      44.005  27.905  32.174  1.00  0.00     0.031 C 
ATOM     68  C   UNL A   1      43.277  24.201  34.405  1.00  0.00     0.029 A 
ATOM     69  N   UNL A   1      44.897  23.081  33.306  1.00  0.00    -0.354 N 
ATOM     70  C   UNL A   1      43.084  28.253  34.255  1.00  0.00     0.074 A 
ATOM     71  C   UNL A   1      43.349  28.783  32.937  1.00  0.00     0.031 C 
ATOM     72  C   UNL A   1      43.575  23.117  35.136  1.00  0.00     0.029 A 
ATOM     73  C   UNL A   1      44.824  22.585  34.628  1.00  0.00     0.049 A 
ATOM     74  H   UNL A   1      45.334  22.648  32.537  1.00  0.00     0.167 HD
ATOM     75  C   UNL A   1      42.369  28.664  35.343  1.00  0.00     0.037 A 
ATOM     76  C   UNL A   1      45.964  22.429  35.370  1.00  0.00     0.037 A 
ATOM     77  C   UNL A   1      42.455  27.695  36.433  1.00  0.00     0.049 A 
ATOM     78  C   UNL A   1      46.059  23.333  36.584  1.00  0.00     0.074 A 
ATOM     79  C   UNL A   1      41.655  26.658  36.884  1.00  0.00     0.029 A 
ATOM     80  N   UNL A   1      43.670  27.545  37.074  1.00  0.00    -0.354 N 
ATOM     81  N   UNL A   1      45.142  24.191  36.943  1.00  0.00    -0.248 NA
ATOM     82  C   UNL A   1      47.235  23.388  37.456  1.00  0.00     0.031 C 
ATOM     83  C   UNL A   1      42.433  25.848  37.763  1.00  0.00     0.029 A 
ATOM     84  C   UNL A   1      43.699  26.402  37.848  1.00  0.00     0.049 A 
ATOM     85  H   UNL A   1      44.421  28.175  36.990  1.00  0.00     0.167 HD
ATOM     86  C   UNL A   1      45.613  24.949  37.981  1.00  0.00     0.074 A 
ATOM     87  C   UNL A   1      46.911  24.387  38.296  1.00  0.00     0.031 C 
ATOM     88  C   UNL A   1      44.948  26.027  38.484  1.00  0.00     0.037 A 
BRANCH  75  89
ATOM     89  C   UNL A   1      41.443  29.860  35.362  1.00  0.00     0.058 A 
ATOM     90  C   UNL A   1      40.357  29.939  34.462  1.00  0.00     0.135 A 
ATOM     91  C   UNL A   1      41.585  30.977  36.209  1.00  0.00     0.135 A 
ATOM     92  F   UNL A   1      40.045  28.919  33.649  1.00  0.00    -0.206 F 
ATOM     93  C   UNL A   1      39.548  31.070  34.342  1.00  0.00     0.059 A 
ATOM     94  C   UNL A   1      40.829  32.146  36.066  1.00  0.00     0.059 A 
ATOM     95  F   UNL A   1      42.424  30.959  37.252  1.00  0.00    -0.206 F 
ATOM     96  C   UNL A   1      39.814  32.187  35.122  1.00  0.00     0.060 A 
BRANCH  96  97
ATOM     97  S   UNL A   1      38.818  33.670  34.889  1.00  0.00     0.124 S 
ATOM     98  O   UNL A   1      39.464  34.297  33.738  1.00  0.00    -0.237 OA
ATOM     99  O   UNL A   1      37.493  33.111  34.646  1.00  0.00    -0.237 OA
ATOM    100  O   UNL A   1      38.974  34.388  36.150  1.00  0.00    -0.744 OA
ENDBRANCH  96  97
ENDBRANCH  75  89
BRANCH  76 101
ATOM    101  C   UNL A   1      47.106  21.962  34.531  1.00  0.00     0.058 A 
ATOM    102  C   UNL A   1      48.160  22.876  34.324  1.00  0.00     0.135 A 
ATOM    103  C   UNL A   1      47.394  20.598  34.403  1.00  0.00     0.135 A 
ATOM    104  F   UNL A   1      47.929  24.197  34.403  1.00  0.00    -0.206 F 
ATOM    105  C   UNL A   1      49.480  22.451  34.223  1.00  0.00     0.059 A 
ATOM    106  C   UNL A   1      48.710  20.150  34.276  1.00  0.00     0.059 A 
ATOM    107  F   UNL A   1      46.426  19.684  34.567  1.00  0.00    -0.206 F 
ATOM    108  C   UNL A   1      49.747  21.085  34.291  1.00  0.00     0.060 A 
BRANCH 108 109
ATOM    109  S   UNL A   1      51.457  20.567  34.581  1.00  0.00     0.124 S 
ATOM    110  O   UNL A   1      51.872  21.457  35.657  1.00  0.00    -0.237 OA
ATOM    111  O   UNL A   1      51.293  19.158  34.950  1.00  0.00    -0.237 OA
ATOM    112  O   UNL A   1      52.098  20.797  33.290  1.00  0.00    -0.744 OA
ENDBRANCH 108 109
ENDBRANCH  76 101
BRANCH  88 113
ATOM    113  C   UNL A   1      45.465  26.827  39.637  1.00  0.00     0.058 A 
ATOM    114  C   UNL A   1      44.882  26.732  40.909  1.00  0.00     0.135 A 
ATOM    115  C   UNL A   1      46.462  27.807  39.465  1.00  0.00     0.135 A 
ATOM    116  F   UNL A   1      43.912  25.836  41.148  1.00  0.00    -0.206 F 
ATOM    117  C   UNL A   1      45.273  27.560  41.960  1.00  0.00     0.059 A 
ATOM    118  C   UNL A   1      46.841  28.671  40.488  1.00  0.00     0.059 A 
ATOM    119  F   UNL A   1      47.110  27.935  38.295  1.00  0.00    -0.206 F 
ATOM    120  C   UNL A   1      46.249  28.531  41.738  1.00  0.00     0.060 A 
BRANCH 120 121
ATOM    121  S   UNL A   1      46.727  29.637  43.080  1.00  0.00     0.124 S 
ATOM    122  O   UNL A   1      45.714  30.687  43.011  1.00  0.00    -0.237 OA
ATOM    123  O   UNL A   1      46.634  28.748  44.234  1.00  0.00    -0.237 OA
ATOM    124  O   UNL A   1      48.075  30.051  42.709  1.00  0.00    -0.744 OA
ENDBRANCH 120 121
ENDBRANCH  88 113
ENDBRANCH  62  63
ENDBRANCH  54  57
ENDBRANCH  52  53
ENDBRANCH  51  52
ENDBRANCH  50  51
ENDBRANCH  49  50
ENDBRANCH  48  49
ENDBRANCH   1  48
TORSDOF 25
ENDMDL
MODEL 2
REMARK VINA RESULT:      -8.5      5.312     11.074
REMARK SMILES Cc1ccc(S(=O)(=O)n2cc(C(=O)C(=O)N[C@@H](Cc3c[nH]c4ccccc34)C(=O)NCC(=O)NCCCCCCNC(=O)c3ccc(-c4c5nc(c(-c6c(F)cc(S(=O)(=O)[O-])cc6F)c6ccc([nH]6)c(-c6c(F)cc(S(=O)(=O)[O-])cc6F)c6nc(c(-c7c(F)cc(S(=O)(=O)[O-])cc7F)c7ccc4[nH]7)C=C6)C=C5)cc3)c3ccccc32)cc1
REMARK SMILES IDX 35 1 34 2 32 3 33 4 31 6 30 7 28 8 29 9 17 11 16 12 14 13
REMARK SMILES IDX 15 14 12 16 13 17 11 18 9 19 10 20 115 21 110 22 114 23
REMARK SMILES IDX 111 24 113 25 112 26 6 27 7 28 8 29 5 30 1 31 2 32 3 33
REMARK SMILES IDX 117 34 4 35 116 36 18 37 19 38 20 39 27 40 21 41 22 42 26 43
REMARK SMILES IDX 23 45 25 46 24 47 36 48 37 49 38 50 39 51 40 52 41 53 42 54
REMARK SMILES IDX 43 56 44 57 45 58 109 59 46 60 108 61 47 62 48 63 49 64
REMARK SMILES IDX 102 65 50 66 107 67 101 68 103 69 51 70 106 71 100 72 99 73
REMARK SMILES IDX 52 75 86 76 65 77 85 78 66 79 69 80 84 81 104 82 67 83 68 84
REMARK SMILES IDX 83 86 105 87 70 88 53 89 54 90 63 91 55 92 56 93 62 94 64 95
REMARK SMILES IDX 57 96 58 97 59 98 60 99 61 100 87 101 88 102 97 103 89 104
REMARK SMILES IDX 90 105 96 106 98 107 91 108 92 109 93 110 94 111 95 112
REMARK SMILES IDX 71 113 72 114 81 115 73 116 74 117 80 118 82 119 75 120
REMARK SMILES IDX 76 121 77 122 78 123 79 124
REMARK H PARENT 34 5 30 10 16 15 21 44 41 55 103 74 69 85
REMARK Flexibility Score: inf
ROOT
ATOM      1  C   UNL A   1      39.859  27.757  30.642  1.00  0.00     0.116 C 
ENDROOT
BRANCH   1   2
ATOM      2  N   UNL A   1      41.198  28.270  30.832  1.00  0.00    -0.355 N 
ATOM      3  C   UNL A   1      41.803  28.572  32.018  1.00  0.00     0.239 C 
ATOM      4  O   UNL A   1      42.995  28.889  32.025  1.00  0.00    -0.273 OA
ATOM      5  H   UNL A   1      41.731  28.418  30.018  1.00  0.00     0.163 HD
BRANCH   3   6
ATOM      6  C   UNL A   1      41.035  28.329  33.316  1.00  0.00     0.216 C 
BRANCH   6   7
ATOM      7  N   UNL A   1      41.738  28.441  34.582  1.00  0.00    -0.345 N 
ATOM      8  C   UNL A   1      41.814  29.494  35.446  1.00  0.00     0.243 C 
ATOM      9  O   UNL A   1      42.014  29.206  36.634  1.00  0.00    -0.273 OA
ATOM     10  H   UNL A   1      42.232  27.635  34.858  1.00  0.00     0.164 HD
BRANCH   8  11
ATOM     11  C   UNL A   1      41.516  30.977  35.064  1.00  0.00     0.176 C 
BRANCH  11  12
ATOM     12  N   UNL A   1      40.651  31.773  35.964  1.00  0.00    -0.337 N 
ATOM     13  C   UNL A   1      39.313  32.145  35.850  1.00  0.00     0.293 C 
ATOM     14  O   UNL A   1      38.866  33.033  36.570  1.00  0.00    -0.265 OA
ATOM     15  H   UNL A   1      41.095  32.092  36.782  1.00  0.00     0.164 HD
BRANCH  13  16
ATOM     16  C   UNL A   1      38.366  31.410  34.891  1.00  0.00     0.252 C 
ATOM     17  O   UNL A   1      38.198  30.217  35.137  1.00  0.00    -0.283 OA
BRANCH  16  18
ATOM     18  C   UNL A   1      37.783  32.040  33.685  1.00  0.00     0.054 A 
ATOM     19  N   UNL A   1      36.510  33.077  32.120  1.00  0.00    -0.240 N 
ATOM     20  C   UNL A   1      36.498  32.540  33.408  1.00  0.00     0.117 A 
ATOM     21  C   UNL A   1      37.825  33.014  31.635  1.00  0.00     0.065 A 
ATOM     22  C   UNL A   1      38.496  32.107  32.446  1.00  0.00     0.012 A 
ATOM     23  C   UNL A   1      38.388  33.470  30.423  1.00  0.00     0.028 A 
ATOM     24  C   UNL A   1      39.667  31.497  31.945  1.00  0.00     0.011 A 
ATOM     25  C   UNL A   1      39.513  32.818  29.928  1.00  0.00     0.002 A 
ATOM     26  C   UNL A   1      40.120  31.809  30.661  1.00  0.00     0.001 A 
BRANCH  19  27
ATOM     27  S   UNL A   1      35.339  32.929  30.845  1.00  0.00     0.268 S 
ATOM     28  O   UNL A   1      35.416  34.229  30.197  1.00  0.00    -0.201 OA
ATOM     29  O   UNL A   1      34.145  32.538  31.588  1.00  0.00    -0.201 OA
BRANCH  27  30
ATOM     30  C   UNL A   1      35.293  31.776  29.523  1.00  0.00     0.088 A 
ATOM     31  C   UNL A   1      34.047  29.142  26.325  1.00  0.00     0.044 C 
ATOM     32  C   UNL A   1      34.533  30.060  27.410  1.00  0.00    -0.051 A 
ATOM     33  C   UNL A   1      33.814  31.226  27.635  1.00  0.00     0.005 A 
ATOM     34  C   UNL A   1      35.648  29.780  28.232  1.00  0.00     0.005 A 
ATOM     35  C   UNL A   1      34.199  32.067  28.665  1.00  0.00     0.022 A 
ATOM     36  C   UNL A   1      36.036  30.632  29.300  1.00  0.00     0.022 A 
ENDBRANCH  27  30
ENDBRANCH  19  27
ENDBRANCH  16  18
ENDBRANCH  13  16
ENDBRANCH  11  12
BRANCH  11  37
ATOM     37  C   UNL A   1      42.811  31.744  34.634  1.00  0.00     0.072 C 
BRANCH  37  38
ATOM     38  C   UNL A   1      42.660  32.894  33.664  1.00  0.00    -0.020 A 
ATOM     39  C   UNL A   1      41.784  33.959  33.801  1.00  0.00     0.087 A 
ATOM     40  C   UNL A   1      43.326  33.088  32.402  1.00  0.00     0.003 A 
ATOM     41  N   UNL A   1      41.793  34.687  32.639  1.00  0.00    -0.361 N 
ATOM     42  C   UNL A   1      42.647  34.108  31.731  1.00  0.00     0.046 A 
ATOM     43  C   UNL A   1      44.346  32.404  31.708  1.00  0.00     0.010 A 
ATOM     44  H   UNL A   1      41.266  35.503  32.478  1.00  0.00     0.166 HD
ATOM     45  C   UNL A   1      42.839  34.383  30.371  1.00  0.00     0.026 A 
ATOM     46  C   UNL A   1      44.534  32.646  30.342  1.00  0.00     0.001 A 
ATOM     47  C   UNL A   1      43.770  33.602  29.680  1.00  0.00     0.002 A 
ENDBRANCH  37  38
ENDBRANCH  11  37
ENDBRANCH   8  11
ENDBRANCH   6   7
ENDBRANCH   3   6
ENDBRANCH   1   2
BRANCH   1  48
ATOM     48  C   UNL A   1      39.029  28.640  29.728  1.00  0.00     0.021 C 
BRANCH  48  49
ATOM     49  C   UNL A   1      38.968  28.171  28.274  1.00  0.00     0.002 C 
BRANCH  49  50
ATOM     50  C   UNL A   1      40.050  28.720  27.326  1.00  0.00     0.002 C 
BRANCH  50  51
ATOM     51  C   UNL A   1      40.930  27.694  26.609  1.00  0.00     0.021 C 
BRANCH  51  52
ATOM     52  C   UNL A   1      42.173  27.272  27.367  1.00  0.00     0.116 C 
BRANCH  52  53
ATOM     53  N   UNL A   1      43.204  26.611  26.584  1.00  0.00    -0.352 N 
ATOM     54  C   UNL A   1      44.035  27.423  25.803  1.00  0.00     0.251 C 
ATOM     55  H   UNL A   1      43.313  25.633  26.602  1.00  0.00     0.163 HD
ATOM     56  O   UNL A   1      43.884  27.641  24.625  1.00  0.00    -0.269 OA
BRANCH  54  57
ATOM     57  C   UNL A   1      44.974  28.221  26.631  1.00  0.00     0.039 A 
ATOM     58  C   UNL A   1      44.541  28.894  27.773  1.00  0.00     0.014 A 
ATOM     59  C   UNL A   1      46.208  28.510  26.047  1.00  0.00     0.014 A 
ATOM     60  C   UNL A   1      45.298  29.964  28.259  1.00  0.00     0.010 A 
ATOM     61  C   UNL A   1      46.894  29.630  26.464  1.00  0.00     0.010 A 
ATOM     62  C   UNL A   1      46.430  30.378  27.555  1.00  0.00    -0.014 A 
BRANCH  62  63
ATOM     63  C   UNL A   1      47.190  31.599  27.817  1.00  0.00     0.031 A 
ATOM     64  C   UNL A   1      46.784  32.875  27.178  1.00  0.00     0.074 A 
ATOM     65  C   UNL A   1      48.118  31.611  28.799  1.00  0.00     0.049 A 
ATOM     66  N   UNL A   1      47.460  33.973  27.232  1.00  0.00    -0.248 NA
ATOM     67  C   UNL A   1      45.560  33.000  26.393  1.00  0.00     0.031 C 
ATOM     68  C   UNL A   1      48.639  32.777  29.507  1.00  0.00     0.029 A 
ATOM     69  N   UNL A   1      48.934  30.559  29.222  1.00  0.00    -0.354 N 
ATOM     70  C   UNL A   1      46.677  34.986  26.723  1.00  0.00     0.074 A 
ATOM     71  C   UNL A   1      45.509  34.320  26.193  1.00  0.00     0.031 C 
ATOM     72  C   UNL A   1      49.818  32.460  30.062  1.00  0.00     0.029 A 
ATOM     73  C   UNL A   1      50.171  31.134  29.594  1.00  0.00     0.049 A 
ATOM     74  H   UNL A   1      48.695  29.605  29.253  1.00  0.00     0.167 HD
ATOM     75  C   UNL A   1      47.063  36.285  26.892  1.00  0.00     0.037 A 
ATOM     76  C   UNL A   1      51.310  30.831  28.897  1.00  0.00     0.037 A 
ATOM     77  C   UNL A   1      48.388  36.370  27.501  1.00  0.00     0.049 A 
ATOM     78  C   UNL A   1      51.924  31.998  28.147  1.00  0.00     0.074 A 
ATOM     79  C   UNL A   1      48.861  36.552  28.791  1.00  0.00     0.029 A 
ATOM     80  N   UNL A   1      49.475  35.966  26.751  1.00  0.00    -0.354 N 
ATOM     81  N   UNL A   1      51.450  33.215  28.154  1.00  0.00    -0.248 NA
ATOM     82  C   UNL A   1      53.089  31.866  27.269  1.00  0.00     0.031 C 
ATOM     83  C   UNL A   1      50.240  36.191  28.812  1.00  0.00     0.029 A 
ATOM     84  C   UNL A   1      50.600  35.800  27.535  1.00  0.00     0.049 A 
ATOM     85  H   UNL A   1      49.451  35.815  25.779  1.00  0.00     0.167 HD
ATOM     86  C   UNL A   1      52.144  33.976  27.252  1.00  0.00     0.074 A 
ATOM     87  C   UNL A   1      53.186  33.103  26.750  1.00  0.00     0.031 C 
ATOM     88  C   UNL A   1      51.796  35.251  26.923  1.00  0.00     0.037 A 
BRANCH  75  89
ATOM     89  C   UNL A   1      46.168  37.484  26.671  1.00  0.00     0.058 A 
ATOM     90  C   UNL A   1      46.527  38.483  25.738  1.00  0.00     0.135 A 
ATOM     91  C   UNL A   1      44.967  37.734  27.364  1.00  0.00     0.135 A 
ATOM     92  F   UNL A   1      47.599  38.348  24.945  1.00  0.00    -0.206 F 
ATOM     93  C   UNL A   1      45.813  39.672  25.583  1.00  0.00     0.059 A 
ATOM     94  C   UNL A   1      44.270  38.943  27.274  1.00  0.00     0.059 A 
ATOM     95  F   UNL A   1      44.387  36.789  28.115  1.00  0.00    -0.206 F 
ATOM     96  C   UNL A   1      44.705  39.913  26.383  1.00  0.00     0.060 A 
BRANCH  96  97
ATOM     97  S   UNL A   1      43.850  41.492  26.235  1.00  0.00     0.124 S 
ATOM     98  O   UNL A   1      44.108  41.853  24.844  1.00  0.00    -0.237 OA
ATOM     99  O   UNL A   1      42.474  41.123  26.550  1.00  0.00    -0.237 OA
ATOM    100  O   UNL A   1      44.514  42.334  27.225  1.00  0.00    -0.744 OA
ENDBRANCH  96  97
ENDBRANCH  75  89
BRANCH  76 101
ATOM    101  C   UNL A   1      51.327  29.403  28.466  1.00  0.00     0.058 A 
ATOM    102  C   UNL A   1      51.573  28.438  29.464  1.00  0.00     0.135 A 
ATOM    103  C   UNL A   1      50.640  28.990  27.318  1.00  0.00     0.135 A 
ATOM    104  F   UNL A   1      52.257  28.775  30.570  1.00  0.00    -0.206 F 
ATOM    105  C   UNL A   1      50.968  27.187  29.430  1.00  0.00     0.059 A 
ATOM    106  C   UNL A   1      50.045  27.729  27.252  1.00  0.00     0.059 A 
ATOM    107  F   UNL A   1      50.397  29.858  26.325  1.00  0.00    -0.206 F 
ATOM    108  C   UNL A   1      50.133  26.880  28.357  1.00  0.00     0.060 A 
BRANCH 108 109
ATOM    109  S   UNL A   1      49.033  25.451  28.517  1.00  0.00     0.124 S 
ATOM    110  O   UNL A   1      49.804  24.395  27.873  1.00  0.00    -0.237 OA
ATOM    111  O   UNL A   1      48.889  25.336  29.971  1.00  0.00    -0.237 OA
ATOM    112  O   UNL A   1      47.830  25.875  27.809  1.00  0.00    -0.744 OA
ENDBRANCH 108 109
ENDBRANCH  76 101
BRANCH  88 113
ATOM    113  C   UNL A   1      52.584  36.077  25.957  1.00  0.00     0.058 A 
ATOM    114  C   UNL A   1      52.331  36.025  24.578  1.00  0.00     0.135 A 
ATOM    115  C   UNL A   1      53.699  36.832  26.371  1.00  0.00     0.135 A 
ATOM    116  F   UNL A   1      51.297  35.312  24.102  1.00  0.00    -0.206 F 
ATOM    117  C   UNL A   1      53.135  36.694  23.656  1.00  0.00     0.059 A 
ATOM    118  C   UNL A   1      54.540  37.474  25.467  1.00  0.00     0.059 A 
ATOM    119  F   UNL A   1      53.988  36.978  27.674  1.00  0.00    -0.206 F 
ATOM    120  C   UNL A   1      54.241  37.411  24.111  1.00  0.00     0.060 A 
BRANCH 120 121
ATOM    121  S   UNL A   1      55.315  38.240  22.922  1.00  0.00     0.124 S 
ATOM    122  O   UNL A   1      55.656  37.169  21.990  1.00  0.00    -0.237 OA
ATOM    123  O   UNL A   1      54.423  39.270  22.397  1.00  0.00    -0.237 OA
ATOM    124  O   UNL A   1      56.419  38.721  23.745  1.00  0.00    -0.744 OA
ENDBRANCH 120 121
ENDBRANCH  88 113
ENDBRANCH  62  63
ENDBRANCH  54  57
ENDBRANCH  52  53
ENDBRANCH  51  52
ENDBRANCH  50  51
ENDBRANCH  49  50
ENDBRANCH  48  49
ENDBRANCH   1  48
TORSDOF 25
ENDMDL
MODEL 3
REMARK VINA RESULT:      -8.5      4.740      9.989
REMARK SMILES Cc1ccc(S(=O)(=O)n2cc(C(=O)C(=O)N[C@@H](Cc3c[nH]c4ccccc34)C(=O)NCC(=O)NCCCCCCNC(=O)c3ccc(-c4c5nc(c(-c6c(F)cc(S(=O)(=O)[O-])cc6F)c6ccc([nH]6)c(-c6c(F)cc(S(=O)(=O)[O-])cc6F)c6nc(c(-c7c(F)cc(S(=O)(=O)[O-])cc7F)c7ccc4[nH]7)C=C6)C=C5)cc3)c3ccccc32)cc1
REMARK SMILES IDX 35 1 34 2 32 3 33 4 31 6 30 7 28 8 29 9 17 11 16 12 14 13
REMARK SMILES IDX 15 14 12 16 13 17 11 18 9 19 10 20 115 21 110 22 114 23
REMARK SMILES IDX 111 24 113 25 112 26 6 27 7 28 8 29 5 30 1 31 2 32 3 33
REMARK SMILES IDX 117 34 4 35 116 36 18 37 19 38 20 39 27 40 21 41 22 42 26 43
REMARK SMILES IDX 23 45 25 46 24 47 36 48 37 49 38 50 39 51 40 52 41 53 42 54
REMARK SMILES IDX 43 56 44 57 45 58 109 59 46 60 108 61 47 62 48 63 49 64
REMARK SMILES IDX 102 65 50 66 107 67 101 68 103 69 51 70 106 71 100 72 99 73
REMARK SMILES IDX 52 75 86 76 65 77 85 78 66 79 69 80 84 81 104 82 67 83 68 84
REMARK SMILES IDX 83 86 105 87 70 88 53 89 54 90 63 91 55 92 56 93 62 94 64 95
REMARK SMILES IDX 57 96 58 97 59 98 60 99 61 100 87 101 88 102 97 103 89 104
REMARK SMILES IDX 90 105 96 106 98 107 91 108 92 109 93 110 94 111 95 112
REMARK SMILES IDX 71 113 72 114 81 115 73 116 74 117 80 118 82 119 75 120
REMARK SMILES IDX 76 121 77 122 78 123 79 124
REMARK H PARENT 34 5 30 10 16 15 21 44 41 55 103 74 69 85
REMARK Flexibility Score: inf
ROOT
ATOM      1  C   UNL A   1      40.025  28.016  28.787  1.00  0.00     0.116 C 
ENDROOT
BRANCH   1   2
ATOM      2  N   UNL A   1      40.887  27.459  27.767  1.00  0.00    -0.355 N 
ATOM      3  C   UNL A   1      42.174  27.821  27.491  1.00  0.00     0.239 C 
ATOM      4  O   UNL A   1      42.821  27.170  26.667  1.00  0.00    -0.273 OA
ATOM      5  H   UNL A   1      40.505  26.742  27.213  1.00  0.00     0.163 HD
BRANCH   3   6
ATOM      6  C   UNL A   1      42.832  28.904  28.344  1.00  0.00     0.216 C 
BRANCH   6   7
ATOM      7  N   UNL A   1      43.202  30.164  27.723  1.00  0.00    -0.345 N 
ATOM      8  C   UNL A   1      44.208  30.440  26.845  1.00  0.00     0.243 C 
ATOM      9  O   UNL A   1      44.019  31.403  26.089  1.00  0.00    -0.273 OA
ATOM     10  H   UNL A   1      42.641  30.933  27.973  1.00  0.00     0.164 HD
BRANCH   8  11
ATOM     11  C   UNL A   1      45.471  29.547  26.635  1.00  0.00     0.176 C 
BRANCH  11  12
ATOM     12  N   UNL A   1      45.385  28.427  25.671  1.00  0.00    -0.337 N 
ATOM     13  C   UNL A   1      46.232  27.341  25.455  1.00  0.00     0.293 C 
ATOM     14  O   UNL A   1      46.124  26.681  24.426  1.00  0.00    -0.265 OA
ATOM     15  H   UNL A   1      44.597  28.453  25.082  1.00  0.00     0.164 HD
BRANCH  13  16
ATOM     16  C   UNL A   1      47.249  26.908  26.519  1.00  0.00     0.252 C 
ATOM     17  O   UNL A   1      48.413  26.829  26.126  1.00  0.00    -0.283 OA
BRANCH  16  18
ATOM     18  C   UNL A   1      46.866  26.495  27.888  1.00  0.00     0.054 A 
ATOM     19  N   UNL A   1      45.907  25.656  29.765  1.00  0.00    -0.240 N 
ATOM     20  C   UNL A   1      45.723  25.852  28.396  1.00  0.00     0.117 A 
ATOM     21  C   UNL A   1      47.207  26.073  30.093  1.00  0.00     0.065 A 
ATOM     22  C   UNL A   1      47.640  26.863  29.034  1.00  0.00     0.012 A 
ATOM     23  C   UNL A   1      47.910  26.037  31.316  1.00  0.00     0.028 A 
ATOM     24  C   UNL A   1      48.689  27.779  29.266  1.00  0.00     0.011 A 
ATOM     25  C   UNL A   1      48.905  26.983  31.537  1.00  0.00     0.002 A 
ATOM     26  C   UNL A   1      49.260  27.878  30.538  1.00  0.00     0.001 A 
BRANCH  19  27
ATOM     27  S   UNL A   1      44.797  25.893  31.080  1.00  0.00     0.268 S 
ATOM     28  O   UNL A   1      44.890  24.633  31.799  1.00  0.00    -0.201 OA
ATOM     29  O   UNL A   1      43.574  26.255  30.368  1.00  0.00    -0.201 OA
BRANCH  27  30
ATOM     30  C   UNL A   1      44.822  27.123  32.332  1.00  0.00     0.088 A 
ATOM     31  C   UNL A   1      45.591  30.679  34.672  1.00  0.00     0.044 C 
ATOM     32  C   UNL A   1      45.273  29.437  33.889  1.00  0.00    -0.051 A 
ATOM     33  C   UNL A   1      45.251  29.539  32.505  1.00  0.00     0.005 A 
ATOM     34  C   UNL A   1      45.039  28.175  34.482  1.00  0.00     0.005 A 
ATOM     35  C   UNL A   1      45.019  28.402  31.749  1.00  0.00     0.022 A 
ATOM     36  C   UNL A   1      44.817  27.004  33.710  1.00  0.00     0.022 A 
ENDBRANCH  27  30
ENDBRANCH  19  27
ENDBRANCH  16  18
ENDBRANCH  13  16
ENDBRANCH  11  12
BRANCH  11  37
ATOM     37  C   UNL A   1      46.771  30.401  26.459  1.00  0.00     0.072 C 
BRANCH  37  38
ATOM     38  C   UNL A   1      46.894  31.673  27.267  1.00  0.00    -0.020 A 
ATOM     39  C   UNL A   1      46.869  32.961  26.756  1.00  0.00     0.087 A 
ATOM     40  C   UNL A   1      47.119  31.811  28.682  1.00  0.00     0.003 A 
ATOM     41  N   UNL A   1      47.205  33.836  27.757  1.00  0.00    -0.361 N 
ATOM     42  C   UNL A   1      47.468  33.143  28.914  1.00  0.00     0.046 A 
ATOM     43  C   UNL A   1      47.199  30.908  29.762  1.00  0.00     0.010 A 
ATOM     44  H   UNL A   1      47.252  34.815  27.661  1.00  0.00     0.166 HD
ATOM     45  C   UNL A   1      48.020  33.585  30.124  1.00  0.00     0.026 A 
ATOM     46  C   UNL A   1      47.772  31.324  30.969  1.00  0.00     0.001 A 
ATOM     47  C   UNL A   1      48.202  32.637  31.135  1.00  0.00     0.002 A 
ENDBRANCH  37  38
ENDBRANCH  11  37
ENDBRANCH   8  11
ENDBRANCH   6   7
ENDBRANCH   3   6
ENDBRANCH   1   2
BRANCH   1  48
ATOM     48  C   UNL A   1      38.619  28.270  28.276  1.00  0.00     0.021 C 
BRANCH  48  49
ATOM     49  C   UNL A   1      37.986  29.569  28.774  1.00  0.00     0.002 C 
BRANCH  49  50
ATOM     50  C   UNL A   1      36.466  29.717  28.577  1.00  0.00     0.002 C 
BRANCH  50  51
ATOM     51  C   UNL A   1      35.994  30.810  27.616  1.00  0.00     0.021 C 
BRANCH  51  52
ATOM     52  C   UNL A   1      34.771  31.582  28.070  1.00  0.00     0.116 C 
BRANCH  52  53
ATOM     53  N   UNL A   1      34.997  32.964  28.460  1.00  0.00    -0.352 N 
ATOM     54  C   UNL A   1      34.912  33.266  29.824  1.00  0.00     0.251 C 
ATOM     55  H   UNL A   1      35.202  33.658  27.793  1.00  0.00     0.163 HD
ATOM     56  O   UNL A   1      33.937  33.720  30.375  1.00  0.00    -0.269 OA
BRANCH  54  57
ATOM     57  C   UNL A   1      36.055  32.711  30.593  1.00  0.00     0.039 A 
ATOM     58  C   UNL A   1      35.887  31.640  31.470  1.00  0.00     0.014 A 
ATOM     59  C   UNL A   1      37.207  33.498  30.625  1.00  0.00     0.014 A 
ATOM     60  C   UNL A   1      36.829  31.439  32.483  1.00  0.00     0.010 A 
ATOM     61  C   UNL A   1      38.075  33.361  31.687  1.00  0.00     0.010 A 
ATOM     62  C   UNL A   1      37.876  32.348  32.636  1.00  0.00    -0.014 A 
BRANCH  62  63
ATOM     63  C   UNL A   1      38.804  32.389  33.765  1.00  0.00     0.031 A 
ATOM     64  C   UNL A   1      38.342  32.887  35.085  1.00  0.00     0.074 A 
ATOM     65  C   UNL A   1      40.005  31.778  33.666  1.00  0.00     0.049 A 
ATOM     66  N   UNL A   1      39.107  33.092  36.103  1.00  0.00    -0.248 NA
ATOM     67  C   UNL A   1      36.946  33.217  35.349  1.00  0.00     0.031 C 
ATOM     68  C   UNL A   1      40.854  31.317  34.762  1.00  0.00     0.029 A 
ATOM     69  N   UNL A   1      40.801  31.628  32.528  1.00  0.00    -0.354 N 
ATOM     70  C   UNL A   1      38.310  33.333  37.200  1.00  0.00     0.074 A 
ATOM     71  C   UNL A   1      36.969  33.421  36.668  1.00  0.00     0.031 C 
ATOM     72  C   UNL A   1      42.110  31.184  34.314  1.00  0.00     0.029 A 
ATOM     73  C   UNL A   1      42.144  31.709  32.963  1.00  0.00     0.049 A 
ATOM     74  H   UNL A   1      40.487  31.493  31.605  1.00  0.00     0.167 HD
ATOM     75  C   UNL A   1      38.864  33.338  38.447  1.00  0.00     0.037 A 
ATOM     76  C   UNL A   1      42.942  32.740  32.547  1.00  0.00     0.037 A 
ATOM     77  C   UNL A   1      40.318  33.213  38.384  1.00  0.00     0.049 A 
ATOM     78  C   UNL A   1      43.385  33.683  33.650  1.00  0.00     0.074 A 
ATOM     79  C   UNL A   1      41.215  32.163  38.499  1.00  0.00     0.029 A 
ATOM     80  N   UNL A   1      41.039  34.275  37.873  1.00  0.00    -0.354 N 
ATOM     81  N   UNL A   1      43.072  33.549  34.910  1.00  0.00    -0.248 NA
ATOM     82  C   UNL A   1      44.165  34.899  33.404  1.00  0.00     0.031 C 
ATOM     83  C   UNL A   1      42.474  32.598  37.992  1.00  0.00     0.029 A 
ATOM     84  C   UNL A   1      42.339  33.912  37.579  1.00  0.00     0.049 A 
ATOM     85  H   UNL A   1      40.673  35.178  37.736  1.00  0.00     0.167 HD
ATOM     86  C   UNL A   1      43.497  34.651  35.603  1.00  0.00     0.074 A 
ATOM     87  C   UNL A   1      44.210  35.452  34.628  1.00  0.00     0.031 C 
ATOM     88  C   UNL A   1      43.193  34.877  36.911  1.00  0.00     0.037 A 
BRANCH  75  89
ATOM     89  C   UNL A   1      38.078  33.276  39.738  1.00  0.00     0.058 A 
ATOM     90  C   UNL A   1      37.195  32.200  39.988  1.00  0.00     0.135 A 
ATOM     91  C   UNL A   1      38.114  34.253  40.753  1.00  0.00     0.135 A 
ATOM     92  F   UNL A   1      37.112  31.154  39.154  1.00  0.00    -0.206 F 
ATOM     93  C   UNL A   1      36.349  32.152  41.097  1.00  0.00     0.059 A 
ATOM     94  C   UNL A   1      37.231  34.260  41.838  1.00  0.00     0.059 A 
ATOM     95  F   UNL A   1      39.048  35.211  40.765  1.00  0.00    -0.206 F 
ATOM     96  C   UNL A   1      36.344  33.206  42.000  1.00  0.00     0.060 A 
BRANCH  96  97
ATOM     97  S   UNL A   1      35.179  33.171  43.374  1.00  0.00     0.124 S 
ATOM     98  O   UNL A   1      34.015  32.524  42.774  1.00  0.00    -0.237 OA
ATOM     99  O   UNL A   1      35.902  32.383  44.365  1.00  0.00    -0.237 OA
ATOM    100  O   UNL A   1      34.999  34.582  43.705  1.00  0.00    -0.744 OA
ENDBRANCH  96  97
ENDBRANCH  75  89
BRANCH  76 101
ATOM    101  C   UNL A   1      42.663  33.116  31.130  1.00  0.00     0.058 A 
ATOM    102  C   UNL A   1      41.867  34.261  30.919  1.00  0.00     0.135 A 
ATOM    103  C   UNL A   1      43.524  32.723  30.099  1.00  0.00     0.135 A 
ATOM    104  F   UNL A   1      41.000  34.660  31.864  1.00  0.00    -0.206 F 
ATOM    105  C   UNL A   1      42.083  35.105  29.836  1.00  0.00     0.059 A 
ATOM    106  C   UNL A   1      43.738  33.544  28.990  1.00  0.00     0.059 A 
ATOM    107  F   UNL A   1      44.288  31.629  30.234  1.00  0.00    -0.206 F 
ATOM    108  C   UNL A   1      43.086  34.778  28.926  1.00  0.00     0.060 A 
BRANCH 108 109
ATOM    109  S   UNL A   1      43.645  36.061  27.778  1.00  0.00     0.124 S 
ATOM    110  O   UNL A   1      45.095  35.939  27.859  1.00  0.00    -0.237 OA
ATOM    111  O   UNL A   1      43.041  35.626  26.515  1.00  0.00    -0.237 OA
ATOM    112  O   UNL A   1      43.082  37.282  28.344  1.00  0.00    -0.744 OA
ENDBRANCH 108 109
ENDBRANCH  76 101
BRANCH  88 113
ATOM    113  C   UNL A   1      43.691  36.073  37.659  1.00  0.00     0.058 A 
ATOM    114  C   UNL A   1      44.986  36.110  38.196  1.00  0.00     0.135 A 
ATOM    115  C   UNL A   1      42.840  37.150  37.975  1.00  0.00     0.135 A 
ATOM    116  F   UNL A   1      45.850  35.111  37.956  1.00  0.00    -0.206 F 
ATOM    117  C   UNL A   1      45.419  37.164  38.999  1.00  0.00     0.059 A 
ATOM    118  C   UNL A   1      43.237  38.193  38.806  1.00  0.00     0.059 A 
ATOM    119  F   UNL A   1      41.600  37.223  37.464  1.00  0.00    -0.206 F 
ATOM    120  C   UNL A   1      44.535  38.198  39.303  1.00  0.00     0.060 A 
BRANCH 120 121
ATOM    121  S   UNL A   1      45.073  39.542  40.378  1.00  0.00     0.124 S 
ATOM    122  O   UNL A   1      45.988  38.874  41.299  1.00  0.00    -0.237 OA
ATOM    123  O   UNL A   1      45.697  40.448  39.418  1.00  0.00    -0.237 OA
ATOM    124  O   UNL A   1      43.828  40.014  40.974  1.00  0.00    -0.744 OA
ENDBRANCH 120 121
ENDBRANCH  88 113
ENDBRANCH  62  63
ENDBRANCH  54  57
ENDBRANCH  52  53
ENDBRANCH  51  52
ENDBRANCH  50  51
ENDBRANCH  49  50
ENDBRANCH  48  49
ENDBRANCH   1  48
TORSDOF 25
ENDMDL
