MODEL 1
REMARK VINA RESULT:     -11.9      0.000      0.000
REMARK SMILES O=C(NCCCCCCNC(=O)[C@H]1CSCN1C(=O)c1cnc2ccccn2c1=O)c1ccc(-c2c3nc(c(-c4c(F)cc(S(=O)(=O)[O-])cc4F)c4ccc([nH]4)c(-c4c(F)cc(S(=O)(=O)[O-])cc4F)c4nc(c(-c5c(F)cc(S(=O)(=O)[O-])cc5F)c5ccc2[nH]5)C=C4)C=C3)cc1
REMARK SMILES IDX 6 1 5 2 4 3 3 4 1 5 2 6 31 8 32 9 96 10 33 11 95 12 34 13
REMARK SMILES IDX 35 14 36 15 89 16 37 17 94 18 88 19 90 20 38 21 93 22 87 23
REMARK SMILES IDX 86 24 39 26 73 27 52 28 72 29 53 30 56 31 71 32 91 33 54 34
REMARK SMILES IDX 55 35 70 37 92 38 57 39 40 40 41 41 50 42 42 43 43 44 49 45
REMARK SMILES IDX 51 46 44 47 45 48 46 49 47 50 48 51 74 52 75 53 84 54 76 55
REMARK SMILES IDX 77 56 83 57 85 58 78 59 79 60 80 61 81 62 82 63 58 64 59 65
REMARK SMILES IDX 68 66 60 67 61 68 67 69 69 70 62 71 63 72 64 73 65 74 66 75
REMARK SMILES IDX 7 76 8 77 9 78 10 79 11 80 12 82 13 83 14 84 17 85 15 86
REMARK SMILES IDX 16 87 18 88 19 89 20 90 21 91 29 92 22 93 28 94 30 95 23 96
REMARK SMILES IDX 27 97 24 98 26 99 25 100
REMARK H PARENT 3 7 90 25 56 36 10 81
REMARK Flexibility Score: inf
ROOT
ATOM      1  C   UNL A   1      41.235  21.658  26.934  1.00  0.00     0.002 C 
ENDROOT
BRANCH   1   2
ATOM      2  C   UNL A   1      42.023  22.394  28.019  1.00  0.00     0.021 C 
BRANCH   2   3
ATOM      3  C   UNL A   1      43.151  23.276  27.499  1.00  0.00     0.116 C 
BRANCH   3   4
ATOM      4  N   UNL A   1      42.785  23.975  26.278  1.00  0.00    -0.352 N 
ATOM      5  O   UNL A   1      41.742  25.528  25.020  1.00  0.00    -0.269 OA
ATOM      6  C   UNL A   1      42.137  25.177  26.130  1.00  0.00     0.251 C 
ATOM      7  H   UNL A   1      43.037  23.524  25.440  1.00  0.00     0.163 HD
BRANCH   6   8
ATOM      8  C   UNL A   1      41.899  26.037  27.310  1.00  0.00     0.039 A 
ATOM      9  C   UNL A   1      40.804  25.808  28.147  1.00  0.00     0.014 A 
ATOM     10  C   UNL A   1      42.792  27.075  27.590  1.00  0.00     0.014 A 
ATOM     11  C   UNL A   1      40.534  26.690  29.188  1.00  0.00     0.010 A 
ATOM     12  C   UNL A   1      42.562  27.913  28.685  1.00  0.00     0.010 A 
ATOM     13  C   UNL A   1      41.418  27.742  29.480  1.00  0.00    -0.014 A 
BRANCH  13  14
ATOM     14  C   UNL A   1      41.164  28.600  30.665  1.00  0.00     0.031 A 
ATOM     15  C   UNL A   1      42.011  28.494  31.903  1.00  0.00     0.074 A 
ATOM     16  C   UNL A   1      40.165  29.502  30.601  1.00  0.00     0.049 A 
ATOM     17  N   UNL A   1      41.929  29.178  33.015  1.00  0.00    -0.248 NA
ATOM     18  C   UNL A   1      43.086  27.490  31.895  1.00  0.00     0.031 C 
ATOM     19  C   UNL A   1      39.269  29.686  29.455  1.00  0.00     0.029 A 
ATOM     20  N   UNL A   1      39.741  30.442  31.505  1.00  0.00    -0.354 N 
ATOM     21  C   UNL A   1      42.927  28.681  33.845  1.00  0.00     0.074 A 
ATOM     22  C   UNL A   1      43.588  27.620  33.116  1.00  0.00     0.031 C 
ATOM     23  C   UNL A   1      38.434  30.704  29.707  1.00  0.00     0.029 A 
ATOM     24  C   UNL A   1      38.692  31.207  31.052  1.00  0.00     0.049 A 
ATOM     25  H   UNL A   1      40.149  30.559  32.393  1.00  0.00     0.167 HD
ATOM     26  C   UNL A   1      43.263  29.082  35.095  1.00  0.00     0.037 A 
ATOM     27  C   UNL A   1      38.002  32.192  31.654  1.00  0.00     0.037 A 
ATOM     28  C   UNL A   1      42.604  30.147  35.809  1.00  0.00     0.049 A 
ATOM     29  C   UNL A   1      38.380  32.599  33.048  1.00  0.00     0.074 A 
ATOM     30  C   UNL A   1      42.888  30.645  37.069  1.00  0.00     0.029 A 
ATOM     31  N   UNL A   1      41.527  30.879  35.328  1.00  0.00    -0.354 N 
ATOM     32  N   UNL A   1      39.343  32.133  33.808  1.00  0.00    -0.248 NA
ATOM     33  C   UNL A   1      37.578  33.660  33.669  1.00  0.00     0.031 C 
ATOM     34  C   UNL A   1      41.959  31.648  37.367  1.00  0.00     0.029 A 
ATOM     35  C   UNL A   1      41.123  31.809  36.272  1.00  0.00     0.049 A 
ATOM     36  H   UNL A   1      41.111  30.755  34.444  1.00  0.00     0.167 HD
ATOM     37  C   UNL A   1      39.271  32.854  34.993  1.00  0.00     0.074 A 
ATOM     38  C   UNL A   1      38.183  33.799  34.842  1.00  0.00     0.031 C 
ATOM     39  C   UNL A   1      40.037  32.741  36.106  1.00  0.00     0.037 A 
BRANCH  26  40
ATOM     40  C   UNL A   1      44.390  28.359  35.784  1.00  0.00     0.058 A 
ATOM     41  C   UNL A   1      45.730  28.730  35.593  1.00  0.00     0.135 A 
ATOM     42  C   UNL A   1      44.122  27.316  36.686  1.00  0.00     0.135 A 
ATOM     43  F   UNL A   1      46.044  29.710  34.732  1.00  0.00    -0.206 F 
ATOM     44  C   UNL A   1      46.767  28.077  36.254  1.00  0.00     0.059 A 
ATOM     45  C   UNL A   1      45.142  26.664  37.376  1.00  0.00     0.059 A 
ATOM     46  F   UNL A   1      42.858  26.922  36.908  1.00  0.00    -0.206 F 
ATOM     47  C   UNL A   1      46.463  27.044  37.142  1.00  0.00     0.060 A 
BRANCH  47  48
ATOM     48  S   UNL A   1      47.819  26.211  37.994  1.00  0.00     0.124 S 
ATOM     49  O   UNL A   1      48.249  27.243  38.932  1.00  0.00    -0.237 OA
ATOM     50  O   UNL A   1      47.153  25.055  38.587  1.00  0.00    -0.237 OA
ATOM     51  O   UNL A   1      48.760  25.906  36.922  1.00  0.00    -0.744 OA
ENDBRANCH  47  48
ENDBRANCH  26  40
BRANCH  27  52
ATOM     52  C   UNL A   1      36.885  32.855  30.932  1.00  0.00     0.058 A 
ATOM     53  C   UNL A   1      35.550  32.549  31.231  1.00  0.00     0.135 A 
ATOM     54  C   UNL A   1      37.131  33.833  29.955  1.00  0.00     0.135 A 
ATOM     55  F   UNL A   1      35.266  31.618  32.155  1.00  0.00    -0.206 F 
ATOM     56  C   UNL A   1      34.496  33.182  30.581  1.00  0.00     0.059 A 
ATOM     57  C   UNL A   1      36.094  34.498  29.310  1.00  0.00     0.059 A 
ATOM     58  F   UNL A   1      38.392  34.173  29.648  1.00  0.00    -0.206 F 
ATOM     59  C   UNL A   1      34.779  34.157  29.623  1.00  0.00     0.060 A 
BRANCH  59  60
ATOM     60  S   UNL A   1      33.405  35.015  28.826  1.00  0.00     0.124 S 
ATOM     61  O   UNL A   1      34.083  36.160  28.228  1.00  0.00    -0.237 OA
ATOM     62  O   UNL A   1      32.911  34.006  27.893  1.00  0.00    -0.237 OA
ATOM     63  O   UNL A   1      32.510  35.320  29.939  1.00  0.00    -0.744 OA
ENDBRANCH  59  60
ENDBRANCH  27  52
BRANCH  39  64
ATOM     64  C   UNL A   1      39.737  33.681  37.239  1.00  0.00     0.058 A 
ATOM     65  C   UNL A   1      38.850  33.333  38.269  1.00  0.00     0.135 A 
ATOM     66  C   UNL A   1      40.371  34.932  37.312  1.00  0.00     0.135 A 
ATOM     67  F   UNL A   1      38.210  32.153  38.240  1.00  0.00    -0.206 F 
ATOM     68  C   UNL A   1      38.584  34.202  39.322  1.00  0.00     0.059 A 
ATOM     69  C   UNL A   1      40.139  35.806  38.369  1.00  0.00     0.059 A 
ATOM     70  F   UNL A   1      41.235  35.310  36.355  1.00  0.00    -0.206 F 
ATOM     71  C   UNL A   1      39.234  35.437  39.363  1.00  0.00     0.060 A 
BRANCH  71  72
ATOM     72  S   UNL A   1      38.902  36.546  40.749  1.00  0.00     0.124 S 
ATOM     73  O   UNL A   1      37.924  35.777  41.511  1.00  0.00    -0.237 OA
ATOM     74  O   UNL A   1      40.220  36.684  41.363  1.00  0.00    -0.237 OA
ATOM     75  O   UNL A   1      38.390  37.751  40.103  1.00  0.00    -0.744 OA
ENDBRANCH  71  72
ENDBRANCH  39  64
ENDBRANCH  13  14
ENDBRANCH   6   8
ENDBRANCH   3   4
ENDBRANCH   2   3
ENDBRANCH   1   2
BRANCH   1  76
ATOM     76  C   UNL A   1      39.799  22.149  26.719  1.00  0.00     0.002 C 
BRANCH  76  77
ATOM     77  C   UNL A   1      38.948  21.300  25.765  1.00  0.00     0.021 C 
BRANCH  77  78
ATOM     78  C   UNL A   1      37.727  22.024  25.200  1.00  0.00     0.116 C 
BRANCH  78  79
ATOM     79  N   UNL A   1      36.648  22.087  26.168  1.00  0.00    -0.354 N 
ATOM     80  C   UNL A   1      35.312  21.844  25.995  1.00  0.00     0.243 C 
ATOM     81  H   UNL A   1      36.916  22.340  27.081  1.00  0.00     0.163 HD
ATOM     82  O   UNL A   1      34.559  22.028  26.953  1.00  0.00    -0.273 OA
BRANCH  80  83
ATOM     83  C   UNL A   1      34.835  21.232  24.664  1.00  0.00     0.185 C 
ATOM     84  C   UNL A   1      34.198  19.882  24.998  1.00  0.00     0.106 C 
ATOM     85  N   UNL A   1      33.896  22.093  23.939  1.00  0.00    -0.316 N 
ATOM     86  S   UNL A   1      32.556  19.840  24.252  1.00  0.00    -0.138 SA
ATOM     87  C   UNL A   1      32.735  21.414  23.414  1.00  0.00     0.190 C 
BRANCH  85  88
ATOM     88  C   UNL A   1      34.363  23.320  23.499  1.00  0.00     0.262 C 
ATOM     89  O   UNL A   1      35.358  23.407  22.776  1.00  0.00    -0.269 OA
BRANCH  88  90
ATOM     90  C   UNL A   1      33.591  24.546  23.809  1.00  0.00     0.124 A 
ATOM     91  C   UNL A   1      33.049  24.635  25.031  1.00  0.00     0.133 A 
ATOM     92  C   UNL A   1      33.307  25.642  22.860  1.00  0.00     0.270 A 
ATOM     93  N   UNL A   1      32.325  25.695  25.503  1.00  0.00    -0.237 NA
ATOM     94  N   UNL A   1      32.643  26.743  23.396  1.00  0.00    -0.267 N 
ATOM     95  O   UNL A   1      33.652  25.559  21.682  1.00  0.00    -0.268 OA
ATOM     96  C   UNL A   1      32.159  26.699  24.699  1.00  0.00     0.139 A 
ATOM     97  C   UNL A   1      32.452  27.871  22.603  1.00  0.00     0.096 A 
ATOM     98  C   UNL A   1      31.410  27.892  25.184  1.00  0.00     0.048 A 
ATOM     99  C   UNL A   1      31.805  28.951  23.055  1.00  0.00     0.019 A 
ATOM    100  C   UNL A   1      31.261  28.956  24.387  1.00  0.00     0.005 A 
ENDBRANCH  88  90
ENDBRANCH  85  88
ENDBRANCH  80  83
ENDBRANCH  78  79
ENDBRANCH  77  78
ENDBRANCH  76  77
ENDBRANCH   1  76
TORSDOF 18
ENDMDL
MODEL 2
REMARK VINA RESULT:     -11.5      1.552      2.977
REMARK SMILES O=C(NCCCCCCNC(=O)[C@H]1CSCN1C(=O)c1cnc2ccccn2c1=O)c1ccc(-c2c3nc(c(-c4c(F)cc(S(=O)(=O)[O-])cc4F)c4ccc([nH]4)c(-c4c(F)cc(S(=O)(=O)[O-])cc4F)c4nc(c(-c5c(F)cc(S(=O)(=O)[O-])cc5F)c5ccc2[nH]5)C=C4)C=C3)cc1
REMARK SMILES IDX 6 1 5 2 4 3 3 4 1 5 2 6 31 8 32 9 96 10 33 11 95 12 34 13
REMARK SMILES IDX 35 14 36 15 89 16 37 17 94 18 88 19 90 20 38 21 93 22 87 23
REMARK SMILES IDX 86 24 39 26 73 27 52 28 72 29 53 30 56 31 71 32 91 33 54 34
REMARK SMILES IDX 55 35 70 37 92 38 57 39 40 40 41 41 50 42 42 43 43 44 49 45
REMARK SMILES IDX 51 46 44 47 45 48 46 49 47 50 48 51 74 52 75 53 84 54 76 55
REMARK SMILES IDX 77 56 83 57 85 58 78 59 79 60 80 61 81 62 82 63 58 64 59 65
REMARK SMILES IDX 68 66 60 67 61 68 67 69 69 70 62 71 63 72 64 73 65 74 66 75
REMARK SMILES IDX 7 76 8 77 9 78 10 79 11 80 12 82 13 83 14 84 17 85 15 86
REMARK SMILES IDX 16 87 18 88 19 89 20 90 21 91 29 92 22 93 28 94 30 95 23 96
REMARK SMILES IDX 27 97 24 98 26 99 25 100
REMARK H PARENT 3 7 90 25 56 36 10 81
REMARK Flexibility Score: inf
ROOT
ATOM      1  C   UNL A   1      37.020  22.758  25.176  1.00  0.00     0.002 C 
ENDROOT
BRANCH   1   2
ATOM      2  C   UNL A   1      37.478  24.076  25.804  1.00  0.00     0.021 C 
BRANCH   2   3
ATOM      3  C   UNL A   1      38.591  23.937  26.835  1.00  0.00     0.116 C 
BRANCH   3   4
ATOM      4  N   UNL A   1      39.911  23.992  26.230  1.00  0.00    -0.352 N 
ATOM      5  O   UNL A   1      41.913  24.894  25.720  1.00  0.00    -0.269 OA
ATOM      6  C   UNL A   1      40.931  24.884  26.458  1.00  0.00     0.251 C 
ATOM      7  H   UNL A   1      40.102  23.294  25.563  1.00  0.00     0.163 HD
BRANCH   6   8
ATOM      8  C   UNL A   1      40.836  25.842  27.581  1.00  0.00     0.039 A 
ATOM      9  C   UNL A   1      39.850  25.694  28.561  1.00  0.00     0.014 A 
ATOM     10  C   UNL A   1      41.754  26.893  27.662  1.00  0.00     0.014 A 
ATOM     11  C   UNL A   1      39.706  26.663  29.548  1.00  0.00     0.010 A 
ATOM     12  C   UNL A   1      41.655  27.823  28.703  1.00  0.00     0.010 A 
ATOM     13  C   UNL A   1      40.616  27.728  29.642  1.00  0.00    -0.014 A 
BRANCH  13  14
ATOM     14  C   UNL A   1      40.505  28.685  30.771  1.00  0.00     0.031 A 
ATOM     15  C   UNL A   1      41.423  28.602  31.959  1.00  0.00     0.074 A 
ATOM     16  C   UNL A   1      39.573  29.655  30.701  1.00  0.00     0.049 A 
ATOM     17  N   UNL A   1      41.466  29.367  33.019  1.00  0.00    -0.248 NA
ATOM     18  C   UNL A   1      42.419  27.519  31.961  1.00  0.00     0.031 C 
ATOM     19  C   UNL A   1      38.618  29.826  29.601  1.00  0.00     0.029 A 
ATOM     20  N   UNL A   1      39.279  30.687  31.555  1.00  0.00    -0.354 N 
ATOM     21  C   UNL A   1      42.478  28.854  33.822  1.00  0.00     0.074 A 
ATOM     22  C   UNL A   1      43.010  27.695  33.136  1.00  0.00     0.031 C 
ATOM     23  C   UNL A   1      37.878  30.921  29.826  1.00  0.00     0.029 A 
ATOM     24  C   UNL A   1      38.262  31.496  31.110  1.00  0.00     0.049 A 
ATOM     25  H   UNL A   1      39.753  30.834  32.405  1.00  0.00     0.167 HD
ATOM     26  C   UNL A   1      42.925  29.315  35.015  1.00  0.00     0.037 A 
ATOM     27  C   UNL A   1      37.687  32.573  31.678  1.00  0.00     0.037 A 
ATOM     28  C   UNL A   1      42.395  30.476  35.686  1.00  0.00     0.049 A 
ATOM     29  C   UNL A   1      38.186  33.046  33.011  1.00  0.00     0.074 A 
ATOM     30  C   UNL A   1      42.798  31.038  36.885  1.00  0.00     0.029 A 
ATOM     31  N   UNL A   1      41.344  31.253  35.218  1.00  0.00    -0.354 N 
ATOM     32  N   UNL A   1      39.161  32.562  33.744  1.00  0.00    -0.248 NA
ATOM     33  C   UNL A   1      37.506  34.207  33.599  1.00  0.00     0.031 C 
ATOM     34  C   UNL A   1      41.966  32.128  37.162  1.00  0.00     0.029 A 
ATOM     35  C   UNL A   1      41.073  32.276  36.112  1.00  0.00     0.049 A 
ATOM     36  H   UNL A   1      40.862  31.099  34.373  1.00  0.00     0.167 HD
ATOM     37  C   UNL A   1      39.221  33.369  34.873  1.00  0.00     0.074 A 
ATOM     38  C   UNL A   1      38.197  34.382  34.718  1.00  0.00     0.031 C 
ATOM     39  C   UNL A   1      40.049  33.276  35.943  1.00  0.00     0.037 A 
BRANCH  26  40
ATOM     40  C   UNL A   1      44.040  28.557  35.687  1.00  0.00     0.058 A 
ATOM     41  C   UNL A   1      43.787  27.441  36.499  1.00  0.00     0.135 A 
ATOM     42  C   UNL A   1      45.379  28.922  35.475  1.00  0.00     0.135 A 
ATOM     43  F   UNL A   1      42.525  27.057  36.747  1.00  0.00    -0.206 F 
ATOM     44  C   UNL A   1      44.822  26.726  37.095  1.00  0.00     0.059 A 
ATOM     45  C   UNL A   1      46.432  28.208  36.042  1.00  0.00     0.059 A 
ATOM     46  F   UNL A   1      45.678  29.980  34.705  1.00  0.00    -0.206 F 
ATOM     47  C   UNL A   1      46.142  27.119  36.863  1.00  0.00     0.060 A 
BRANCH  47  48
ATOM     48  S   UNL A   1      47.472  26.179  37.640  1.00  0.00     0.124 S 
ATOM     49  O   UNL A   1      47.452  26.717  38.997  1.00  0.00    -0.237 OA
ATOM     50  O   UNL A   1      47.007  24.802  37.500  1.00  0.00    -0.237 OA
ATOM     51  O   UNL A   1      48.645  26.525  36.845  1.00  0.00    -0.744 OA
ENDBRANCH  47  48
ENDBRANCH  26  40
BRANCH  27  52
ATOM     52  C   UNL A   1      36.575  33.268  30.978  1.00  0.00     0.058 A 
ATOM     53  C   UNL A   1      35.246  33.104  31.393  1.00  0.00     0.135 A 
ATOM     54  C   UNL A   1      36.824  34.136  29.903  1.00  0.00     0.135 A 
ATOM     55  F   UNL A   1      34.959  32.282  32.414  1.00  0.00    -0.206 F 
ATOM     56  C   UNL A   1      34.201  33.769  30.763  1.00  0.00     0.059 A 
ATOM     57  C   UNL A   1      35.799  34.831  29.273  1.00  0.00     0.059 A 
ATOM     58  F   UNL A   1      38.082  34.339  29.481  1.00  0.00    -0.206 F 
ATOM     59  C   UNL A   1      34.488  34.634  29.705  1.00  0.00     0.060 A 
BRANCH  59  60
ATOM     60  S   UNL A   1      33.131  35.538  28.930  1.00  0.00     0.124 S 
ATOM     61  O   UNL A   1      33.854  36.544  28.159  1.00  0.00    -0.237 OA
ATOM     62  O   UNL A   1      32.468  34.494  28.154  1.00  0.00    -0.237 OA
ATOM     63  O   UNL A   1      32.369  36.040  30.070  1.00  0.00    -0.744 OA
ENDBRANCH  59  60
ENDBRANCH  27  52
BRANCH  39  64
ATOM     64  C   UNL A   1      39.894  34.314  37.018  1.00  0.00     0.058 A 
ATOM     65  C   UNL A   1      40.612  35.520  36.985  1.00  0.00     0.135 A 
ATOM     66  C   UNL A   1      38.991  34.115  38.074  1.00  0.00     0.135 A 
ATOM     67  F   UNL A   1      41.495  35.754  36.001  1.00  0.00    -0.206 F 
ATOM     68  C   UNL A   1      40.457  36.483  37.976  1.00  0.00     0.059 A 
ATOM     69  C   UNL A   1      38.802  35.075  39.062  1.00  0.00     0.059 A 
ATOM     70  F   UNL A   1      38.275  32.981  38.147  1.00  0.00    -0.206 F 
ATOM     71  C   UNL A   1      39.549  36.252  39.012  1.00  0.00     0.060 A 
BRANCH  71  72
ATOM     72  S   UNL A   1      39.335  37.521  40.277  1.00  0.00     0.124 S 
ATOM     73  O   UNL A   1      40.553  38.307  40.112  1.00  0.00    -0.237 OA
ATOM     74  O   UNL A   1      38.096  38.172  39.862  1.00  0.00    -0.237 OA
ATOM     75  O   UNL A   1      39.247  36.752  41.516  1.00  0.00    -0.744 OA
ENDBRANCH  71  72
ENDBRANCH  39  64
ENDBRANCH  13  14
ENDBRANCH   6   8
ENDBRANCH   3   4
ENDBRANCH   2   3
ENDBRANCH   1   2
BRANCH   1  76
ATOM     76  C   UNL A   1      36.428  22.874  23.767  1.00  0.00     0.002 C 
BRANCH  76  77
ATOM     77  C   UNL A   1      34.900  22.762  23.683  1.00  0.00     0.021 C 
BRANCH  77  78
ATOM     78  C   UNL A   1      34.160  24.081  23.904  1.00  0.00     0.116 C 
BRANCH  78  79
ATOM     79  N   UNL A   1      34.077  24.858  22.680  1.00  0.00    -0.354 N 
ATOM     80  C   UNL A   1      32.970  25.270  21.989  1.00  0.00     0.243 C 
ATOM     81  H   UNL A   1      34.941  25.126  22.293  1.00  0.00     0.163 HD
ATOM     82  O   UNL A   1      33.139  25.867  20.924  1.00  0.00    -0.273 OA
BRANCH  80  83
ATOM     83  C   UNL A   1      31.582  25.087  22.632  1.00  0.00     0.185 C 
ATOM     84  C   UNL A   1      31.482  23.623  23.064  1.00  0.00     0.106 C 
ATOM     85  N   UNL A   1      31.348  25.988  23.763  1.00  0.00    -0.316 N 
ATOM     86  S   UNL A   1      30.992  23.587  24.800  1.00  0.00    -0.138 SA
ATOM     87  C   UNL A   1      30.769  25.360  24.927  1.00  0.00     0.190 C 
BRANCH  85  88
ATOM     88  C   UNL A   1      31.329  27.348  23.504  1.00  0.00     0.262 C 
ATOM     89  O   UNL A   1      30.737  27.807  22.524  1.00  0.00    -0.269 OA
BRANCH  88  90
ATOM     90  C   UNL A   1      31.934  28.284  24.480  1.00  0.00     0.124 A 
ATOM     91  C   UNL A   1      31.230  29.380  24.793  1.00  0.00     0.133 A 
ATOM     92  C   UNL A   1      33.277  28.147  25.078  1.00  0.00     0.270 A 
ATOM     93  N   UNL A   1      31.615  30.342  25.685  1.00  0.00    -0.237 NA
ATOM     94  N   UNL A   1      33.603  29.094  26.046  1.00  0.00    -0.267 N 
ATOM     95  O   UNL A   1      34.033  27.242  24.727  1.00  0.00    -0.268 OA
ATOM     96  C   UNL A   1      32.754  30.170  26.282  1.00  0.00     0.139 A 
ATOM     97  C   UNL A   1      34.796  28.961  26.750  1.00  0.00     0.096 A 
ATOM     98  C   UNL A   1      33.196  31.173  27.291  1.00  0.00     0.048 A 
ATOM     99  C   UNL A   1      35.172  29.849  27.678  1.00  0.00     0.019 A 
ATOM    100  C   UNL A   1      34.347  30.996  27.949  1.00  0.00     0.005 A 
ENDBRANCH  88  90
ENDBRANCH  85  88
ENDBRANCH  80  83
ENDBRANCH  78  79
ENDBRANCH  77  78
ENDBRANCH  76  77
ENDBRANCH   1  76
TORSDOF 18
ENDMDL
MODEL 3
REMARK VINA RESULT:     -11.4      6.211     11.959
REMARK SMILES O=C(NCCCCCCNC(=O)[C@H]1CSCN1C(=O)c1cnc2ccccn2c1=O)c1ccc(-c2c3nc(c(-c4c(F)cc(S(=O)(=O)[O-])cc4F)c4ccc([nH]4)c(-c4c(F)cc(S(=O)(=O)[O-])cc4F)c4nc(c(-c5c(F)cc(S(=O)(=O)[O-])cc5F)c5ccc2[nH]5)C=C4)C=C3)cc1
REMARK SMILES IDX 6 1 5 2 4 3 3 4 1 5 2 6 31 8 32 9 96 10 33 11 95 12 34 13
REMARK SMILES IDX 35 14 36 15 89 16 37 17 94 18 88 19 90 20 38 21 93 22 87 23
REMARK SMILES IDX 86 24 39 26 73 27 52 28 72 29 53 30 56 31 71 32 91 33 54 34
REMARK SMILES IDX 55 35 70 37 92 38 57 39 40 40 41 41 50 42 42 43 43 44 49 45
REMARK SMILES IDX 51 46 44 47 45 48 46 49 47 50 48 51 74 52 75 53 84 54 76 55
REMARK SMILES IDX 77 56 83 57 85 58 78 59 79 60 80 61 81 62 82 63 58 64 59 65
REMARK SMILES IDX 68 66 60 67 61 68 67 69 69 70 62 71 63 72 64 73 65 74 66 75
REMARK SMILES IDX 7 76 8 77 9 78 10 79 11 80 12 82 13 83 14 84 17 85 15 86
REMARK SMILES IDX 16 87 18 88 19 89 20 90 21 91 29 92 22 93 28 94 30 95 23 96
REMARK SMILES IDX 27 97 24 98 26 99 25 100
REMARK H PARENT 3 7 90 25 56 36 10 81
REMARK Flexibility Score: inf
ROOT
ATOM      1  C   UNL A   1      34.911  31.232  27.769  1.00  0.00     0.002 C 
ENDROOT
BRANCH   1   2
ATOM      2  C   UNL A   1      35.308  32.617  28.283  1.00  0.00     0.021 C 
BRANCH   2   3
ATOM      3  C   UNL A   1      36.403  32.613  29.342  1.00  0.00     0.116 C 
BRANCH   3   4
ATOM      4  N   UNL A   1      36.057  31.789  30.488  1.00  0.00    -0.352 N 
ATOM      5  O   UNL A   1      36.160  29.993  31.847  1.00  0.00    -0.269 OA
ATOM      6  C   UNL A   1      36.698  30.677  30.980  1.00  0.00     0.251 C 
ATOM      7  H   UNL A   1      35.251  32.065  30.981  1.00  0.00     0.163 HD
BRANCH   6   8
ATOM      8  C   UNL A   1      38.026  30.297  30.450  1.00  0.00     0.039 A 
ATOM      9  C   UNL A   1      39.095  30.057  31.317  1.00  0.00     0.014 A 
ATOM     10  C   UNL A   1      38.198  30.163  29.070  1.00  0.00     0.014 A 
ATOM     11  C   UNL A   1      40.361  29.806  30.799  1.00  0.00     0.010 A 
ATOM     12  C   UNL A   1      39.456  29.832  28.555  1.00  0.00     0.010 A 
ATOM     13  C   UNL A   1      40.553  29.673  29.415  1.00  0.00    -0.014 A 
BRANCH  13  14
ATOM     14  C   UNL A   1      41.893  29.296  28.898  1.00  0.00     0.031 A 
ATOM     15  C   UNL A   1      43.018  30.291  28.842  1.00  0.00     0.074 A 
ATOM     16  C   UNL A   1      42.091  28.024  28.498  1.00  0.00     0.049 A 
ATOM     17  N   UNL A   1      44.248  30.118  28.432  1.00  0.00    -0.248 NA
ATOM     18  C   UNL A   1      42.726  31.659  29.301  1.00  0.00     0.031 C 
ATOM     19  C   UNL A   1      41.068  26.974  28.497  1.00  0.00     0.029 A 
ATOM     20  N   UNL A   1      43.214  27.391  28.032  1.00  0.00    -0.354 N 
ATOM     21  C   UNL A   1      44.875  31.351  28.567  1.00  0.00     0.074 A 
ATOM     22  C   UNL A   1      43.881  32.272  29.076  1.00  0.00     0.031 C 
ATOM     23  C   UNL A   1      41.621  25.820  28.095  1.00  0.00     0.029 A 
ATOM     24  C   UNL A   1      43.019  26.059  27.754  1.00  0.00     0.049 A 
ATOM     25  H   UNL A   1      44.078  27.847  27.909  1.00  0.00     0.167 HD
ATOM     26  C   UNL A   1      46.162  31.679  28.299  1.00  0.00     0.037 A 
ATOM     27  C   UNL A   1      43.864  25.134  27.263  1.00  0.00     0.037 A 
ATOM     28  C   UNL A   1      47.147  30.751  27.801  1.00  0.00     0.049 A 
ATOM     29  C   UNL A   1      45.277  25.530  26.952  1.00  0.00     0.074 A 
ATOM     30  C   UNL A   1      48.484  30.980  27.523  1.00  0.00     0.029 A 
ATOM     31  N   UNL A   1      46.904  29.417  27.503  1.00  0.00    -0.354 N 
ATOM     32  N   UNL A   1      45.858  26.696  27.109  1.00  0.00    -0.248 NA
ATOM     33  C   UNL A   1      46.149  24.490  26.392  1.00  0.00     0.031 C 
ATOM     34  C   UNL A   1      49.038  29.798  27.019  1.00  0.00     0.029 A 
ATOM     35  C   UNL A   1      48.058  28.817  27.027  1.00  0.00     0.049 A 
ATOM     36  H   UNL A   1      46.036  28.964  27.615  1.00  0.00     0.167 HD
ATOM     37  C   UNL A   1      47.168  26.526  26.681  1.00  0.00     0.074 A 
ATOM     38  C   UNL A   1      47.299  25.141  26.276  1.00  0.00     0.031 C 
ATOM     39  C   UNL A   1      48.171  27.437  26.627  1.00  0.00     0.037 A 
BRANCH  26  40
ATOM     40  C   UNL A   1      46.585  33.106  28.526  1.00  0.00     0.058 A 
ATOM     41  C   UNL A   1      47.111  33.532  29.755  1.00  0.00     0.135 A 
ATOM     42  C   UNL A   1      46.510  34.046  27.485  1.00  0.00     0.135 A 
ATOM     43  F   UNL A   1      47.192  32.679  30.788  1.00  0.00    -0.206 F 
ATOM     44  C   UNL A   1      47.527  34.846  29.952  1.00  0.00     0.059 A 
ATOM     45  C   UNL A   1      46.941  35.360  27.652  1.00  0.00     0.059 A 
ATOM     46  F   UNL A   1      46.017  33.692  26.288  1.00  0.00    -0.206 F 
ATOM     47  C   UNL A   1      47.436  35.753  28.895  1.00  0.00     0.060 A 
BRANCH  47  48
ATOM     48  S   UNL A   1      47.984  37.452  29.165  1.00  0.00     0.124 S 
ATOM     49  O   UNL A   1      49.421  37.269  29.341  1.00  0.00    -0.237 OA
ATOM     50  O   UNL A   1      47.578  38.113  27.929  1.00  0.00    -0.237 OA
ATOM     51  O   UNL A   1      47.253  37.861  30.360  1.00  0.00    -0.744 OA
ENDBRANCH  47  48
ENDBRANCH  26  40
BRANCH  27  52
ATOM     52  C   UNL A   1      43.384  23.745  27.039  1.00  0.00     0.058 A 
ATOM     53  C   UNL A   1      43.222  22.856  28.111  1.00  0.00     0.135 A 
ATOM     54  C   UNL A   1      43.046  23.293  25.754  1.00  0.00     0.135 A 
ATOM     55  F   UNL A   1      43.535  23.242  29.357  1.00  0.00    -0.206 F 
ATOM     56  C   UNL A   1      42.749  21.563  27.916  1.00  0.00     0.059 A 
ATOM     57  C   UNL A   1      42.548  22.013  25.538  1.00  0.00     0.059 A 
ATOM     58  F   UNL A   1      43.168  24.114  24.699  1.00  0.00    -0.206 F 
ATOM     59  C   UNL A   1      42.412  21.151  26.625  1.00  0.00     0.060 A 
BRANCH  59  60
ATOM     60  S   UNL A   1      41.744  19.491  26.390  1.00  0.00     0.124 S 
ATOM     61  O   UNL A   1      42.232  18.808  27.584  1.00  0.00    -0.237 OA
ATOM     62  O   UNL A   1      40.307  19.740  26.338  1.00  0.00    -0.237 OA
ATOM     63  O   UNL A   1      42.344  19.065  25.128  1.00  0.00    -0.744 OA
ENDBRANCH  59  60
ENDBRANCH  27  52
BRANCH  39  64
ATOM     64  C   UNL A   1      49.505  26.955  26.133  1.00  0.00     0.058 A 
ATOM     65  C   UNL A   1      49.893  27.107  24.793  1.00  0.00     0.135 A 
ATOM     66  C   UNL A   1      50.421  26.364  27.019  1.00  0.00     0.135 A 
ATOM     67  F   UNL A   1      49.050  27.656  23.904  1.00  0.00    -0.206 F 
ATOM     68  C   UNL A   1      51.133  26.669  24.342  1.00  0.00     0.059 A 
ATOM     69  C   UNL A   1      51.676  25.942  26.595  1.00  0.00     0.059 A 
ATOM     70  F   UNL A   1      50.101  26.203  28.314  1.00  0.00    -0.206 F 
ATOM     71  C   UNL A   1      52.019  26.087  25.251  1.00  0.00     0.060 A 
BRANCH  71  72
ATOM     72  S   UNL A   1      53.638  25.548  24.661  1.00  0.00     0.124 S 
ATOM     73  O   UNL A   1      53.672  24.164  25.123  1.00  0.00    -0.237 OA
ATOM     74  O   UNL A   1      53.524  25.734  23.218  1.00  0.00    -0.237 OA
ATOM     75  O   UNL A   1      54.563  26.457  25.332  1.00  0.00    -0.744 OA
ENDBRANCH  71  72
ENDBRANCH  39  64
ENDBRANCH  13  14
ENDBRANCH   6   8
ENDBRANCH   3   4
ENDBRANCH   2   3
ENDBRANCH   1   2
BRANCH   1  76
ATOM     76  C   UNL A   1      33.441  31.080  27.365  1.00  0.00     0.002 C 
BRANCH  76  77
ATOM     77  C   UNL A   1      32.934  29.635  27.256  1.00  0.00     0.021 C 
BRANCH  77  78
ATOM     78  C   UNL A   1      33.836  28.713  26.437  1.00  0.00     0.116 C 
BRANCH  78  79
ATOM     79  N   UNL A   1      34.022  29.210  25.086  1.00  0.00    -0.354 N 
ATOM     80  C   UNL A   1      33.408  28.819  23.926  1.00  0.00     0.243 C 
ATOM     81  H   UNL A   1      34.685  29.932  24.991  1.00  0.00     0.163 HD
ATOM     82  O   UNL A   1      33.776  29.338  22.871  1.00  0.00    -0.273 OA
BRANCH  80  83
ATOM     83  C   UNL A   1      32.207  27.857  24.009  1.00  0.00     0.185 C 
ATOM     84  C   UNL A   1      30.954  28.721  24.153  1.00  0.00     0.106 C 
ATOM     85  N   UNL A   1      32.104  26.965  22.851  1.00  0.00    -0.316 N 
ATOM     86  S   UNL A   1      29.776  28.209  22.886  1.00  0.00    -0.138 SA
ATOM     87  C   UNL A   1      30.775  26.842  22.300  1.00  0.00     0.190 C 
BRANCH  85  88
ATOM     88  C   UNL A   1      33.135  26.065  22.643  1.00  0.00     0.262 C 
ATOM     89  O   UNL A   1      33.868  26.147  21.654  1.00  0.00    -0.269 OA
BRANCH  88  90
ATOM     90  C   UNL A   1      33.438  25.050  23.679  1.00  0.00     0.124 A 
ATOM     91  C   UNL A   1      34.301  25.399  24.642  1.00  0.00     0.133 A 
ATOM     92  C   UNL A   1      32.925  23.666  23.697  1.00  0.00     0.270 A 
ATOM     93  N   UNL A   1      34.684  24.607  25.689  1.00  0.00    -0.237 NA
ATOM     94  N   UNL A   1      33.263  22.915  24.821  1.00  0.00    -0.267 N 
ATOM     95  O   UNL A   1      32.242  23.236  22.768  1.00  0.00    -0.268 OA
ATOM     96  C   UNL A   1      34.157  23.424  25.756  1.00  0.00     0.139 A 
ATOM     97  C   UNL A   1      32.714  21.645  24.977  1.00  0.00     0.096 A 
ATOM     98  C   UNL A   1      34.515  22.541  26.901  1.00  0.00     0.048 A 
ATOM     99  C   UNL A   1      33.016  20.870  26.025  1.00  0.00     0.019 A 
ATOM    100  C   UNL A   1      33.954  21.332  27.014  1.00  0.00     0.005 A 
ENDBRANCH  88  90
ENDBRANCH  85  88
ENDBRANCH  80  83
ENDBRANCH  78  79
ENDBRANCH  77  78
ENDBRANCH  76  77
ENDBRANCH   1  76
TORSDOF 18
ENDMDL
