MODEL 1
REMARK VINA RESULT:     -11.7      0.000      0.000
REMARK SMILES COc1ccc(N2C(=O)[NH+]=C(NCCCCCCNC(=O)c3ccc(-c4c5nc(c(-c6c(F)cc(S(=O)(=O)[O-])cc6F)c6ccc([nH]6)c(-c6c(F)cc(S(=O)(=O)[O-])cc6F)c6nc(c(-c7c(F)cc(S(=O)(=O)[O-])cc7F)c7ccc4[nH]7)C=C6)C=C5)cc3)/C(=C\c3cc(Cl)c(OCC(=O)[O-])c(Cl)c3)C2=O)cc1
REMARK SMILES IDX 15 1 14 2 13 3 12 4 7 5 8 6 103 7 9 8 10 9 88 10 104 11
REMARK SMILES IDX 11 12 89 14 6 16 3 17 4 18 106 19 5 20 105 21 2 22 1 23
REMARK SMILES IDX 90 24 91 25 102 26 92 27 100 28 93 29 94 30 101 31 95 32
REMARK SMILES IDX 96 33 97 34 98 35 99 36 16 37 17 38 18 39 19 40 20 41 21 43
REMARK SMILES IDX 22 44 23 45 87 46 24 47 86 48 25 49 26 50 27 51 80 52 28 53
REMARK SMILES IDX 85 54 79 55 81 56 29 57 84 58 78 59 77 60 30 62 64 63 43 64
REMARK SMILES IDX 63 65 44 66 47 67 62 68 82 69 45 70 46 71 61 73 83 74 48 75
REMARK SMILES IDX 31 76 32 77 41 78 33 79 34 80 40 81 42 82 35 83 36 84 37 85
REMARK SMILES IDX 38 86 39 87 65 88 66 89 75 90 67 91 68 92 74 93 76 94 69 95
REMARK SMILES IDX 70 96 71 97 72 98 73 99 49 100 50 101 59 102 51 103 52 104
REMARK SMILES IDX 58 105 60 106 53 107 54 108 55 109 56 110 57 111
REMARK H PARENT 10 13 12 15 19 42 81 61 47 72
REMARK Flexibility Score: inf
ROOT
ATOM      1  C   UNL A   1      31.531  29.488  25.743  1.00  0.00     0.003 C 
ENDROOT
BRANCH   1   2
ATOM      2  C   UNL A   1      32.466  28.700  26.660  1.00  0.00     0.037 C 
BRANCH   2   3
ATOM      3  C   UNL A   1      31.868  27.394  27.179  1.00  0.00     0.194 C 
BRANCH   3   4
ATOM      4  N   UNL A   1      31.287  26.634  26.079  1.00  0.00    -0.305 N 
ATOM      5  N   UNL A   1      32.734  22.890  25.060  1.00  0.00    -0.155 N 
ATOM      6  C   UNL A   1      33.272  23.683  26.077  1.00  0.00     0.448 C 
ATOM      7  C   UNL A   1      31.805  23.359  24.143  1.00  0.00     0.328 C 
ATOM      8  O   UNL A   1      34.256  23.335  26.724  1.00  0.00    -0.212 OA
ATOM      9  N   UNL A   1      32.712  24.892  26.347  1.00  0.00    -0.209 N 
ATOM     10  C   UNL A   1      31.271  24.734  24.414  1.00  0.00     0.129 C 
ATOM     11  O   UNL A   1      31.401  22.721  23.168  1.00  0.00    -0.249 OA
ATOM     12  C   UNL A   1      31.778  25.430  25.631  1.00  0.00     0.236 C 
ATOM     13  H   UNL A   1      33.037  25.388  27.134  1.00  0.00     0.270 HD
ATOM     14  C   UNL A   1      30.385  25.210  23.511  1.00  0.00     0.030 C 
ATOM     15  H   UNL A   1      30.494  27.005  25.631  1.00  0.00     0.256 HD
BRANCH   5  16
ATOM     16  C   UNL A   1      33.246  21.559  24.934  1.00  0.00     0.111 A 
ATOM     17  C   UNL A   1      34.212  18.922  24.787  1.00  0.00     0.119 A 
ATOM     18  C   UNL A   1      32.854  19.161  24.984  1.00  0.00     0.050 A 
ATOM     19  C   UNL A   1      35.087  19.999  24.636  1.00  0.00     0.050 A 
ATOM     20  C   UNL A   1      32.376  20.468  25.080  1.00  0.00     0.047 A 
ATOM     21  C   UNL A   1      34.602  21.313  24.692  1.00  0.00     0.047 A 
BRANCH  17  22
ATOM     22  O   UNL A   1      34.569  17.605  24.700  1.00  0.00    -0.497 OA
ATOM     23  C   UNL A   1      33.493  16.704  24.465  1.00  0.00     0.278 C 
ENDBRANCH  17  22
ENDBRANCH   5  16
BRANCH  14  24
ATOM     24  C   UNL A   1      29.770  26.537  23.376  1.00  0.00    -0.021 A 
ATOM     25  C   UNL A   1      28.433  26.744  23.708  1.00  0.00     0.032 A 
ATOM     26  C   UNL A   1      30.480  27.581  22.782  1.00  0.00     0.032 A 
ATOM     27  C   UNL A   1      27.829  27.984  23.452  1.00  0.00     0.085 A 
ATOM     28  C   UNL A   1      29.871  28.824  22.509  1.00  0.00     0.085 A 
ATOM     29  Cl  UNL A   1      26.153  28.142  23.875  1.00  0.00    -0.080 Cl
ATOM     30  C   UNL A   1      28.533  29.053  22.855  1.00  0.00     0.157 A 
ATOM     31  Cl  UNL A   1      30.875  29.946  21.665  1.00  0.00    -0.080 Cl
BRANCH  30  32
ATOM     32  O   UNL A   1      27.766  30.154  22.585  1.00  0.00    -0.485 OA
BRANCH  32  33
ATOM     33  C   UNL A   1      27.983  30.970  21.453  1.00  0.00     0.282 C 
BRANCH  33  34
ATOM     34  C   UNL A   1      28.227  32.452  21.656  1.00  0.00     0.079 C 
ATOM     35  O   UNL A   1      27.653  33.354  21.063  1.00  0.00    -0.546 OA
ATOM     36  O   UNL A   1      29.148  32.712  22.607  1.00  0.00    -0.546 OA
ENDBRANCH  33  34
ENDBRANCH  32  33
ENDBRANCH  30  32
ENDBRANCH  14  24
ENDBRANCH   3   4
ENDBRANCH   2   3
ENDBRANCH   1   2
BRANCH   1  37
ATOM     37  C   UNL A   1      31.425  30.979  26.060  1.00  0.00     0.002 C 
BRANCH  37  38
ATOM     38  C   UNL A   1      32.142  31.411  27.337  1.00  0.00     0.021 C 
BRANCH  38  39
ATOM     39  C   UNL A   1      33.234  32.459  27.135  1.00  0.00     0.116 C 
BRANCH  39  40
ATOM     40  N   UNL A   1      32.931  33.701  27.829  1.00  0.00    -0.352 N 
ATOM     41  C   UNL A   1      33.420  34.157  29.028  1.00  0.00     0.251 C 
ATOM     42  H   UNL A   1      32.288  34.295  27.377  1.00  0.00     0.163 HD
ATOM     43  O   UNL A   1      32.763  34.959  29.686  1.00  0.00    -0.269 OA
BRANCH  41  44
ATOM     44  C   UNL A   1      34.738  33.653  29.477  1.00  0.00     0.039 A 
ATOM     45  C   UNL A   1      35.924  34.204  28.992  1.00  0.00     0.014 A 
ATOM     46  C   UNL A   1      34.770  32.636  30.438  1.00  0.00     0.014 A 
ATOM     47  C   UNL A   1      37.140  33.801  29.553  1.00  0.00     0.010 A 
ATOM     48  C   UNL A   1      35.964  32.316  31.062  1.00  0.00     0.010 A 
ATOM     49  C   UNL A   1      37.162  32.894  30.627  1.00  0.00    -0.014 A 
BRANCH  49  50
ATOM     50  C   UNL A   1      38.413  32.531  31.335  1.00  0.00     0.031 A 
ATOM     51  C   UNL A   1      39.309  31.466  30.761  1.00  0.00     0.074 A 
ATOM     52  C   UNL A   1      38.676  33.077  32.539  1.00  0.00     0.049 A 
ATOM     53  N   UNL A   1      40.372  30.912  31.280  1.00  0.00    -0.248 NA
ATOM     54  C   UNL A   1      38.935  30.923  29.442  1.00  0.00     0.031 C 
ATOM     55  C   UNL A   1      37.840  34.071  33.219  1.00  0.00     0.029 A 
ATOM     56  N   UNL A   1      39.708  32.862  33.416  1.00  0.00    -0.354 N 
ATOM     57  C   UNL A   1      40.789  29.958  30.360  1.00  0.00     0.074 A 
ATOM     58  C   UNL A   1      39.823  29.953  29.285  1.00  0.00     0.031 C 
ATOM     59  C   UNL A   1      38.410  34.400  34.390  1.00  0.00     0.029 A 
ATOM     60  C   UNL A   1      39.621  33.609  34.568  1.00  0.00     0.049 A 
ATOM     61  H   UNL A   1      40.444  32.231  33.237  1.00  0.00     0.167 HD
ATOM     62  C   UNL A   1      41.895  29.178  30.394  1.00  0.00     0.037 A 
ATOM     63  C   UNL A   1      40.425  33.641  35.648  1.00  0.00     0.037 A 
ATOM     64  C   UNL A   1      42.856  29.207  31.464  1.00  0.00     0.049 A 
ATOM     65  C   UNL A   1      41.641  32.752  35.669  1.00  0.00     0.074 A 
ATOM     66  C   UNL A   1      44.033  28.492  31.585  1.00  0.00     0.029 A 
ATOM     67  N   UNL A   1      42.750  30.000  32.599  1.00  0.00    -0.354 N 
ATOM     68  N   UNL A   1      42.053  31.898  34.762  1.00  0.00    -0.248 NA
ATOM     69  C   UNL A   1      42.505  32.835  36.854  1.00  0.00     0.031 C 
ATOM     70  C   UNL A   1      44.616  28.816  32.815  1.00  0.00     0.029 A 
ATOM     71  C   UNL A   1      43.832  29.779  33.433  1.00  0.00     0.049 A 
ATOM     72  H   UNL A   1      42.012  30.625  32.785  1.00  0.00     0.167 HD
ATOM     73  C   UNL A   1      43.244  31.372  35.248  1.00  0.00     0.074 A 
ATOM     74  C   UNL A   1      43.490  32.010  36.525  1.00  0.00     0.031 C 
ATOM     75  C   UNL A   1      44.064  30.446  34.690  1.00  0.00     0.037 A 
BRANCH  62  76
ATOM     76  C   UNL A   1      42.135  28.248  29.234  1.00  0.00     0.058 A 
ATOM     77  C   UNL A   1      43.086  28.542  28.242  1.00  0.00     0.135 A 
ATOM     78  C   UNL A   1      41.439  27.033  29.129  1.00  0.00     0.135 A 
ATOM     79  F   UNL A   1      43.768  29.698  28.279  1.00  0.00    -0.206 F 
ATOM     80  C   UNL A   1      43.320  27.679  27.177  1.00  0.00     0.059 A 
ATOM     81  C   UNL A   1      41.680  26.139  28.089  1.00  0.00     0.059 A 
ATOM     82  F   UNL A   1      40.515  26.702  30.045  1.00  0.00    -0.206 F 
ATOM     83  C   UNL A   1      42.614  26.477  27.112  1.00  0.00     0.060 A 
BRANCH  83  84
ATOM     84  S   UNL A   1      42.950  25.360  25.734  1.00  0.00     0.124 S 
ATOM     85  O   UNL A   1      44.309  25.751  25.367  1.00  0.00    -0.237 OA
ATOM     86  O   UNL A   1      42.816  24.048  26.357  1.00  0.00    -0.237 OA
ATOM     87  O   UNL A   1      41.917  25.699  24.761  1.00  0.00    -0.744 OA
ENDBRANCH  83  84
ENDBRANCH  62  76
BRANCH  63  88
ATOM     88  C   UNL A   1      40.129  34.560  36.783  1.00  0.00     0.058 A 
ATOM     89  C   UNL A   1      39.287  34.160  37.832  1.00  0.00     0.135 A 
ATOM     90  C   UNL A   1      40.671  35.853  36.842  1.00  0.00     0.135 A 
ATOM     91  F   UNL A   1      38.742  32.934  37.824  1.00  0.00    -0.206 F 
ATOM     92  C   UNL A   1      38.963  35.018  38.878  1.00  0.00     0.059 A 
ATOM     93  C   UNL A   1      40.388  36.720  37.894  1.00  0.00     0.059 A 
ATOM     94  F   UNL A   1      41.502  36.280  35.877  1.00  0.00    -0.206 F 
ATOM     95  C   UNL A   1      39.519  36.298  38.899  1.00  0.00     0.060 A 
BRANCH  95  96
ATOM     96  S   UNL A   1      39.106  37.397  40.271  1.00  0.00     0.124 S 
ATOM     97  O   UNL A   1      38.187  38.332  39.632  1.00  0.00    -0.237 OA
ATOM     98  O   UNL A   1      38.513  36.475  41.234  1.00  0.00    -0.237 OA
ATOM     99  O   UNL A   1      40.401  37.950  40.659  1.00  0.00    -0.744 OA
ENDBRANCH  95  96
ENDBRANCH  63  88
BRANCH  75 100
ATOM    100  C   UNL A   1      45.329  30.108  35.429  1.00  0.00     0.058 A 
ATOM    101  C   UNL A   1      46.471  30.920  35.355  1.00  0.00     0.135 A 
ATOM    102  C   UNL A   1      45.376  28.984  36.270  1.00  0.00     0.135 A 
ATOM    103  F   UNL A   1      46.482  32.002  34.559  1.00  0.00    -0.206 F 
ATOM    104  C   UNL A   1      47.624  30.616  36.071  1.00  0.00     0.059 A 
ATOM    105  C   UNL A   1      46.505  28.680  37.021  1.00  0.00     0.059 A 
ATOM    106  F   UNL A   1      44.305  28.181  36.384  1.00  0.00    -0.206 F 
ATOM    107  C   UNL A   1      47.628  29.497  36.906  1.00  0.00     0.060 A 
BRANCH 107 108
ATOM    108  S   UNL A   1      49.116  29.140  37.862  1.00  0.00     0.124 S 
ATOM    109  O   UNL A   1      49.804  30.427  37.827  1.00  0.00    -0.237 OA
ATOM    110  O   UNL A   1      48.569  28.749  39.157  1.00  0.00    -0.237 OA
ATOM    111  O   UNL A   1      49.757  28.066  37.108  1.00  0.00    -0.744 OA
ENDBRANCH 107 108
ENDBRANCH  75 100
ENDBRANCH  49  50
ENDBRANCH  41  44
ENDBRANCH  39  40
ENDBRANCH  38  39
ENDBRANCH  37  38
ENDBRANCH   1  37
TORSDOF 21
ENDMDL
MODEL 2
REMARK VINA RESULT:     -11.3      5.074      9.364
REMARK SMILES COc1ccc(N2C(=O)[NH+]=C(NCCCCCCNC(=O)c3ccc(-c4c5nc(c(-c6c(F)cc(S(=O)(=O)[O-])cc6F)c6ccc([nH]6)c(-c6c(F)cc(S(=O)(=O)[O-])cc6F)c6nc(c(-c7c(F)cc(S(=O)(=O)[O-])cc7F)c7ccc4[nH]7)C=C6)C=C5)cc3)/C(=C\c3cc(Cl)c(OCC(=O)[O-])c(Cl)c3)C2=O)cc1
REMARK SMILES IDX 15 1 14 2 13 3 12 4 7 5 8 6 103 7 9 8 10 9 88 10 104 11
REMARK SMILES IDX 11 12 89 14 6 16 3 17 4 18 106 19 5 20 105 21 2 22 1 23
REMARK SMILES IDX 90 24 91 25 102 26 92 27 100 28 93 29 94 30 101 31 95 32
REMARK SMILES IDX 96 33 97 34 98 35 99 36 16 37 17 38 18 39 19 40 20 41 21 43
REMARK SMILES IDX 22 44 23 45 87 46 24 47 86 48 25 49 26 50 27 51 80 52 28 53
REMARK SMILES IDX 85 54 79 55 81 56 29 57 84 58 78 59 77 60 30 62 64 63 43 64
REMARK SMILES IDX 63 65 44 66 47 67 62 68 82 69 45 70 46 71 61 73 83 74 48 75
REMARK SMILES IDX 31 76 32 77 41 78 33 79 34 80 40 81 42 82 35 83 36 84 37 85
REMARK SMILES IDX 38 86 39 87 65 88 66 89 75 90 67 91 68 92 74 93 76 94 69 95
REMARK SMILES IDX 70 96 71 97 72 98 73 99 49 100 50 101 59 102 51 103 52 104
REMARK SMILES IDX 58 105 60 106 53 107 54 108 55 109 56 110 57 111
REMARK H PARENT 10 13 12 15 19 42 81 61 47 72
REMARK Flexibility Score: inf
ROOT
ATOM      1  C   UNL A   1      33.026  29.582  27.149  1.00  0.00     0.003 C 
ENDROOT
BRANCH   1   2
ATOM      2  C   UNL A   1      33.041  28.128  26.681  1.00  0.00     0.037 C 
BRANCH   2   3
ATOM      3  C   UNL A   1      31.873  27.296  27.207  1.00  0.00     0.194 C 
BRANCH   3   4
ATOM      4  N   UNL A   1      31.271  26.529  26.124  1.00  0.00    -0.305 N 
ATOM      5  N   UNL A   1      32.642  22.744  25.155  1.00  0.00    -0.155 N 
ATOM      6  C   UNL A   1      33.201  23.542  26.156  1.00  0.00     0.448 C 
ATOM      7  C   UNL A   1      31.717  23.215  24.236  1.00  0.00     0.328 C 
ATOM      8  O   UNL A   1      34.183  23.186  26.802  1.00  0.00    -0.212 OA
ATOM      9  N   UNL A   1      32.665  24.766  26.410  1.00  0.00    -0.209 N 
ATOM     10  C   UNL A   1      31.210  24.604  24.488  1.00  0.00     0.129 C 
ATOM     11  O   UNL A   1      31.294  22.570  23.273  1.00  0.00    -0.249 OA
ATOM     12  C   UNL A   1      31.737  25.310  25.691  1.00  0.00     0.236 C 
ATOM     13  H   UNL A   1      33.005  25.268  27.187  1.00  0.00     0.270 HD
ATOM     14  C   UNL A   1      30.326  25.083  23.584  1.00  0.00     0.030 C 
ATOM     15  H   UNL A   1      30.482  26.908  25.675  1.00  0.00     0.256 HD
BRANCH   5  16
ATOM     16  C   UNL A   1      33.129  21.402  25.046  1.00  0.00     0.111 A 
ATOM     17  C   UNL A   1      34.115  18.787  24.726  1.00  0.00     0.119 A 
ATOM     18  C   UNL A   1      34.960  19.882  24.552  1.00  0.00     0.050 A 
ATOM     19  C   UNL A   1      32.783  18.996  25.087  1.00  0.00     0.050 A 
ATOM     20  C   UNL A   1      34.466  21.180  24.688  1.00  0.00     0.047 A 
ATOM     21  C   UNL A   1      32.296  20.298  25.263  1.00  0.00     0.047 A 
BRANCH  17  22
ATOM     22  O   UNL A   1      34.704  17.563  24.578  1.00  0.00    -0.497 OA
ATOM     23  C   UNL A   1      34.123  16.730  23.581  1.00  0.00     0.278 C 
ENDBRANCH  17  22
ENDBRANCH   5  16
BRANCH  14  24
ATOM     24  C   UNL A   1      29.735  26.418  23.432  1.00  0.00    -0.021 A 
ATOM     25  C   UNL A   1      28.383  26.636  23.687  1.00  0.00     0.032 A 
ATOM     26  C   UNL A   1      30.490  27.462  22.895  1.00  0.00     0.032 A 
ATOM     27  C   UNL A   1      27.809  27.887  23.414  1.00  0.00     0.085 A 
ATOM     28  C   UNL A   1      29.913  28.716  22.605  1.00  0.00     0.085 A 
ATOM     29  Cl  UNL A   1      26.113  28.058  23.740  1.00  0.00    -0.080 Cl
ATOM     30  C   UNL A   1      28.558  28.956  22.875  1.00  0.00     0.157 A 
ATOM     31  Cl  UNL A   1      30.977  29.837  21.837  1.00  0.00    -0.080 Cl
BRANCH  30  32
ATOM     32  O   UNL A   1      27.821  30.069  22.576  1.00  0.00    -0.485 OA
BRANCH  32  33
ATOM     33  C   UNL A   1      28.137  30.920  21.494  1.00  0.00     0.282 C 
BRANCH  33  34
ATOM     34  C   UNL A   1      28.018  32.419  21.684  1.00  0.00     0.079 C 
ATOM     35  O   UNL A   1      27.616  33.211  20.845  1.00  0.00    -0.546 OA
ATOM     36  O   UNL A   1      28.381  32.827  22.918  1.00  0.00    -0.546 OA
ENDBRANCH  33  34
ENDBRANCH  32  33
ENDBRANCH  30  32
ENDBRANCH  14  24
ENDBRANCH   3   4
ENDBRANCH   2   3
ENDBRANCH   1   2
BRANCH   1  37
ATOM     37  C   UNL A   1      34.399  30.248  27.222  1.00  0.00     0.002 C 
BRANCH  37  38
ATOM     38  C   UNL A   1      34.452  31.503  28.091  1.00  0.00     0.021 C 
BRANCH  38  39
ATOM     39  C   UNL A   1      35.763  31.705  28.846  1.00  0.00     0.116 C 
BRANCH  39  40
ATOM     40  N   UNL A   1      35.557  31.782  30.284  1.00  0.00    -0.352 N 
ATOM     41  C   UNL A   1      36.293  31.203  31.289  1.00  0.00     0.251 C 
ATOM     42  H   UNL A   1      34.787  32.321  30.575  1.00  0.00     0.163 HD
ATOM     43  O   UNL A   1      35.765  30.977  32.374  1.00  0.00    -0.269 OA
BRANCH  41  44
ATOM     44  C   UNL A   1      37.710  30.876  31.012  1.00  0.00     0.039 A 
ATOM     45  C   UNL A   1      38.387  29.912  31.760  1.00  0.00     0.014 A 
ATOM     46  C   UNL A   1      38.347  31.522  29.948  1.00  0.00     0.014 A 
ATOM     47  C   UNL A   1      39.673  29.527  31.369  1.00  0.00     0.010 A 
ATOM     48  C   UNL A   1      39.576  31.067  29.501  1.00  0.00     0.010 A 
ATOM     49  C   UNL A   1      40.253  30.065  30.206  1.00  0.00    -0.014 A 
BRANCH  49  50
ATOM     50  C   UNL A   1      41.560  29.599  29.682  1.00  0.00     0.031 A 
ATOM     51  C   UNL A   1      42.706  30.570  29.577  1.00  0.00     0.074 A 
ATOM     52  C   UNL A   1      41.673  28.345  29.201  1.00  0.00     0.049 A 
ATOM     53  N   UNL A   1      43.882  30.405  29.033  1.00  0.00    -0.248 NA
ATOM     54  C   UNL A   1      42.484  31.921  30.123  1.00  0.00     0.031 C 
ATOM     55  C   UNL A   1      40.605  27.342  29.193  1.00  0.00     0.029 A 
ATOM     56  N   UNL A   1      42.730  27.703  28.609  1.00  0.00    -0.354 N 
ATOM     57  C   UNL A   1      44.535  31.624  29.166  1.00  0.00     0.074 A 
ATOM     58  C   UNL A   1      43.599  32.543  29.773  1.00  0.00     0.031 C 
ATOM     59  C   UNL A   1      41.072  26.204  28.653  1.00  0.00     0.029 A 
ATOM     60  C   UNL A   1      42.452  26.410  28.232  1.00  0.00     0.049 A 
ATOM     61  H   UNL A   1      43.607  28.129  28.467  1.00  0.00     0.167 HD
ATOM     62  C   UNL A   1      45.810  31.940  28.839  1.00  0.00     0.037 A 
ATOM     63  C   UNL A   1      43.224  25.499  27.609  1.00  0.00     0.037 A 
ATOM     64  C   UNL A   1      46.734  31.007  28.250  1.00  0.00     0.049 A 
ATOM     65  C   UNL A   1      44.634  25.879  27.241  1.00  0.00     0.074 A 
ATOM     66  C   UNL A   1      48.061  31.204  27.914  1.00  0.00     0.029 A 
ATOM     67  N   UNL A   1      46.425  29.696  27.912  1.00  0.00    -0.354 N 
ATOM     68  N   UNL A   1      45.256  27.020  27.429  1.00  0.00    -0.248 NA
ATOM     69  C   UNL A   1      45.451  24.850  26.585  1.00  0.00     0.031 C 
ATOM     70  C   UNL A   1      48.542  30.028  27.331  1.00  0.00     0.029 A 
ATOM     71  C   UNL A   1      47.532  29.078  27.357  1.00  0.00     0.049 A 
ATOM     72  H   UNL A   1      45.547  29.270  28.046  1.00  0.00     0.167 HD
ATOM     73  C   UNL A   1      46.547  26.833  26.951  1.00  0.00     0.074 A 
ATOM     74  C   UNL A   1      46.619  25.466  26.474  1.00  0.00     0.031 C 
ATOM     75  C   UNL A   1      47.583  27.708  26.910  1.00  0.00     0.037 A 
BRANCH  62  76
ATOM     76  C   UNL A   1      46.284  33.339  29.131  1.00  0.00     0.058 A 
ATOM     77  C   UNL A   1      46.160  34.368  28.183  1.00  0.00     0.135 A 
ATOM     78  C   UNL A   1      46.831  33.668  30.382  1.00  0.00     0.135 A 
ATOM     79  F   UNL A   1      45.662  34.109  26.964  1.00  0.00    -0.206 F 
ATOM     80  C   UNL A   1      46.584  35.665  28.454  1.00  0.00     0.059 A 
ATOM     81  C   UNL A   1      47.232  34.966  30.687  1.00  0.00     0.059 A 
ATOM     82  F   UNL A   1      46.978  32.724  31.325  1.00  0.00    -0.206 F 
ATOM     83  C   UNL A   1      47.115  35.955  29.712  1.00  0.00     0.060 A 
BRANCH  83  84
ATOM     84  S   UNL A   1      47.637  37.649  30.051  1.00  0.00     0.124 S 
ATOM     85  O   UNL A   1      48.168  37.525  31.406  1.00  0.00    -0.237 OA
ATOM     86  O   UNL A   1      48.623  37.887  29.003  1.00  0.00    -0.237 OA
ATOM     87  O   UNL A   1      46.401  38.416  29.933  1.00  0.00    -0.744 OA
ENDBRANCH  83  84
ENDBRANCH  62  76
BRANCH  63  88
ATOM     88  C   UNL A   1      42.698  24.135  27.318  1.00  0.00     0.058 A 
ATOM     89  C   UNL A   1      42.719  23.132  28.299  1.00  0.00     0.135 A 
ATOM     90  C   UNL A   1      42.174  23.803  26.060  1.00  0.00     0.135 A 
ATOM     91  F   UNL A   1      43.211  23.397  29.519  1.00  0.00    -0.206 F 
ATOM     92  C   UNL A   1      42.273  21.841  28.035  1.00  0.00     0.059 A 
ATOM     93  C   UNL A   1      41.692  22.527  25.780  1.00  0.00     0.059 A 
ATOM     94  F   UNL A   1      42.108  24.730  25.091  1.00  0.00    -0.206 F 
ATOM     95  C   UNL A   1      41.762  21.548  26.770  1.00  0.00     0.060 A 
BRANCH  95  96
ATOM     96  S   UNL A   1      41.169  19.873  26.444  1.00  0.00     0.124 S 
ATOM     97  O   UNL A   1      42.200  19.367  25.546  1.00  0.00    -0.237 OA
ATOM     98  O   UNL A   1      41.145  19.292  27.782  1.00  0.00    -0.237 OA
ATOM     99  O   UNL A   1      39.858  20.094  25.841  1.00  0.00    -0.744 OA
ENDBRANCH  95  96
ENDBRANCH  63  88
BRANCH  75 100
ATOM    100  C   UNL A   1      48.897  27.202  26.383  1.00  0.00     0.058 A 
ATOM    101  C   UNL A   1      49.264  27.352  25.037  1.00  0.00     0.135 A 
ATOM    102  C   UNL A   1      49.825  26.610  27.255  1.00  0.00     0.135 A 
ATOM    103  F   UNL A   1      48.410  27.904  24.160  1.00  0.00    -0.206 F 
ATOM    104  C   UNL A   1      50.498  26.911  24.570  1.00  0.00     0.059 A 
ATOM    105  C   UNL A   1      51.076  26.193  26.817  1.00  0.00     0.059 A 
ATOM    106  F   UNL A   1      49.525  26.453  28.556  1.00  0.00    -0.206 F 
ATOM    107  C   UNL A   1      51.399  26.338  25.469  1.00  0.00     0.060 A 
BRANCH 107 108
ATOM    108  S   UNL A   1      53.012  25.811  24.856  1.00  0.00     0.124 S 
ATOM    109  O   UNL A   1      53.081  24.440  25.351  1.00  0.00    -0.237 OA
ATOM    110  O   UNL A   1      52.859  25.958  23.412  1.00  0.00    -0.237 OA
ATOM    111  O   UNL A   1      53.938  26.751  25.482  1.00  0.00    -0.744 OA
ENDBRANCH 107 108
ENDBRANCH  75 100
ENDBRANCH  49  50
ENDBRANCH  41  44
ENDBRANCH  39  40
ENDBRANCH  38  39
ENDBRANCH  37  38
ENDBRANCH   1  37
TORSDOF 21
ENDMDL
MODEL 3
REMARK VINA RESULT:     -11.0      1.127      2.139
REMARK SMILES COc1ccc(N2C(=O)[NH+]=C(NCCCCCCNC(=O)c3ccc(-c4c5nc(c(-c6c(F)cc(S(=O)(=O)[O-])cc6F)c6ccc([nH]6)c(-c6c(F)cc(S(=O)(=O)[O-])cc6F)c6nc(c(-c7c(F)cc(S(=O)(=O)[O-])cc7F)c7ccc4[nH]7)C=C6)C=C5)cc3)/C(=C\c3cc(Cl)c(OCC(=O)[O-])c(Cl)c3)C2=O)cc1
REMARK SMILES IDX 15 1 14 2 13 3 12 4 7 5 8 6 103 7 9 8 10 9 88 10 104 11
REMARK SMILES IDX 11 12 89 14 6 16 3 17 4 18 106 19 5 20 105 21 2 22 1 23
REMARK SMILES IDX 90 24 91 25 102 26 92 27 100 28 93 29 94 30 101 31 95 32
REMARK SMILES IDX 96 33 97 34 98 35 99 36 16 37 17 38 18 39 19 40 20 41 21 43
REMARK SMILES IDX 22 44 23 45 87 46 24 47 86 48 25 49 26 50 27 51 80 52 28 53
REMARK SMILES IDX 85 54 79 55 81 56 29 57 84 58 78 59 77 60 30 62 64 63 43 64
REMARK SMILES IDX 63 65 44 66 47 67 62 68 82 69 45 70 46 71 61 73 83 74 48 75
REMARK SMILES IDX 31 76 32 77 41 78 33 79 34 80 40 81 42 82 35 83 36 84 37 85
REMARK SMILES IDX 38 86 39 87 65 88 66 89 75 90 67 91 68 92 74 93 76 94 69 95
REMARK SMILES IDX 70 96 71 97 72 98 73 99 49 100 50 101 59 102 51 103 52 104
REMARK SMILES IDX 58 105 60 106 53 107 54 108 55 109 56 110 57 111
REMARK H PARENT 10 13 12 15 19 42 81 61 47 72
REMARK Flexibility Score: inf
ROOT
ATOM      1  C   UNL A   1      33.120  28.192  27.382  1.00  0.00     0.003 C 
ENDROOT
BRANCH   1   2
ATOM      2  C   UNL A   1      33.457  27.117  26.350  1.00  0.00     0.037 C 
BRANCH   2   3
ATOM      3  C   UNL A   1      33.081  25.702  26.785  1.00  0.00     0.194 C 
BRANCH   3   4
ATOM      4  N   UNL A   1      32.409  25.002  25.698  1.00  0.00    -0.305 N 
ATOM      5  N   UNL A   1      33.146  20.997  24.945  1.00  0.00    -0.155 N 
ATOM      6  C   UNL A   1      33.786  21.732  25.946  1.00  0.00     0.448 C 
ATOM      7  C   UNL A   1      32.363  21.578  23.959  1.00  0.00     0.328 C 
ATOM      8  O   UNL A   1      34.659  21.243  26.659  1.00  0.00    -0.212 OA
ATOM      9  N   UNL A   1      33.460  23.040  26.125  1.00  0.00    -0.209 N 
ATOM     10  C   UNL A   1      32.094  23.043  24.133  1.00  0.00     0.129 C 
ATOM     11  O   UNL A   1      31.883  20.972  22.999  1.00  0.00    -0.249 OA
ATOM     12  C   UNL A   1      32.676  23.702  25.336  1.00  0.00     0.236 C 
ATOM     13  H   UNL A   1      33.843  23.511  26.902  1.00  0.00     0.270 HD
ATOM     14  C   UNL A   1      31.352  23.625  23.164  1.00  0.00     0.030 C 
ATOM     15  H   UNL A   1      31.721  25.489  25.192  1.00  0.00     0.256 HD
BRANCH   5  16
ATOM     16  C   UNL A   1      33.397  19.588  24.912  1.00  0.00     0.111 A 
ATOM     17  C   UNL A   1      33.876  16.817  24.960  1.00  0.00     0.119 A 
ATOM     18  C   UNL A   1      32.670  17.328  25.434  1.00  0.00     0.050 A 
ATOM     19  C   UNL A   1      34.834  17.686  24.436  1.00  0.00     0.050 A 
ATOM     20  C   UNL A   1      32.440  18.704  25.432  1.00  0.00     0.047 A 
ATOM     21  C   UNL A   1      34.589  19.065  24.397  1.00  0.00     0.047 A 
BRANCH  17  22
ATOM     22  O   UNL A   1      33.991  15.455  24.999  1.00  0.00    -0.497 OA
ATOM     23  C   UNL A   1      32.864  14.770  25.534  1.00  0.00     0.278 C 
ENDBRANCH  17  22
ENDBRANCH   5  16
BRANCH  14  24
ATOM     24  C   UNL A   1      31.010  25.033  22.930  1.00  0.00    -0.021 A 
ATOM     25  C   UNL A   1      31.979  25.949  22.527  1.00  0.00     0.032 A 
ATOM     26  C   UNL A   1      29.734  25.505  23.240  1.00  0.00     0.032 A 
ATOM     27  C   UNL A   1      31.663  27.312  22.433  1.00  0.00     0.085 A 
ATOM     28  C   UNL A   1      29.416  26.877  23.161  1.00  0.00     0.085 A 
ATOM     29  Cl  UNL A   1      32.941  28.383  21.949  1.00  0.00    -0.080 Cl
ATOM     30  C   UNL A   1      30.376  27.808  22.739  1.00  0.00     0.157 A 
ATOM     31  Cl  UNL A   1      27.826  27.279  23.698  1.00  0.00    -0.080 Cl
BRANCH  30  32
ATOM     32  O   UNL A   1      30.268  29.171  22.692  1.00  0.00    -0.485 OA
BRANCH  32  33
ATOM     33  C   UNL A   1      29.796  29.933  23.783  1.00  0.00     0.282 C 
BRANCH  33  34
ATOM     34  C   UNL A   1      28.750  31.000  23.533  1.00  0.00     0.079 C 
ATOM     35  O   UNL A   1      28.972  32.193  23.391  1.00  0.00    -0.546 OA
ATOM     36  O   UNL A   1      27.498  30.503  23.443  1.00  0.00    -0.546 OA
ENDBRANCH  33  34
ENDBRANCH  32  33
ENDBRANCH  30  32
ENDBRANCH  14  24
ENDBRANCH   3   4
ENDBRANCH   2   3
ENDBRANCH   1   2
BRANCH   1  37
ATOM     37  C   UNL A   1      34.064  29.394  27.391  1.00  0.00     0.002 C 
BRANCH  37  38
ATOM     38  C   UNL A   1      33.366  30.752  27.386  1.00  0.00     0.021 C 
BRANCH  38  39
ATOM     39  C   UNL A   1      34.304  31.954  27.448  1.00  0.00     0.116 C 
BRANCH  39  40
ATOM     40  N   UNL A   1      33.600  33.175  27.808  1.00  0.00    -0.352 N 
ATOM     41  C   UNL A   1      33.628  33.865  28.995  1.00  0.00     0.251 C 
ATOM     42  H   UNL A   1      33.026  33.558  27.105  1.00  0.00     0.163 HD
ATOM     43  O   UNL A   1      32.678  34.578  29.304  1.00  0.00    -0.269 OA
BRANCH  41  44
ATOM     44  C   UNL A   1      34.821  33.714  29.857  1.00  0.00     0.039 A 
ATOM     45  C   UNL A   1      34.806  32.871  30.968  1.00  0.00     0.014 A 
ATOM     46  C   UNL A   1      35.989  34.401  29.507  1.00  0.00     0.014 A 
ATOM     47  C   UNL A   1      35.996  32.641  31.666  1.00  0.00     0.010 A 
ATOM     48  C   UNL A   1      37.184  34.093  30.133  1.00  0.00     0.010 A 
ATOM     49  C   UNL A   1      37.202  33.210  31.220  1.00  0.00    -0.014 A 
BRANCH  49  50
ATOM     50  C   UNL A   1      38.508  32.899  31.850  1.00  0.00     0.031 A 
ATOM     51  C   UNL A   1      39.429  31.903  31.197  1.00  0.00     0.074 A 
ATOM     52  C   UNL A   1      38.805  33.426  33.054  1.00  0.00     0.049 A 
ATOM     53  N   UNL A   1      40.548  31.396  31.641  1.00  0.00    -0.248 NA
ATOM     54  C   UNL A   1      39.013  31.375  29.884  1.00  0.00     0.031 C 
ATOM     55  C   UNL A   1      37.955  34.352  33.807  1.00  0.00     0.029 A 
ATOM     56  N   UNL A   1      39.895  33.247  33.867  1.00  0.00    -0.354 N 
ATOM     57  C   UNL A   1      40.966  30.492  30.672  1.00  0.00     0.074 A 
ATOM     58  C   UNL A   1      39.944  30.463  29.651  1.00  0.00     0.031 C 
ATOM     59  C   UNL A   1      38.568  34.681  34.955  1.00  0.00     0.029 A 
ATOM     60  C   UNL A   1      39.829  33.955  35.045  1.00  0.00     0.049 A 
ATOM     61  H   UNL A   1      40.653  32.664  33.631  1.00  0.00     0.167 HD
ATOM     62  C   UNL A   1      42.113  29.776  30.624  1.00  0.00     0.037 A 
ATOM     63  C   UNL A   1      40.689  34.004  36.081  1.00  0.00     0.037 A 
ATOM     64  C   UNL A   1      43.128  29.831  31.642  1.00  0.00     0.049 A 
ATOM     65  C   UNL A   1      41.951  33.185  36.010  1.00  0.00     0.074 A 
ATOM     66  C   UNL A   1      44.348  29.180  31.679  1.00  0.00     0.029 A 
ATOM     67  N   UNL A   1      43.040  30.585  32.805  1.00  0.00    -0.354 N 
ATOM     68  N   UNL A   1      42.359  32.381  35.057  1.00  0.00    -0.248 NA
ATOM     69  C   UNL A   1      42.872  33.285  37.150  1.00  0.00     0.031 C 
ATOM     70  C   UNL A   1      44.978  29.504  32.885  1.00  0.00     0.029 A 
ATOM     71  C   UNL A   1      44.177  30.403  33.573  1.00  0.00     0.049 A 
ATOM     72  H   UNL A   1      42.281  31.162  33.048  1.00  0.00     0.167 HD
ATOM     73  C   UNL A   1      43.602  31.910  35.463  1.00  0.00     0.074 A 
ATOM     74  C   UNL A   1      43.881  32.527  36.744  1.00  0.00     0.031 C 
ATOM     75  C   UNL A   1      44.440  31.048  34.835  1.00  0.00     0.037 A 
BRANCH  62  76
ATOM     76  C   UNL A   1      42.340  28.894  29.425  1.00  0.00     0.058 A 
ATOM     77  C   UNL A   1      43.117  29.321  28.335  1.00  0.00     0.135 A 
ATOM     78  C   UNL A   1      41.812  27.593  29.378  1.00  0.00     0.135 A 
ATOM     79  F   UNL A   1      43.632  30.561  28.316  1.00  0.00    -0.206 F 
ATOM     80  C   UNL A   1      43.340  28.503  27.233  1.00  0.00     0.059 A 
ATOM     81  C   UNL A   1      42.049  26.746  28.299  1.00  0.00     0.059 A 
ATOM     82  F   UNL A   1      41.058  27.132  30.389  1.00  0.00    -0.206 F 
ATOM     83  C   UNL A   1      42.805  27.214  27.226  1.00  0.00     0.060 A 
BRANCH  83  84
ATOM     84  S   UNL A   1      43.127  26.161  25.796  1.00  0.00     0.124 S 
ATOM     85  O   UNL A   1      43.251  24.848  26.424  1.00  0.00    -0.237 OA
ATOM     86  O   UNL A   1      41.932  26.365  24.985  1.00  0.00    -0.237 OA
ATOM     87  O   UNL A   1      44.361  26.707  25.241  1.00  0.00    -0.744 OA
ENDBRANCH  83  84
ENDBRANCH  62  76
BRANCH  63  88
ATOM     88  C   UNL A   1      40.405  34.874  37.258  1.00  0.00     0.058 A 
ATOM     89  C   UNL A   1      41.024  36.125  37.392  1.00  0.00     0.135 A 
ATOM     90  C   UNL A   1      39.520  34.474  38.270  1.00  0.00     0.135 A 
ATOM     91  F   UNL A   1      41.880  36.555  36.452  1.00  0.00    -0.206 F 
ATOM     92  C   UNL A   1      40.806  36.933  38.504  1.00  0.00     0.059 A 
ATOM     93  C   UNL A   1      39.260  35.278  39.377  1.00  0.00     0.059 A 
ATOM     94  F   UNL A   1      38.882  33.296  38.181  1.00  0.00    -0.206 F 
ATOM     95  C   UNL A   1      39.922  36.499  39.492  1.00  0.00     0.060 A 
BRANCH  95  96
ATOM     96  S   UNL A   1      39.633  37.565  40.922  1.00  0.00     0.124 S 
ATOM     97  O   UNL A   1      38.529  38.393  40.452  1.00  0.00    -0.237 OA
ATOM     98  O   UNL A   1      39.308  36.597  41.964  1.00  0.00    -0.237 OA
ATOM     99  O   UNL A   1      40.911  38.251  41.091  1.00  0.00    -0.744 OA
ENDBRANCH  95  96
ENDBRANCH  63  88
BRANCH  75 100
ATOM    100  C   UNL A   1      45.761  30.762  35.495  1.00  0.00     0.058 A 
ATOM    101  C   UNL A   1      45.930  29.689  36.383  1.00  0.00     0.135 A 
ATOM    102  C   UNL A   1      46.887  31.543  35.185  1.00  0.00     0.135 A 
ATOM    103  F   UNL A   1      44.885  28.917  36.719  1.00  0.00    -0.206 F 
ATOM    104  C   UNL A   1      47.167  29.414  36.959  1.00  0.00     0.059 A 
ATOM    105  C   UNL A   1      48.138  31.266  35.722  1.00  0.00     0.059 A 
ATOM    106  F   UNL A   1      46.779  32.575  34.332  1.00  0.00    -0.206 F 
ATOM    107  C   UNL A   1      48.265  30.205  36.617  1.00  0.00     0.060 A 
BRANCH 107 108
ATOM    108  S   UNL A   1      49.870  29.809  37.339  1.00  0.00     0.124 S 
ATOM    109  O   UNL A   1      49.975  30.813  38.394  1.00  0.00    -0.237 OA
ATOM    110  O   UNL A   1      49.679  28.433  37.789  1.00  0.00    -0.237 OA
ATOM    111  O   UNL A   1      50.797  29.974  36.222  1.00  0.00    -0.744 OA
ENDBRANCH 107 108
ENDBRANCH  75 100
ENDBRANCH  49  50
ENDBRANCH  41  44
ENDBRANCH  39  40
ENDBRANCH  38  39
ENDBRANCH  37  38
ENDBRANCH   1  37
TORSDOF 21
ENDMDL
