MODEL 1
REMARK VINA RESULT:     -11.2      0.000      0.000
REMARK SMILES Cc1cccc(Nc2ccccc2C(=O)NCCCCCCNC(=O)c2ccc(-c3c4nc(c(-c5c(F)cc(S(=O)(=O)[O-])cc5F)c5ccc([nH]5)c(-c5c(F)cc(S(=O)(=O)[O-])cc5F)c5nc(c(-c6c(F)cc(S(=O)(=O)[O-])cc6F)c6ccc3[nH]6)C=C5)C=C4)cc2)c1C
REMARK SMILES IDX 20 1 19 2 18 3 17 4 16 5 14 6 15 7 13 9 8 10 9 11 10 12
REMARK SMILES IDX 12 13 11 14 7 15 6 17 1 18 2 19 3 20 92 21 4 22 93 23 5 24
REMARK SMILES IDX 21 25 22 26 23 27 24 28 25 30 26 31 27 32 91 33 28 34 90 35
REMARK SMILES IDX 29 36 30 37 31 38 84 39 32 40 89 41 83 42 85 43 33 44 88 45
REMARK SMILES IDX 82 46 81 47 34 49 68 50 47 51 67 52 48 53 51 54 66 55 86 56
REMARK SMILES IDX 49 57 50 58 65 60 87 61 52 62 35 63 36 64 45 65 37 66 38 67
REMARK SMILES IDX 44 68 46 69 39 70 40 71 41 72 42 73 43 74 69 75 70 76 79 77
REMARK SMILES IDX 71 78 72 79 78 80 80 81 73 82 74 83 75 84 76 85 77 86 53 87
REMARK SMILES IDX 54 88 63 89 55 90 56 91 62 92 64 93 57 94 58 95 59 96 60 97
REMARK SMILES IDX 61 98
REMARK H PARENT 16 8 7 16 23 29 85 48 51 59
REMARK Flexibility Score: inf
ROOT
ATOM      1  C   UNL A   1      32.037  26.723  26.042  1.00  0.00     0.002 C 
ENDROOT
BRANCH   1   2
ATOM      2  C   UNL A   1      32.510  25.263  26.047  1.00  0.00     0.002 C 
BRANCH   2   3
ATOM      3  C   UNL A   1      31.507  24.192  26.502  1.00  0.00     0.021 C 
BRANCH   3   4
ATOM      4  C   UNL A   1      32.093  22.939  27.147  1.00  0.00     0.116 C 
BRANCH   4   5
ATOM      5  N   UNL A   1      31.799  21.711  26.450  1.00  0.00    -0.352 N 
ATOM      6  C   UNL A   1      32.305  21.219  25.271  1.00  0.00     0.253 C 
ATOM      7  O   UNL A   1      31.960  20.075  24.952  1.00  0.00    -0.269 OA
ATOM      8  H   UNL A   1      31.130  21.136  26.887  1.00  0.00     0.163 HD
BRANCH   6   9
ATOM      9  C   UNL A   1      33.123  22.010  24.295  1.00  0.00     0.063 A 
ATOM     10  C   UNL A   1      34.465  22.426  24.400  1.00  0.00     0.051 A 
ATOM     11  C   UNL A   1      34.997  23.229  23.358  1.00  0.00     0.027 A 
ATOM     12  C   UNL A   1      34.269  23.547  22.212  1.00  0.00     0.002 A 
ATOM     13  C   UNL A   1      32.409  22.329  23.112  1.00  0.00     0.016 A 
ATOM     14  C   UNL A   1      32.976  23.075  22.078  1.00  0.00     0.001 A 
BRANCH  10  15
ATOM     15  N   UNL A   1      35.418  22.033  25.362  1.00  0.00    -0.355 N 
ATOM     16  H   UNL A   1      35.069  21.365  25.995  1.00  0.00     0.167 HD
BRANCH  15  17
ATOM     17  C   UNL A   1      36.760  22.382  25.621  1.00  0.00     0.042 A 
ATOM     18  C   UNL A   1      40.276  20.986  26.219  1.00  0.00     0.044 C 
ATOM     19  C   UNL A   1      39.100  21.923  26.131  1.00  0.00    -0.046 A 
ATOM     20  C   UNL A   1      39.261  23.240  26.585  1.00  0.00     0.004 A 
ATOM     21  C   UNL A   1      37.861  21.505  25.579  1.00  0.00    -0.025 A 
ATOM     22  C   UNL A   1      38.211  24.142  26.510  1.00  0.00     0.002 A 
ATOM     23  C   UNL A   1      37.785  20.159  24.903  1.00  0.00     0.047 C 
ATOM     24  C   UNL A   1      36.974  23.711  26.044  1.00  0.00     0.026 A 
ENDBRANCH  15  17
ENDBRANCH  10  15
ENDBRANCH   6   9
ENDBRANCH   4   5
ENDBRANCH   3   4
ENDBRANCH   2   3
ENDBRANCH   1   2
BRANCH   1  25
ATOM     25  C   UNL A   1      32.824  27.710  26.904  1.00  0.00     0.021 C 
BRANCH  25  26
ATOM     26  C   UNL A   1      33.861  28.562  26.185  1.00  0.00     0.116 C 
BRANCH  26  27
ATOM     27  N   UNL A   1      33.716  29.982  26.455  1.00  0.00    -0.352 N 
ATOM     28  C   UNL A   1      34.438  30.803  27.288  1.00  0.00     0.251 C 
ATOM     29  H   UNL A   1      32.985  30.425  25.965  1.00  0.00     0.163 HD
ATOM     30  O   UNL A   1      34.053  31.953  27.482  1.00  0.00    -0.269 OA
BRANCH  28  31
ATOM     31  C   UNL A   1      35.660  30.312  27.973  1.00  0.00     0.039 A 
ATOM     32  C   UNL A   1      36.896  30.458  27.335  1.00  0.00     0.014 A 
ATOM     33  C   UNL A   1      35.596  29.679  29.217  1.00  0.00     0.014 A 
ATOM     34  C   UNL A   1      38.068  30.028  27.966  1.00  0.00     0.010 A 
ATOM     35  C   UNL A   1      36.770  29.320  29.878  1.00  0.00     0.010 A 
ATOM     36  C   UNL A   1      38.018  29.482  29.258  1.00  0.00    -0.014 A 
BRANCH  36  37
ATOM     37  C   UNL A   1      39.249  29.051  29.974  1.00  0.00     0.031 A 
ATOM     38  C   UNL A   1      39.683  29.775  31.221  1.00  0.00     0.074 A 
ATOM     39  C   UNL A   1      40.022  28.075  29.459  1.00  0.00     0.049 A 
ATOM     40  N   UNL A   1      40.786  29.647  31.913  1.00  0.00    -0.248 NA
ATOM     41  C   UNL A   1      38.768  30.805  31.740  1.00  0.00     0.031 C 
ATOM     42  C   UNL A   1      39.736  27.325  28.234  1.00  0.00     0.029 A 
ATOM     43  N   UNL A   1      41.222  27.561  29.888  1.00  0.00    -0.354 N 
ATOM     44  C   UNL A   1      40.714  30.598  32.924  1.00  0.00     0.074 A 
ATOM     45  C   UNL A   1      39.478  31.324  32.732  1.00  0.00     0.031 C 
ATOM     46  C   UNL A   1      40.726  26.445  28.016  1.00  0.00     0.029 A 
ATOM     47  C   UNL A   1      41.737  26.593  29.059  1.00  0.00     0.049 A 
ATOM     48  H   UNL A   1      41.670  27.858  30.714  1.00  0.00     0.167 HD
ATOM     49  C   UNL A   1      41.589  30.834  33.931  1.00  0.00     0.037 A 
ATOM     50  C   UNL A   1      42.899  25.912  29.120  1.00  0.00     0.037 A 
ATOM     51  C   UNL A   1      42.796  30.077  34.142  1.00  0.00     0.049 A 
ATOM     52  C   UNL A   1      43.846  26.171  30.259  1.00  0.00     0.074 A 
ATOM     53  C   UNL A   1      43.708  30.186  35.176  1.00  0.00     0.029 A 
ATOM     54  N   UNL A   1      43.258  29.073  33.304  1.00  0.00    -0.354 N 
ATOM     55  N   UNL A   1      43.733  27.034  31.242  1.00  0.00    -0.248 NA
ATOM     56  C   UNL A   1      45.075  25.367  30.304  1.00  0.00     0.031 C 
ATOM     57  C   UNL A   1      44.743  29.275  34.944  1.00  0.00     0.029 A 
ATOM     58  C   UNL A   1      44.452  28.566  33.788  1.00  0.00     0.049 A 
ATOM     59  H   UNL A   1      42.804  28.765  32.487  1.00  0.00     0.167 HD
ATOM     60  C   UNL A   1      44.861  26.857  32.035  1.00  0.00     0.074 A 
ATOM     61  C   UNL A   1      45.643  25.803  31.422  1.00  0.00     0.031 C 
ATOM     62  C   UNL A   1      45.213  27.508  33.171  1.00  0.00     0.037 A 
BRANCH  49  63
ATOM     63  C   UNL A   1      41.274  31.958  34.878  1.00  0.00     0.058 A 
ATOM     64  C   UNL A   1      40.449  31.773  36.000  1.00  0.00     0.135 A 
ATOM     65  C   UNL A   1      41.820  33.237  34.673  1.00  0.00     0.135 A 
ATOM     66  F   UNL A   1      39.891  30.576  36.237  1.00  0.00    -0.206 F 
ATOM     67  C   UNL A   1      40.142  32.823  36.859  1.00  0.00     0.059 A 
ATOM     68  C   UNL A   1      41.550  34.294  35.537  1.00  0.00     0.059 A 
ATOM     69  F   UNL A   1      42.618  33.470  33.620  1.00  0.00    -0.206 F 
ATOM     70  C   UNL A   1      40.693  34.082  36.616  1.00  0.00     0.060 A 
BRANCH  70  71
ATOM     71  S   UNL A   1      40.273  35.439  37.730  1.00  0.00     0.124 S 
ATOM     72  O   UNL A   1      41.466  35.503  38.570  1.00  0.00    -0.237 OA
ATOM     73  O   UNL A   1      40.086  36.555  36.809  1.00  0.00    -0.237 OA
ATOM     74  O   UNL A   1      39.062  34.970  38.396  1.00  0.00    -0.744 OA
ENDBRANCH  70  71
ENDBRANCH  49  63
BRANCH  50  75
ATOM     75  C   UNL A   1      43.217  24.905  28.072  1.00  0.00     0.058 A 
ATOM     76  C   UNL A   1      43.894  25.274  26.900  1.00  0.00     0.135 A 
ATOM     77  C   UNL A   1      42.892  23.551  28.241  1.00  0.00     0.135 A 
ATOM     78  F   UNL A   1      44.219  26.559  26.691  1.00  0.00    -0.206 F 
ATOM     79  C   UNL A   1      44.234  24.338  25.929  1.00  0.00     0.059 A 
ATOM     80  C   UNL A   1      43.241  22.592  27.295  1.00  0.00     0.059 A 
ATOM     81  F   UNL A   1      42.258  23.144  29.352  1.00  0.00    -0.206 F 
ATOM     82  C   UNL A   1      43.908  22.996  26.140  1.00  0.00     0.060 A 
BRANCH  82  83
ATOM     83  S   UNL A   1      44.420  21.778  24.908  1.00  0.00     0.124 S 
ATOM     84  O   UNL A   1      44.128  22.477  23.663  1.00  0.00    -0.237 OA
ATOM     85  O   UNL A   1      45.834  21.599  25.224  1.00  0.00    -0.237 OA
ATOM     86  O   UNL A   1      43.571  20.628  25.202  1.00  0.00    -0.744 OA
ENDBRANCH  82  83
ENDBRANCH  50  75
BRANCH  62  87
ATOM     87  C   UNL A   1      46.484  27.085  33.855  1.00  0.00     0.058 A 
ATOM     88  C   UNL A   1      47.703  27.732  33.608  1.00  0.00     0.135 A 
ATOM     89  C   UNL A   1      46.460  26.078  34.834  1.00  0.00     0.135 A 
ATOM     90  F   UNL A   1      47.781  28.695  32.676  1.00  0.00    -0.206 F 
ATOM     91  C   UNL A   1      48.858  27.394  34.306  1.00  0.00     0.059 A 
ATOM     92  C   UNL A   1      47.596  25.740  35.561  1.00  0.00     0.059 A 
ATOM     93  F   UNL A   1      45.315  25.433  35.111  1.00  0.00    -0.206 F 
ATOM     94  C   UNL A   1      48.792  26.401  35.287  1.00  0.00     0.060 A 
BRANCH  94  95
ATOM     95  S   UNL A   1      50.281  26.019  36.234  1.00  0.00     0.124 S 
ATOM     96  O   UNL A   1      50.384  27.186  37.105  1.00  0.00    -0.237 OA
ATOM     97  O   UNL A   1      49.920  24.768  36.892  1.00  0.00    -0.237 OA
ATOM     98  O   UNL A   1      51.316  25.906  35.211  1.00  0.00    -0.744 OA
ENDBRANCH  94  95
ENDBRANCH  62  87
ENDBRANCH  36  37
ENDBRANCH  28  31
ENDBRANCH  26  27
ENDBRANCH  25  26
ENDBRANCH   1  25
TORSDOF 18
ENDMDL
MODEL 2
REMARK VINA RESULT:     -11.2      4.921      6.900
REMARK SMILES Cc1cccc(Nc2ccccc2C(=O)NCCCCCCNC(=O)c2ccc(-c3c4nc(c(-c5c(F)cc(S(=O)(=O)[O-])cc5F)c5ccc([nH]5)c(-c5c(F)cc(S(=O)(=O)[O-])cc5F)c5nc(c(-c6c(F)cc(S(=O)(=O)[O-])cc6F)c6ccc3[nH]6)C=C5)C=C4)cc2)c1C
REMARK SMILES IDX 20 1 19 2 18 3 17 4 16 5 14 6 15 7 13 9 8 10 9 11 10 12
REMARK SMILES IDX 12 13 11 14 7 15 6 17 1 18 2 19 3 20 92 21 4 22 93 23 5 24
REMARK SMILES IDX 21 25 22 26 23 27 24 28 25 30 26 31 27 32 91 33 28 34 90 35
REMARK SMILES IDX 29 36 30 37 31 38 84 39 32 40 89 41 83 42 85 43 33 44 88 45
REMARK SMILES IDX 82 46 81 47 34 49 68 50 47 51 67 52 48 53 51 54 66 55 86 56
REMARK SMILES IDX 49 57 50 58 65 60 87 61 52 62 35 63 36 64 45 65 37 66 38 67
REMARK SMILES IDX 44 68 46 69 39 70 40 71 41 72 42 73 43 74 69 75 70 76 79 77
REMARK SMILES IDX 71 78 72 79 78 80 80 81 73 82 74 83 75 84 76 85 77 86 53 87
REMARK SMILES IDX 54 88 63 89 55 90 56 91 62 92 64 93 57 94 58 95 59 96 60 97
REMARK SMILES IDX 61 98
REMARK H PARENT 16 8 7 16 23 29 85 48 51 59
REMARK Flexibility Score: inf
ROOT
ATOM      1  C   UNL A   1      33.079  30.406  27.021  1.00  0.00     0.002 C 
ENDROOT
BRANCH   1   2
ATOM      2  C   UNL A   1      31.916  29.438  27.271  1.00  0.00     0.002 C 
BRANCH   2   3
ATOM      3  C   UNL A   1      31.671  28.334  26.231  1.00  0.00     0.021 C 
BRANCH   3   4
ATOM      4  C   UNL A   1      32.392  27.009  26.460  1.00  0.00     0.116 C 
BRANCH   4   5
ATOM      5  N   UNL A   1      31.536  25.922  26.869  1.00  0.00    -0.352 N 
ATOM      6  C   UNL A   1      31.494  24.618  26.437  1.00  0.00     0.253 C 
ATOM      7  O   UNL A   1      30.731  23.857  27.041  1.00  0.00    -0.269 OA
ATOM      8  H   UNL A   1      30.880  26.150  27.565  1.00  0.00     0.163 HD
BRANCH   6   9
ATOM      9  C   UNL A   1      32.196  24.098  25.219  1.00  0.00     0.063 A 
ATOM     10  C   UNL A   1      31.840  24.242  23.863  1.00  0.00     0.051 A 
ATOM     11  C   UNL A   1      32.645  23.594  22.890  1.00  0.00     0.027 A 
ATOM     12  C   UNL A   1      33.804  22.896  23.222  1.00  0.00     0.002 A 
ATOM     13  C   UNL A   1      33.391  23.400  25.530  1.00  0.00     0.016 A 
ATOM     14  C   UNL A   1      34.193  22.819  24.547  1.00  0.00     0.001 A 
BRANCH  10  15
ATOM     15  N   UNL A   1      30.842  25.074  23.317  1.00  0.00    -0.355 N 
ATOM     16  H   UNL A   1      30.085  24.568  22.943  1.00  0.00     0.167 HD
BRANCH  15  17
ATOM     17  C   UNL A   1      30.683  26.469  23.186  1.00  0.00     0.042 A 
ATOM     18  C   UNL A   1      28.111  29.293  22.899  1.00  0.00     0.044 C 
ATOM     19  C   UNL A   1      29.407  28.527  22.889  1.00  0.00    -0.046 A 
ATOM     20  C   UNL A   1      30.569  29.188  22.468  1.00  0.00     0.004 A 
ATOM     21  C   UNL A   1      29.471  27.176  23.320  1.00  0.00    -0.025 A 
ATOM     22  C   UNL A   1      31.788  28.528  22.456  1.00  0.00     0.002 A 
ATOM     23  C   UNL A   1      28.257  26.563  23.970  1.00  0.00     0.047 C 
ATOM     24  C   UNL A   1      31.838  27.182  22.801  1.00  0.00     0.026 A 
ENDBRANCH  15  17
ENDBRANCH  10  15
ENDBRANCH   6   9
ENDBRANCH   4   5
ENDBRANCH   3   4
ENDBRANCH   2   3
ENDBRANCH   1   2
BRANCH   1  25
ATOM     25  C   UNL A   1      34.490  29.873  27.273  1.00  0.00     0.021 C 
BRANCH  25  26
ATOM     26  C   UNL A   1      35.471  30.836  27.931  1.00  0.00     0.116 C 
BRANCH  26  27
ATOM     27  N   UNL A   1      35.353  30.866  29.378  1.00  0.00    -0.352 N 
ATOM     28  C   UNL A   1      36.262  30.515  30.348  1.00  0.00     0.251 C 
ATOM     29  H   UNL A   1      34.486  31.188  29.717  1.00  0.00     0.163 HD
ATOM     30  O   UNL A   1      35.904  30.478  31.522  1.00  0.00    -0.269 OA
BRANCH  28  31
ATOM     31  C   UNL A   1      37.658  30.158  29.993  1.00  0.00     0.039 A 
ATOM     32  C   UNL A   1      38.564  29.875  31.020  1.00  0.00     0.014 A 
ATOM     33  C   UNL A   1      38.091  30.134  28.665  1.00  0.00     0.014 A 
ATOM     34  C   UNL A   1      39.880  29.511  30.716  1.00  0.00     0.010 A 
ATOM     35  C   UNL A   1      39.379  29.698  28.359  1.00  0.00     0.010 A 
ATOM     36  C   UNL A   1      40.291  29.390  29.380  1.00  0.00    -0.014 A 
BRANCH  36  37
ATOM     37  C   UNL A   1      41.672  28.966  29.021  1.00  0.00     0.031 A 
ATOM     38  C   UNL A   1      42.784  29.982  28.993  1.00  0.00     0.074 A 
ATOM     39  C   UNL A   1      41.909  27.697  28.635  1.00  0.00     0.049 A 
ATOM     40  N   UNL A   1      44.018  29.847  28.579  1.00  0.00    -0.248 NA
ATOM     41  C   UNL A   1      42.454  31.337  29.461  1.00  0.00     0.031 C 
ATOM     42  C   UNL A   1      40.910  26.629  28.577  1.00  0.00     0.029 A 
ATOM     43  N   UNL A   1      43.063  27.094  28.195  1.00  0.00    -0.354 N 
ATOM     44  C   UNL A   1      44.600  31.104  28.704  1.00  0.00     0.074 A 
ATOM     45  C   UNL A   1      43.573  31.996  29.194  1.00  0.00     0.031 C 
ATOM     46  C   UNL A   1      41.494  25.503  28.136  1.00  0.00     0.029 A 
ATOM     47  C   UNL A   1      42.897  25.776  27.840  1.00  0.00     0.049 A 
ATOM     48  H   UNL A   1      43.928  27.563  28.140  1.00  0.00     0.167 HD
ATOM     49  C   UNL A   1      45.878  31.476  28.452  1.00  0.00     0.037 A 
ATOM     50  C   UNL A   1      43.771  24.891  27.320  1.00  0.00     0.037 A 
ATOM     51  C   UNL A   1      46.907  30.572  28.007  1.00  0.00     0.049 A 
ATOM     52  C   UNL A   1      45.191  25.317  27.070  1.00  0.00     0.074 A 
ATOM     53  C   UNL A   1      48.249  30.834  27.798  1.00  0.00     0.029 A 
ATOM     54  N   UNL A   1      46.708  29.233  27.704  1.00  0.00    -0.354 N 
ATOM     55  N   UNL A   1      45.740  26.496  27.252  1.00  0.00    -0.248 NA
ATOM     56  C   UNL A   1      46.114  24.299  26.548  1.00  0.00     0.031 C 
ATOM     57  C   UNL A   1      48.855  29.663  27.331  1.00  0.00     0.029 A 
ATOM     58  C   UNL A   1      47.898  28.660  27.292  1.00  0.00     0.049 A 
ATOM     59  H   UNL A   1      45.847  28.760  27.773  1.00  0.00     0.167 HD
ATOM     60  C   UNL A   1      47.076  26.353  26.892  1.00  0.00     0.074 A 
ATOM     61  C   UNL A   1      47.255  24.974  26.486  1.00  0.00     0.031 C 
ATOM     62  C   UNL A   1      48.064  27.282  26.902  1.00  0.00     0.037 A 
BRANCH  49  63
ATOM     63  C   UNL A   1      46.233  32.924  28.647  1.00  0.00     0.058 A 
ATOM     64  C   UNL A   1      46.686  33.417  29.881  1.00  0.00     0.135 A 
ATOM     65  C   UNL A   1      46.136  33.832  27.578  1.00  0.00     0.135 A 
ATOM     66  F   UNL A   1      46.785  32.597  30.940  1.00  0.00    -0.206 F 
ATOM     67  C   UNL A   1      46.989  34.762  30.062  1.00  0.00     0.059 A 
ATOM     68  C   UNL A   1      46.463  35.176  27.727  1.00  0.00     0.059 A 
ATOM     69  F   UNL A   1      45.713  33.415  26.374  1.00  0.00    -0.206 F 
ATOM     70  C   UNL A   1      46.870  35.635  28.980  1.00  0.00     0.060 A 
BRANCH  70  71
ATOM     71  S   UNL A   1      47.252  37.382  29.232  1.00  0.00     0.124 S 
ATOM     72  O   UNL A   1      48.581  37.477  28.634  1.00  0.00    -0.237 OA
ATOM     73  O   UNL A   1      46.179  38.047  28.501  1.00  0.00    -0.237 OA
ATOM     74  O   UNL A   1      47.205  37.534  30.683  1.00  0.00    -0.744 OA
ENDBRANCH  70  71
ENDBRANCH  49  63
BRANCH  50  75
ATOM     75  C   UNL A   1      43.321  23.505  27.020  1.00  0.00     0.058 A 
ATOM     76  C   UNL A   1      43.138  23.078  25.697  1.00  0.00     0.135 A 
ATOM     77  C   UNL A   1      43.110  22.570  28.045  1.00  0.00     0.135 A 
ATOM     78  F   UNL A   1      43.322  23.938  24.683  1.00  0.00    -0.206 F 
ATOM     79  C   UNL A   1      42.757  21.774  25.398  1.00  0.00     0.059 A 
ATOM     80  C   UNL A   1      42.750  21.254  27.770  1.00  0.00     0.059 A 
ATOM     81  F   UNL A   1      43.287  22.925  29.327  1.00  0.00    -0.206 F 
ATOM     82  C   UNL A   1      42.572  20.866  26.443  1.00  0.00     0.060 A 
BRANCH  82  83
ATOM     83  S   UNL A   1      42.150  19.156  26.041  1.00  0.00     0.124 S 
ATOM     84  O   UNL A   1      42.657  18.446  27.208  1.00  0.00    -0.237 OA
ATOM     85  O   UNL A   1      40.698  19.222  25.913  1.00  0.00    -0.237 OA
ATOM     86  O   UNL A   1      42.871  18.919  24.794  1.00  0.00    -0.744 OA
ENDBRANCH  82  83
ENDBRANCH  50  75
BRANCH  62  87
ATOM     87  C   UNL A   1      49.442  26.840  26.495  1.00  0.00     0.058 A 
ATOM     88  C   UNL A   1      50.304  26.197  27.394  1.00  0.00     0.135 A 
ATOM     89  C   UNL A   1      49.867  26.985  25.164  1.00  0.00     0.135 A 
ATOM     90  F   UNL A   1      49.949  26.042  28.678  1.00  0.00    -0.206 F 
ATOM     91  C   UNL A   1      51.544  25.713  26.989  1.00  0.00     0.059 A 
ATOM     92  C   UNL A   1      51.091  26.488  24.731  1.00  0.00     0.059 A 
ATOM     93  F   UNL A   1      49.074  27.588  24.263  1.00  0.00    -0.206 F 
ATOM     94  C   UNL A   1      51.926  25.857  25.652  1.00  0.00     0.060 A 
BRANCH  94  95
ATOM     95  S   UNL A   1      53.507  25.165  25.124  1.00  0.00     0.124 S 
ATOM     96  O   UNL A   1      53.584  25.627  23.742  1.00  0.00    -0.237 OA
ATOM     97  O   UNL A   1      54.446  25.786  26.052  1.00  0.00    -0.237 OA
ATOM     98  O   UNL A   1      53.324  23.727  25.297  1.00  0.00    -0.744 OA
ENDBRANCH  94  95
ENDBRANCH  62  87
ENDBRANCH  36  37
ENDBRANCH  28  31
ENDBRANCH  26  27
ENDBRANCH  25  26
ENDBRANCH   1  25
TORSDOF 18
ENDMDL
MODEL 3
REMARK VINA RESULT:     -11.1      5.009      6.398
REMARK SMILES Cc1cccc(Nc2ccccc2C(=O)NCCCCCCNC(=O)c2ccc(-c3c4nc(c(-c5c(F)cc(S(=O)(=O)[O-])cc5F)c5ccc([nH]5)c(-c5c(F)cc(S(=O)(=O)[O-])cc5F)c5nc(c(-c6c(F)cc(S(=O)(=O)[O-])cc6F)c6ccc3[nH]6)C=C5)C=C4)cc2)c1C
REMARK SMILES IDX 20 1 19 2 18 3 17 4 16 5 14 6 15 7 13 9 8 10 9 11 10 12
REMARK SMILES IDX 12 13 11 14 7 15 6 17 1 18 2 19 3 20 92 21 4 22 93 23 5 24
REMARK SMILES IDX 21 25 22 26 23 27 24 28 25 30 26 31 27 32 91 33 28 34 90 35
REMARK SMILES IDX 29 36 30 37 31 38 84 39 32 40 89 41 83 42 85 43 33 44 88 45
REMARK SMILES IDX 82 46 81 47 34 49 68 50 47 51 67 52 48 53 51 54 66 55 86 56
REMARK SMILES IDX 49 57 50 58 65 60 87 61 52 62 35 63 36 64 45 65 37 66 38 67
REMARK SMILES IDX 44 68 46 69 39 70 40 71 41 72 42 73 43 74 69 75 70 76 79 77
REMARK SMILES IDX 71 78 72 79 78 80 80 81 73 82 74 83 75 84 76 85 77 86 53 87
REMARK SMILES IDX 54 88 63 89 55 90 56 91 62 92 64 93 57 94 58 95 59 96 60 97
REMARK SMILES IDX 61 98
REMARK H PARENT 16 8 7 16 23 29 85 48 51 59
REMARK Flexibility Score: inf
ROOT
ATOM      1  C   UNL A   1      32.784  28.297  27.521  1.00  0.00     0.002 C 
ENDROOT
BRANCH   1   2
ATOM      2  C   UNL A   1      31.519  27.775  26.828  1.00  0.00     0.002 C 
BRANCH   2   3
ATOM      3  C   UNL A   1      31.432  26.267  26.545  1.00  0.00     0.021 C 
BRANCH   3   4
ATOM      4  C   UNL A   1      30.040  25.702  26.278  1.00  0.00     0.116 C 
BRANCH   4   5
ATOM      5  N   UNL A   1      29.923  24.945  25.056  1.00  0.00    -0.352 N 
ATOM      6  C   UNL A   1      30.470  25.175  23.816  1.00  0.00     0.253 C 
ATOM      7  O   UNL A   1      30.301  24.298  22.962  1.00  0.00    -0.269 OA
ATOM      8  H   UNL A   1      29.363  24.138  25.119  1.00  0.00     0.163 HD
BRANCH   6   9
ATOM      9  C   UNL A   1      31.131  26.454  23.398  1.00  0.00     0.063 A 
ATOM     10  C   UNL A   1      32.493  26.699  23.131  1.00  0.00     0.051 A 
ATOM     11  C   UNL A   1      32.880  28.026  22.809  1.00  0.00     0.027 A 
ATOM     12  C   UNL A   1      31.958  29.063  22.673  1.00  0.00     0.002 A 
ATOM     13  C   UNL A   1      30.210  27.519  23.233  1.00  0.00     0.016 A 
ATOM     14  C   UNL A   1      30.614  28.803  22.862  1.00  0.00     0.001 A 
BRANCH  10  15
ATOM     15  N   UNL A   1      33.532  25.755  23.007  1.00  0.00    -0.355 N 
ATOM     16  H   UNL A   1      34.067  25.880  22.190  1.00  0.00     0.167 HD
BRANCH  15  17
ATOM     17  C   UNL A   1      33.979  24.672  23.791  1.00  0.00     0.042 A 
ATOM     18  C   UNL A   1      33.625  20.904  24.380  1.00  0.00     0.044 C 
ATOM     19  C   UNL A   1      33.990  22.354  24.552  1.00  0.00    -0.046 A 
ATOM     20  C   UNL A   1      34.633  22.744  25.735  1.00  0.00     0.004 A 
ATOM     21  C   UNL A   1      33.721  23.310  23.537  1.00  0.00    -0.025 A 
ATOM     22  C   UNL A   1      35.001  24.066  25.932  1.00  0.00     0.002 A 
ATOM     23  C   UNL A   1      33.232  22.826  22.196  1.00  0.00     0.047 C 
ATOM     24  C   UNL A   1      34.667  25.017  24.975  1.00  0.00     0.026 A 
ENDBRANCH  15  17
ENDBRANCH  10  15
ENDBRANCH   6   9
ENDBRANCH   4   5
ENDBRANCH   3   4
ENDBRANCH   2   3
ENDBRANCH   1   2
BRANCH   1  25
ATOM     25  C   UNL A   1      33.899  28.827  26.619  1.00  0.00     0.021 C 
BRANCH  25  26
ATOM     26  C   UNL A   1      35.254  29.055  27.279  1.00  0.00     0.116 C 
BRANCH  26  27
ATOM     27  N   UNL A   1      35.172  29.879  28.473  1.00  0.00    -0.352 N 
ATOM     28  C   UNL A   1      36.147  30.226  29.377  1.00  0.00     0.251 C 
ATOM     29  H   UNL A   1      34.278  30.246  28.663  1.00  0.00     0.163 HD
ATOM     30  O   UNL A   1      35.830  30.817  30.406  1.00  0.00    -0.269 OA
BRANCH  28  31
ATOM     31  C   UNL A   1      37.569  29.875  29.139  1.00  0.00     0.039 A 
ATOM     32  C   UNL A   1      38.378  29.558  30.236  1.00  0.00     0.014 A 
ATOM     33  C   UNL A   1      38.121  29.890  27.856  1.00  0.00     0.014 A 
ATOM     34  C   UNL A   1      39.716  29.199  30.041  1.00  0.00     0.010 A 
ATOM     35  C   UNL A   1      39.431  29.459  27.655  1.00  0.00     0.010 A 
ATOM     36  C   UNL A   1      40.247  29.117  28.744  1.00  0.00    -0.014 A 
BRANCH  36  37
ATOM     37  C   UNL A   1      41.654  28.699  28.499  1.00  0.00     0.031 A 
ATOM     38  C   UNL A   1      42.753  29.730  28.499  1.00  0.00     0.074 A 
ATOM     39  C   UNL A   1      41.933  27.418  28.188  1.00  0.00     0.049 A 
ATOM     40  N   UNL A   1      44.014  29.596  28.177  1.00  0.00    -0.248 NA
ATOM     41  C   UNL A   1      42.374  31.100  28.882  1.00  0.00     0.031 C 
ATOM     42  C   UNL A   1      40.953  26.332  28.112  1.00  0.00     0.029 A 
ATOM     43  N   UNL A   1      43.121  26.815  27.855  1.00  0.00    -0.354 N 
ATOM     44  C   UNL A   1      44.569  30.867  28.284  1.00  0.00     0.074 A 
ATOM     45  C   UNL A   1      43.500  31.764  28.662  1.00  0.00     0.031 C 
ATOM     46  C   UNL A   1      41.581  25.198  27.763  1.00  0.00     0.029 A 
ATOM     47  C   UNL A   1      42.997  25.479  27.550  1.00  0.00     0.049 A 
ATOM     48  H   UNL A   1      43.982  27.294  27.837  1.00  0.00     0.167 HD
ATOM     49  C   UNL A   1      45.857  31.247  28.101  1.00  0.00     0.037 A 
ATOM     50  C   UNL A   1      43.915  24.586  27.131  1.00  0.00     0.037 A 
ATOM     51  C   UNL A   1      46.925  30.341  27.769  1.00  0.00     0.049 A 
ATOM     52  C   UNL A   1      45.344  25.022  26.958  1.00  0.00     0.074 A 
ATOM     53  C   UNL A   1      48.274  30.614  27.639  1.00  0.00     0.029 A 
ATOM     54  N   UNL A   1      46.764  28.987  27.514  1.00  0.00    -0.354 N 
ATOM     55  N   UNL A   1      45.864  26.216  27.122  1.00  0.00    -0.248 NA
ATOM     56  C   UNL A   1      46.313  23.997  26.546  1.00  0.00     0.031 C 
ATOM     57  C   UNL A   1      48.926  29.433  27.268  1.00  0.00     0.029 A 
ATOM     58  C   UNL A   1      47.987  28.414  27.210  1.00  0.00     0.049 A 
ATOM     59  H   UNL A   1      45.907  28.504  27.546  1.00  0.00     0.167 HD
ATOM     60  C   UNL A   1      47.223  26.079  26.861  1.00  0.00     0.074 A 
ATOM     61  C   UNL A   1      47.447  24.686  26.531  1.00  0.00     0.031 C 
ATOM     62  C   UNL A   1      48.196  27.023  26.895  1.00  0.00     0.037 A 
BRANCH  49  63
ATOM     63  C   UNL A   1      46.179  32.708  28.254  1.00  0.00     0.058 A 
ATOM     64  C   UNL A   1      46.576  33.255  29.484  1.00  0.00     0.135 A 
ATOM     65  C   UNL A   1      46.107  33.573  27.147  1.00  0.00     0.135 A 
ATOM     66  F   UNL A   1      46.649  32.478  30.576  1.00  0.00    -0.206 F 
ATOM     67  C   UNL A   1      46.850  34.612  29.624  1.00  0.00     0.059 A 
ATOM     68  C   UNL A   1      46.406  34.927  27.258  1.00  0.00     0.059 A 
ATOM     69  F   UNL A   1      45.737  33.103  25.946  1.00  0.00    -0.206 F 
ATOM     70  C   UNL A   1      46.756  35.441  28.506  1.00  0.00     0.060 A 
BRANCH  70  71
ATOM     71  S   UNL A   1      47.098  37.202  28.705  1.00  0.00     0.124 S 
ATOM     72  O   UNL A   1      48.047  37.438  27.620  1.00  0.00    -0.237 OA
ATOM     73  O   UNL A   1      45.779  37.801  28.533  1.00  0.00    -0.237 OA
ATOM     74  O   UNL A   1      47.652  37.291  30.052  1.00  0.00    -0.744 OA
ENDBRANCH  70  71
ENDBRANCH  49  63
BRANCH  50  75
ATOM     75  C   UNL A   1      43.505  23.181  26.865  1.00  0.00     0.058 A 
ATOM     76  C   UNL A   1      43.459  22.680  25.555  1.00  0.00     0.135 A 
ATOM     77  C   UNL A   1      43.195  22.301  27.913  1.00  0.00     0.135 A 
ATOM     78  F   UNL A   1      43.741  23.485  24.519  1.00  0.00    -0.206 F 
ATOM     79  C   UNL A   1      43.117  21.358  25.293  1.00  0.00     0.059 A 
ATOM     80  C   UNL A   1      42.871  20.969  27.678  1.00  0.00     0.059 A 
ATOM     81  F   UNL A   1      43.239  22.728  29.185  1.00  0.00    -0.206 F 
ATOM     82  C   UNL A   1      42.831  20.507  26.363  1.00  0.00     0.060 A 
BRANCH  82  83
ATOM     83  S   UNL A   1      42.459  18.773  26.016  1.00  0.00     0.124 S 
ATOM     84  O   UNL A   1      41.052  18.843  25.644  1.00  0.00    -0.237 OA
ATOM     85  O   UNL A   1      43.393  18.471  24.935  1.00  0.00    -0.237 OA
ATOM     86  O   UNL A   1      42.747  18.110  27.284  1.00  0.00    -0.744 OA
ENDBRANCH  82  83
ENDBRANCH  50  75
BRANCH  62  87
ATOM     87  C   UNL A   1      49.604  26.586  26.602  1.00  0.00     0.058 A 
ATOM     88  C   UNL A   1      50.456  26.122  27.615  1.00  0.00     0.135 A 
ATOM     89  C   UNL A   1      50.073  26.547  25.279  1.00  0.00     0.135 A 
ATOM     90  F   UNL A   1      50.059  26.146  28.896  1.00  0.00    -0.206 F 
ATOM     91  C   UNL A   1      51.728  25.637  27.326  1.00  0.00     0.059 A 
ATOM     92  C   UNL A   1      51.330  26.045  24.965  1.00  0.00     0.059 A 
ATOM     93  F   UNL A   1      49.291  26.974  24.273  1.00  0.00    -0.206 F 
ATOM     94  C   UNL A   1      52.153  25.596  25.996  1.00  0.00     0.060 A 
BRANCH  94  95
ATOM     95  S   UNL A   1      53.779  24.901  25.628  1.00  0.00     0.124 S 
ATOM     96  O   UNL A   1      54.231  25.769  24.546  1.00  0.00    -0.237 OA
ATOM     97  O   UNL A   1      54.480  25.055  26.899  1.00  0.00    -0.237 OA
ATOM     98  O   UNL A   1      53.482  23.524  25.246  1.00  0.00    -0.744 OA
ENDBRANCH  94  95
ENDBRANCH  62  87
ENDBRANCH  36  37
ENDBRANCH  28  31
ENDBRANCH  26  27
ENDBRANCH  25  26
ENDBRANCH   1  25
TORSDOF 18
ENDMDL
