MODEL 1
REMARK VINA RESULT:     -10.2      0.000      0.000
REMARK SMILES Cc1ccc(C(C)(C)C)c(OCC(=O)c2nc(C)c(C(=O)NCCCCCCNC(=O)c3ccc(-c4c5nc(c(-c6c(F)cc(S(=O)(=O)[O-])cc6F)c6ccc([nH]6)c(-c6c(F)cc(S(=O)(=O)[O-])cc6F)c6nc(c(-c7c(F)cc(S(=O)(=O)[O-])cc7F)c7ccc4[nH]7)C=C6)C=C5)cc3)s2)c1
REMARK SMILES IDX 24 1 23 2 22 3 20 4 21 5 19 7 15 8 16 9 98 10 17 11 18 12
REMARK SMILES IDX 13 13 14 14 12 15 11 16 10 17 1 18 2 19 3 20 99 21 4 22 5 23
REMARK SMILES IDX 6 24 7 25 8 26 9 27 25 28 26 29 27 30 28 31 29 32 30 33
REMARK SMILES IDX 31 35 32 36 33 37 97 38 34 39 96 40 35 41 36 42 37 43 90 44
REMARK SMILES IDX 38 45 95 46 89 47 91 48 39 49 94 50 88 51 87 52 40 54 74 55
REMARK SMILES IDX 53 56 73 57 54 58 57 59 72 60 92 61 55 62 56 63 71 65 93 66
REMARK SMILES IDX 58 67 41 68 42 69 51 70 43 71 44 72 50 73 52 74 45 75 46 76
REMARK SMILES IDX 47 77 48 78 49 79 75 80 76 81 85 82 77 83 78 84 84 85 86 86
REMARK SMILES IDX 79 87 80 88 81 89 82 90 83 91 59 92 60 93 69 94 61 95 62 96
REMARK SMILES IDX 68 97 70 98 63 99 64 100 65 101 66 102 67 103
REMARK H PARENT 22 6 29 34 91 53 57 64
REMARK Flexibility Score: inf
ROOT
ATOM      1  C   UNL A   1      41.098  40.944  30.435  1.00  0.00     0.021 C 
ENDROOT
BRANCH   1   2
ATOM      2  C   UNL A   1      40.943  41.054  28.921  1.00  0.00     0.116 C 
BRANCH   2   3
ATOM      3  N   UNL A   1      41.516  39.899  28.256  1.00  0.00    -0.351 N 
ATOM      4  C   UNL A   1      42.232  39.703  27.104  1.00  0.00     0.263 C 
ATOM      5  O   UNL A   1      42.528  38.515  26.912  1.00  0.00    -0.268 OA
ATOM      6  H   UNL A   1      41.351  39.061  28.745  1.00  0.00     0.163 HD
BRANCH   4   7
ATOM      7  C   UNL A   1      42.694  40.762  26.214  1.00  0.00     0.115 A 
ATOM      8  C   UNL A   1      42.638  42.335  24.321  1.00  0.00     0.164 A 
ATOM      9  N   UNL A   1      43.742  42.492  25.012  1.00  0.00    -0.237 NA
ATOM     10  S   UNL A   1      41.611  41.115  24.893  1.00  0.00    -0.105 S 
ATOM     11  C   UNL A   1      43.757  41.659  26.135  1.00  0.00     0.062 A 
ATOM     12  C   UNL A   1      44.891  41.920  27.059  1.00  0.00     0.068 C 
BRANCH   8  13
ATOM     13  C   UNL A   1      42.358  43.124  23.131  1.00  0.00     0.228 C 
ATOM     14  O   UNL A   1      42.101  44.335  23.166  1.00  0.00    -0.288 OA
BRANCH  13  15
ATOM     15  C   UNL A   1      42.272  42.400  21.775  1.00  0.00     0.313 C 
BRANCH  15  16
ATOM     16  O   UNL A   1      43.349  42.377  20.862  1.00  0.00    -0.485 OA
BRANCH  16  17
ATOM     17  C   UNL A   1      43.491  43.371  19.937  1.00  0.00     0.123 A 
ATOM     18  C   UNL A   1      41.450  45.180  17.260  1.00  0.00     0.044 C 
ATOM     19  C   UNL A   1      42.582  44.794  18.164  1.00  0.00    -0.047 A 
ATOM     20  C   UNL A   1      43.773  45.509  18.145  1.00  0.00     0.004 A 
ATOM     21  C   UNL A   1      42.467  43.707  19.033  1.00  0.00     0.050 A 
ATOM     22  C   UNL A   1      44.819  45.149  18.998  1.00  0.00     0.008 A 
ATOM     23  C   UNL A   1      44.712  44.082  19.923  1.00  0.00    -0.000 A 
BRANCH  23  24
ATOM     24  C   UNL A   1      45.943  43.788  20.823  1.00  0.00    -0.010 C 
ATOM     25  C   UNL A   1      46.456  42.364  20.504  1.00  0.00     0.016 C 
ATOM     26  C   UNL A   1      47.069  44.810  20.522  1.00  0.00     0.016 C 
ATOM     27  C   UNL A   1      45.731  43.831  22.353  1.00  0.00     0.016 C 
ENDBRANCH  23  24
ENDBRANCH  16  17
ENDBRANCH  15  16
ENDBRANCH  13  15
ENDBRANCH   8  13
ENDBRANCH   4   7
ENDBRANCH   2   3
ENDBRANCH   1   2
BRANCH   1  28
ATOM     28  C   UNL A   1      42.157  41.894  31.041  1.00  0.00     0.002 C 
BRANCH  28  29
ATOM     29  C   UNL A   1      43.297  41.330  31.944  1.00  0.00     0.002 C 
BRANCH  29  30
ATOM     30  C   UNL A   1      43.141  40.197  33.056  1.00  0.00     0.021 C 
BRANCH  30  31
ATOM     31  C   UNL A   1      44.076  40.244  34.348  1.00  0.00     0.116 C 
BRANCH  31  32
ATOM     32  N   UNL A   1      43.969  39.183  35.464  1.00  0.00    -0.352 N 
ATOM     33  C   UNL A   1      43.823  37.759  35.530  1.00  0.00     0.251 C 
ATOM     34  H   UNL A   1      44.014  39.588  36.360  1.00  0.00     0.163 HD
ATOM     35  O   UNL A   1      44.743  37.176  36.128  1.00  0.00    -0.269 OA
BRANCH  33  36
ATOM     36  C   UNL A   1      42.691  36.826  35.039  1.00  0.00     0.039 A 
ATOM     37  C   UNL A   1      41.690  36.371  35.944  1.00  0.00     0.014 A 
ATOM     38  C   UNL A   1      42.589  36.293  33.762  1.00  0.00     0.014 A 
ATOM     39  C   UNL A   1      41.026  35.113  35.738  1.00  0.00     0.010 A 
ATOM     40  C   UNL A   1      41.904  35.060  33.545  1.00  0.00     0.010 A 
ATOM     41  C   UNL A   1      41.288  34.353  34.589  1.00  0.00    -0.014 A 
BRANCH  41  42
ATOM     42  C   UNL A   1      41.134  32.851  34.519  1.00  0.00     0.031 A 
ATOM     43  C   UNL A   1      42.258  31.926  34.647  1.00  0.00     0.074 A 
ATOM     44  C   UNL A   1      39.967  32.150  34.455  1.00  0.00     0.049 A 
ATOM     45  N   UNL A   1      42.509  30.968  33.812  1.00  0.00    -0.248 NA
ATOM     46  C   UNL A   1      43.071  31.921  35.850  1.00  0.00     0.031 C 
ATOM     47  C   UNL A   1      39.647  30.715  34.532  1.00  0.00     0.029 A 
ATOM     48  N   UNL A   1      38.696  32.660  34.362  1.00  0.00    -0.354 N 
ATOM     49  C   UNL A   1      43.266  30.057  34.517  1.00  0.00     0.074 A 
ATOM     50  C   UNL A   1      43.728  30.767  35.698  1.00  0.00     0.031 C 
ATOM     51  C   UNL A   1      38.380  30.505  34.107  1.00  0.00     0.029 A 
ATOM     52  C   UNL A   1      37.829  31.783  33.715  1.00  0.00     0.049 A 
ATOM     53  H   UNL A   1      38.428  33.540  34.711  1.00  0.00     0.167 HD
ATOM     54  C   UNL A   1      43.217  28.713  34.255  1.00  0.00     0.037 A 
ATOM     55  C   UNL A   1      37.236  32.177  32.546  1.00  0.00     0.037 A 
ATOM     56  C   UNL A   1      42.062  28.356  33.416  1.00  0.00     0.049 A 
ATOM     57  C   UNL A   1      37.823  31.417  31.391  1.00  0.00     0.074 A 
ATOM     58  C   UNL A   1      40.890  27.663  33.699  1.00  0.00     0.029 A 
ATOM     59  N   UNL A   1      41.853  28.948  32.173  1.00  0.00    -0.354 N 
ATOM     60  N   UNL A   1      38.783  30.554  31.551  1.00  0.00    -0.248 NA
ATOM     61  C   UNL A   1      37.427  31.526  29.996  1.00  0.00     0.031 C 
ATOM     62  C   UNL A   1      39.984  27.839  32.625  1.00  0.00     0.029 A 
ATOM     63  C   UNL A   1      40.597  28.635  31.676  1.00  0.00     0.049 A 
ATOM     64  H   UNL A   1      42.510  29.515  31.709  1.00  0.00     0.167 HD
ATOM     65  C   UNL A   1      39.155  29.999  30.366  1.00  0.00     0.074 A 
ATOM     66  C   UNL A   1      38.250  30.625  29.416  1.00  0.00     0.031 C 
ATOM     67  C   UNL A   1      40.173  29.082  30.346  1.00  0.00     0.037 A 
BRANCH  54  68
ATOM     68  C   UNL A   1      44.023  27.694  35.051  1.00  0.00     0.058 A 
ATOM     69  C   UNL A   1      45.146  27.025  34.517  1.00  0.00     0.135 A 
ATOM     70  C   UNL A   1      43.751  27.382  36.401  1.00  0.00     0.135 A 
ATOM     71  F   UNL A   1      45.632  27.313  33.304  1.00  0.00    -0.206 F 
ATOM     72  C   UNL A   1      45.855  26.045  35.219  1.00  0.00     0.059 A 
ATOM     73  C   UNL A   1      44.406  26.366  37.105  1.00  0.00     0.059 A 
ATOM     74  F   UNL A   1      42.865  28.096  37.113  1.00  0.00    -0.206 F 
ATOM     75  C   UNL A   1      45.462  25.701  36.503  1.00  0.00     0.060 A 
BRANCH  75  76
ATOM     76  S   UNL A   1      46.392  24.439  37.392  1.00  0.00     0.124 S 
ATOM     77  O   UNL A   1      47.764  24.708  36.973  1.00  0.00    -0.237 OA
ATOM     78  O   UNL A   1      46.080  24.755  38.782  1.00  0.00    -0.237 OA
ATOM     79  O   UNL A   1      45.828  23.186  36.896  1.00  0.00    -0.744 OA
ENDBRANCH  75  76
ENDBRANCH  54  68
BRANCH  55  80
ATOM     80  C   UNL A   1      36.709  33.623  32.538  1.00  0.00     0.058 A 
ATOM     81  C   UNL A   1      37.207  34.351  31.438  1.00  0.00     0.135 A 
ATOM     82  C   UNL A   1      35.333  33.731  32.682  1.00  0.00     0.135 A 
ATOM     83  F   UNL A   1      38.492  34.727  31.419  1.00  0.00    -0.206 F 
ATOM     84  C   UNL A   1      36.468  34.475  30.258  1.00  0.00     0.059 A 
ATOM     85  C   UNL A   1      34.569  33.895  31.516  1.00  0.00     0.059 A 
ATOM     86  F   UNL A   1      34.733  33.308  33.807  1.00  0.00    -0.206 F 
ATOM     87  C   UNL A   1      35.165  34.028  30.262  1.00  0.00     0.060 A 
BRANCH  87  88
ATOM     88  S   UNL A   1      34.409  33.311  28.668  1.00  0.00     0.124 S 
ATOM     89  O   UNL A   1      33.147  34.015  28.594  1.00  0.00    -0.237 OA
ATOM     90  O   UNL A   1      35.296  33.735  27.593  1.00  0.00    -0.237 OA
ATOM     91  O   UNL A   1      34.308  31.885  28.853  1.00  0.00    -0.744 OA
ENDBRANCH  87  88
ENDBRANCH  55  80
BRANCH  67  92
ATOM     92  C   UNL A   1      40.826  28.414  29.152  1.00  0.00     0.058 A 
ATOM     93  C   UNL A   1      40.551  27.120  28.689  1.00  0.00     0.135 A 
ATOM     94  C   UNL A   1      41.748  29.147  28.351  1.00  0.00     0.135 A 
ATOM     95  F   UNL A   1      39.650  26.331  29.282  1.00  0.00    -0.206 F 
ATOM     96  C   UNL A   1      41.166  26.582  27.556  1.00  0.00     0.059 A 
ATOM     97  C   UNL A   1      42.320  28.655  27.185  1.00  0.00     0.059 A 
ATOM     98  F   UNL A   1      42.136  30.392  28.661  1.00  0.00    -0.206 F 
ATOM     99  C   UNL A   1      42.042  27.358  26.805  1.00  0.00     0.060 A 
BRANCH  99 100
ATOM    100  S   UNL A   1      42.776  26.675  25.314  1.00  0.00     0.124 S 
ATOM    101  O   UNL A   1      42.819  27.848  24.448  1.00  0.00    -0.237 OA
ATOM    102  O   UNL A   1      44.068  26.196  25.796  1.00  0.00    -0.237 OA
ATOM    103  O   UNL A   1      41.838  25.631  24.914  1.00  0.00    -0.744 OA
ENDBRANCH  99 100
ENDBRANCH  67  92
ENDBRANCH  41  42
ENDBRANCH  33  36
ENDBRANCH  31  32
ENDBRANCH  30  31
ENDBRANCH  29  30
ENDBRANCH  28  29
ENDBRANCH   1  28
TORSDOF 21
ENDMDL
MODEL 2
REMARK VINA RESULT:     -10.1      7.761     15.671
REMARK SMILES Cc1ccc(C(C)(C)C)c(OCC(=O)c2nc(C)c(C(=O)NCCCCCCNC(=O)c3ccc(-c4c5nc(c(-c6c(F)cc(S(=O)(=O)[O-])cc6F)c6ccc([nH]6)c(-c6c(F)cc(S(=O)(=O)[O-])cc6F)c6nc(c(-c7c(F)cc(S(=O)(=O)[O-])cc7F)c7ccc4[nH]7)C=C6)C=C5)cc3)s2)c1
REMARK SMILES IDX 24 1 23 2 22 3 20 4 21 5 19 7 15 8 16 9 98 10 17 11 18 12
REMARK SMILES IDX 13 13 14 14 12 15 11 16 10 17 1 18 2 19 3 20 99 21 4 22 5 23
REMARK SMILES IDX 6 24 7 25 8 26 9 27 25 28 26 29 27 30 28 31 29 32 30 33
REMARK SMILES IDX 31 35 32 36 33 37 97 38 34 39 96 40 35 41 36 42 37 43 90 44
REMARK SMILES IDX 38 45 95 46 89 47 91 48 39 49 94 50 88 51 87 52 40 54 74 55
REMARK SMILES IDX 53 56 73 57 54 58 57 59 72 60 92 61 55 62 56 63 71 65 93 66
REMARK SMILES IDX 58 67 41 68 42 69 51 70 43 71 44 72 50 73 52 74 45 75 46 76
REMARK SMILES IDX 47 77 48 78 49 79 75 80 76 81 85 82 77 83 78 84 84 85 86 86
REMARK SMILES IDX 79 87 80 88 81 89 82 90 83 91 59 92 60 93 69 94 61 95 62 96
REMARK SMILES IDX 68 97 70 98 63 99 64 100 65 101 66 102 67 103
REMARK H PARENT 22 6 29 34 91 53 57 64
REMARK Flexibility Score: inf
ROOT
ATOM      1  C   UNL A   1      43.448  23.227  24.994  1.00  0.00     0.021 C 
ENDROOT
BRANCH   1   2
ATOM      2  C   UNL A   1      43.936  22.711  26.345  1.00  0.00     0.116 C 
BRANCH   2   3
ATOM      3  N   UNL A   1      43.314  21.441  26.671  1.00  0.00    -0.351 N 
ATOM      4  C   UNL A   1      42.028  21.023  26.893  1.00  0.00     0.263 C 
ATOM      5  O   UNL A   1      41.948  19.813  27.148  1.00  0.00    -0.268 OA
ATOM      6  H   UNL A   1      43.968  20.709  26.750  1.00  0.00     0.163 HD
BRANCH   4   7
ATOM      7  C   UNL A   1      40.841  21.861  26.769  1.00  0.00     0.115 A 
ATOM      8  C   UNL A   1      38.550  22.487  26.122  1.00  0.00     0.164 A 
ATOM      9  N   UNL A   1      39.124  23.470  26.774  1.00  0.00    -0.237 NA
ATOM     10  S   UNL A   1      39.525  21.121  25.895  1.00  0.00    -0.105 S 
ATOM     11  C   UNL A   1      40.400  23.105  27.215  1.00  0.00     0.062 A 
ATOM     12  C   UNL A   1      41.030  24.104  28.117  1.00  0.00     0.068 C 
BRANCH   8  13
ATOM     13  C   UNL A   1      37.196  22.599  25.602  1.00  0.00     0.228 C 
ATOM     14  O   UNL A   1      36.580  23.672  25.540  1.00  0.00    -0.288 OA
BRANCH  13  15
ATOM     15  C   UNL A   1      36.452  21.309  25.209  1.00  0.00     0.313 C 
BRANCH  15  16
ATOM     16  O   UNL A   1      35.105  21.078  25.563  1.00  0.00    -0.485 OA
BRANCH  16  17
ATOM     17  C   UNL A   1      34.319  20.265  24.796  1.00  0.00     0.123 A 
ATOM     18  C   UNL A   1      33.999  16.582  23.827  1.00  0.00     0.044 C 
ATOM     19  C   UNL A   1      33.725  18.053  23.932  1.00  0.00    -0.047 A 
ATOM     20  C   UNL A   1      32.603  18.604  23.326  1.00  0.00     0.004 A 
ATOM     21  C   UNL A   1      34.593  18.896  24.629  1.00  0.00     0.050 A 
ATOM     22  C   UNL A   1      32.350  19.974  23.438  1.00  0.00     0.008 A 
ATOM     23  C   UNL A   1      33.187  20.844  24.179  1.00  0.00    -0.000 A 
BRANCH  23  24
ATOM     24  C   UNL A   1      32.791  22.344  24.233  1.00  0.00    -0.010 C 
ATOM     25  C   UNL A   1      32.621  22.754  25.715  1.00  0.00     0.016 C 
ATOM     26  C   UNL A   1      33.910  23.206  23.596  1.00  0.00     0.016 C 
ATOM     27  C   UNL A   1      31.482  22.759  23.524  1.00  0.00     0.016 C 
ENDBRANCH  23  24
ENDBRANCH  16  17
ENDBRANCH  15  16
ENDBRANCH  13  15
ENDBRANCH   8  13
ENDBRANCH   4   7
ENDBRANCH   2   3
ENDBRANCH   1   2
BRANCH   1  28
ATOM     28  C   UNL A   1      43.034  24.717  24.989  1.00  0.00     0.002 C 
BRANCH  28  29
ATOM     29  C   UNL A   1      43.762  25.740  25.915  1.00  0.00     0.002 C 
BRANCH  29  30
ATOM     30  C   UNL A   1      45.301  26.148  25.835  1.00  0.00     0.021 C 
BRANCH  30  31
ATOM     31  C   UNL A   1      46.271  25.758  27.041  1.00  0.00     0.116 C 
BRANCH  31  32
ATOM     32  N   UNL A   1      46.723  26.800  28.087  1.00  0.00    -0.352 N 
ATOM     33  C   UNL A   1      46.113  27.519  29.166  1.00  0.00     0.251 C 
ATOM     34  H   UNL A   1      47.675  27.029  27.987  1.00  0.00     0.163 HD
ATOM     35  O   UNL A   1      46.635  27.319  30.275  1.00  0.00    -0.269 OA
BRANCH  33  36
ATOM     36  C   UNL A   1      44.956  28.545  29.183  1.00  0.00     0.039 A 
ATOM     37  C   UNL A   1      45.109  29.793  29.851  1.00  0.00     0.014 A 
ATOM     38  C   UNL A   1      43.689  28.334  28.657  1.00  0.00     0.014 A 
ATOM     39  C   UNL A   1      43.974  30.478  30.405  1.00  0.00     0.010 A 
ATOM     40  C   UNL A   1      42.562  29.033  29.181  1.00  0.00     0.010 A 
ATOM     41  C   UNL A   1      42.680  29.973  30.216  1.00  0.00    -0.014 A 
BRANCH  41  42
ATOM     42  C   UNL A   1      41.529  30.228  31.162  1.00  0.00     0.031 A 
ATOM     43  C   UNL A   1      40.623  31.367  31.029  1.00  0.00     0.074 A 
ATOM     44  C   UNL A   1      41.097  29.412  32.164  1.00  0.00     0.049 A 
ATOM     45  N   UNL A   1      40.328  32.178  31.994  1.00  0.00    -0.248 NA
ATOM     46  C   UNL A   1      39.842  31.545  29.817  1.00  0.00     0.031 C 
ATOM     47  C   UNL A   1      39.925  29.442  33.055  1.00  0.00     0.029 A 
ATOM     48  N   UNL A   1      41.662  28.229  32.574  1.00  0.00    -0.354 N 
ATOM     49  C   UNL A   1      39.120  32.742  31.644  1.00  0.00     0.074 A 
ATOM     50  C   UNL A   1      38.955  32.455  30.229  1.00  0.00     0.031 C 
ATOM     51  C   UNL A   1      40.110  28.579  34.082  1.00  0.00     0.029 A 
ATOM     52  C   UNL A   1      41.410  27.970  33.918  1.00  0.00     0.049 A 
ATOM     53  H   UNL A   1      42.183  27.635  31.987  1.00  0.00     0.167 HD
ATOM     54  C   UNL A   1      38.201  33.134  32.582  1.00  0.00     0.037 A 
ATOM     55  C   UNL A   1      42.465  27.875  34.785  1.00  0.00     0.037 A 
ATOM     56  C   UNL A   1      38.503  32.585  33.914  1.00  0.00     0.049 A 
ATOM     57  C   UNL A   1      42.492  29.071  35.694  1.00  0.00     0.074 A 
ATOM     58  C   UNL A   1      37.872  31.610  34.679  1.00  0.00     0.029 A 
ATOM     59  N   UNL A   1      39.730  32.808  34.533  1.00  0.00    -0.354 N 
ATOM     60  N   UNL A   1      41.629  30.038  35.585  1.00  0.00    -0.248 NA
ATOM     61  C   UNL A   1      43.436  29.313  36.773  1.00  0.00     0.031 C 
ATOM     62  C   UNL A   1      38.721  31.253  35.755  1.00  0.00     0.029 A 
ATOM     63  C   UNL A   1      39.872  32.012  35.659  1.00  0.00     0.049 A 
ATOM     64  H   UNL A   1      40.408  33.446  34.212  1.00  0.00     0.167 HD
ATOM     65  C   UNL A   1      41.856  31.012  36.508  1.00  0.00     0.074 A 
ATOM     66  C   UNL A   1      42.992  30.494  37.254  1.00  0.00     0.031 C 
ATOM     67  C   UNL A   1      41.051  32.121  36.522  1.00  0.00     0.037 A 
BRANCH  54  68
ATOM     68  C   UNL A   1      36.849  33.726  32.204  1.00  0.00     0.058 A 
ATOM     69  C   UNL A   1      36.032  33.179  31.191  1.00  0.00     0.135 A 
ATOM     70  C   UNL A   1      36.279  34.831  32.874  1.00  0.00     0.135 A 
ATOM     71  F   UNL A   1      36.352  32.043  30.560  1.00  0.00    -0.206 F 
ATOM     72  C   UNL A   1      34.819  33.750  30.797  1.00  0.00     0.059 A 
ATOM     73  C   UNL A   1      35.098  35.457  32.462  1.00  0.00     0.059 A 
ATOM     74  F   UNL A   1      36.825  35.318  33.999  1.00  0.00    -0.206 F 
ATOM     75  C   UNL A   1      34.370  34.906  31.419  1.00  0.00     0.060 A 
BRANCH  75  76
ATOM     76  S   UNL A   1      32.801  35.625  30.899  1.00  0.00     0.124 S 
ATOM     77  O   UNL A   1      33.141  37.035  30.740  1.00  0.00    -0.237 OA
ATOM     78  O   UNL A   1      32.528  34.895  29.665  1.00  0.00    -0.237 OA
ATOM     79  O   UNL A   1      31.903  35.326  32.011  1.00  0.00    -0.744 OA
ENDBRANCH  75  76
ENDBRANCH  54  68
BRANCH  55  80
ATOM     80  C   UNL A   1      43.671  27.077  34.258  1.00  0.00     0.058 A 
ATOM     81  C   UNL A   1      44.891  27.684  34.618  1.00  0.00     0.135 A 
ATOM     82  C   UNL A   1      43.633  25.722  34.551  1.00  0.00     0.135 A 
ATOM     83  F   UNL A   1      45.270  28.820  34.018  1.00  0.00    -0.206 F 
ATOM     84  C   UNL A   1      45.596  27.274  35.754  1.00  0.00     0.059 A 
ATOM     85  C   UNL A   1      44.362  25.276  35.665  1.00  0.00     0.059 A 
ATOM     86  F   UNL A   1      42.652  24.948  34.055  1.00  0.00    -0.206 F 
ATOM     87  C   UNL A   1      45.165  26.141  36.407  1.00  0.00     0.060 A 
BRANCH  87  88
ATOM     88  S   UNL A   1      45.378  26.001  38.295  1.00  0.00     0.124 S 
ATOM     89  O   UNL A   1      46.776  26.333  38.462  1.00  0.00    -0.237 OA
ATOM     90  O   UNL A   1      44.533  27.044  38.859  1.00  0.00    -0.237 OA
ATOM     91  O   UNL A   1      45.017  24.655  38.661  1.00  0.00    -0.744 OA
ENDBRANCH  87  88
ENDBRANCH  55  80
BRANCH  67  92
ATOM     92  C   UNL A   1      41.171  33.369  37.374  1.00  0.00     0.058 A 
ATOM     93  C   UNL A   1      40.317  33.723  38.428  1.00  0.00     0.135 A 
ATOM     94  C   UNL A   1      42.271  34.253  37.181  1.00  0.00     0.135 A 
ATOM     95  F   UNL A   1      39.283  32.958  38.790  1.00  0.00    -0.206 F 
ATOM     96  C   UNL A   1      40.510  34.874  39.197  1.00  0.00     0.059 A 
ATOM     97  C   UNL A   1      42.518  35.365  37.975  1.00  0.00     0.059 A 
ATOM     98  F   UNL A   1      43.173  34.072  36.205  1.00  0.00    -0.206 F 
ATOM     99  C   UNL A   1      41.616  35.684  38.970  1.00  0.00     0.060 A 
BRANCH  99 100
ATOM    100  S   UNL A   1      41.888  37.125  40.008  1.00  0.00     0.124 S 
ATOM    101  O   UNL A   1      43.191  37.582  39.536  1.00  0.00    -0.237 OA
ATOM    102  O   UNL A   1      40.754  37.976  39.660  1.00  0.00    -0.237 OA
ATOM    103  O   UNL A   1      41.863  36.583  41.363  1.00  0.00    -0.744 OA
ENDBRANCH  99 100
ENDBRANCH  67  92
ENDBRANCH  41  42
ENDBRANCH  33  36
ENDBRANCH  31  32
ENDBRANCH  30  31
ENDBRANCH  29  30
ENDBRANCH  28  29
ENDBRANCH   1  28
TORSDOF 21
ENDMDL
MODEL 3
REMARK VINA RESULT:      -9.9      3.103      5.706
REMARK SMILES Cc1ccc(C(C)(C)C)c(OCC(=O)c2nc(C)c(C(=O)NCCCCCCNC(=O)c3ccc(-c4c5nc(c(-c6c(F)cc(S(=O)(=O)[O-])cc6F)c6ccc([nH]6)c(-c6c(F)cc(S(=O)(=O)[O-])cc6F)c6nc(c(-c7c(F)cc(S(=O)(=O)[O-])cc7F)c7ccc4[nH]7)C=C6)C=C5)cc3)s2)c1
REMARK SMILES IDX 24 1 23 2 22 3 20 4 21 5 19 7 15 8 16 9 98 10 17 11 18 12
REMARK SMILES IDX 13 13 14 14 12 15 11 16 10 17 1 18 2 19 3 20 99 21 4 22 5 23
REMARK SMILES IDX 6 24 7 25 8 26 9 27 25 28 26 29 27 30 28 31 29 32 30 33
REMARK SMILES IDX 31 35 32 36 33 37 97 38 34 39 96 40 35 41 36 42 37 43 90 44
REMARK SMILES IDX 38 45 95 46 89 47 91 48 39 49 94 50 88 51 87 52 40 54 74 55
REMARK SMILES IDX 53 56 73 57 54 58 57 59 72 60 92 61 55 62 56 63 71 65 93 66
REMARK SMILES IDX 58 67 41 68 42 69 51 70 43 71 44 72 50 73 52 74 45 75 46 76
REMARK SMILES IDX 47 77 48 78 49 79 75 80 76 81 85 82 77 83 78 84 84 85 86 86
REMARK SMILES IDX 79 87 80 88 81 89 82 90 83 91 59 92 60 93 69 94 61 95 62 96
REMARK SMILES IDX 68 97 70 98 63 99 64 100 65 101 66 102 67 103
REMARK H PARENT 22 6 29 34 91 53 57 64
REMARK Flexibility Score: inf
ROOT
ATOM      1  C   UNL A   1      47.832  42.007  31.976  1.00  0.00     0.021 C 
ENDROOT
BRANCH   1   2
ATOM      2  C   UNL A   1      47.552  42.812  30.710  1.00  0.00     0.116 C 
BRANCH   2   3
ATOM      3  N   UNL A   1      46.238  43.424  30.765  1.00  0.00    -0.351 N 
ATOM      4  C   UNL A   1      45.054  43.233  30.102  1.00  0.00     0.263 C 
ATOM      5  O   UNL A   1      44.158  44.003  30.477  1.00  0.00    -0.268 OA
ATOM      6  H   UNL A   1      46.184  44.145  31.434  1.00  0.00     0.163 HD
BRANCH   4   7
ATOM      7  C   UNL A   1      44.805  42.191  29.114  1.00  0.00     0.115 A 
ATOM      8  C   UNL A   1      44.258  39.951  28.250  1.00  0.00     0.164 A 
ATOM      9  N   UNL A   1      44.456  40.786  27.258  1.00  0.00    -0.237 NA
ATOM     10  S   UNL A   1      44.455  40.623  29.793  1.00  0.00    -0.105 S 
ATOM     11  C   UNL A   1      44.694  42.081  27.730  1.00  0.00     0.062 A 
ATOM     12  C   UNL A   1      44.741  43.109  26.657  1.00  0.00     0.068 C 
BRANCH   8  13
ATOM     13  C   UNL A   1      43.942  38.549  28.022  1.00  0.00     0.228 C 
ATOM     14  O   UNL A   1      44.078  37.994  26.924  1.00  0.00    -0.288 OA
BRANCH  13  15
ATOM     15  C   UNL A   1      43.307  37.744  29.171  1.00  0.00     0.313 C 
BRANCH  15  16
ATOM     16  O   UNL A   1      43.730  36.438  29.500  1.00  0.00    -0.485 OA
BRANCH  16  17
ATOM     17  C   UNL A   1      42.822  35.495  29.887  1.00  0.00     0.123 A 
ATOM     18  C   UNL A   1      39.196  34.488  29.222  1.00  0.00     0.044 C 
ATOM     19  C   UNL A   1      40.595  34.486  29.762  1.00  0.00    -0.047 A 
ATOM     20  C   UNL A   1      41.025  33.461  30.595  1.00  0.00     0.004 A 
ATOM     21  C   UNL A   1      41.487  35.514  29.447  1.00  0.00     0.050 A 
ATOM     22  C   UNL A   1      42.334  33.462  31.085  1.00  0.00     0.008 A 
ATOM     23  C   UNL A   1      43.273  34.465  30.743  1.00  0.00    -0.000 A 
BRANCH  23  24
ATOM     24  C   UNL A   1      44.699  34.346  31.347  1.00  0.00    -0.010 C 
ATOM     25  C   UNL A   1      44.717  33.155  32.334  1.00  0.00     0.016 C 
ATOM     26  C   UNL A   1      45.727  34.083  30.218  1.00  0.00     0.016 C 
ATOM     27  C   UNL A   1      45.239  35.561  32.137  1.00  0.00     0.016 C 
ENDBRANCH  23  24
ENDBRANCH  16  17
ENDBRANCH  15  16
ENDBRANCH  13  15
ENDBRANCH   8  13
ENDBRANCH   4   7
ENDBRANCH   2   3
ENDBRANCH   1   2
BRANCH   1  28
ATOM     28  C   UNL A   1      47.221  42.606  33.264  1.00  0.00     0.002 C 
BRANCH  28  29
ATOM     29  C   UNL A   1      46.221  41.773  34.124  1.00  0.00     0.002 C 
BRANCH  29  30
ATOM     30  C   UNL A   1      45.035  40.864  33.567  1.00  0.00     0.021 C 
BRANCH  30  31
ATOM     31  C   UNL A   1      43.905  40.360  34.575  1.00  0.00     0.116 C 
BRANCH  31  32
ATOM     32  N   UNL A   1      44.177  39.240  35.603  1.00  0.00    -0.352 N 
ATOM     33  C   UNL A   1      44.085  37.811  35.626  1.00  0.00     0.251 C 
ATOM     34  H   UNL A   1      44.494  39.601  36.462  1.00  0.00     0.163 HD
ATOM     35  O   UNL A   1      45.158  37.232  35.869  1.00  0.00    -0.269 OA
BRANCH  33  36
ATOM     36  C   UNL A   1      42.874  36.863  35.461  1.00  0.00     0.039 A 
ATOM     37  C   UNL A   1      42.275  36.254  36.600  1.00  0.00     0.014 A 
ATOM     38  C   UNL A   1      42.332  36.459  34.249  1.00  0.00     0.014 A 
ATOM     39  C   UNL A   1      41.610  34.985  36.495  1.00  0.00     0.010 A 
ATOM     40  C   UNL A   1      41.643  35.214  34.144  1.00  0.00     0.010 A 
ATOM     41  C   UNL A   1      41.459  34.365  35.247  1.00  0.00    -0.014 A 
BRANCH  41  42
ATOM     42  C   UNL A   1      41.324  32.872  35.057  1.00  0.00     0.031 A 
ATOM     43  C   UNL A   1      42.470  31.966  35.006  1.00  0.00     0.074 A 
ATOM     44  C   UNL A   1      40.167  32.151  35.033  1.00  0.00     0.049 A 
ATOM     45  N   UNL A   1      42.662  31.090  34.072  1.00  0.00    -0.248 NA
ATOM     46  C   UNL A   1      43.385  31.876  36.130  1.00  0.00     0.031 C 
ATOM     47  C   UNL A   1      39.879  30.708  35.010  1.00  0.00     0.029 A 
ATOM     48  N   UNL A   1      38.884  32.637  35.095  1.00  0.00    -0.354 N 
ATOM     49  C   UNL A   1      43.492  30.140  34.625  1.00  0.00     0.074 A 
ATOM     50  C   UNL A   1      44.044  30.756  35.820  1.00  0.00     0.031 C 
ATOM     51  C   UNL A   1      38.582  30.506  34.678  1.00  0.00     0.029 A 
ATOM     52  C   UNL A   1      37.979  31.800  34.450  1.00  0.00     0.049 A 
ATOM     53  H   UNL A   1      38.634  33.477  35.542  1.00  0.00     0.167 HD
ATOM     54  C   UNL A   1      43.442  28.823  34.250  1.00  0.00     0.037 A 
ATOM     55  C   UNL A   1      37.279  32.279  33.376  1.00  0.00     0.037 A 
ATOM     56  C   UNL A   1      42.224  28.512  33.486  1.00  0.00     0.049 A 
ATOM     57  C   UNL A   1      37.774  31.635  32.112  1.00  0.00     0.074 A 
ATOM     58  C   UNL A   1      41.092  27.770  33.806  1.00  0.00     0.029 A 
ATOM     59  N   UNL A   1      41.897  29.205  32.323  1.00  0.00    -0.354 N 
ATOM     60  N   UNL A   1      38.759  30.785  32.112  1.00  0.00    -0.248 NA
ATOM     61  C   UNL A   1      37.256  31.855  30.771  1.00  0.00     0.031 C 
ATOM     62  C   UNL A   1      40.092  28.017  32.834  1.00  0.00     0.029 A 
ATOM     63  C   UNL A   1      40.608  28.906  31.910  1.00  0.00     0.049 A 
ATOM     64  H   UNL A   1      42.502  29.826  31.856  1.00  0.00     0.167 HD
ATOM     65  C   UNL A   1      39.034  30.344  30.854  1.00  0.00     0.074 A 
ATOM     66  C   UNL A   1      38.039  31.028  30.046  1.00  0.00     0.031 C 
ATOM     67  C   UNL A   1      40.061  29.457  30.666  1.00  0.00     0.037 A 
BRANCH  54  68
ATOM     68  C   UNL A   1      44.331  27.759  34.881  1.00  0.00     0.058 A 
ATOM     69  C   UNL A   1      45.631  27.474  34.410  1.00  0.00     0.135 A 
ATOM     70  C   UNL A   1      43.953  27.015  36.021  1.00  0.00     0.135 A 
ATOM     71  F   UNL A   1      46.204  28.189  33.433  1.00  0.00    -0.206 F 
ATOM     72  C   UNL A   1      46.431  26.458  34.943  1.00  0.00     0.059 A 
ATOM     73  C   UNL A   1      44.708  25.956  36.536  1.00  0.00     0.059 A 
ATOM     74  F   UNL A   1      42.848  27.327  36.717  1.00  0.00    -0.206 F 
ATOM     75  C   UNL A   1      45.952  25.685  35.989  1.00  0.00     0.060 A 
BRANCH  75  76
ATOM     76  S   UNL A   1      47.000  24.384  36.665  1.00  0.00     0.124 S 
ATOM     77  O   UNL A   1      48.224  24.532  35.884  1.00  0.00    -0.237 OA
ATOM     78  O   UNL A   1      47.093  24.770  38.069  1.00  0.00    -0.237 OA
ATOM     79  O   UNL A   1      46.242  23.163  36.403  1.00  0.00    -0.744 OA
ENDBRANCH  75  76
ENDBRANCH  54  68
BRANCH  55  80
ATOM     80  C   UNL A   1      36.730  33.707  33.541  1.00  0.00     0.058 A 
ATOM     81  C   UNL A   1      37.229  34.573  32.548  1.00  0.00     0.135 A 
ATOM     82  C   UNL A   1      35.351  33.777  33.679  1.00  0.00     0.135 A 
ATOM     83  F   UNL A   1      38.508  34.967  32.592  1.00  0.00    -0.206 F 
ATOM     84  C   UNL A   1      36.502  34.834  31.382  1.00  0.00     0.059 A 
ATOM     85  C   UNL A   1      34.598  34.075  32.532  1.00  0.00     0.059 A 
ATOM     86  F   UNL A   1      34.745  33.209  34.735  1.00  0.00    -0.206 F 
ATOM     87  C   UNL A   1      35.206  34.371  31.313  1.00  0.00     0.060 A 
BRANCH  87  88
ATOM     88  S   UNL A   1      34.479  33.848  29.632  1.00  0.00     0.124 S 
ATOM     89  O   UNL A   1      33.412  34.809  29.457  1.00  0.00    -0.237 OA
ATOM     90  O   UNL A   1      35.541  34.080  28.662  1.00  0.00    -0.237 OA
ATOM     91  O   UNL A   1      34.058  32.477  29.763  1.00  0.00    -0.744 OA
ENDBRANCH  87  88
ENDBRANCH  55  80
BRANCH  67  92
ATOM     92  C   UNL A   1      40.617  28.911  29.366  1.00  0.00     0.058 A 
ATOM     93  C   UNL A   1      41.612  29.516  28.586  1.00  0.00     0.135 A 
ATOM     94  C   UNL A   1      40.184  27.640  28.892  1.00  0.00     0.135 A 
ATOM     95  F   UNL A   1      42.182  30.673  28.936  1.00  0.00    -0.206 F 
ATOM     96  C   UNL A   1      42.104  28.935  27.414  1.00  0.00     0.059 A 
ATOM     97  C   UNL A   1      40.707  27.015  27.767  1.00  0.00     0.059 A 
ATOM     98  F   UNL A   1      39.226  26.933  29.508  1.00  0.00    -0.206 F 
ATOM     99  C   UNL A   1      41.653  27.682  27.017  1.00  0.00     0.060 A 
BRANCH  99 100
ATOM    100  S   UNL A   1      42.342  26.918  25.544  1.00  0.00     0.124 S 
ATOM    101  O   UNL A   1      41.269  26.007  25.160  1.00  0.00    -0.237 OA
ATOM    102  O   UNL A   1      42.544  28.065  24.664  1.00  0.00    -0.237 OA
ATOM    103  O   UNL A   1      43.565  26.283  26.025  1.00  0.00    -0.744 OA
ENDBRANCH  99 100
ENDBRANCH  67  92
ENDBRANCH  41  42
ENDBRANCH  33  36
ENDBRANCH  31  32
ENDBRANCH  30  31
ENDBRANCH  29  30
ENDBRANCH  28  29
ENDBRANCH   1  28
TORSDOF 21
ENDMDL
