MODEL 1
REMARK VINA RESULT:      -8.2      0.000      0.000
REMARK SMILES COc1cc(/C=C2/CCc3cc(OC(C)(C)C(=O)NCCCCCCNC(=O)c4ccc(-c5c6nc(c(-c7c(F)cc(S(=O)(=O)[O-])cc7F)c7ccc([nH]7)c(-c7c(F)cc(S(=O)(=O)[O-])cc7F)c7nc(c(-c8c(F)cc(S(=O)(=O)[O-])cc8F)c8ccc5[nH]8)C=C7)C=C6)cc4)ccc3C2=O)cc(OC)c1O
REMARK SMILES IDX 22 1 21 2 20 3 19 4 17 5 18 6 14 8 15 9 16 10 13 11 12 12
REMARK SMILES IDX 6 13 7 14 8 15 98 16 9 17 97 18 99 19 10 20 96 21 11 22
REMARK SMILES IDX 95 23 5 24 3 25 4 26 104 27 101 28 100 29 2 30 1 31 105 32
REMARK SMILES IDX 102 34 103 35 23 36 24 37 25 38 26 39 27 40 28 42 29 43
REMARK SMILES IDX 30 44 94 45 31 46 93 47 32 48 33 49 34 50 87 51 35 52 92 53
REMARK SMILES IDX 86 54 88 55 36 56 91 57 85 58 84 59 37 61 71 62 50 63 70 64
REMARK SMILES IDX 51 65 54 66 69 67 89 68 52 69 53 70 68 72 90 73 55 74 38 75
REMARK SMILES IDX 39 76 48 77 40 78 41 79 47 80 49 81 42 82 43 83 44 84 45 85
REMARK SMILES IDX 46 86 72 87 73 88 82 89 74 90 75 91 81 92 83 93 76 94 77 95
REMARK SMILES IDX 78 96 79 97 80 98 56 99 57 100 66 101 58 102 59 103 65 104
REMARK SMILES IDX 67 105 60 106 61 107 62 108 63 109 64 110
REMARK H PARENT 19 7 105 33 26 41 88 60 54 71
REMARK Flexibility Score: inf
ROOT
ATOM      1  C   UNL A   1      37.779  32.338  31.460  1.00  0.00     0.002 C 
ENDROOT
BRANCH   1   2
ATOM      2  C   UNL A   1      37.275  32.602  32.876  1.00  0.00     0.021 C 
BRANCH   2   3
ATOM      3  C   UNL A   1      38.158  32.327  34.105  1.00  0.00     0.116 C 
BRANCH   3   4
ATOM      4  N   UNL A   1      38.248  30.981  34.680  1.00  0.00    -0.353 N 
ATOM      5  C   UNL A   1      39.431  30.331  35.108  1.00  0.00     0.263 C 
ATOM      6  O   UNL A   1      39.393  29.832  36.240  1.00  0.00    -0.270 OA
ATOM      7  H   UNL A   1      37.405  30.480  34.777  1.00  0.00     0.163 HD
BRANCH   5   8
ATOM      8  C   UNL A   1      40.599  29.925  34.059  1.00  0.00     0.181 C 
ATOM      9  C   UNL A   1      41.214  31.236  33.572  1.00  0.00     0.067 C 
ATOM     10  C   UNL A   1      39.638  29.124  33.137  1.00  0.00     0.067 C 
BRANCH   8  11
ATOM     11  O   UNL A   1      41.751  29.092  34.508  1.00  0.00    -0.478 OA
BRANCH  11  12
ATOM     12  C   UNL A   1      42.721  28.845  33.517  1.00  0.00     0.121 A 
ATOM     13  C   UNL A   1      46.629  25.047  34.982  1.00  0.00     0.016 C 
ATOM     14  C   UNL A   1      45.994  25.560  33.899  1.00  0.00     0.001 C 
ATOM     15  C   UNL A   1      45.688  25.070  32.484  1.00  0.00     0.044 C 
ATOM     16  C   UNL A   1      45.150  26.713  34.149  1.00  0.00     0.189 C 
ATOM     17  C   UNL A   1      44.266  25.644  31.904  1.00  0.00     0.041 C 
ATOM     18  C   UNL A   1      45.060  27.668  32.992  1.00  0.00     0.026 A 
ATOM     19  O   UNL A   1      44.242  26.579  34.962  1.00  0.00    -0.289 OA
ATOM     20  C   UNL A   1      43.978  27.105  32.328  1.00  0.00    -0.033 A 
ATOM     21  C   UNL A   1      45.078  29.023  33.318  1.00  0.00     0.016 A 
ATOM     22  C   UNL A   1      42.732  27.693  32.664  1.00  0.00     0.051 A 
ATOM     23  C   UNL A   1      43.865  29.638  33.590  1.00  0.00     0.047 A 
BRANCH  13  24
ATOM     24  C   UNL A   1      46.172  25.368  36.387  1.00  0.00    -0.018 A 
ATOM     25  C   UNL A   1      46.653  26.859  38.254  1.00  0.00     0.165 A 
ATOM     26  C   UNL A   1      46.714  26.563  36.895  1.00  0.00     0.058 A 
ATOM     27  C   UNL A   1      45.974  26.010  39.135  1.00  0.00     0.200 A 
ATOM     28  C   UNL A   1      45.432  24.804  38.683  1.00  0.00     0.165 A 
ATOM     29  C   UNL A   1      45.535  24.491  37.300  1.00  0.00     0.058 A 
BRANCH  25  30
ATOM     30  O   UNL A   1      47.534  27.782  38.759  1.00  0.00    -0.493 OA
ATOM     31  C   UNL A   1      48.388  28.353  37.779  1.00  0.00     0.278 C 
ENDBRANCH  25  30
BRANCH  27  32
ATOM     32  O   UNL A   1      45.958  26.335  40.462  1.00  0.00    -0.502 OA
ATOM     33  H   UNL A   1      45.400  27.022  40.769  1.00  0.00     0.293 HD
ENDBRANCH  27  32
BRANCH  28  34
ATOM     34  O   UNL A   1      44.893  23.814  39.480  1.00  0.00    -0.493 OA
ATOM     35  C   UNL A   1      45.668  22.636  39.745  1.00  0.00     0.278 C 
ENDBRANCH  28  34
ENDBRANCH  13  24
ENDBRANCH  11  12
ENDBRANCH   8  11
ENDBRANCH   5   8
ENDBRANCH   3   4
ENDBRANCH   2   3
ENDBRANCH   1   2
BRANCH   1  36
ATOM     36  C   UNL A   1      36.957  33.027  30.361  1.00  0.00     0.002 C 
BRANCH  36  37
ATOM     37  C   UNL A   1      35.483  32.604  30.219  1.00  0.00     0.021 C 
BRANCH  37  38
ATOM     38  C   UNL A   1      34.961  32.485  28.788  1.00  0.00     0.116 C 
BRANCH  38  39
ATOM     39  N   UNL A   1      34.245  31.234  28.598  1.00  0.00    -0.352 N 
ATOM     40  C   UNL A   1      34.772  30.006  28.260  1.00  0.00     0.251 C 
ATOM     41  H   UNL A   1      33.270  31.269  28.727  1.00  0.00     0.163 HD
ATOM     42  O   UNL A   1      34.061  29.115  27.830  1.00  0.00    -0.269 OA
BRANCH  40  43
ATOM     43  C   UNL A   1      36.225  29.790  28.436  1.00  0.00     0.039 A 
ATOM     44  C   UNL A   1      36.712  29.329  29.660  1.00  0.00     0.014 A 
ATOM     45  C   UNL A   1      37.096  30.043  27.371  1.00  0.00     0.014 A 
ATOM     46  C   UNL A   1      38.082  29.093  29.808  1.00  0.00     0.010 A 
ATOM     47  C   UNL A   1      38.453  29.757  27.506  1.00  0.00     0.010 A 
ATOM     48  C   UNL A   1      38.961  29.292  28.730  1.00  0.00    -0.014 A 
BRANCH  48  49
ATOM     49  C   UNL A   1      40.421  29.049  28.879  1.00  0.00     0.031 A 
ATOM     50  C   UNL A   1      40.995  27.700  28.533  1.00  0.00     0.074 A 
ATOM     51  C   UNL A   1      41.221  30.025  29.351  1.00  0.00     0.049 A 
ATOM     52  N   UNL A   1      42.230  27.281  28.623  1.00  0.00    -0.248 NA
ATOM     53  C   UNL A   1      40.051  26.682  28.042  1.00  0.00     0.031 C 
ATOM     54  C   UNL A   1      40.776  31.361  29.751  1.00  0.00     0.029 A 
ATOM     55  N   UNL A   1      42.574  30.045  29.581  1.00  0.00    -0.354 N 
ATOM     56  C   UNL A   1      42.213  25.954  28.205  1.00  0.00     0.074 A 
ATOM     57  C   UNL A   1      40.835  25.621  27.918  1.00  0.00     0.031 C 
ATOM     58  C   UNL A   1      41.838  32.077  30.155  1.00  0.00     0.029 A 
ATOM     59  C   UNL A   1      43.034  31.242  30.080  1.00  0.00     0.049 A 
ATOM     60  H   UNL A   1      43.162  29.275  29.404  1.00  0.00     0.167 HD
ATOM     61  C   UNL A   1      43.253  25.101  28.051  1.00  0.00     0.037 A 
ATOM     62  C   UNL A   1      44.276  31.620  30.444  1.00  0.00     0.037 A 
ATOM     63  C   UNL A   1      44.623  25.447  28.324  1.00  0.00     0.049 A 
ATOM     64  C   UNL A   1      45.413  30.644  30.288  1.00  0.00     0.074 A 
ATOM     65  C   UNL A   1      45.756  24.670  28.156  1.00  0.00     0.029 A 
ATOM     66  N   UNL A   1      45.048  26.669  28.825  1.00  0.00    -0.354 N 
ATOM     67  N   UNL A   1      45.386  29.414  29.832  1.00  0.00    -0.248 NA
ATOM     68  C   UNL A   1      46.749  31.108  30.686  1.00  0.00     0.031 C 
ATOM     69  C   UNL A   1      46.858  25.401  28.610  1.00  0.00     0.029 A 
ATOM     70  C   UNL A   1      46.422  26.658  28.999  1.00  0.00     0.049 A 
ATOM     71  H   UNL A   1      44.460  27.432  29.028  1.00  0.00     0.167 HD
ATOM     72  C   UNL A   1      46.704  28.969  29.858  1.00  0.00     0.074 A 
ATOM     73  C   UNL A   1      47.503  30.065  30.364  1.00  0.00     0.031 C 
ATOM     74  C   UNL A   1      47.207  27.763  29.492  1.00  0.00     0.037 A 
BRANCH  61  75
ATOM     75  C   UNL A   1      42.952  23.708  27.565  1.00  0.00     0.058 A 
ATOM     76  C   UNL A   1      42.928  23.391  26.196  1.00  0.00     0.135 A 
ATOM     77  C   UNL A   1      42.729  22.665  28.479  1.00  0.00     0.135 A 
ATOM     78  F   UNL A   1      43.120  24.349  25.276  1.00  0.00    -0.206 F 
ATOM     79  C   UNL A   1      42.668  22.099  25.752  1.00  0.00     0.059 A 
ATOM     80  C   UNL A   1      42.498  21.358  28.058  1.00  0.00     0.059 A 
ATOM     81  F   UNL A   1      42.739  22.910  29.799  1.00  0.00    -0.206 F 
ATOM     82  C   UNL A   1      42.456  21.088  26.692  1.00  0.00     0.060 A 
BRANCH  82  83
ATOM     83  S   UNL A   1      42.134  19.414  26.097  1.00  0.00     0.124 S 
ATOM     84  O   UNL A   1      42.973  19.363  24.904  1.00  0.00    -0.237 OA
ATOM     85  O   UNL A   1      42.577  18.595  27.220  1.00  0.00    -0.237 OA
ATOM     86  O   UNL A   1      40.695  19.410  25.851  1.00  0.00    -0.744 OA
ENDBRANCH  82  83
ENDBRANCH  61  75
BRANCH  62  87
ATOM     87  C   UNL A   1      44.513  32.989  30.981  1.00  0.00     0.058 A 
ATOM     88  C   UNL A   1      44.436  33.254  32.356  1.00  0.00     0.135 A 
ATOM     89  C   UNL A   1      44.822  34.061  30.127  1.00  0.00     0.135 A 
ATOM     90  F   UNL A   1      44.137  32.266  33.213  1.00  0.00    -0.206 F 
ATOM     91  C   UNL A   1      44.635  34.534  32.866  1.00  0.00     0.059 A 
ATOM     92  C   UNL A   1      45.054  35.343  30.616  1.00  0.00     0.059 A 
ATOM     93  F   UNL A   1      44.923  33.861  28.804  1.00  0.00    -0.206 F 
ATOM     94  C   UNL A   1      44.946  35.571  31.987  1.00  0.00     0.060 A 
BRANCH  94  95
ATOM     95  S   UNL A   1      45.239  37.221  32.662  1.00  0.00     0.124 S 
ATOM     96  O   UNL A   1      43.923  37.832  32.526  1.00  0.00    -0.237 OA
ATOM     97  O   UNL A   1      45.669  36.920  34.025  1.00  0.00    -0.237 OA
ATOM     98  O   UNL A   1      46.280  37.760  31.790  1.00  0.00    -0.744 OA
ENDBRANCH  94  95
ENDBRANCH  62  87
BRANCH  74  99
ATOM     99  C   UNL A   1      48.697  27.571  29.581  1.00  0.00     0.058 A 
ATOM    100  C   UNL A   1      49.315  27.091  30.746  1.00  0.00     0.135 A 
ATOM    101  C   UNL A   1      49.508  27.805  28.458  1.00  0.00     0.135 A 
ATOM    102  F   UNL A   1      48.588  26.857  31.851  1.00  0.00    -0.206 F 
ATOM    103  C   UNL A   1      50.687  26.868  30.801  1.00  0.00     0.059 A 
ATOM    104  C   UNL A   1      50.876  27.557  28.479  1.00  0.00     0.059 A 
ATOM    105  F   UNL A   1      48.966  28.255  27.315  1.00  0.00    -0.206 F 
ATOM    106  C   UNL A   1      51.458  27.097  29.659  1.00  0.00     0.060 A 
BRANCH 106 107
ATOM    107  S   UNL A   1      53.229  26.755  29.731  1.00  0.00     0.124 S 
ATOM    108  O   UNL A   1      53.301  25.806  30.839  1.00  0.00    -0.237 OA
ATOM    109  O   UNL A   1      53.493  26.204  28.406  1.00  0.00    -0.237 OA
ATOM    110  O   UNL A   1      53.820  28.065  29.988  1.00  0.00    -0.744 OA
ENDBRANCH 106 107
ENDBRANCH  74  99
ENDBRANCH  48  49
ENDBRANCH  40  43
ENDBRANCH  38  39
ENDBRANCH  37  38
ENDBRANCH  36  37
ENDBRANCH   1  36
TORSDOF 22
ENDMDL
MODEL 2
REMARK VINA RESULT:      -7.9      5.157     13.288
REMARK SMILES COc1cc(/C=C2/CCc3cc(OC(C)(C)C(=O)NCCCCCCNC(=O)c4ccc(-c5c6nc(c(-c7c(F)cc(S(=O)(=O)[O-])cc7F)c7ccc([nH]7)c(-c7c(F)cc(S(=O)(=O)[O-])cc7F)c7nc(c(-c8c(F)cc(S(=O)(=O)[O-])cc8F)c8ccc5[nH]8)C=C7)C=C6)cc4)ccc3C2=O)cc(OC)c1O
REMARK SMILES IDX 22 1 21 2 20 3 19 4 17 5 18 6 14 8 15 9 16 10 13 11 12 12
REMARK SMILES IDX 6 13 7 14 8 15 98 16 9 17 97 18 99 19 10 20 96 21 11 22
REMARK SMILES IDX 95 23 5 24 3 25 4 26 104 27 101 28 100 29 2 30 1 31 105 32
REMARK SMILES IDX 102 34 103 35 23 36 24 37 25 38 26 39 27 40 28 42 29 43
REMARK SMILES IDX 30 44 94 45 31 46 93 47 32 48 33 49 34 50 87 51 35 52 92 53
REMARK SMILES IDX 86 54 88 55 36 56 91 57 85 58 84 59 37 61 71 62 50 63 70 64
REMARK SMILES IDX 51 65 54 66 69 67 89 68 52 69 53 70 68 72 90 73 55 74 38 75
REMARK SMILES IDX 39 76 48 77 40 78 41 79 47 80 49 81 42 82 43 83 44 84 45 85
REMARK SMILES IDX 46 86 72 87 73 88 82 89 74 90 75 91 81 92 83 93 76 94 77 95
REMARK SMILES IDX 78 96 79 97 80 98 56 99 57 100 66 101 58 102 59 103 65 104
REMARK SMILES IDX 67 105 60 106 61 107 62 108 63 109 64 110
REMARK H PARENT 19 7 105 33 26 41 88 60 54 71
REMARK Flexibility Score: inf
ROOT
ATOM      1  C   UNL A   1      39.676  26.800  27.509  1.00  0.00     0.002 C 
ENDROOT
BRANCH   1   2
ATOM      2  C   UNL A   1      39.541  25.301  27.757  1.00  0.00     0.021 C 
BRANCH   2   3
ATOM      3  C   UNL A   1      38.700  24.408  26.830  1.00  0.00     0.116 C 
BRANCH   3   4
ATOM      4  N   UNL A   1      38.859  22.949  26.845  1.00  0.00    -0.353 N 
ATOM      5  C   UNL A   1      38.498  22.058  25.806  1.00  0.00     0.263 C 
ATOM      6  O   UNL A   1      39.367  21.244  25.468  1.00  0.00    -0.270 OA
ATOM      7  H   UNL A   1      39.253  22.552  27.655  1.00  0.00     0.163 HD
BRANCH   5   8
ATOM      8  C   UNL A   1      36.951  21.850  25.368  1.00  0.00     0.181 C 
ATOM      9  C   UNL A   1      36.737  20.342  25.248  1.00  0.00     0.067 C 
ATOM     10  C   UNL A   1      37.085  22.723  24.088  1.00  0.00     0.067 C 
BRANCH   8  11
ATOM     11  O   UNL A   1      35.852  22.335  26.251  1.00  0.00    -0.478 OA
BRANCH  11  12
ATOM     12  C   UNL A   1      34.619  21.678  26.072  1.00  0.00     0.121 A 
ATOM     13  C   UNL A   1      30.764  24.695  23.265  1.00  0.00     0.016 C 
ATOM     14  C   UNL A   1      31.139  23.417  23.519  1.00  0.00     0.001 C 
ATOM     15  C   UNL A   1      30.963  22.071  22.816  1.00  0.00     0.044 C 
ATOM     16  C   UNL A   1      32.179  23.250  24.517  1.00  0.00     0.189 C 
ATOM     17  C   UNL A   1      32.235  21.062  23.044  1.00  0.00     0.041 C 
ATOM     18  C   UNL A   1      32.081  21.968  25.295  1.00  0.00     0.026 A 
ATOM     19  O   UNL A   1      33.247  23.816  24.315  1.00  0.00    -0.289 OA
ATOM     20  C   UNL A   1      32.840  21.152  24.466  1.00  0.00    -0.033 A 
ATOM     21  C   UNL A   1      32.353  22.061  26.658  1.00  0.00     0.016 A 
ATOM     22  C   UNL A   1      34.202  21.058  24.849  1.00  0.00     0.051 A 
ATOM     23  C   UNL A   1      33.669  21.909  27.066  1.00  0.00     0.047 A 
BRANCH  13  24
ATOM     24  C   UNL A   1      31.637  25.865  23.660  1.00  0.00    -0.018 A 
ATOM     25  C   UNL A   1      31.794  27.655  25.306  1.00  0.00     0.165 A 
ATOM     26  C   UNL A   1      31.312  26.408  24.918  1.00  0.00     0.058 A 
ATOM     27  C   UNL A   1      32.681  28.360  24.486  1.00  0.00     0.200 A 
ATOM     28  C   UNL A   1      33.022  27.872  23.222  1.00  0.00     0.165 A 
ATOM     29  C   UNL A   1      32.493  26.615  22.817  1.00  0.00     0.058 A 
BRANCH  25  30
ATOM     30  O   UNL A   1      31.138  28.321  26.312  1.00  0.00    -0.493 OA
ATOM     31  C   UNL A   1      31.680  28.084  27.602  1.00  0.00     0.278 C 
ENDBRANCH  25  30
BRANCH  27  32
ATOM     32  O   UNL A   1      33.111  29.588  24.905  1.00  0.00    -0.502 OA
ATOM     33  H   UNL A   1      33.557  30.156  24.309  1.00  0.00     0.293 HD
ENDBRANCH  27  32
BRANCH  28  34
ATOM     34  O   UNL A   1      33.747  28.551  22.264  1.00  0.00    -0.493 OA
ATOM     35  C   UNL A   1      35.142  28.797  22.492  1.00  0.00     0.278 C 
ENDBRANCH  28  34
ENDBRANCH  13  24
ENDBRANCH  11  12
ENDBRANCH   8  11
ENDBRANCH   5   8
ENDBRANCH   3   4
ENDBRANCH   2   3
ENDBRANCH   1   2
BRANCH   1  36
ATOM     36  C   UNL A   1      40.851  27.184  26.597  1.00  0.00     0.002 C 
BRANCH  36  37
ATOM     37  C   UNL A   1      41.441  26.073  25.709  1.00  0.00     0.021 C 
BRANCH  37  38
ATOM     38  C   UNL A   1      42.878  26.290  25.239  1.00  0.00     0.116 C 
BRANCH  38  39
ATOM     39  N   UNL A   1      43.767  25.287  25.801  1.00  0.00    -0.352 N 
ATOM     40  C   UNL A   1      44.419  25.326  27.014  1.00  0.00     0.251 C 
ATOM     41  H   UNL A   1      43.920  24.486  25.250  1.00  0.00     0.163 HD
ATOM     42  O   UNL A   1      45.364  24.591  27.243  1.00  0.00    -0.269 OA
BRANCH  40  43
ATOM     43  C   UNL A   1      43.941  26.279  28.041  1.00  0.00     0.039 A 
ATOM     44  C   UNL A   1      43.077  25.838  29.044  1.00  0.00     0.014 A 
ATOM     45  C   UNL A   1      44.367  27.610  28.000  1.00  0.00     0.014 A 
ATOM     46  C   UNL A   1      42.658  26.735  30.031  1.00  0.00     0.010 A 
ATOM     47  C   UNL A   1      43.990  28.487  29.014  1.00  0.00     0.010 A 
ATOM     48  C   UNL A   1      43.121  28.062  30.033  1.00  0.00    -0.014 A 
BRANCH  48  49
ATOM     49  C   UNL A   1      42.677  29.025  31.075  1.00  0.00     0.031 A 
ATOM     50  C   UNL A   1      43.462  29.160  32.353  1.00  0.00     0.074 A 
ATOM     51  C   UNL A   1      41.558  29.752  30.887  1.00  0.00     0.049 A 
ATOM     52  N   UNL A   1      43.223  29.916  33.393  1.00  0.00    -0.248 NA
ATOM     53  C   UNL A   1      44.662  28.317  32.489  1.00  0.00     0.031 C 
ATOM     54  C   UNL A   1      40.696  29.684  29.705  1.00  0.00     0.029 A 
ATOM     55  N   UNL A   1      40.949  30.687  31.687  1.00  0.00    -0.354 N 
ATOM     56  C   UNL A   1      44.236  29.639  34.305  1.00  0.00     0.074 A 
ATOM     57  C   UNL A   1      45.057  28.602  33.721  1.00  0.00     0.031 C 
ATOM     58  C   UNL A   1      39.684  30.556  29.848  1.00  0.00     0.029 A 
ATOM     59  C   UNL A   1      39.800  31.217  31.145  1.00  0.00     0.049 A 
ATOM     60  H   UNL A   1      41.301  30.954  32.567  1.00  0.00     0.167 HD
ATOM     61  C   UNL A   1      44.474  30.215  35.508  1.00  0.00     0.037 A 
ATOM     62  C   UNL A   1      38.936  32.125  31.640  1.00  0.00     0.037 A 
ATOM     63  C   UNL A   1      43.659  31.258  36.074  1.00  0.00     0.049 A 
ATOM     64  C   UNL A   1      39.208  32.731  32.992  1.00  0.00     0.074 A 
ATOM     65  C   UNL A   1      43.841  31.940  37.265  1.00  0.00     0.029 A 
ATOM     66  N   UNL A   1      42.508  31.769  35.493  1.00  0.00    -0.354 N 
ATOM     67  N   UNL A   1      40.205  32.501  33.813  1.00  0.00    -0.248 NA
ATOM     68  C   UNL A   1      38.243  33.726  33.483  1.00  0.00     0.031 C 
ATOM     69  C   UNL A   1      42.768  32.820  37.432  1.00  0.00     0.029 A 
ATOM     70  C   UNL A   1      41.953  32.737  36.314  1.00  0.00     0.049 A 
ATOM     71  H   UNL A   1      42.139  31.485  34.626  1.00  0.00     0.167 HD
ATOM     72  C   UNL A   1      40.006  33.346  34.901  1.00  0.00     0.074 A 
ATOM     73  C   UNL A   1      38.799  34.098  34.628  1.00  0.00     0.031 C 
ATOM     74  C   UNL A   1      40.756  33.488  36.022  1.00  0.00     0.037 A 
BRANCH  61  75
ATOM     75  C   UNL A   1      45.661  29.729  36.296  1.00  0.00     0.058 A 
ATOM     76  C   UNL A   1      46.928  30.325  36.167  1.00  0.00     0.135 A 
ATOM     77  C   UNL A   1      45.525  28.685  37.225  1.00  0.00     0.135 A 
ATOM     78  F   UNL A   1      47.123  31.318  35.285  1.00  0.00    -0.206 F 
ATOM     79  C   UNL A   1      48.018  29.886  36.911  1.00  0.00     0.059 A 
ATOM     80  C   UNL A   1      46.594  28.250  38.002  1.00  0.00     0.059 A 
ATOM     81  F   UNL A   1      44.338  28.079  37.389  1.00  0.00    -0.206 F 
ATOM     82  C   UNL A   1      47.841  28.848  37.828  1.00  0.00     0.060 A 
BRANCH  82  83
ATOM     83  S   UNL A   1      49.265  28.302  38.794  1.00  0.00     0.124 S 
ATOM     84  O   UNL A   1      49.336  29.339  39.818  1.00  0.00    -0.237 OA
ATOM     85  O   UNL A   1      48.840  26.984  39.255  1.00  0.00    -0.237 OA
ATOM     86  O   UNL A   1      50.355  28.302  37.825  1.00  0.00    -0.744 OA
ENDBRANCH  82  83
ENDBRANCH  61  75
BRANCH  62  87
ATOM     87  C   UNL A   1      37.739  32.526  30.850  1.00  0.00     0.058 A 
ATOM     88  C   UNL A   1      36.482  31.950  31.092  1.00  0.00     0.135 A 
ATOM     89  C   UNL A   1      37.828  33.493  29.836  1.00  0.00     0.135 A 
ATOM     90  F   UNL A   1      36.346  31.016  32.045  1.00  0.00    -0.206 F 
ATOM     91  C   UNL A   1      35.362  32.302  30.345  1.00  0.00     0.059 A 
ATOM     92  C   UNL A   1      36.716  33.883  29.096  1.00  0.00     0.059 A 
ATOM     93  F   UNL A   1      39.002  34.087  29.573  1.00  0.00    -0.206 F 
ATOM     94  C   UNL A   1      35.489  33.272  29.350  1.00  0.00     0.060 A 
BRANCH  94  95
ATOM     95  S   UNL A   1      34.021  33.748  28.412  1.00  0.00     0.124 S 
ATOM     96  O   UNL A   1      33.566  32.460  27.904  1.00  0.00    -0.237 OA
ATOM     97  O   UNL A   1      33.187  34.362  29.441  1.00  0.00    -0.237 OA
ATOM     98  O   UNL A   1      34.548  34.672  27.411  1.00  0.00    -0.744 OA
ENDBRANCH  94  95
ENDBRANCH  62  87
BRANCH  74  99
ATOM     99  C   UNL A   1      40.327  34.524  37.025  1.00  0.00     0.058 A 
ATOM    100  C   UNL A   1      39.429  34.226  38.062  1.00  0.00     0.135 A 
ATOM    101  C   UNL A   1      40.876  35.817  36.986  1.00  0.00     0.135 A 
ATOM    102  F   UNL A   1      38.868  33.009  38.142  1.00  0.00    -0.206 F 
ATOM    103  C   UNL A   1      39.078  35.177  39.014  1.00  0.00     0.059 A 
ATOM    104  C   UNL A   1      40.566  36.773  37.947  1.00  0.00     0.059 A 
ATOM    105  F   UNL A   1      41.748  36.152  36.021  1.00  0.00    -0.206 F 
ATOM    106  C   UNL A   1      39.658  36.446  38.952  1.00  0.00     0.060 A 
BRANCH 106 107
ATOM    107  S   UNL A   1      39.230  37.654  40.225  1.00  0.00     0.124 S 
ATOM    108  O   UNL A   1      38.147  38.390  39.580  1.00  0.00    -0.237 OA
ATOM    109  O   UNL A   1      38.841  36.802  41.343  1.00  0.00    -0.237 OA
ATOM    110  O   UNL A   1      40.470  38.402  40.415  1.00  0.00    -0.744 OA
ENDBRANCH 106 107
ENDBRANCH  74  99
ENDBRANCH  48  49
ENDBRANCH  40  43
ENDBRANCH  38  39
ENDBRANCH  37  38
ENDBRANCH  36  37
ENDBRANCH   1  36
TORSDOF 22
ENDMDL
MODEL 3
REMARK VINA RESULT:      -7.8      4.401     10.926
REMARK SMILES COc1cc(/C=C2/CCc3cc(OC(C)(C)C(=O)NCCCCCCNC(=O)c4ccc(-c5c6nc(c(-c7c(F)cc(S(=O)(=O)[O-])cc7F)c7ccc([nH]7)c(-c7c(F)cc(S(=O)(=O)[O-])cc7F)c7nc(c(-c8c(F)cc(S(=O)(=O)[O-])cc8F)c8ccc5[nH]8)C=C7)C=C6)cc4)ccc3C2=O)cc(OC)c1O
REMARK SMILES IDX 22 1 21 2 20 3 19 4 17 5 18 6 14 8 15 9 16 10 13 11 12 12
REMARK SMILES IDX 6 13 7 14 8 15 98 16 9 17 97 18 99 19 10 20 96 21 11 22
REMARK SMILES IDX 95 23 5 24 3 25 4 26 104 27 101 28 100 29 2 30 1 31 105 32
REMARK SMILES IDX 102 34 103 35 23 36 24 37 25 38 26 39 27 40 28 42 29 43
REMARK SMILES IDX 30 44 94 45 31 46 93 47 32 48 33 49 34 50 87 51 35 52 92 53
REMARK SMILES IDX 86 54 88 55 36 56 91 57 85 58 84 59 37 61 71 62 50 63 70 64
REMARK SMILES IDX 51 65 54 66 69 67 89 68 52 69 53 70 68 72 90 73 55 74 38 75
REMARK SMILES IDX 39 76 48 77 40 78 41 79 47 80 49 81 42 82 43 83 44 84 45 85
REMARK SMILES IDX 46 86 72 87 73 88 82 89 74 90 75 91 81 92 83 93 76 94 77 95
REMARK SMILES IDX 78 96 79 97 80 98 56 99 57 100 66 101 58 102 59 103 65 104
REMARK SMILES IDX 67 105 60 106 61 107 62 108 63 109 64 110
REMARK H PARENT 19 7 105 33 26 41 88 60 54 71
REMARK Flexibility Score: inf
ROOT
ATOM      1  C   UNL A   1      45.949  21.558  34.806  1.00  0.00     0.002 C 
ENDROOT
BRANCH   1   2
ATOM      2  C   UNL A   1      46.968  20.501  34.392  1.00  0.00     0.021 C 
BRANCH   2   3
ATOM      3  C   UNL A   1      48.366  20.442  35.031  1.00  0.00     0.116 C 
BRANCH   3   4
ATOM      4  N   UNL A   1      49.446  19.670  34.406  1.00  0.00    -0.353 N 
ATOM      5  C   UNL A   1      50.833  19.925  34.524  1.00  0.00     0.263 C 
ATOM      6  O   UNL A   1      51.537  18.953  34.829  1.00  0.00    -0.270 OA
ATOM      7  H   UNL A   1      49.180  18.900  33.853  1.00  0.00     0.163 HD
BRANCH   5   8
ATOM      8  C   UNL A   1      51.498  21.276  33.922  1.00  0.00     0.181 C 
ATOM      9  C   UNL A   1      52.438  20.830  32.802  1.00  0.00     0.067 C 
ATOM     10  C   UNL A   1      52.078  21.728  35.292  1.00  0.00     0.067 C 
BRANCH   8  11
ATOM     11  O   UNL A   1      50.635  22.329  33.316  1.00  0.00    -0.478 OA
BRANCH  11  12
ATOM     12  C   UNL A   1      51.088  23.648  33.514  1.00  0.00     0.121 A 
ATOM     13  C   UNL A   1      47.637  27.623  31.481  1.00  0.00     0.016 C 
ATOM     14  C   UNL A   1      48.567  27.410  32.444  1.00  0.00     0.001 C 
ATOM     15  C   UNL A   1      48.883  28.027  33.806  1.00  0.00     0.044 C 
ATOM     16  C   UNL A   1      49.284  26.151  32.364  1.00  0.00     0.189 C 
ATOM     17  C   UNL A   1      49.492  26.940  34.873  1.00  0.00     0.041 C 
ATOM     18  C   UNL A   1      50.691  26.213  32.887  1.00  0.00     0.026 A 
ATOM     19  O   UNL A   1      48.618  25.122  32.392  1.00  0.00    -0.289 OA
ATOM     20  C   UNL A   1      50.442  25.908  34.219  1.00  0.00    -0.033 A 
ATOM     21  C   UNL A   1      51.644  25.510  32.154  1.00  0.00     0.016 A 
ATOM     22  C   UNL A   1      50.591  24.532  34.527  1.00  0.00     0.051 A 
ATOM     23  C   UNL A   1      51.855  24.178  32.478  1.00  0.00     0.047 A 
BRANCH  13  24
ATOM     24  C   UNL A   1      47.087  26.483  30.652  1.00  0.00    -0.018 A 
ATOM     25  C   UNL A   1      47.077  25.615  28.375  1.00  0.00     0.165 A 
ATOM     26  C   UNL A   1      47.662  26.394  29.370  1.00  0.00     0.058 A 
ATOM     27  C   UNL A   1      45.948  24.837  28.654  1.00  0.00     0.200 A 
ATOM     28  C   UNL A   1      45.332  24.903  29.906  1.00  0.00     0.165 A 
ATOM     29  C   UNL A   1      45.913  25.732  30.904  1.00  0.00     0.058 A 
BRANCH  25  30
ATOM     30  O   UNL A   1      47.402  25.880  27.067  1.00  0.00    -0.493 OA
ATOM     31  C   UNL A   1      48.614  25.273  26.646  1.00  0.00     0.278 C 
ENDBRANCH  25  30
BRANCH  27  32
ATOM     32  O   UNL A   1      45.402  24.105  27.638  1.00  0.00    -0.502 OA
ATOM     33  H   UNL A   1      44.524  24.275  27.358  1.00  0.00     0.293 HD
ENDBRANCH  27  32
BRANCH  28  34
ATOM     34  O   UNL A   1      44.128  24.318  30.243  1.00  0.00    -0.493 OA
ATOM     35  C   UNL A   1      44.039  23.561  31.458  1.00  0.00     0.278 C 
ENDBRANCH  28  34
ENDBRANCH  13  24
ENDBRANCH  11  12
ENDBRANCH   8  11
ENDBRANCH   5   8
ENDBRANCH   3   4
ENDBRANCH   2   3
ENDBRANCH   1   2
BRANCH   1  36
ATOM     36  C   UNL A   1      46.158  22.114  36.221  1.00  0.00     0.002 C 
BRANCH  36  37
ATOM     37  C   UNL A   1      45.884  23.614  36.432  1.00  0.00     0.021 C 
BRANCH  37  38
ATOM     38  C   UNL A   1      47.093  24.537  36.287  1.00  0.00     0.116 C 
BRANCH  38  39
ATOM     39  N   UNL A   1      47.418  25.171  37.554  1.00  0.00    -0.352 N 
ATOM     40  C   UNL A   1      47.107  26.451  37.959  1.00  0.00     0.251 C 
ATOM     41  H   UNL A   1      47.920  24.621  38.197  1.00  0.00     0.163 HD
ATOM     42  O   UNL A   1      47.687  26.972  38.895  1.00  0.00    -0.269 OA
BRANCH  40  43
ATOM     43  C   UNL A   1      46.044  27.181  37.233  1.00  0.00     0.039 A 
ATOM     44  C   UNL A   1      46.390  28.171  36.312  1.00  0.00     0.014 A 
ATOM     45  C   UNL A   1      44.702  26.867  37.473  1.00  0.00     0.014 A 
ATOM     46  C   UNL A   1      45.382  28.831  35.604  1.00  0.00     0.010 A 
ATOM     47  C   UNL A   1      43.704  27.490  36.727  1.00  0.00     0.010 A 
ATOM     48  C   UNL A   1      44.033  28.488  35.796  1.00  0.00    -0.014 A 
BRANCH  48  49
ATOM     49  C   UNL A   1      42.953  29.189  35.051  1.00  0.00     0.031 A 
ATOM     50  C   UNL A   1      42.539  28.696  33.690  1.00  0.00     0.074 A 
ATOM     51  C   UNL A   1      42.370  30.281  35.582  1.00  0.00     0.049 A 
ATOM     52  N   UNL A   1      41.645  29.185  32.871  1.00  0.00    -0.248 NA
ATOM     53  C   UNL A   1      43.239  27.508  33.173  1.00  0.00     0.031 C 
ATOM     54  C   UNL A   1      42.708  30.874  36.878  1.00  0.00     0.029 A 
ATOM     55  N   UNL A   1      41.372  31.092  35.099  1.00  0.00    -0.354 N 
ATOM     56  C   UNL A   1      41.676  28.370  31.744  1.00  0.00     0.074 A 
ATOM     57  C   UNL A   1      42.719  27.392  31.960  1.00  0.00     0.031 C 
ATOM     58  C   UNL A   1      41.918  31.938  37.096  1.00  0.00     0.029 A 
ATOM     59  C   UNL A   1      41.043  32.129  35.942  1.00  0.00     0.049 A 
ATOM     60  H   UNL A   1      40.933  30.945  34.231  1.00  0.00     0.167 HD
ATOM     61  C   UNL A   1      40.890  28.418  30.642  1.00  0.00     0.037 A 
ATOM     62  C   UNL A   1      40.145  33.124  35.798  1.00  0.00     0.037 A 
ATOM     63  C   UNL A   1      39.843  29.387  30.444  1.00  0.00     0.049 A 
ATOM     64  C   UNL A   1      39.301  33.172  34.551  1.00  0.00     0.074 A 
ATOM     65  C   UNL A   1      38.959  29.493  29.384  1.00  0.00     0.029 A 
ATOM     66  N   UNL A   1      39.540  30.418  31.321  1.00  0.00    -0.354 N 
ATOM     67  N   UNL A   1      39.302  32.356  33.523  1.00  0.00    -0.248 NA
ATOM     68  C   UNL A   1      38.328  34.268  34.446  1.00  0.00     0.031 C 
ATOM     69  C   UNL A   1      38.162  30.621  29.592  1.00  0.00     0.029 A 
ATOM     70  C   UNL A   1      38.502  31.181  30.814  1.00  0.00     0.049 A 
ATOM     71  H   UNL A   1      39.995  30.583  32.178  1.00  0.00     0.167 HD
ATOM     72  C   UNL A   1      38.310  32.822  32.666  1.00  0.00     0.074 A 
ATOM     73  C   UNL A   1      37.723  33.983  33.301  1.00  0.00     0.031 C 
ATOM     74  C   UNL A   1      37.918  32.329  31.464  1.00  0.00     0.037 A 
BRANCH  61  75
ATOM     75  C   UNL A   1      41.131  27.397  29.563  1.00  0.00     0.058 A 
ATOM     76  C   UNL A   1      42.279  27.432  28.754  1.00  0.00     0.135 A 
ATOM     77  C   UNL A   1      40.226  26.342  29.363  1.00  0.00     0.135 A 
ATOM     78  F   UNL A   1      43.172  28.425  28.889  1.00  0.00    -0.206 F 
ATOM     79  C   UNL A   1      42.507  26.476  27.770  1.00  0.00     0.059 A 
ATOM     80  C   UNL A   1      40.449  25.355  28.406  1.00  0.00     0.059 A 
ATOM     81  F   UNL A   1      39.111  26.258  30.106  1.00  0.00    -0.206 F 
ATOM     82  C   UNL A   1      41.586  25.439  27.605  1.00  0.00     0.060 A 
BRANCH  82  83
ATOM     83  S   UNL A   1      41.906  24.198  26.333  1.00  0.00     0.124 S 
ATOM     84  O   UNL A   1      42.407  25.025  25.240  1.00  0.00    -0.237 OA
ATOM     85  O   UNL A   1      42.891  23.337  26.980  1.00  0.00    -0.237 OA
ATOM     86  O   UNL A   1      40.597  23.592  26.111  1.00  0.00    -0.744 OA
ENDBRANCH  82  83
ENDBRANCH  61  75
BRANCH  62  87
ATOM     87  C   UNL A   1      39.989  34.150  36.866  1.00  0.00     0.058 A 
ATOM     88  C   UNL A   1      39.131  33.940  37.956  1.00  0.00     0.135 A 
ATOM     89  C   UNL A   1      40.695  35.363  36.817  1.00  0.00     0.135 A 
ATOM     90  F   UNL A   1      38.428  32.800  38.045  1.00  0.00    -0.206 F 
ATOM     91  C   UNL A   1      38.961  34.902  38.947  1.00  0.00     0.059 A 
ATOM     92  C   UNL A   1      40.564  36.327  37.811  1.00  0.00     0.059 A 
ATOM     93  F   UNL A   1      41.540  35.611  35.804  1.00  0.00    -0.206 F 
ATOM     94  C   UNL A   1      39.685  36.092  38.867  1.00  0.00     0.060 A 
BRANCH  94  95
ATOM     95  S   UNL A   1      39.485  37.317  40.179  1.00  0.00     0.124 S 
ATOM     96  O   UNL A   1      40.568  38.247  39.880  1.00  0.00    -0.237 OA
ATOM     97  O   UNL A   1      38.133  37.808  39.935  1.00  0.00    -0.237 OA
ATOM     98  O   UNL A   1      39.648  36.530  41.399  1.00  0.00    -0.744 OA
ENDBRANCH  94  95
ENDBRANCH  62  87
BRANCH  74  99
ATOM     99  C   UNL A   1      36.771  33.012  30.769  1.00  0.00     0.058 A 
ATOM    100  C   UNL A   1      35.434  32.708  31.069  1.00  0.00     0.135 A 
ATOM    101  C   UNL A   1      37.017  34.035  29.838  1.00  0.00     0.135 A 
ATOM    102  F   UNL A   1      35.142  31.734  31.947  1.00  0.00    -0.206 F 
ATOM    103  C   UNL A   1      34.382  33.381  30.458  1.00  0.00     0.059 A 
ATOM    104  C   UNL A   1      35.981  34.743  29.239  1.00  0.00     0.059 A 
ATOM    105  F   UNL A   1      38.277  34.372  29.521  1.00  0.00    -0.206 F 
ATOM    106  C   UNL A   1      34.666  34.403  29.549  1.00  0.00     0.060 A 
BRANCH 106 107
ATOM    107  S   UNL A   1      33.289  35.301  28.802  1.00  0.00     0.124 S 
ATOM    108  O   UNL A   1      32.597  34.234  28.084  1.00  0.00    -0.237 OA
ATOM    109  O   UNL A   1      32.596  35.834  29.970  1.00  0.00    -0.237 OA
ATOM    110  O   UNL A   1      33.948  36.297  27.962  1.00  0.00    -0.744 OA
ENDBRANCH 106 107
ENDBRANCH  74  99
ENDBRANCH  48  49
ENDBRANCH  40  43
ENDBRANCH  38  39
ENDBRANCH  37  38
ENDBRANCH  36  37
ENDBRANCH   1  36
TORSDOF 22
ENDMDL
