MODEL 1
REMARK VINA RESULT:     -13.1      0.000      0.000
REMARK SMILES O=C(NCCCCCCNC(=O)[C@H]1CC=CC[C@@H]1C(=O)N[C@@H]1CCCN(c2ccccc2F)C1=O)c1ccc(-c2c3nc(c(-c4c(F)cc(S(=O)(=O)[O-])cc4F)c4ccc([nH]4)c(-c4c(F)cc(S(=O)(=O)[O-])cc4F)c4nc(c(-c5c(F)cc(S(=O)(=O)[O-])cc5F)c5ccc2[nH]5)C=C4)C=C3)cc1
REMARK SMILES IDX 6 1 5 2 4 3 3 4 1 5 2 6 36 8 37 9 101 10 38 11 100 12 39 13
REMARK SMILES IDX 40 14 41 15 94 16 42 17 99 18 93 19 95 20 43 21 98 22 92 23
REMARK SMILES IDX 91 24 44 26 78 27 57 28 77 29 58 30 61 31 76 32 96 33 59 34
REMARK SMILES IDX 60 35 75 37 97 38 62 39 45 40 46 41 55 42 47 43 48 44 54 45
REMARK SMILES IDX 56 46 49 47 50 48 51 49 52 50 53 51 79 52 80 53 89 54 81 55
REMARK SMILES IDX 82 56 88 57 90 58 83 59 84 60 85 61 86 62 87 63 63 64 64 65
REMARK SMILES IDX 73 66 65 67 66 68 72 69 74 70 67 71 68 72 69 73 70 74 71 75
REMARK SMILES IDX 7 76 8 77 9 78 10 79 11 80 12 82 13 83 14 84 18 85 15 86
REMARK SMILES IDX 17 87 16 88 19 89 20 90 21 91 22 93 23 94 34 95 24 96 26 97
REMARK SMILES IDX 35 98 25 99 27 100 28 101 32 102 29 103 31 104 33 105 30 106
REMARK H PARENT 3 7 95 25 61 36 10 81 21 92
REMARK Flexibility Score: inf
ROOT
ATOM      1  C   UNL A   1      37.778  23.571  25.583  1.00  0.00     0.002 C 
ENDROOT
BRANCH   1   2
ATOM      2  C   UNL A   1      38.825  22.595  26.137  1.00  0.00     0.021 C 
BRANCH   2   3
ATOM      3  C   UNL A   1      39.891  23.196  27.055  1.00  0.00     0.116 C 
BRANCH   3   4
ATOM      4  N   UNL A   1      41.053  23.677  26.325  1.00  0.00    -0.352 N 
ATOM      5  O   UNL A   1      42.516  25.150  25.471  1.00  0.00    -0.269 OA
ATOM      6  C   UNL A   1      41.684  24.899  26.340  1.00  0.00     0.251 C 
ATOM      7  H   UNL A   1      41.456  23.017  25.717  1.00  0.00     0.163 HD
BRANCH   6   8
ATOM      8  C   UNL A   1      41.386  25.915  27.378  1.00  0.00     0.039 A 
ATOM      9  C   UNL A   1      40.377  25.711  28.322  1.00  0.00     0.014 A 
ATOM     10  C   UNL A   1      42.204  27.047  27.478  1.00  0.00     0.014 A 
ATOM     11  C   UNL A   1      40.127  26.676  29.300  1.00  0.00     0.010 A 
ATOM     12  C   UNL A   1      41.994  27.986  28.497  1.00  0.00     0.010 A 
ATOM     13  C   UNL A   1      40.946  27.812  29.413  1.00  0.00    -0.014 A 
BRANCH  13  14
ATOM     14  C   UNL A   1      40.757  28.742  30.560  1.00  0.00     0.031 A 
ATOM     15  C   UNL A   1      39.685  29.797  30.548  1.00  0.00     0.074 A 
ATOM     16  C   UNL A   1      41.564  28.612  31.633  1.00  0.00     0.049 A 
ATOM     17  N   UNL A   1      39.383  30.667  31.477  1.00  0.00    -0.248 NA
ATOM     18  C   UNL A   1      38.844  29.891  29.345  1.00  0.00     0.031 C 
ATOM     19  C   UNL A   1      42.655  27.641  31.749  1.00  0.00     0.029 A 
ATOM     20  N   UNL A   1      41.592  29.283  32.830  1.00  0.00    -0.354 N 
ATOM     21  C   UNL A   1      38.325  31.416  30.975  1.00  0.00     0.074 A 
ATOM     22  C   UNL A   1      38.048  30.910  29.647  1.00  0.00     0.031 C 
ATOM     23  C   UNL A   1      43.221  27.754  32.960  1.00  0.00     0.029 A 
ATOM     24  C   UNL A   1      42.571  28.839  33.688  1.00  0.00     0.049 A 
ATOM     25  H   UNL A   1      40.971  30.012  33.054  1.00  0.00     0.167 HD
ATOM     26  C   UNL A   1      37.644  32.421  31.574  1.00  0.00     0.037 A 
ATOM     27  C   UNL A   1      42.924  29.265  34.916  1.00  0.00     0.037 A 
ATOM     28  C   UNL A   1      37.917  32.910  32.903  1.00  0.00     0.049 A 
ATOM     29  C   UNL A   1      42.171  30.403  35.542  1.00  0.00     0.074 A 
ATOM     30  C   UNL A   1      37.249  33.897  33.608  1.00  0.00     0.029 A 
ATOM     31  N   UNL A   1      38.940  32.459  33.724  1.00  0.00    -0.354 N 
ATOM     32  N   UNL A   1      41.145  31.067  35.064  1.00  0.00    -0.248 NA
ATOM     33  C   UNL A   1      42.623  30.857  36.863  1.00  0.00     0.031 C 
ATOM     34  C   UNL A   1      37.891  34.072  34.837  1.00  0.00     0.029 A 
ATOM     35  C   UNL A   1      38.935  33.165  34.916  1.00  0.00     0.049 A 
ATOM     36  H   UNL A   1      39.575  31.743  33.495  1.00  0.00     0.167 HD
ATOM     37  C   UNL A   1      40.830  32.017  36.027  1.00  0.00     0.074 A 
ATOM     38  C   UNL A   1      41.754  31.825  37.126  1.00  0.00     0.031 C 
ATOM     39  C   UNL A   1      39.865  32.967  35.999  1.00  0.00     0.037 A 
BRANCH  26  40
ATOM     40  C   UNL A   1      36.521  33.076  30.820  1.00  0.00     0.058 A 
ATOM     41  C   UNL A   1      36.791  34.007  29.803  1.00  0.00     0.135 A 
ATOM     42  C   UNL A   1      35.181  32.882  31.193  1.00  0.00     0.135 A 
ATOM     43  F   UNL A   1      38.054  34.226  29.406  1.00  0.00    -0.206 F 
ATOM     44  C   UNL A   1      35.775  34.745  29.204  1.00  0.00     0.059 A 
ATOM     45  C   UNL A   1      34.147  33.597  30.594  1.00  0.00     0.059 A 
ATOM     46  F   UNL A   1      34.869  31.989  32.146  1.00  0.00    -0.206 F 
ATOM     47  C   UNL A   1      34.456  34.540  29.615  1.00  0.00     0.060 A 
BRANCH  47  48
ATOM     48  S   UNL A   1      33.150  35.519  28.840  1.00  0.00     0.124 S 
ATOM     49  O   UNL A   1      32.432  36.035  30.001  1.00  0.00    -0.237 OA
ATOM     50  O   UNL A   1      33.917  36.500  28.078  1.00  0.00    -0.237 OA
ATOM     51  O   UNL A   1      32.427  34.540  28.036  1.00  0.00    -0.744 OA
ENDBRANCH  47  48
ENDBRANCH  26  40
BRANCH  27  52
ATOM     52  C   UNL A   1      44.061  28.618  35.622  1.00  0.00     0.058 A 
ATOM     53  C   UNL A   1      43.844  27.587  36.549  1.00  0.00     0.135 A 
ATOM     54  C   UNL A   1      45.383  29.035  35.405  1.00  0.00     0.135 A 
ATOM     55  F   UNL A   1      42.596  27.158  36.799  1.00  0.00    -0.206 F 
ATOM     56  C   UNL A   1      44.892  27.008  37.255  1.00  0.00     0.059 A 
ATOM     57  C   UNL A   1      46.452  28.453  36.080  1.00  0.00     0.059 A 
ATOM     58  F   UNL A   1      45.640  30.010  34.519  1.00  0.00    -0.206 F 
ATOM     59  C   UNL A   1      46.193  27.452  37.016  1.00  0.00     0.060 A 
BRANCH  59  60
ATOM     60  S   UNL A   1      47.539  26.680  37.938  1.00  0.00     0.124 S 
ATOM     61  O   UNL A   1      48.641  26.785  36.980  1.00  0.00    -0.237 OA
ATOM     62  O   UNL A   1      47.635  27.516  39.116  1.00  0.00    -0.237 OA
ATOM     63  O   UNL A   1      47.044  25.318  38.169  1.00  0.00    -0.744 OA
ENDBRANCH  59  60
ENDBRANCH  27  52
BRANCH  39  64
ATOM     64  C   UNL A   1      39.756  33.880  37.187  1.00  0.00     0.058 A 
ATOM     65  C   UNL A   1      38.977  33.519  38.297  1.00  0.00     0.135 A 
ATOM     66  C   UNL A   1      40.369  35.143  37.193  1.00  0.00     0.135 A 
ATOM     67  F   UNL A   1      38.371  32.323  38.338  1.00  0.00    -0.206 F 
ATOM     68  C   UNL A   1      38.793  34.389  39.366  1.00  0.00     0.059 A 
ATOM     69  C   UNL A   1      40.216  36.020  38.262  1.00  0.00     0.059 A 
ATOM     70  F   UNL A   1      41.135  35.527  36.160  1.00  0.00    -0.206 F 
ATOM     71  C   UNL A   1      39.412  35.640  39.337  1.00  0.00     0.060 A 
BRANCH  71  72
ATOM     72  S   UNL A   1      39.168  36.754  40.736  1.00  0.00     0.124 S 
ATOM     73  O   UNL A   1      38.333  35.947  41.618  1.00  0.00    -0.237 OA
ATOM     74  O   UNL A   1      40.537  36.984  41.191  1.00  0.00    -0.237 OA
ATOM     75  O   UNL A   1      38.513  37.913  40.136  1.00  0.00    -0.744 OA
ENDBRANCH  71  72
ENDBRANCH  39  64
ENDBRANCH  13  14
ENDBRANCH   6   8
ENDBRANCH   3   4
ENDBRANCH   2   3
ENDBRANCH   1   2
BRANCH   1  76
ATOM     76  C   UNL A   1      36.837  23.049  24.490  1.00  0.00     0.002 C 
BRANCH  76  77
ATOM     77  C   UNL A   1      36.711  21.525  24.365  1.00  0.00     0.021 C 
BRANCH  77  78
ATOM     78  C   UNL A   1      35.830  20.799  25.415  1.00  0.00     0.116 C 
BRANCH  78  79
ATOM     79  N   UNL A   1      34.456  20.433  24.968  1.00  0.00    -0.356 N 
ATOM     80  C   UNL A   1      33.301  21.129  24.661  1.00  0.00     0.224 C 
ATOM     81  H   UNL A   1      34.343  19.460  24.869  1.00  0.00     0.163 HD
ATOM     82  O   UNL A   1      32.857  20.883  23.527  1.00  0.00    -0.275 OA
BRANCH  80  83
ATOM     83  C   UNL A   1      32.318  21.856  25.680  1.00  0.00     0.095 C 
ATOM     84  C   UNL A   1      33.189  22.269  26.849  1.00  0.00     0.041 C 
ATOM     85  C   UNL A   1      31.432  23.081  25.300  1.00  0.00     0.095 C 
ATOM     86  C   UNL A   1      33.900  23.501  26.389  1.00  0.00    -0.030 C 
ATOM     87  C   UNL A   1      32.262  24.055  24.550  1.00  0.00     0.041 C 
ATOM     88  C   UNL A   1      33.504  24.280  25.359  1.00  0.00    -0.030 C 
BRANCH  85  89
ATOM     89  C   UNL A   1      30.735  23.792  26.512  1.00  0.00     0.224 C 
ATOM     90  O   UNL A   1      30.433  23.069  27.478  1.00  0.00    -0.275 OA
ATOM     91  N   UNL A   1      30.437  25.117  26.695  1.00  0.00    -0.344 N 
ATOM     92  H   UNL A   1      30.048  25.212  27.594  1.00  0.00     0.164 HD
BRANCH  91  93
ATOM     93  C   UNL A   1      30.470  26.508  26.057  1.00  0.00     0.172 C 
ATOM     94  C   UNL A   1      30.458  26.534  24.530  1.00  0.00     0.037 C 
ATOM     95  C   UNL A   1      31.219  27.715  26.779  1.00  0.00     0.249 C 
ATOM     96  C   UNL A   1      30.527  27.955  24.015  1.00  0.00     0.025 C 
ATOM     97  N   UNL A   1      31.975  28.618  25.983  1.00  0.00    -0.308 N 
ATOM     98  O   UNL A   1      31.045  27.845  27.994  1.00  0.00    -0.272 OA
ATOM     99  C   UNL A   1      31.780  28.643  24.524  1.00  0.00     0.126 C 
BRANCH  97 100
ATOM    100  C   UNL A   1      33.114  29.414  26.501  1.00  0.00     0.080 A 
ATOM    101  C   UNL A   1      34.373  28.798  26.708  1.00  0.00     0.029 A 
ATOM    102  C   UNL A   1      33.034  30.742  26.973  1.00  0.00     0.146 A 
ATOM    103  C   UNL A   1      35.410  29.404  27.442  1.00  0.00     0.002 A 
ATOM    104  C   UNL A   1      34.043  31.326  27.759  1.00  0.00     0.041 A 
ATOM    105  F   UNL A   1      31.954  31.512  26.806  1.00  0.00    -0.205 F 
ATOM    106  C   UNL A   1      35.226  30.651  28.014  1.00  0.00     0.003 A 
ENDBRANCH  97 100
ENDBRANCH  91  93
ENDBRANCH  85  89
ENDBRANCH  80  83
ENDBRANCH  78  79
ENDBRANCH  77  78
ENDBRANCH  76  77
ENDBRANCH   1  76
TORSDOF 19
ENDMDL
MODEL 2
REMARK VINA RESULT:     -13.0      0.402      7.784
REMARK SMILES O=C(NCCCCCCNC(=O)[C@H]1CC=CC[C@@H]1C(=O)N[C@@H]1CCCN(c2ccccc2F)C1=O)c1ccc(-c2c3nc(c(-c4c(F)cc(S(=O)(=O)[O-])cc4F)c4ccc([nH]4)c(-c4c(F)cc(S(=O)(=O)[O-])cc4F)c4nc(c(-c5c(F)cc(S(=O)(=O)[O-])cc5F)c5ccc2[nH]5)C=C4)C=C3)cc1
REMARK SMILES IDX 6 1 5 2 4 3 3 4 1 5 2 6 36 8 37 9 101 10 38 11 100 12 39 13
REMARK SMILES IDX 40 14 41 15 94 16 42 17 99 18 93 19 95 20 43 21 98 22 92 23
REMARK SMILES IDX 91 24 44 26 78 27 57 28 77 29 58 30 61 31 76 32 96 33 59 34
REMARK SMILES IDX 60 35 75 37 97 38 62 39 45 40 46 41 55 42 47 43 48 44 54 45
REMARK SMILES IDX 56 46 49 47 50 48 51 49 52 50 53 51 79 52 80 53 89 54 81 55
REMARK SMILES IDX 82 56 88 57 90 58 83 59 84 60 85 61 86 62 87 63 63 64 64 65
REMARK SMILES IDX 73 66 65 67 66 68 72 69 74 70 67 71 68 72 69 73 70 74 71 75
REMARK SMILES IDX 7 76 8 77 9 78 10 79 11 80 12 82 13 83 14 84 18 85 15 86
REMARK SMILES IDX 17 87 16 88 19 89 20 90 21 91 22 93 23 94 34 95 24 96 26 97
REMARK SMILES IDX 35 98 25 99 27 100 28 101 32 102 29 103 31 104 33 105 30 106
REMARK H PARENT 3 7 95 25 61 36 10 81 21 92
REMARK Flexibility Score: inf
ROOT
ATOM      1  C   UNL A   1      37.889  23.668  25.849  1.00  0.00     0.002 C 
ENDROOT
BRANCH   1   2
ATOM      2  C   UNL A   1      38.972  22.658  26.255  1.00  0.00     0.021 C 
BRANCH   2   3
ATOM      3  C   UNL A   1      40.194  23.229  26.975  1.00  0.00     0.116 C 
BRANCH   3   4
ATOM      4  N   UNL A   1      41.115  23.901  26.070  1.00  0.00    -0.352 N 
ATOM      5  O   UNL A   1      42.146  25.601  25.028  1.00  0.00    -0.269 OA
ATOM      6  C   UNL A   1      41.535  25.209  26.020  1.00  0.00     0.251 C 
ATOM      7  H   UNL A   1      41.501  23.320  25.376  1.00  0.00     0.163 HD
BRANCH   6   8
ATOM      8  C   UNL A   1      41.270  26.153  27.133  1.00  0.00     0.039 A 
ATOM      9  C   UNL A   1      40.324  25.864  28.119  1.00  0.00     0.014 A 
ATOM     10  C   UNL A   1      42.062  27.302  27.254  1.00  0.00     0.014 A 
ATOM     11  C   UNL A   1      40.106  26.762  29.165  1.00  0.00     0.010 A 
ATOM     12  C   UNL A   1      41.886  28.173  28.338  1.00  0.00     0.010 A 
ATOM     13  C   UNL A   1      40.899  27.914  29.300  1.00  0.00    -0.014 A 
BRANCH  13  14
ATOM     14  C   UNL A   1      40.752  28.769  30.509  1.00  0.00     0.031 A 
ATOM     15  C   UNL A   1      41.639  28.588  31.710  1.00  0.00     0.074 A 
ATOM     16  C   UNL A   1      39.809  29.733  30.506  1.00  0.00     0.049 A 
ATOM     17  N   UNL A   1      41.649  29.265  32.831  1.00  0.00    -0.248 NA
ATOM     18  C   UNL A   1      42.643  27.514  31.654  1.00  0.00     0.031 C 
ATOM     19  C   UNL A   1      38.874  29.987  29.407  1.00  0.00     0.029 A 
ATOM     20  N   UNL A   1      39.482  30.682  31.442  1.00  0.00    -0.354 N 
ATOM     21  C   UNL A   1      42.648  28.702  33.614  1.00  0.00     0.074 A 
ATOM     22  C   UNL A   1      43.214  27.611  32.848  1.00  0.00     0.031 C 
ATOM     23  C   UNL A   1      38.106  31.043  29.715  1.00  0.00     0.029 A 
ATOM     24  C   UNL A   1      38.454  31.509  31.053  1.00  0.00     0.049 A 
ATOM     25  H   UNL A   1      39.941  30.764  32.309  1.00  0.00     0.167 HD
ATOM     26  C   UNL A   1      43.061  29.071  34.850  1.00  0.00     0.037 A 
ATOM     27  C   UNL A   1      37.843  32.518  31.703  1.00  0.00     0.037 A 
ATOM     28  C   UNL A   1      42.502  30.168  35.600  1.00  0.00     0.049 A 
ATOM     29  C   UNL A   1      38.302  32.884  33.085  1.00  0.00     0.074 A 
ATOM     30  C   UNL A   1      42.887  30.642  36.843  1.00  0.00     0.029 A 
ATOM     31  N   UNL A   1      41.438  30.956  35.187  1.00  0.00    -0.354 N 
ATOM     32  N   UNL A   1      39.279  32.363  33.788  1.00  0.00    -0.248 NA
ATOM     33  C   UNL A   1      37.574  33.963  33.766  1.00  0.00     0.031 C 
ATOM     34  C   UNL A   1      42.032  31.688  37.200  1.00  0.00     0.029 A 
ATOM     35  C   UNL A   1      41.140  31.895  36.161  1.00  0.00     0.049 A 
ATOM     36  H   UNL A   1      40.966  30.863  34.329  1.00  0.00     0.167 HD
ATOM     37  C   UNL A   1      39.284  33.053  34.994  1.00  0.00     0.074 A 
ATOM     38  C   UNL A   1      38.231  34.044  34.916  1.00  0.00     0.031 C 
ATOM     39  C   UNL A   1      40.084  32.872  36.072  1.00  0.00     0.037 A 
BRANCH  26  40
ATOM     40  C   UNL A   1      44.181  28.301  35.492  1.00  0.00     0.058 A 
ATOM     41  C   UNL A   1      45.519  28.628  35.220  1.00  0.00     0.135 A 
ATOM     42  C   UNL A   1      43.929  27.161  36.272  1.00  0.00     0.135 A 
ATOM     43  F   UNL A   1      45.815  29.711  34.484  1.00  0.00    -0.206 F 
ATOM     44  C   UNL A   1      46.568  27.833  35.671  1.00  0.00     0.059 A 
ATOM     45  C   UNL A   1      44.965  26.361  36.748  1.00  0.00     0.059 A 
ATOM     46  F   UNL A   1      42.668  26.817  36.577  1.00  0.00    -0.206 F 
ATOM     47  C   UNL A   1      46.280  26.694  36.426  1.00  0.00     0.060 A 
BRANCH  47  48
ATOM     48  S   UNL A   1      47.651  25.662  36.988  1.00  0.00     0.124 S 
ATOM     49  O   UNL A   1      46.972  24.702  37.850  1.00  0.00    -0.237 OA
ATOM     50  O   UNL A   1      48.170  25.133  35.730  1.00  0.00    -0.237 OA
ATOM     51  O   UNL A   1      48.529  26.609  37.669  1.00  0.00    -0.744 OA
ENDBRANCH  47  48
ENDBRANCH  26  40
BRANCH  27  52
ATOM     52  C   UNL A   1      36.717  33.238  31.053  1.00  0.00     0.058 A 
ATOM     53  C   UNL A   1      35.387  32.979  31.416  1.00  0.00     0.135 A 
ATOM     54  C   UNL A   1      36.946  34.181  30.039  1.00  0.00     0.135 A 
ATOM     55  F   UNL A   1      35.114  32.079  32.375  1.00  0.00    -0.206 F 
ATOM     56  C   UNL A   1      34.322  33.607  30.781  1.00  0.00     0.059 A 
ATOM     57  C   UNL A   1      35.898  34.843  29.407  1.00  0.00     0.059 A 
ATOM     58  F   UNL A   1      38.203  34.470  29.666  1.00  0.00    -0.206 F 
ATOM     59  C   UNL A   1      34.589  34.535  29.774  1.00  0.00     0.060 A 
BRANCH  59  60
ATOM     60  S   UNL A   1      33.189  35.345  28.970  1.00  0.00     0.124 S 
ATOM     61  O   UNL A   1      32.429  35.819  30.128  1.00  0.00    -0.237 OA
ATOM     62  O   UNL A   1      33.833  36.364  28.169  1.00  0.00    -0.237 OA
ATOM     63  O   UNL A   1      32.561  34.253  28.218  1.00  0.00    -0.744 OA
ENDBRANCH  59  60
ENDBRANCH  27  52
BRANCH  39  64
ATOM     64  C   UNL A   1      39.856  33.762  37.261  1.00  0.00     0.058 A 
ATOM     65  C   UNL A   1      38.969  33.381  38.280  1.00  0.00     0.135 A 
ATOM     66  C   UNL A   1      40.464  35.023  37.354  1.00  0.00     0.135 A 
ATOM     67  F   UNL A   1      38.361  32.185  38.236  1.00  0.00    -0.206 F 
ATOM     68  C   UNL A   1      38.678  34.229  39.342  1.00  0.00     0.059 A 
ATOM     69  C   UNL A   1      40.205  35.879  38.419  1.00  0.00     0.059 A 
ATOM     70  F   UNL A   1      41.331  35.425  36.411  1.00  0.00    -0.206 F 
ATOM     71  C   UNL A   1      39.297  35.480  39.400  1.00  0.00     0.060 A 
BRANCH  71  72
ATOM     72  S   UNL A   1      38.913  36.566  40.789  1.00  0.00     0.124 S 
ATOM     73  O   UNL A   1      37.908  35.790  41.507  1.00  0.00    -0.237 OA
ATOM     74  O   UNL A   1      40.209  36.693  41.450  1.00  0.00    -0.237 OA
ATOM     75  O   UNL A   1      38.427  37.782  40.144  1.00  0.00    -0.744 OA
ENDBRANCH  71  72
ENDBRANCH  39  64
ENDBRANCH  13  14
ENDBRANCH   6   8
ENDBRANCH   3   4
ENDBRANCH   2   3
ENDBRANCH   1   2
BRANCH   1  76
ATOM     76  C   UNL A   1      36.951  23.272  24.702  1.00  0.00     0.002 C 
BRANCH  76  77
ATOM     77  C   UNL A   1      36.781  21.770  24.443  1.00  0.00     0.021 C 
BRANCH  77  78
ATOM     78  C   UNL A   1      35.924  20.969  25.457  1.00  0.00     0.116 C 
BRANCH  78  79
ATOM     79  N   UNL A   1      34.565  20.572  24.989  1.00  0.00    -0.356 N 
ATOM     80  C   UNL A   1      33.398  21.242  24.669  1.00  0.00     0.224 C 
ATOM     81  H   UNL A   1      34.478  19.597  24.883  1.00  0.00     0.163 HD
ATOM     82  O   UNL A   1      32.976  20.992  23.527  1.00  0.00    -0.275 OA
BRANCH  80  83
ATOM     83  C   UNL A   1      32.383  21.938  25.678  1.00  0.00     0.095 C 
ATOM     84  C   UNL A   1      33.231  22.390  26.849  1.00  0.00     0.041 C 
ATOM     85  C   UNL A   1      31.456  23.129  25.285  1.00  0.00     0.095 C 
ATOM     86  C   UNL A   1      33.900  23.644  26.386  1.00  0.00    -0.030 C 
ATOM     87  C   UNL A   1      32.254  24.127  24.534  1.00  0.00     0.041 C 
ATOM     88  C   UNL A   1      33.482  24.402  25.349  1.00  0.00    -0.030 C 
BRANCH  85  89
ATOM     89  C   UNL A   1      30.726  23.820  26.489  1.00  0.00     0.224 C 
ATOM     90  O   UNL A   1      30.409  23.085  27.441  1.00  0.00    -0.275 OA
ATOM     91  N   UNL A   1      30.412  25.141  26.679  1.00  0.00    -0.344 N 
ATOM     92  H   UNL A   1      30.002  25.223  27.570  1.00  0.00     0.164 HD
BRANCH  91  93
ATOM     93  C   UNL A   1      30.445  26.538  26.056  1.00  0.00     0.172 C 
ATOM     94  C   UNL A   1      30.400  26.582  24.530  1.00  0.00     0.037 C 
ATOM     95  C   UNL A   1      31.224  27.729  26.774  1.00  0.00     0.249 C 
ATOM     96  C   UNL A   1      30.473  28.008  24.029  1.00  0.00     0.025 C 
ATOM     97  N   UNL A   1      31.971  28.633  25.971  1.00  0.00    -0.308 N 
ATOM     98  O   UNL A   1      31.079  27.847  27.994  1.00  0.00    -0.272 OA
ATOM     99  C   UNL A   1      31.744  28.677  24.518  1.00  0.00     0.126 C 
BRANCH  97 100
ATOM    100  C   UNL A   1      33.131  29.411  26.473  1.00  0.00     0.080 A 
ATOM    101  C   UNL A   1      34.390  28.783  26.632  1.00  0.00     0.029 A 
ATOM    102  C   UNL A   1      33.074  30.730  26.972  1.00  0.00     0.146 A 
ATOM    103  C   UNL A   1      35.452  29.367  27.348  1.00  0.00     0.002 A 
ATOM    104  C   UNL A   1      34.109  31.291  27.741  1.00  0.00     0.041 A 
ATOM    105  F   UNL A   1      31.996  31.511  26.850  1.00  0.00    -0.205 F 
ATOM    106  C   UNL A   1      35.293  30.603  27.948  1.00  0.00     0.003 A 
ENDBRANCH  97 100
ENDBRANCH  91  93
ENDBRANCH  85  89
ENDBRANCH  80  83
ENDBRANCH  78  79
ENDBRANCH  77  78
ENDBRANCH  76  77
ENDBRANCH   1  76
TORSDOF 19
ENDMDL
MODEL 3
REMARK VINA RESULT:     -12.9      6.301     11.928
REMARK SMILES O=C(NCCCCCCNC(=O)[C@H]1CC=CC[C@@H]1C(=O)N[C@@H]1CCCN(c2ccccc2F)C1=O)c1ccc(-c2c3nc(c(-c4c(F)cc(S(=O)(=O)[O-])cc4F)c4ccc([nH]4)c(-c4c(F)cc(S(=O)(=O)[O-])cc4F)c4nc(c(-c5c(F)cc(S(=O)(=O)[O-])cc5F)c5ccc2[nH]5)C=C4)C=C3)cc1
REMARK SMILES IDX 6 1 5 2 4 3 3 4 1 5 2 6 36 8 37 9 101 10 38 11 100 12 39 13
REMARK SMILES IDX 40 14 41 15 94 16 42 17 99 18 93 19 95 20 43 21 98 22 92 23
REMARK SMILES IDX 91 24 44 26 78 27 57 28 77 29 58 30 61 31 76 32 96 33 59 34
REMARK SMILES IDX 60 35 75 37 97 38 62 39 45 40 46 41 55 42 47 43 48 44 54 45
REMARK SMILES IDX 56 46 49 47 50 48 51 49 52 50 53 51 79 52 80 53 89 54 81 55
REMARK SMILES IDX 82 56 88 57 90 58 83 59 84 60 85 61 86 62 87 63 63 64 64 65
REMARK SMILES IDX 73 66 65 67 66 68 72 69 74 70 67 71 68 72 69 73 70 74 71 75
REMARK SMILES IDX 7 76 8 77 9 78 10 79 11 80 12 82 13 83 14 84 18 85 15 86
REMARK SMILES IDX 17 87 16 88 19 89 20 90 21 91 22 93 23 94 34 95 24 96 26 97
REMARK SMILES IDX 35 98 25 99 27 100 28 101 32 102 29 103 31 104 33 105 30 106
REMARK H PARENT 3 7 95 25 61 36 10 81 21 92
REMARK Flexibility Score: inf
ROOT
ATOM      1  C   UNL A   1      34.100  32.259  28.013  1.00  0.00     0.002 C 
ENDROOT
BRANCH   1   2
ATOM      2  C   UNL A   1      35.581  32.663  27.986  1.00  0.00     0.021 C 
BRANCH   2   3
ATOM      3  C   UNL A   1      36.265  32.814  29.346  1.00  0.00     0.116 C 
BRANCH   3   4
ATOM      4  N   UNL A   1      35.925  31.740  30.267  1.00  0.00    -0.352 N 
ATOM      5  O   UNL A   1      35.970  29.697  31.195  1.00  0.00    -0.269 OA
ATOM      6  C   UNL A   1      36.562  30.553  30.541  1.00  0.00     0.251 C 
ATOM      7  H   UNL A   1      35.098  31.888  30.780  1.00  0.00     0.163 HD
BRANCH   6   8
ATOM      8  C   UNL A   1      37.941  30.284  30.069  1.00  0.00     0.039 A 
ATOM      9  C   UNL A   1      39.004  30.167  30.967  1.00  0.00     0.014 A 
ATOM     10  C   UNL A   1      38.159  30.036  28.708  1.00  0.00     0.014 A 
ATOM     11  C   UNL A   1      40.292  29.897  30.497  1.00  0.00     0.010 A 
ATOM     12  C   UNL A   1      39.439  29.704  28.243  1.00  0.00     0.010 A 
ATOM     13  C   UNL A   1      40.520  29.641  29.135  1.00  0.00    -0.014 A 
BRANCH  13  14
ATOM     14  C   UNL A   1      41.869  29.199  28.687  1.00  0.00     0.031 A 
ATOM     15  C   UNL A   1      42.130  27.781  28.261  1.00  0.00     0.074 A 
ATOM     16  C   UNL A   1      42.865  30.108  28.653  1.00  0.00     0.049 A 
ATOM     17  N   UNL A   1      43.244  27.248  27.827  1.00  0.00    -0.248 NA
ATOM     18  C   UNL A   1      41.003  26.837  28.328  1.00  0.00     0.031 C 
ATOM     19  C   UNL A   1      42.737  31.509  29.065  1.00  0.00     0.029 A 
ATOM     20  N   UNL A   1      44.172  30.003  28.248  1.00  0.00    -0.354 N 
ATOM     21  C   UNL A   1      42.960  25.911  27.575  1.00  0.00     0.074 A 
ATOM     22  C   UNL A   1      41.569  25.706  27.923  1.00  0.00     0.031 C 
ATOM     23  C   UNL A   1      43.903  32.138  28.859  1.00  0.00     0.029 A 
ATOM     24  C   UNL A   1      44.878  31.179  28.352  1.00  0.00     0.049 A 
ATOM     25  H   UNL A   1      44.567  29.165  27.915  1.00  0.00     0.167 HD
ATOM     26  C   UNL A   1      43.781  24.952  27.087  1.00  0.00     0.037 A 
ATOM     27  C   UNL A   1      46.169  31.456  28.088  1.00  0.00     0.037 A 
ATOM     28  C   UNL A   1      45.161  25.167  26.729  1.00  0.00     0.049 A 
ATOM     29  C   UNL A   1      47.064  30.363  27.577  1.00  0.00     0.074 A 
ATOM     30  C   UNL A   1      46.058  24.262  26.185  1.00  0.00     0.029 A 
ATOM     31  N   UNL A   1      45.848  26.362  26.884  1.00  0.00    -0.354 N 
ATOM     32  N   UNL A   1      46.761  29.116  27.307  1.00  0.00    -0.248 NA
ATOM     33  C   UNL A   1      48.473  30.707  27.346  1.00  0.00     0.031 C 
ATOM     34  C   UNL A   1      47.295  24.896  26.050  1.00  0.00     0.029 A 
ATOM     35  C   UNL A   1      47.161  26.209  26.469  1.00  0.00     0.049 A 
ATOM     36  H   UNL A   1      45.460  27.195  27.235  1.00  0.00     0.167 HD
ATOM     37  C   UNL A   1      47.941  28.527  26.872  1.00  0.00     0.074 A 
ATOM     38  C   UNL A   1      48.958  29.560  26.890  1.00  0.00     0.031 C 
ATOM     39  C   UNL A   1      48.164  27.244  26.500  1.00  0.00     0.037 A 
BRANCH  26  40
ATOM     40  C   UNL A   1      43.231  23.567  26.892  1.00  0.00     0.058 A 
ATOM     41  C   UNL A   1      43.106  22.688  27.981  1.00  0.00     0.135 A 
ATOM     42  C   UNL A   1      42.951  23.066  25.611  1.00  0.00     0.135 A 
ATOM     43  F   UNL A   1      43.356  23.118  29.228  1.00  0.00    -0.206 F 
ATOM     44  C   UNL A   1      42.754  21.354  27.803  1.00  0.00     0.059 A 
ATOM     45  C   UNL A   1      42.581  21.739  25.412  1.00  0.00     0.059 A 
ATOM     46  F   UNL A   1      43.037  23.870  24.539  1.00  0.00    -0.206 F 
ATOM     47  C   UNL A   1      42.504  20.886  26.512  1.00  0.00     0.060 A 
BRANCH  47  48
ATOM     48  S   UNL A   1      42.067  19.147  26.295  1.00  0.00     0.124 S 
ATOM     49  O   UNL A   1      42.296  18.609  27.632  1.00  0.00    -0.237 OA
ATOM     50  O   UNL A   1      40.671  19.234  25.874  1.00  0.00    -0.237 OA
ATOM     51  O   UNL A   1      42.996  18.691  25.265  1.00  0.00    -0.744 OA
ENDBRANCH  47  48
ENDBRANCH  26  40
BRANCH  27  52
ATOM     52  C   UNL A   1      46.692  32.827  28.322  1.00  0.00     0.058 A 
ATOM     53  C   UNL A   1      46.681  33.790  27.301  1.00  0.00     0.135 A 
ATOM     54  C   UNL A   1      47.236  33.196  29.562  1.00  0.00     0.135 A 
ATOM     55  F   UNL A   1      46.179  33.485  26.093  1.00  0.00    -0.206 F 
ATOM     56  C   UNL A   1      47.213  35.060  27.490  1.00  0.00     0.059 A 
ATOM     57  C   UNL A   1      47.750  34.470  29.783  1.00  0.00     0.059 A 
ATOM     58  F   UNL A   1      47.257  32.312  30.572  1.00  0.00    -0.206 F 
ATOM     59  C   UNL A   1      47.750  35.388  28.735  1.00  0.00     0.060 A 
BRANCH  59  60
ATOM     60  S   UNL A   1      48.427  37.047  28.959  1.00  0.00     0.124 S 
ATOM     61  O   UNL A   1      48.988  37.309  27.632  1.00  0.00    -0.237 OA
ATOM     62  O   UNL A   1      47.257  37.818  29.321  1.00  0.00    -0.237 OA
ATOM     63  O   UNL A   1      49.416  36.860  30.026  1.00  0.00    -0.744 OA
ENDBRANCH  59  60
ENDBRANCH  27  52
BRANCH  39  64
ATOM     64  C   UNL A   1      49.559  26.875  26.083  1.00  0.00     0.058 A 
ATOM     65  C   UNL A   1      49.985  27.067  24.759  1.00  0.00     0.135 A 
ATOM     66  C   UNL A   1      50.450  26.265  26.980  1.00  0.00     0.135 A 
ATOM     67  F   UNL A   1      49.169  27.645  23.863  1.00  0.00    -0.206 F 
ATOM     68  C   UNL A   1      51.241  26.650  24.335  1.00  0.00     0.059 A 
ATOM     69  C   UNL A   1      51.719  25.860  26.583  1.00  0.00     0.059 A 
ATOM     70  F   UNL A   1      50.092  26.074  28.260  1.00  0.00    -0.206 F 
ATOM     71  C   UNL A   1      52.100  26.042  25.252  1.00  0.00     0.060 A 
BRANCH  71  72
ATOM     72  S   UNL A   1      53.729  25.512  24.686  1.00  0.00     0.124 S 
ATOM     73  O   UNL A   1      54.605  26.140  25.669  1.00  0.00    -0.237 OA
ATOM     74  O   UNL A   1      53.626  24.057  24.764  1.00  0.00    -0.237 OA
ATOM     75  O   UNL A   1      53.811  26.055  23.334  1.00  0.00    -0.744 OA
ENDBRANCH  71  72
ENDBRANCH  39  64
ENDBRANCH  13  14
ENDBRANCH   6   8
ENDBRANCH   3   4
ENDBRANCH   2   3
ENDBRANCH   1   2
BRANCH   1  76
ATOM     76  C   UNL A   1      33.724  30.919  27.367  1.00  0.00     0.002 C 
BRANCH  76  77
ATOM     77  C   UNL A   1      34.792  29.819  27.400  1.00  0.00     0.021 C 
BRANCH  77  78
ATOM     78  C   UNL A   1      34.390  28.426  26.851  1.00  0.00     0.116 C 
BRANCH  78  79
ATOM     79  N   UNL A   1      32.933  28.214  26.618  1.00  0.00    -0.356 N 
ATOM     80  C   UNL A   1      32.116  27.117  26.415  1.00  0.00     0.224 C 
ATOM     81  H   UNL A   1      32.431  29.061  26.605  1.00  0.00     0.163 HD
ATOM     82  O   UNL A   1      31.170  27.043  27.219  1.00  0.00    -0.275 OA
BRANCH  80  83
ATOM     83  C   UNL A   1      32.024  26.218  25.106  1.00  0.00     0.095 C 
ATOM     84  C   UNL A   1      30.548  25.926  24.924  1.00  0.00     0.041 C 
ATOM     85  C   UNL A   1      32.589  26.651  23.719  1.00  0.00     0.095 C 
ATOM     86  C   UNL A   1      29.977  27.168  24.320  1.00  0.00    -0.030 C 
ATOM     87  C   UNL A   1      32.177  28.051  23.453  1.00  0.00     0.041 C 
ATOM     88  C   UNL A   1      30.697  28.119  23.688  1.00  0.00    -0.030 C 
BRANCH  85  89
ATOM     89  C   UNL A   1      32.170  25.731  22.519  1.00  0.00     0.224 C 
ATOM     90  O   UNL A   1      31.663  26.300  21.536  1.00  0.00    -0.275 OA
ATOM     91  N   UNL A   1      32.314  24.377  22.364  1.00  0.00    -0.344 N 
ATOM     92  H   UNL A   1      31.986  24.145  21.466  1.00  0.00     0.164 HD
BRANCH  91  93
ATOM     93  C   UNL A   1      32.782  23.083  23.033  1.00  0.00     0.172 C 
ATOM     94  C   UNL A   1      31.778  22.429  23.981  1.00  0.00     0.037 C 
ATOM     95  C   UNL A   1      34.323  22.854  23.368  1.00  0.00     0.249 C 
ATOM     96  C   UNL A   1      32.363  21.181  24.606  1.00  0.00     0.025 C 
ATOM     97  N   UNL A   1      34.665  22.232  24.600  1.00  0.00    -0.308 N 
ATOM     98  O   UNL A   1      35.145  23.167  22.502  1.00  0.00    -0.272 OA
ATOM     99  C   UNL A   1      33.634  21.514  25.365  1.00  0.00     0.126 C 
BRANCH  97 100
ATOM    100  C   UNL A   1      35.966  22.429  25.286  1.00  0.00     0.080 A 
ATOM    101  C   UNL A   1      36.327  23.711  25.766  1.00  0.00     0.029 A 
ATOM    102  C   UNL A   1      36.992  21.464  25.382  1.00  0.00     0.146 A 
ATOM    103  C   UNL A   1      37.634  24.036  26.175  1.00  0.00     0.002 A 
ATOM    104  C   UNL A   1      38.312  21.799  25.730  1.00  0.00     0.041 A 
ATOM    105  F   UNL A   1      36.821  20.181  25.048  1.00  0.00    -0.205 F 
ATOM    106  C   UNL A   1      38.643  23.090  26.108  1.00  0.00     0.003 A 
ENDBRANCH  97 100
ENDBRANCH  91  93
ENDBRANCH  85  89
ENDBRANCH  80  83
ENDBRANCH  78  79
ENDBRANCH  77  78
ENDBRANCH  76  77
ENDBRANCH   1  76
TORSDOF 19
ENDMDL
