MODEL 1
REMARK VINA RESULT:     -12.3      0.000      0.000
REMARK SMILES COc1ccc2c(c1)[C@@](NC=O)(C(=O)NCCCCCCNC(=O)c1ccc(-c3c4nc(c(-c5c(F)cc(S(=O)(=O)[O-])cc5F)c5ccc([nH]5)c(-c5c(F)cc(S(=O)(=O)[O-])cc5F)c5nc(c(-c6c(F)cc(S(=O)(=O)[O-])cc6F)c6ccc3[nH]6)C=C5)C=C4)cc1)CCC2
REMARK SMILES IDX 19 1 18 2 17 3 16 4 15 5 13 6 14 7 9 9 3 10 4 11 8 12 5 13
REMARK SMILES IDX 7 14 6 15 93 16 91 17 92 18 2 19 1 20 10 21 11 22 12 24
REMARK SMILES IDX 20 25 21 26 22 27 23 28 24 30 25 31 26 32 90 33 27 34 89 35
REMARK SMILES IDX 28 36 29 37 30 38 83 39 31 40 88 41 82 42 84 43 32 44 87 45
REMARK SMILES IDX 81 46 80 47 33 49 67 50 46 51 66 52 47 53 50 54 65 55 85 56
REMARK SMILES IDX 48 57 49 58 64 60 86 61 51 62 34 63 35 64 44 65 36 66 37 67
REMARK SMILES IDX 43 68 45 69 38 70 39 71 40 72 41 73 42 74 68 75 69 76 78 77
REMARK SMILES IDX 70 78 71 79 77 80 79 81 72 82 73 83 74 84 75 85 76 86 52 87
REMARK SMILES IDX 53 88 62 89 54 90 55 91 61 92 63 93 56 94 57 95 58 96 59 97
REMARK SMILES IDX 60 98
REMARK H PARENT 15 8 10 23 22 29 84 48 50 59
REMARK Flexibility Score: inf
ROOT
ATOM      1  C   UNL A   1      35.141  29.757  27.430  1.00  0.00     0.002 C 
ENDROOT
BRANCH   1   2
ATOM      2  C   UNL A   1      33.966  29.011  26.797  1.00  0.00     0.002 C 
BRANCH   2   3
ATOM      3  C   UNL A   1      32.646  29.786  26.808  1.00  0.00     0.021 C 
BRANCH   3   4
ATOM      4  C   UNL A   1      31.843  29.669  25.507  1.00  0.00     0.116 C 
BRANCH   4   5
ATOM      5  N   UNL A   1      32.749  29.630  24.369  1.00  0.00    -0.354 N 
ATOM      6  C   UNL A   1      32.872  28.764  23.318  1.00  0.00     0.250 C 
ATOM      7  O   UNL A   1      33.966  28.794  22.739  1.00  0.00    -0.272 OA
ATOM      8  H   UNL A   1      33.397  30.370  24.351  1.00  0.00     0.163 HD
BRANCH   6   9
ATOM      9  C   UNL A   1      31.739  27.743  22.908  1.00  0.00     0.144 C 
ATOM     10  C   UNL A   1      28.894  30.115  21.844  1.00  0.00     0.119 A 
ATOM     11  C   UNL A   1      27.771  29.480  22.344  1.00  0.00     0.047 A 
ATOM     12  C   UNL A   1      30.161  29.605  22.121  1.00  0.00     0.053 A 
ATOM     13  C   UNL A   1      27.922  28.307  23.081  1.00  0.00     0.008 A 
ATOM     14  C   UNL A   1      30.348  28.394  22.809  1.00  0.00    -0.006 A 
ATOM     15  C   UNL A   1      29.194  27.744  23.303  1.00  0.00    -0.042 A 
ATOM     16  C   UNL A   1      29.272  26.490  24.137  1.00  0.00     0.036 C 
ATOM     17  C   UNL A   1      31.764  26.648  24.013  1.00  0.00     0.044 C 
ATOM     18  C   UNL A   1      30.567  25.711  23.962  1.00  0.00     0.008 C 
BRANCH  10  19
ATOM     19  O   UNL A   1      28.716  31.271  21.133  1.00  0.00    -0.497 OA
ATOM     20  C   UNL A   1      28.411  32.384  21.978  1.00  0.00     0.278 C 
ENDBRANCH  10  19
BRANCH   9  21
ATOM     21  N   UNL A   1      32.137  27.127  21.627  1.00  0.00    -0.341 N 
ATOM     22  C   UNL A   1      32.623  25.877  21.414  1.00  0.00     0.338 C 
ATOM     23  H   UNL A   1      32.038  27.692  20.827  1.00  0.00     0.164 HD
ATOM     24  O   UNL A   1      33.043  25.524  20.318  1.00  0.00    -0.279 OA
ENDBRANCH   9  21
ENDBRANCH   6   9
ENDBRANCH   4   5
ENDBRANCH   3   4
ENDBRANCH   2   3
ENDBRANCH   1   2
BRANCH   1  25
ATOM     25  C   UNL A   1      34.751  31.025  28.195  1.00  0.00     0.021 C 
BRANCH  25  26
ATOM     26  C   UNL A   1      35.871  31.610  29.049  1.00  0.00     0.116 C 
BRANCH  26  27
ATOM     27  N   UNL A   1      35.764  31.187  30.435  1.00  0.00    -0.352 N 
ATOM     28  C   UNL A   1      36.626  30.414  31.171  1.00  0.00     0.251 C 
ATOM     29  H   UNL A   1      34.960  31.499  30.912  1.00  0.00     0.163 HD
ATOM     30  O   UNL A   1      36.267  29.946  32.247  1.00  0.00    -0.269 OA
BRANCH  28  31
ATOM     31  C   UNL A   1      37.980  30.139  30.648  1.00  0.00     0.039 A 
ATOM     32  C   UNL A   1      39.004  29.831  31.544  1.00  0.00     0.014 A 
ATOM     33  C   UNL A   1      38.234  30.188  29.273  1.00  0.00     0.014 A 
ATOM     34  C   UNL A   1      40.274  29.520  31.057  1.00  0.00     0.010 A 
ATOM     35  C   UNL A   1      39.478  29.802  28.786  1.00  0.00     0.010 A 
ATOM     36  C   UNL A   1      40.514  29.472  29.673  1.00  0.00    -0.014 A 
BRANCH  36  37
ATOM     37  C   UNL A   1      41.842  29.082  29.137  1.00  0.00     0.031 A 
ATOM     38  C   UNL A   1      42.939  30.105  29.015  1.00  0.00     0.074 A 
ATOM     39  C   UNL A   1      42.041  27.819  28.709  1.00  0.00     0.049 A 
ATOM     40  N   UNL A   1      44.142  29.969  28.520  1.00  0.00    -0.248 NA
ATOM     41  C   UNL A   1      42.636  31.465  29.487  1.00  0.00     0.031 C 
ATOM     42  C   UNL A   1      41.039  26.750  28.732  1.00  0.00     0.029 A 
ATOM     43  N   UNL A   1      43.148  27.221  28.161  1.00  0.00    -0.354 N 
ATOM     44  C   UNL A   1      44.734  31.223  28.612  1.00  0.00     0.074 A 
ATOM     45  C   UNL A   1      43.738  32.121  29.155  1.00  0.00     0.031 C 
ATOM     46  C   UNL A   1      41.585  25.624  28.247  1.00  0.00     0.029 A 
ATOM     47  C   UNL A   1      42.959  25.897  27.837  1.00  0.00     0.049 A 
ATOM     48  H   UNL A   1      43.998  27.695  28.013  1.00  0.00     0.167 HD
ATOM     49  C   UNL A   1      45.999  31.589  28.295  1.00  0.00     0.037 A 
ATOM     50  C   UNL A   1      43.794  25.008  27.266  1.00  0.00     0.037 A 
ATOM     51  C   UNL A   1      46.990  30.683  27.772  1.00  0.00     0.049 A 
ATOM     52  C   UNL A   1      45.191  25.442  26.909  1.00  0.00     0.074 A 
ATOM     53  C   UNL A   1      48.316  30.940  27.471  1.00  0.00     0.029 A 
ATOM     54  N   UNL A   1      46.763  29.348  27.469  1.00  0.00    -0.354 N 
ATOM     55  N   UNL A   1      45.754  26.616  27.063  1.00  0.00    -0.248 NA
ATOM     56  C   UNL A   1      46.067  24.428  26.308  1.00  0.00     0.031 C 
ATOM     57  C   UNL A   1      48.876  29.777  26.933  1.00  0.00     0.029 A 
ATOM     58  C   UNL A   1      47.918  28.776  26.959  1.00  0.00     0.049 A 
ATOM     59  H   UNL A   1      45.909  28.877  27.598  1.00  0.00     0.167 HD
ATOM     60  C   UNL A   1      47.061  26.475  26.606  1.00  0.00     0.074 A 
ATOM     61  C   UNL A   1      47.205  25.097  26.182  1.00  0.00     0.031 C 
ATOM     62  C   UNL A   1      48.050  27.401  26.546  1.00  0.00     0.037 A 
BRANCH  49  63
ATOM     63  C   UNL A   1      46.387  33.029  28.504  1.00  0.00     0.058 A 
ATOM     64  C   UNL A   1      46.921  33.481  29.721  1.00  0.00     0.135 A 
ATOM     65  C   UNL A   1      46.264  33.959  27.459  1.00  0.00     0.135 A 
ATOM     66  F   UNL A   1      47.047  32.639  30.759  1.00  0.00    -0.206 F 
ATOM     67  C   UNL A   1      47.291  34.810  29.906  1.00  0.00     0.059 A 
ATOM     68  C   UNL A   1      46.658  35.286  27.611  1.00  0.00     0.059 A 
ATOM     69  F   UNL A   1      45.760  33.584  26.273  1.00  0.00    -0.206 F 
ATOM     70  C   UNL A   1      47.157  35.705  28.843  1.00  0.00     0.060 A 
BRANCH  70  71
ATOM     71  S   UNL A   1      47.652  37.421  29.098  1.00  0.00     0.124 S 
ATOM     72  O   UNL A   1      46.678  38.131  28.275  1.00  0.00    -0.237 OA
ATOM     73  O   UNL A   1      47.497  37.579  30.540  1.00  0.00    -0.237 OA
ATOM     74  O   UNL A   1      49.027  37.456  28.610  1.00  0.00    -0.744 OA
ENDBRANCH  70  71
ENDBRANCH  49  63
BRANCH  50  75
ATOM     75  C   UNL A   1      43.336  23.615  27.012  1.00  0.00     0.058 A 
ATOM     76  C   UNL A   1      43.021  23.183  25.715  1.00  0.00     0.135 A 
ATOM     77  C   UNL A   1      43.214  22.686  28.057  1.00  0.00     0.135 A 
ATOM     78  F   UNL A   1      43.116  24.034  24.683  1.00  0.00    -0.206 F 
ATOM     79  C   UNL A   1      42.584  21.886  25.465  1.00  0.00     0.059 A 
ATOM     80  C   UNL A   1      42.806  21.375  27.828  1.00  0.00     0.059 A 
ATOM     81  F   UNL A   1      43.519  23.043  29.315  1.00  0.00    -0.206 F 
ATOM     82  C   UNL A   1      42.482  20.988  26.529  1.00  0.00     0.060 A 
BRANCH  82  83
ATOM     83  S   UNL A   1      41.955  19.295  26.185  1.00  0.00     0.124 S 
ATOM     84  O   UNL A   1      42.296  18.622  27.433  1.00  0.00    -0.237 OA
ATOM     85  O   UNL A   1      40.530  19.468  25.920  1.00  0.00    -0.237 OA
ATOM     86  O   UNL A   1      42.760  18.923  25.026  1.00  0.00    -0.744 OA
ENDBRANCH  82  83
ENDBRANCH  50  75
BRANCH  62  87
ATOM     87  C   UNL A   1      49.393  26.950  26.038  1.00  0.00     0.058 A 
ATOM     88  C   UNL A   1      49.766  27.102  24.693  1.00  0.00     0.135 A 
ATOM     89  C   UNL A   1      50.339  26.407  26.923  1.00  0.00     0.135 A 
ATOM     90  F   UNL A   1      48.898  27.609  23.804  1.00  0.00    -0.206 F 
ATOM     91  C   UNL A   1      51.021  26.709  24.240  1.00  0.00     0.059 A 
ATOM     92  C   UNL A   1      51.611  26.037  26.497  1.00  0.00     0.059 A 
ATOM     93  F   UNL A   1      50.038  26.249  28.222  1.00  0.00    -0.206 F 
ATOM     94  C   UNL A   1      51.938  26.181  25.150  1.00  0.00     0.060 A 
BRANCH  94  95
ATOM     95  S   UNL A   1      53.576  25.710  24.553  1.00  0.00     0.124 S 
ATOM     96  O   UNL A   1      54.443  26.505  25.416  1.00  0.00    -0.237 OA
ATOM     97  O   UNL A   1      53.592  24.269  24.791  1.00  0.00    -0.237 OA
ATOM     98  O   UNL A   1      53.553  26.106  23.148  1.00  0.00    -0.744 OA
ENDBRANCH  94  95
ENDBRANCH  62  87
ENDBRANCH  36  37
ENDBRANCH  28  31
ENDBRANCH  26  27
ENDBRANCH  25  26
ENDBRANCH   1  25
TORSDOF 18
ENDMDL
MODEL 2
REMARK VINA RESULT:     -12.3      3.668      5.233
REMARK SMILES COc1ccc2c(c1)[C@@](NC=O)(C(=O)NCCCCCCNC(=O)c1ccc(-c3c4nc(c(-c5c(F)cc(S(=O)(=O)[O-])cc5F)c5ccc([nH]5)c(-c5c(F)cc(S(=O)(=O)[O-])cc5F)c5nc(c(-c6c(F)cc(S(=O)(=O)[O-])cc6F)c6ccc3[nH]6)C=C5)C=C4)cc1)CCC2
REMARK SMILES IDX 19 1 18 2 17 3 16 4 15 5 13 6 14 7 9 9 3 10 4 11 8 12 5 13
REMARK SMILES IDX 7 14 6 15 93 16 91 17 92 18 2 19 1 20 10 21 11 22 12 24
REMARK SMILES IDX 20 25 21 26 22 27 23 28 24 30 25 31 26 32 90 33 27 34 89 35
REMARK SMILES IDX 28 36 29 37 30 38 83 39 31 40 88 41 82 42 84 43 32 44 87 45
REMARK SMILES IDX 81 46 80 47 33 49 67 50 46 51 66 52 47 53 50 54 65 55 85 56
REMARK SMILES IDX 48 57 49 58 64 60 86 61 51 62 34 63 35 64 44 65 36 66 37 67
REMARK SMILES IDX 43 68 45 69 38 70 39 71 40 72 41 73 42 74 68 75 69 76 78 77
REMARK SMILES IDX 70 78 71 79 77 80 79 81 72 82 73 83 74 84 75 85 76 86 52 87
REMARK SMILES IDX 53 88 62 89 54 90 55 91 61 92 63 93 56 94 57 95 58 96 59 97
REMARK SMILES IDX 60 98
REMARK H PARENT 15 8 10 23 22 29 84 48 50 59
REMARK Flexibility Score: inf
ROOT
ATOM      1  C   UNL A   1      33.716  26.465  25.309  1.00  0.00     0.002 C 
ENDROOT
BRANCH   1   2
ATOM      2  C   UNL A   1      32.424  26.074  24.590  1.00  0.00     0.002 C 
BRANCH   2   3
ATOM      3  C   UNL A   1      31.178  26.087  25.480  1.00  0.00     0.021 C 
BRANCH   3   4
ATOM      4  C   UNL A   1      30.657  24.692  25.844  1.00  0.00     0.116 C 
BRANCH   4   5
ATOM      5  N   UNL A   1      31.458  24.131  26.922  1.00  0.00    -0.354 N 
ATOM      6  C   UNL A   1      32.246  23.017  27.002  1.00  0.00     0.250 C 
ATOM      7  O   UNL A   1      32.480  22.622  28.152  1.00  0.00    -0.272 OA
ATOM      8  H   UNL A   1      31.426  24.656  27.754  1.00  0.00     0.163 HD
BRANCH   6   9
ATOM      9  C   UNL A   1      32.765  22.239  25.730  1.00  0.00     0.144 C 
ATOM     10  C   UNL A   1      36.462  23.323  25.602  1.00  0.00     0.119 A 
ATOM     11  C   UNL A   1      36.681  23.483  24.245  1.00  0.00     0.047 A 
ATOM     12  C   UNL A   1      35.182  23.028  26.068  1.00  0.00     0.053 A 
ATOM     13  C   UNL A   1      35.623  23.298  23.356  1.00  0.00     0.008 A 
ATOM     14  C   UNL A   1      34.106  22.777  25.199  1.00  0.00    -0.006 A 
ATOM     15  C   UNL A   1      34.343  22.927  23.815  1.00  0.00    -0.042 A 
ATOM     16  C   UNL A   1      33.246  22.778  22.789  1.00  0.00     0.036 C 
ATOM     17  C   UNL A   1      31.640  22.404  24.668  1.00  0.00     0.044 C 
ATOM     18  C   UNL A   1      32.056  21.964  23.273  1.00  0.00     0.008 C 
BRANCH  10  19
ATOM     19  O   UNL A   1      37.516  23.522  26.451  1.00  0.00    -0.497 OA
ATOM     20  C   UNL A   1      38.636  22.693  26.127  1.00  0.00     0.278 C 
ENDBRANCH  10  19
BRANCH   9  21
ATOM     21  N   UNL A   1      32.864  20.810  26.091  1.00  0.00    -0.341 N 
ATOM     22  C   UNL A   1      32.587  19.730  25.317  1.00  0.00     0.338 C 
ATOM     23  H   UNL A   1      33.168  20.617  27.007  1.00  0.00     0.164 HD
ATOM     24  O   UNL A   1      32.582  18.592  25.773  1.00  0.00    -0.279 OA
ENDBRANCH   9  21
ENDBRANCH   6   9
ENDBRANCH   4   5
ENDBRANCH   3   4
ENDBRANCH   2   3
ENDBRANCH   1   2
BRANCH   1  25
ATOM     25  C   UNL A   1      33.819  27.949  25.669  1.00  0.00     0.021 C 
BRANCH  25  26
ATOM     26  C   UNL A   1      33.657  28.246  27.156  1.00  0.00     0.116 C 
BRANCH  26  27
ATOM     27  N   UNL A   1      33.541  29.673  27.408  1.00  0.00    -0.352 N 
ATOM     28  C   UNL A   1      34.432  30.515  28.024  1.00  0.00     0.251 C 
ATOM     29  H   UNL A   1      32.708  30.092  27.092  1.00  0.00     0.163 HD
ATOM     30  O   UNL A   1      34.076  31.636  28.375  1.00  0.00    -0.269 OA
BRANCH  28  31
ATOM     31  C   UNL A   1      35.813  30.055  28.271  1.00  0.00     0.039 A 
ATOM     32  C   UNL A   1      36.737  30.089  27.226  1.00  0.00     0.014 A 
ATOM     33  C   UNL A   1      36.192  29.590  29.534  1.00  0.00     0.014 A 
ATOM     34  C   UNL A   1      38.058  29.705  27.462  1.00  0.00     0.010 A 
ATOM     35  C   UNL A   1      37.524  29.282  29.787  1.00  0.00     0.010 A 
ATOM     36  C   UNL A   1      38.470  29.328  28.752  1.00  0.00    -0.014 A 
BRANCH  36  37
ATOM     37  C   UNL A   1      39.885  28.977  29.035  1.00  0.00     0.031 A 
ATOM     38  C   UNL A   1      40.814  30.003  29.625  1.00  0.00     0.074 A 
ATOM     39  C   UNL A   1      40.345  27.753  28.708  1.00  0.00     0.049 A 
ATOM     40  N   UNL A   1      42.091  29.904  29.889  1.00  0.00    -0.248 NA
ATOM     41  C   UNL A   1      40.239  31.322  29.935  1.00  0.00     0.031 C 
ATOM     42  C   UNL A   1      39.550  26.689  28.087  1.00  0.00     0.029 A 
ATOM     43  N   UNL A   1      41.592  27.197  28.842  1.00  0.00    -0.354 N 
ATOM     44  C   UNL A   1      42.474  31.144  30.386  1.00  0.00     0.074 A 
ATOM     45  C   UNL A   1      41.308  31.999  30.331  1.00  0.00     0.031 C 
ATOM     46  C   UNL A   1      40.323  25.604  27.919  1.00  0.00     0.029 A 
ATOM     47  C   UNL A   1      41.675  25.905  28.378  1.00  0.00     0.049 A 
ATOM     48  H   UNL A   1      42.356  27.679  29.234  1.00  0.00     0.167 HD
ATOM     49  C   UNL A   1      43.680  31.530  30.865  1.00  0.00     0.037 A 
ATOM     50  C   UNL A   1      42.724  25.062  28.319  1.00  0.00     0.037 A 
ATOM     51  C   UNL A   1      44.832  30.666  30.933  1.00  0.00     0.049 A 
ATOM     52  C   UNL A   1      44.059  25.518  28.845  1.00  0.00     0.074 A 
ATOM     53  C   UNL A   1      46.084  30.942  31.452  1.00  0.00     0.029 A 
ATOM     54  N   UNL A   1      44.873  29.361  30.464  1.00  0.00    -0.354 N 
ATOM     55  N   UNL A   1      44.386  26.674  29.372  1.00  0.00    -0.248 NA
ATOM     56  C   UNL A   1      45.165  24.554  28.777  1.00  0.00     0.031 C 
ATOM     57  C   UNL A   1      46.899  29.825  31.247  1.00  0.00     0.029 A 
ATOM     58  C   UNL A   1      46.137  28.828  30.658  1.00  0.00     0.049 A 
ATOM     59  H   UNL A   1      44.115  28.884  30.054  1.00  0.00     0.167 HD
ATOM     60  C   UNL A   1      45.727  26.566  29.725  1.00  0.00     0.074 A 
ATOM     61  C   UNL A   1      46.145  25.227  29.363  1.00  0.00     0.031 C 
ATOM     62  C   UNL A   1      46.538  27.490  30.298  1.00  0.00     0.037 A 
BRANCH  49  63
ATOM     63  C   UNL A   1      43.821  32.947  31.355  1.00  0.00     0.058 A 
ATOM     64  C   UNL A   1      43.561  33.296  32.690  1.00  0.00     0.135 A 
ATOM     65  C   UNL A   1      44.262  33.960  30.489  1.00  0.00     0.135 A 
ATOM     66  F   UNL A   1      43.123  32.371  33.558  1.00  0.00    -0.206 F 
ATOM     67  C   UNL A   1      43.706  34.604  33.142  1.00  0.00     0.059 A 
ATOM     68  C   UNL A   1      44.444  35.270  30.927  1.00  0.00     0.059 A 
ATOM     69  F   UNL A   1      44.525  33.685  29.202  1.00  0.00    -0.206 F 
ATOM     70  C   UNL A   1      44.150  35.584  32.253  1.00  0.00     0.060 A 
BRANCH  70  71
ATOM     71  S   UNL A   1      44.340  37.273  32.860  1.00  0.00     0.124 S 
ATOM     72  O   UNL A   1      45.717  37.255  33.343  1.00  0.00    -0.237 OA
ATOM     73  O   UNL A   1      44.101  38.064  31.658  1.00  0.00    -0.237 OA
ATOM     74  O   UNL A   1      43.315  37.381  33.894  1.00  0.00    -0.744 OA
ENDBRANCH  70  71
ENDBRANCH  49  63
BRANCH  50  75
ATOM     75  C   UNL A   1      42.549  23.695  27.756  1.00  0.00     0.058 A 
ATOM     76  C   UNL A   1      42.598  23.473  26.372  1.00  0.00     0.135 A 
ATOM     77  C   UNL A   1      42.340  22.585  28.589  1.00  0.00     0.135 A 
ATOM     78  F   UNL A   1      42.790  24.502  25.534  1.00  0.00    -0.206 F 
ATOM     79  C   UNL A   1      42.428  22.202  25.831  1.00  0.00     0.059 A 
ATOM     80  C   UNL A   1      42.196  21.300  28.074  1.00  0.00     0.059 A 
ATOM     81  F   UNL A   1      42.302  22.741  29.922  1.00  0.00    -0.206 F 
ATOM     82  C   UNL A   1      42.230  21.121  26.692  1.00  0.00     0.060 A 
BRANCH  82  83
ATOM     83  S   UNL A   1      42.054  19.470  25.981  1.00  0.00     0.124 S 
ATOM     84  O   UNL A   1      42.886  19.574  24.788  1.00  0.00    -0.237 OA
ATOM     85  O   UNL A   1      42.571  18.621  27.049  1.00  0.00    -0.237 OA
ATOM     86  O   UNL A   1      40.618  19.360  25.742  1.00  0.00    -0.744 OA
ENDBRANCH  82  83
ENDBRANCH  50  75
BRANCH  62  87
ATOM     87  C   UNL A   1      47.952  27.077  30.609  1.00  0.00     0.058 A 
ATOM     88  C   UNL A   1      48.983  27.196  29.663  1.00  0.00     0.135 A 
ATOM     89  C   UNL A   1      48.287  26.607  31.889  1.00  0.00     0.135 A 
ATOM     90  F   UNL A   1      48.716  27.633  28.423  1.00  0.00    -0.206 F 
ATOM     91  C   UNL A   1      50.292  26.839  29.970  1.00  0.00     0.059 A 
ATOM     92  C   UNL A   1      49.595  26.276  32.227  1.00  0.00     0.059 A 
ATOM     93  F   UNL A   1      47.341  26.485  32.834  1.00  0.00    -0.206 F 
ATOM     94  C   UNL A   1      50.589  26.383  31.256  1.00  0.00     0.060 A 
BRANCH  94  95
ATOM     95  S   UNL A   1      52.300  25.959  31.649  1.00  0.00     0.124 S 
ATOM     96  O   UNL A   1      52.175  24.554  32.022  1.00  0.00    -0.237 OA
ATOM     97  O   UNL A   1      52.984  26.223  30.387  1.00  0.00    -0.237 OA
ATOM     98  O   UNL A   1      52.634  26.870  32.740  1.00  0.00    -0.744 OA
ENDBRANCH  94  95
ENDBRANCH  62  87
ENDBRANCH  36  37
ENDBRANCH  28  31
ENDBRANCH  26  27
ENDBRANCH  25  26
ENDBRANCH   1  25
TORSDOF 18
ENDMDL
MODEL 3
REMARK VINA RESULT:     -11.9      7.011     12.377
REMARK SMILES COc1ccc2c(c1)[C@@](NC=O)(C(=O)NCCCCCCNC(=O)c1ccc(-c3c4nc(c(-c5c(F)cc(S(=O)(=O)[O-])cc5F)c5ccc([nH]5)c(-c5c(F)cc(S(=O)(=O)[O-])cc5F)c5nc(c(-c6c(F)cc(S(=O)(=O)[O-])cc6F)c6ccc3[nH]6)C=C5)C=C4)cc1)CCC2
REMARK SMILES IDX 19 1 18 2 17 3 16 4 15 5 13 6 14 7 9 9 3 10 4 11 8 12 5 13
REMARK SMILES IDX 7 14 6 15 93 16 91 17 92 18 2 19 1 20 10 21 11 22 12 24
REMARK SMILES IDX 20 25 21 26 22 27 23 28 24 30 25 31 26 32 90 33 27 34 89 35
REMARK SMILES IDX 28 36 29 37 30 38 83 39 31 40 88 41 82 42 84 43 32 44 87 45
REMARK SMILES IDX 81 46 80 47 33 49 67 50 46 51 66 52 47 53 50 54 65 55 85 56
REMARK SMILES IDX 48 57 49 58 64 60 86 61 51 62 34 63 35 64 44 65 36 66 37 67
REMARK SMILES IDX 43 68 45 69 38 70 39 71 40 72 41 73 42 74 68 75 69 76 78 77
REMARK SMILES IDX 70 78 71 79 77 80 79 81 72 82 73 83 74 84 75 85 76 86 52 87
REMARK SMILES IDX 53 88 62 89 54 90 55 91 61 92 63 93 56 94 57 95 58 96 59 97
REMARK SMILES IDX 60 98
REMARK H PARENT 15 8 10 23 22 29 84 48 50 59
REMARK Flexibility Score: inf
ROOT
ATOM      1  C   UNL A   1      38.518  21.795  25.660  1.00  0.00     0.002 C 
ENDROOT
BRANCH   1   2
ATOM      2  C   UNL A   1      37.069  21.446  25.316  1.00  0.00     0.002 C 
BRANCH   2   3
ATOM      3  C   UNL A   1      36.426  22.370  24.279  1.00  0.00     0.021 C 
BRANCH   3   4
ATOM      4  C   UNL A   1      35.337  23.286  24.849  1.00  0.00     0.116 C 
BRANCH   4   5
ATOM      5  N   UNL A   1      34.861  22.757  26.118  1.00  0.00    -0.354 N 
ATOM      6  C   UNL A   1      33.633  22.324  26.534  1.00  0.00     0.250 C 
ATOM      7  O   UNL A   1      33.475  22.294  27.762  1.00  0.00    -0.272 OA
ATOM      8  H   UNL A   1      35.558  22.698  26.811  1.00  0.00     0.163 HD
BRANCH   6   9
ATOM      9  C   UNL A   1      32.467  21.956  25.534  1.00  0.00     0.144 C 
ATOM     10  C   UNL A   1      33.014  18.171  25.052  1.00  0.00     0.119 A 
ATOM     11  C   UNL A   1      32.753  18.000  23.704  1.00  0.00     0.047 A 
ATOM     12  C   UNL A   1      33.022  19.453  25.599  1.00  0.00     0.053 A 
ATOM     13  C   UNL A   1      32.452  19.112  22.920  1.00  0.00     0.008 A 
ATOM     14  C   UNL A   1      32.665  20.589  24.854  1.00  0.00    -0.006 A 
ATOM     15  C   UNL A   1      32.385  20.402  23.482  1.00  0.00    -0.042 A 
ATOM     16  C   UNL A   1      32.083  21.556  22.557  1.00  0.00     0.036 C 
ATOM     17  C   UNL A   1      32.458  23.104  24.485  1.00  0.00     0.044 C 
ATOM     18  C   UNL A   1      31.591  22.806  23.271  1.00  0.00     0.008 C 
BRANCH  10  19
ATOM     19  O   UNL A   1      33.318  17.062  25.793  1.00  0.00    -0.497 OA
ATOM     20  C   UNL A   1      32.396  15.992  25.569  1.00  0.00     0.278 C 
ENDBRANCH  10  19
BRANCH   9  21
ATOM     21  N   UNL A   1      31.200  22.001  26.291  1.00  0.00    -0.341 N 
ATOM     22  C   UNL A   1      30.618  23.073  26.887  1.00  0.00     0.338 C 
ATOM     23  H   UNL A   1      30.717  21.147  26.375  1.00  0.00     0.164 HD
ATOM     24  O   UNL A   1      29.629  22.959  27.600  1.00  0.00    -0.279 OA
ENDBRANCH   9  21
ENDBRANCH   6   9
ENDBRANCH   4   5
ENDBRANCH   3   4
ENDBRANCH   2   3
ENDBRANCH   1   2
BRANCH   1  25
ATOM     25  C   UNL A   1      38.685  23.070  26.489  1.00  0.00     0.021 C 
BRANCH  25  26
ATOM     26  C   UNL A   1      40.081  23.260  27.072  1.00  0.00     0.116 C 
BRANCH  26  27
ATOM     27  N   UNL A   1      40.995  23.832  26.096  1.00  0.00    -0.352 N 
ATOM     28  C   UNL A   1      41.532  25.094  26.054  1.00  0.00     0.251 C 
ATOM     29  H   UNL A   1      41.264  23.230  25.365  1.00  0.00     0.163 HD
ATOM     30  O   UNL A   1      42.087  25.492  25.034  1.00  0.00    -0.269 OA
BRANCH  28  31
ATOM     31  C   UNL A   1      41.424  25.968  27.239  1.00  0.00     0.039 A 
ATOM     32  C   UNL A   1      42.380  26.967  27.435  1.00  0.00     0.014 A 
ATOM     33  C   UNL A   1      40.381  25.799  28.155  1.00  0.00     0.014 A 
ATOM     34  C   UNL A   1      42.258  27.832  28.523  1.00  0.00     0.010 A 
ATOM     35  C   UNL A   1      40.218  26.709  29.194  1.00  0.00     0.010 A 
ATOM     36  C   UNL A   1      41.160  27.730  29.395  1.00  0.00    -0.014 A 
BRANCH  36  37
ATOM     37  C   UNL A   1      40.981  28.681  30.521  1.00  0.00     0.031 A 
ATOM     38  C   UNL A   1      41.839  28.564  31.751  1.00  0.00     0.074 A 
ATOM     39  C   UNL A   1      40.010  29.613  30.456  1.00  0.00     0.049 A 
ATOM     40  N   UNL A   1      41.795  29.262  32.857  1.00  0.00    -0.248 NA
ATOM     41  C   UNL A   1      42.864  27.508  31.751  1.00  0.00     0.031 C 
ATOM     42  C   UNL A   1      39.084  29.793  29.334  1.00  0.00     0.029 A 
ATOM     43  N   UNL A   1      39.631  30.578  31.355  1.00  0.00    -0.354 N 
ATOM     44  C   UNL A   1      42.775  28.726  33.684  1.00  0.00     0.074 A 
ATOM     45  C   UNL A   1      43.358  27.607  32.977  1.00  0.00     0.031 C 
ATOM     46  C   UNL A   1      38.264  30.822  29.602  1.00  0.00     0.029 A 
ATOM     47  C   UNL A   1      38.573  31.347  30.928  1.00  0.00     0.049 A 
ATOM     48  H   UNL A   1      40.075  30.708  32.224  1.00  0.00     0.167 HD
ATOM     49  C   UNL A   1      43.169  29.142  34.911  1.00  0.00     0.037 A 
ATOM     50  C   UNL A   1      37.920  32.354  31.540  1.00  0.00     0.037 A 
ATOM     51  C   UNL A   1      42.595  30.271  35.600  1.00  0.00     0.049 A 
ATOM     52  C   UNL A   1      38.367  32.790  32.910  1.00  0.00     0.074 A 
ATOM     53  C   UNL A   1      42.961  30.809  36.820  1.00  0.00     0.029 A 
ATOM     54  N   UNL A   1      41.534  31.031  35.129  1.00  0.00    -0.354 N 
ATOM     55  N   UNL A   1      39.339  32.312  33.650  1.00  0.00    -0.248 NA
ATOM     56  C   UNL A   1      37.635  33.905  33.524  1.00  0.00     0.031 C 
ATOM     57  C   UNL A   1      42.085  31.858  37.116  1.00  0.00     0.029 A 
ATOM     58  C   UNL A   1      41.214  32.017  36.049  1.00  0.00     0.049 A 
ATOM     59  H   UNL A   1      41.076  30.891  34.269  1.00  0.00     0.167 HD
ATOM     60  C   UNL A   1      39.355  33.089  34.804  1.00  0.00     0.074 A 
ATOM     61  C   UNL A   1      38.303  34.074  34.657  1.00  0.00     0.031 C 
ATOM     62  C   UNL A   1      40.168  32.995  35.886  1.00  0.00     0.037 A 
BRANCH  49  63
ATOM     63  C   UNL A   1      44.273  28.377  35.591  1.00  0.00     0.058 A 
ATOM     64  C   UNL A   1      45.627  28.637  35.322  1.00  0.00     0.135 A 
ATOM     65  C   UNL A   1      43.976  27.401  36.555  1.00  0.00     0.135 A 
ATOM     66  F   UNL A   1      45.970  29.549  34.398  1.00  0.00    -0.206 F 
ATOM     67  C   UNL A   1      46.645  27.937  35.962  1.00  0.00     0.059 A 
ATOM     68  C   UNL A   1      44.978  26.711  37.232  1.00  0.00     0.059 A 
ATOM     69  F   UNL A   1      42.700  27.110  36.853  1.00  0.00    -0.206 F 
ATOM     70  C   UNL A   1      46.310  26.977  36.918  1.00  0.00     0.060 A 
BRANCH  70  71
ATOM     71  S   UNL A   1      47.644  26.086  37.745  1.00  0.00     0.124 S 
ATOM     72  O   UNL A   1      48.256  25.374  36.628  1.00  0.00    -0.237 OA
ATOM     73  O   UNL A   1      48.435  27.172  38.315  1.00  0.00    -0.237 OA
ATOM     74  O   UNL A   1      46.944  25.248  38.714  1.00  0.00    -0.744 OA
ENDBRANCH  70  71
ENDBRANCH  49  63
BRANCH  50  75
ATOM     75  C   UNL A   1      36.785  33.029  30.854  1.00  0.00     0.058 A 
ATOM     76  C   UNL A   1      37.009  33.928  29.801  1.00  0.00     0.135 A 
ATOM     77  C   UNL A   1      35.455  32.784  31.231  1.00  0.00     0.135 A 
ATOM     78  F   UNL A   1      38.262  34.201  29.407  1.00  0.00    -0.206 F 
ATOM     79  C   UNL A   1      35.958  34.573  29.157  1.00  0.00     0.059 A 
ATOM     80  C   UNL A   1      34.386  33.394  30.583  1.00  0.00     0.059 A 
ATOM     81  F   UNL A   1      35.185  31.919  32.222  1.00  0.00    -0.206 F 
ATOM     82  C   UNL A   1      34.648  34.297  29.554  1.00  0.00     0.060 A 
BRANCH  82  83
ATOM     83  S   UNL A   1      33.291  35.108  28.682  1.00  0.00     0.124 S 
ATOM     84  O   UNL A   1      34.003  36.107  27.894  1.00  0.00    -0.237 OA
ATOM     85  O   UNL A   1      32.706  34.000  27.931  1.00  0.00    -0.237 OA
ATOM     86  O   UNL A   1      32.462  35.629  29.763  1.00  0.00    -0.744 OA
ENDBRANCH  82  83
ENDBRANCH  50  75
BRANCH  62  87
ATOM     87  C   UNL A   1      39.981  34.008  36.984  1.00  0.00     0.058 A 
ATOM     88  C   UNL A   1      40.598  35.269  36.943  1.00  0.00     0.135 A 
ATOM     89  C   UNL A   1      39.129  33.731  38.067  1.00  0.00     0.135 A 
ATOM     90  F   UNL A   1      41.427  35.583  35.935  1.00  0.00    -0.206 F 
ATOM     91  C   UNL A   1      40.396  36.209  37.948  1.00  0.00     0.059 A 
ATOM     92  C   UNL A   1      38.888  34.668  39.066  1.00  0.00     0.059 A 
ATOM     93  F   UNL A   1      38.506  32.545  38.150  1.00  0.00    -0.206 F 
ATOM     94  C   UNL A   1      39.536  35.901  39.004  1.00  0.00     0.060 A 
BRANCH  94  95
ATOM     95  S   UNL A   1      39.255  37.145  40.281  1.00  0.00     0.124 S 
ATOM     96  O   UNL A   1      40.621  37.465  40.685  1.00  0.00    -0.237 OA
ATOM     97  O   UNL A   1      38.549  38.191  39.548  1.00  0.00    -0.237 OA
ATOM     98  O   UNL A   1      38.456  36.436  41.277  1.00  0.00    -0.744 OA
ENDBRANCH  94  95
ENDBRANCH  62  87
ENDBRANCH  36  37
ENDBRANCH  28  31
ENDBRANCH  26  27
ENDBRANCH  25  26
ENDBRANCH   1  25
TORSDOF 18
ENDMDL
