MODEL 1
REMARK VINA RESULT:     -10.5      0.000      0.000
REMARK SMILES CC(C)(C)N(CC(=O)NCCCCCCNC(=O)c1ccc(-c2c3nc(c(-c4c(F)cc(S(=O)(=O)[O-])cc4F)c4ccc([nH]4)c(-c4c(F)cc(S(=O)(=O)[O-])cc4F)c4nc(c(-c5c(F)cc(S(=O)(=O)[O-])cc5F)c5ccc2[nH]5)C=C4)C=C3)cc1)C(=O)NCCc1cnc[nH]1
REMARK SMILES IDX 11 1 10 2 9 3 7 4 8 5 6 7 5 8 2 9 1 10 3 11 4 12 85 13 86 14
REMARK SMILES IDX 87 15 88 17 89 18 90 19 91 20 94 21 92 22 93 23 12 25 13 26
REMARK SMILES IDX 14 27 15 28 16 29 17 30 18 32 19 33 20 34 84 35 21 36 83 37
REMARK SMILES IDX 22 38 23 39 24 40 77 41 25 42 82 43 76 44 78 45 26 46 81 47
REMARK SMILES IDX 75 48 74 49 27 51 61 52 40 53 60 54 41 55 44 56 59 57 79 58
REMARK SMILES IDX 42 59 43 60 58 62 80 63 45 64 28 65 29 66 38 67 30 68 31 69
REMARK SMILES IDX 37 70 39 71 32 72 33 73 34 74 35 75 36 76 62 77 63 78 72 79
REMARK SMILES IDX 64 80 65 81 71 82 73 83 66 84 67 85 68 86 69 87 70 88 46 89
REMARK SMILES IDX 47 90 56 91 48 92 49 93 55 94 57 95 50 96 51 97 52 98 53 99
REMARK SMILES IDX 54 100
REMARK H PARENT 9 6 87 16 94 24 16 31 78 50 44 61
REMARK Flexibility Score: inf
ROOT
ATOM      1  C   UNL A   1      33.526  27.124  23.198  1.00  0.00     0.021 C 
ENDROOT
BRANCH   1   2
ATOM      2  C   UNL A   1      33.671  25.649  22.842  1.00  0.00     0.116 C 
BRANCH   2   3
ATOM      3  N   UNL A   1      32.803  24.799  23.616  1.00  0.00    -0.355 N 
ATOM      4  C   UNL A   1      33.066  24.216  24.819  1.00  0.00     0.239 C 
ATOM      5  O   UNL A   1      32.094  23.843  25.487  1.00  0.00    -0.273 OA
ATOM      6  H   UNL A   1      31.916  24.617  23.231  1.00  0.00     0.163 HD
BRANCH   4   7
ATOM      7  C   UNL A   1      34.490  24.170  25.411  1.00  0.00     0.221 C 
BRANCH   7   8
ATOM      8  N   UNL A   1      35.156  22.860  25.538  1.00  0.00    -0.311 N 
BRANCH   8   9
ATOM      9  C   UNL A   1      36.595  22.705  25.026  1.00  0.00     0.037 C 
ATOM     10  C   UNL A   1      37.231  21.309  25.286  1.00  0.00     0.034 C 
ATOM     11  C   UNL A   1      37.569  23.729  25.665  1.00  0.00     0.034 C 
ATOM     12  C   UNL A   1      36.631  22.881  23.487  1.00  0.00     0.034 C 
ENDBRANCH   8   9
BRANCH   8  13
ATOM     13  C   UNL A   1      34.655  21.843  26.324  1.00  0.00     0.318 C 
ATOM     14  O   UNL A   1      34.626  21.909  27.558  1.00  0.00    -0.249 OA
ATOM     15  N   UNL A   1      34.133  20.696  25.866  1.00  0.00    -0.338 N 
ATOM     16  H   UNL A   1      33.901  20.112  26.623  1.00  0.00     0.165 HD
BRANCH  15  17
ATOM     17  C   UNL A   1      33.796  20.029  24.611  1.00  0.00     0.124 C 
BRANCH  17  18
ATOM     18  C   UNL A   1      32.610  19.068  24.777  1.00  0.00     0.077 C 
BRANCH  18  19
ATOM     19  C   UNL A   1      33.038  17.640  24.788  1.00  0.00     0.036 A 
ATOM     20  C   UNL A   1      34.200  17.035  24.359  1.00  0.00     0.134 A 
ATOM     21  N   UNL A   1      32.273  16.614  25.283  1.00  0.00    -0.348 N 
ATOM     22  N   UNL A   1      34.149  15.681  24.559  1.00  0.00    -0.245 NA
ATOM     23  C   UNL A   1      32.980  15.457  25.115  1.00  0.00     0.196 A 
ATOM     24  H   UNL A   1      31.378  16.696  25.685  1.00  0.00     0.167 HD
ENDBRANCH  18  19
ENDBRANCH  17  18
ENDBRANCH  15  17
ENDBRANCH   8  13
ENDBRANCH   7   8
ENDBRANCH   4   7
ENDBRANCH   2   3
ENDBRANCH   1   2
BRANCH   1  25
ATOM     25  C   UNL A   1      32.165  27.492  23.795  1.00  0.00     0.002 C 
BRANCH  25  26
ATOM     26  C   UNL A   1      32.221  28.214  25.148  1.00  0.00     0.002 C 
BRANCH  26  27
ATOM     27  C   UNL A   1      33.616  28.347  25.767  1.00  0.00     0.021 C 
BRANCH  27  28
ATOM     28  C   UNL A   1      33.630  28.514  27.283  1.00  0.00     0.116 C 
BRANCH  28  29
ATOM     29  N   UNL A   1      33.624  29.916  27.674  1.00  0.00    -0.352 N 
ATOM     30  C   UNL A   1      34.590  30.649  28.317  1.00  0.00     0.251 C 
ATOM     31  H   UNL A   1      32.806  30.412  27.443  1.00  0.00     0.163 HD
ATOM     32  O   UNL A   1      34.318  31.759  28.769  1.00  0.00    -0.269 OA
BRANCH  30  33
ATOM     33  C   UNL A   1      35.949  30.093  28.482  1.00  0.00     0.039 A 
ATOM     34  C   UNL A   1      36.816  30.081  27.387  1.00  0.00     0.014 A 
ATOM     35  C   UNL A   1      36.369  29.593  29.719  1.00  0.00     0.014 A 
ATOM     36  C   UNL A   1      38.133  29.647  27.553  1.00  0.00     0.010 A 
ATOM     37  C   UNL A   1      37.698  29.223  29.899  1.00  0.00     0.010 A 
ATOM     38  C   UNL A   1      38.597  29.262  28.823  1.00  0.00    -0.014 A 
BRANCH  38  39
ATOM     39  C   UNL A   1      40.031  28.959  29.061  1.00  0.00     0.031 A 
ATOM     40  C   UNL A   1      40.958  30.012  29.596  1.00  0.00     0.074 A 
ATOM     41  C   UNL A   1      40.513  27.752  28.704  1.00  0.00     0.049 A 
ATOM     42  N   UNL A   1      42.250  29.954  29.790  1.00  0.00    -0.248 NA
ATOM     43  C   UNL A   1      40.356  31.310  29.937  1.00  0.00     0.031 C 
ATOM     44  C   UNL A   1      39.717  26.657  28.145  1.00  0.00     0.029 A 
ATOM     45  N   UNL A   1      41.788  27.246  28.746  1.00  0.00    -0.354 N 
ATOM     46  C   UNL A   1      42.621  31.206  30.263  1.00  0.00     0.074 A 
ATOM     47  C   UNL A   1      41.422  32.018  30.280  1.00  0.00     0.031 C 
ATOM     48  C   UNL A   1      40.514  25.601  27.925  1.00  0.00     0.029 A 
ATOM     49  C   UNL A   1      41.885  25.958  28.276  1.00  0.00     0.049 A 
ATOM     50  H   UNL A   1      42.560  27.756  29.081  1.00  0.00     0.167 HD
ATOM     51  C   UNL A   1      43.844  31.634  30.659  1.00  0.00     0.037 A 
ATOM     52  C   UNL A   1      42.958  25.156  28.129  1.00  0.00     0.037 A 
ATOM     53  C   UNL A   1      45.030  30.815  30.635  1.00  0.00     0.049 A 
ATOM     54  C   UNL A   1      44.315  25.672  28.518  1.00  0.00     0.074 A 
ATOM     55  C   UNL A   1      46.304  31.129  31.076  1.00  0.00     0.029 A 
ATOM     56  N   UNL A   1      45.095  29.526  30.121  1.00  0.00    -0.354 N 
ATOM     57  N   UNL A   1      44.638  26.832  29.038  1.00  0.00    -0.248 NA
ATOM     58  C   UNL A   1      45.456  24.773  28.293  1.00  0.00     0.031 C 
ATOM     59  C   UNL A   1      47.150  30.060  30.767  1.00  0.00     0.029 A 
ATOM     60  C   UNL A   1      46.396  29.052  30.188  1.00  0.00     0.049 A 
ATOM     61  H   UNL A   1      44.329  29.024  29.760  1.00  0.00     0.167 HD
ATOM     62  C   UNL A   1      46.016  26.797  29.221  1.00  0.00     0.074 A 
ATOM     63  C   UNL A   1      46.463  25.496  28.767  1.00  0.00     0.031 C 
ATOM     64  C   UNL A   1      46.833  27.758  29.721  1.00  0.00     0.037 A 
BRANCH  51  65
ATOM     65  C   UNL A   1      43.962  33.061  31.126  1.00  0.00     0.058 A 
ATOM     66  C   UNL A   1      43.634  33.444  32.437  1.00  0.00     0.135 A 
ATOM     67  C   UNL A   1      44.405  34.063  30.247  1.00  0.00     0.135 A 
ATOM     68  F   UNL A   1      43.199  32.532  33.320  1.00  0.00    -0.206 F 
ATOM     69  C   UNL A   1      43.685  34.775  32.841  1.00  0.00     0.059 A 
ATOM     70  C   UNL A   1      44.498  35.395  30.640  1.00  0.00     0.059 A 
ATOM     71  F   UNL A   1      44.740  33.756  28.983  1.00  0.00    -0.206 F 
ATOM     72  C   UNL A   1      44.109  35.744  31.932  1.00  0.00     0.060 A 
BRANCH  72  73
ATOM     73  S   UNL A   1      44.123  37.472  32.458  1.00  0.00     0.124 S 
ATOM     74  O   UNL A   1      45.520  37.644  32.847  1.00  0.00    -0.237 OA
ATOM     75  O   UNL A   1      43.714  38.171  31.245  1.00  0.00    -0.237 OA
ATOM     76  O   UNL A   1      43.160  37.503  33.553  1.00  0.00    -0.744 OA
ENDBRANCH  72  73
ENDBRANCH  51  65
BRANCH  52  77
ATOM     77  C   UNL A   1      42.777  23.773  27.616  1.00  0.00     0.058 A 
ATOM     78  C   UNL A   1      42.612  22.700  28.504  1.00  0.00     0.135 A 
ATOM     79  C   UNL A   1      42.710  23.501  26.240  1.00  0.00     0.135 A 
ATOM     80  F   UNL A   1      42.679  22.909  29.827  1.00  0.00    -0.206 F 
ATOM     81  C   UNL A   1      42.381  21.407  28.048  1.00  0.00     0.059 A 
ATOM     82  C   UNL A   1      42.455  22.220  25.761  1.00  0.00     0.059 A 
ATOM     83  F   UNL A   1      42.849  24.495  25.349  1.00  0.00    -0.206 F 
ATOM     84  C   UNL A   1      42.292  21.178  26.673  1.00  0.00     0.060 A 
BRANCH  84  85
ATOM     85  S   UNL A   1      41.903  19.511  26.100  1.00  0.00     0.124 S 
ATOM     86  O   UNL A   1      42.286  18.705  27.253  1.00  0.00    -0.237 OA
ATOM     87  O   UNL A   1      40.471  19.608  25.835  1.00  0.00    -0.237 OA
ATOM     88  O   UNL A   1      42.744  19.360  24.915  1.00  0.00    -0.744 OA
ENDBRANCH  84  85
ENDBRANCH  52  77
BRANCH  64  89
ATOM     89  C   UNL A   1      48.302  27.441  29.810  1.00  0.00     0.058 A 
ATOM     90  C   UNL A   1      49.208  27.875  28.830  1.00  0.00     0.135 A 
ATOM     91  C   UNL A   1      48.819  26.757  30.922  1.00  0.00     0.135 A 
ATOM     92  F   UNL A   1      48.766  28.522  27.739  1.00  0.00    -0.206 F 
ATOM     93  C   UNL A   1      50.573  27.637  28.945  1.00  0.00     0.059 A 
ATOM     94  C   UNL A   1      50.184  26.532  31.073  1.00  0.00     0.059 A 
ATOM     95  F   UNL A   1      47.997  26.323  31.891  1.00  0.00    -0.206 F 
ATOM     96  C   UNL A   1      51.054  26.972  30.076  1.00  0.00     0.060 A 
BRANCH  96  97
ATOM     97  S   UNL A   1      52.835  26.725  30.239  1.00  0.00     0.124 S 
ATOM     98  O   UNL A   1      52.904  25.809  31.373  1.00  0.00    -0.237 OA
ATOM     99  O   UNL A   1      53.188  26.157  28.942  1.00  0.00    -0.237 OA
ATOM    100  O   UNL A   1      53.344  28.071  30.487  1.00  0.00    -0.744 OA
ENDBRANCH  96  97
ENDBRANCH  64  89
ENDBRANCH  38  39
ENDBRANCH  30  33
ENDBRANCH  28  29
ENDBRANCH  27  28
ENDBRANCH  26  27
ENDBRANCH  25  26
ENDBRANCH   1  25
TORSDOF 22
ENDMDL
MODEL 2
REMARK VINA RESULT:      -9.9      5.134     10.625
REMARK SMILES CC(C)(C)N(CC(=O)NCCCCCCNC(=O)c1ccc(-c2c3nc(c(-c4c(F)cc(S(=O)(=O)[O-])cc4F)c4ccc([nH]4)c(-c4c(F)cc(S(=O)(=O)[O-])cc4F)c4nc(c(-c5c(F)cc(S(=O)(=O)[O-])cc5F)c5ccc2[nH]5)C=C4)C=C3)cc1)C(=O)NCCc1cnc[nH]1
REMARK SMILES IDX 11 1 10 2 9 3 7 4 8 5 6 7 5 8 2 9 1 10 3 11 4 12 85 13 86 14
REMARK SMILES IDX 87 15 88 17 89 18 90 19 91 20 94 21 92 22 93 23 12 25 13 26
REMARK SMILES IDX 14 27 15 28 16 29 17 30 18 32 19 33 20 34 84 35 21 36 83 37
REMARK SMILES IDX 22 38 23 39 24 40 77 41 25 42 82 43 76 44 78 45 26 46 81 47
REMARK SMILES IDX 75 48 74 49 27 51 61 52 40 53 60 54 41 55 44 56 59 57 79 58
REMARK SMILES IDX 42 59 43 60 58 62 80 63 45 64 28 65 29 66 38 67 30 68 31 69
REMARK SMILES IDX 37 70 39 71 32 72 33 73 34 74 35 75 36 76 62 77 63 78 72 79
REMARK SMILES IDX 64 80 65 81 71 82 73 83 66 84 67 85 68 86 69 87 70 88 46 89
REMARK SMILES IDX 47 90 56 91 48 92 49 93 55 94 57 95 50 96 51 97 52 98 53 99
REMARK SMILES IDX 54 100
REMARK H PARENT 9 6 87 16 94 24 16 31 78 50 44 61
REMARK Flexibility Score: inf
ROOT
ATOM      1  C   UNL A   1      38.211  23.178  25.826  1.00  0.00     0.021 C 
ENDROOT
BRANCH   1   2
ATOM      2  C   UNL A   1      36.704  23.402  25.767  1.00  0.00     0.116 C 
BRANCH   2   3
ATOM      3  N   UNL A   1      36.275  23.997  24.527  1.00  0.00    -0.355 N 
ATOM      4  C   UNL A   1      35.296  23.558  23.689  1.00  0.00     0.239 C 
ATOM      5  O   UNL A   1      34.828  24.380  22.892  1.00  0.00    -0.273 OA
ATOM      6  H   UNL A   1      36.745  24.818  24.254  1.00  0.00     0.163 HD
BRANCH   4   7
ATOM      7  C   UNL A   1      34.671  22.154  23.827  1.00  0.00     0.221 C 
BRANCH   7   8
ATOM      8  N   UNL A   1      33.241  22.051  24.170  1.00  0.00    -0.311 N 
BRANCH   8   9
ATOM      9  C   UNL A   1      32.822  22.129  25.645  1.00  0.00     0.037 C 
ATOM     10  C   UNL A   1      33.067  23.509  26.318  1.00  0.00     0.034 C 
ATOM     11  C   UNL A   1      33.567  21.097  26.531  1.00  0.00     0.034 C 
ATOM     12  C   UNL A   1      31.297  21.884  25.775  1.00  0.00     0.034 C 
ENDBRANCH   8   9
BRANCH   8  13
ATOM     13  C   UNL A   1      32.240  22.152  23.225  1.00  0.00     0.318 C 
ATOM     14  O   UNL A   1      31.774  21.168  22.642  1.00  0.00    -0.249 OA
ATOM     15  N   UNL A   1      31.648  23.294  22.844  1.00  0.00    -0.338 N 
ATOM     16  H   UNL A   1      31.010  23.109  22.118  1.00  0.00     0.165 HD
BRANCH  15  17
ATOM     17  C   UNL A   1      31.641  24.721  23.152  1.00  0.00     0.124 C 
BRANCH  17  18
ATOM     18  C   UNL A   1      30.585  25.070  24.211  1.00  0.00     0.077 C 
BRANCH  18  19
ATOM     19  C   UNL A   1      30.984  26.243  25.040  1.00  0.00     0.036 A 
ATOM     20  C   UNL A   1      31.594  27.432  24.701  1.00  0.00     0.134 A 
ATOM     21  N   UNL A   1      30.775  26.332  26.394  1.00  0.00    -0.348 N 
ATOM     22  N   UNL A   1      31.778  28.220  25.806  1.00  0.00    -0.245 NA
ATOM     23  C   UNL A   1      31.277  27.533  26.808  1.00  0.00     0.196 A 
ATOM     24  H   UNL A   1      30.344  25.653  26.963  1.00  0.00     0.167 HD
ENDBRANCH  18  19
ENDBRANCH  17  18
ENDBRANCH  15  17
ENDBRANCH   8  13
ENDBRANCH   7   8
ENDBRANCH   4   7
ENDBRANCH   2   3
ENDBRANCH   1   2
BRANCH   1  25
ATOM     25  C   UNL A   1      38.627  21.706  25.779  1.00  0.00     0.002 C 
BRANCH  25  26
ATOM     26  C   UNL A   1      39.992  21.394  26.406  1.00  0.00     0.002 C 
BRANCH  26  27
ATOM     27  C   UNL A   1      40.459  22.371  27.488  1.00  0.00     0.021 C 
BRANCH  27  28
ATOM     28  C   UNL A   1      41.814  23.021  27.222  1.00  0.00     0.116 C 
BRANCH  28  29
ATOM     29  N   UNL A   1      41.766  23.926  26.085  1.00  0.00    -0.352 N 
ATOM     30  C   UNL A   1      41.485  25.269  26.046  1.00  0.00     0.251 C 
ATOM     31  H   UNL A   1      41.965  23.515  25.212  1.00  0.00     0.163 HD
ATOM     32  O   UNL A   1      41.266  25.819  24.969  1.00  0.00    -0.269 OA
BRANCH  30  33
ATOM     33  C   UNL A   1      41.427  26.046  27.302  1.00  0.00     0.039 A 
ATOM     34  C   UNL A   1      42.506  26.864  27.645  1.00  0.00     0.014 A 
ATOM     35  C   UNL A   1      40.305  25.974  28.133  1.00  0.00     0.014 A 
ATOM     36  C   UNL A   1      42.425  27.675  28.778  1.00  0.00     0.010 A 
ATOM     37  C   UNL A   1      40.198  26.830  29.225  1.00  0.00     0.010 A 
ATOM     38  C   UNL A   1      41.249  27.700  29.548  1.00  0.00    -0.014 A 
BRANCH  38  39
ATOM     39  C   UNL A   1      41.073  28.675  30.656  1.00  0.00     0.031 A 
ATOM     40  C   UNL A   1      41.927  28.597  31.888  1.00  0.00     0.074 A 
ATOM     41  C   UNL A   1      40.072  29.574  30.582  1.00  0.00     0.049 A 
ATOM     42  N   UNL A   1      41.861  29.308  32.984  1.00  0.00    -0.248 NA
ATOM     43  C   UNL A   1      42.980  27.570  31.898  1.00  0.00     0.031 C 
ATOM     44  C   UNL A   1      39.155  29.726  29.449  1.00  0.00     0.029 A 
ATOM     45  N   UNL A   1      39.649  30.522  31.479  1.00  0.00    -0.354 N 
ATOM     46  C   UNL A   1      42.853  28.810  33.820  1.00  0.00     0.074 A 
ATOM     47  C   UNL A   1      43.473  27.704  33.120  1.00  0.00     0.031 C 
ATOM     48  C   UNL A   1      38.300  30.727  29.707  1.00  0.00     0.029 A 
ATOM     49  C   UNL A   1      38.570  31.253  31.041  1.00  0.00     0.049 A 
ATOM     50  H   UNL A   1      40.077  30.666  32.353  1.00  0.00     0.167 HD
ATOM     51  C   UNL A   1      43.221  29.245  35.050  1.00  0.00     0.037 A 
ATOM     52  C   UNL A   1      37.865  32.228  31.649  1.00  0.00     0.037 A 
ATOM     53  C   UNL A   1      42.593  30.346  35.735  1.00  0.00     0.049 A 
ATOM     54  C   UNL A   1      38.252  32.653  33.038  1.00  0.00     0.074 A 
ATOM     55  C   UNL A   1      42.932  30.908  36.954  1.00  0.00     0.029 A 
ATOM     56  N   UNL A   1      41.482  31.039  35.274  1.00  0.00    -0.354 N 
ATOM     57  N   UNL A   1      39.242  32.226  33.784  1.00  0.00    -0.248 NA
ATOM     58  C   UNL A   1      37.421  33.686  33.671  1.00  0.00     0.031 C 
ATOM     59  C   UNL A   1      41.987  31.892  37.260  1.00  0.00     0.029 A 
ATOM     60  C   UNL A   1      41.093  31.989  36.205  1.00  0.00     0.049 A 
ATOM     61  H   UNL A   1      41.035  30.878  34.411  1.00  0.00     0.167 HD
ATOM     62  C   UNL A   1      39.166  32.951  34.968  1.00  0.00     0.074 A 
ATOM     63  C   UNL A   1      38.040  33.852  34.833  1.00  0.00     0.031 C 
ATOM     64  C   UNL A   1      39.960  32.874  36.066  1.00  0.00     0.037 A 
BRANCH  51  65
ATOM     65  C   UNL A   1      44.336  28.505  35.741  1.00  0.00     0.058 A 
ATOM     66  C   UNL A   1      44.092  27.395  36.568  1.00  0.00     0.135 A 
ATOM     67  C   UNL A   1      45.670  28.914  35.579  1.00  0.00     0.135 A 
ATOM     68  F   UNL A   1      42.837  26.962  36.766  1.00  0.00    -0.206 F 
ATOM     69  C   UNL A   1      45.121  26.757  37.253  1.00  0.00     0.059 A 
ATOM     70  C   UNL A   1      46.719  28.268  36.226  1.00  0.00     0.059 A 
ATOM     71  F   UNL A   1      45.966  29.963  34.795  1.00  0.00    -0.206 F 
ATOM     72  C   UNL A   1      46.431  27.207  37.083  1.00  0.00     0.060 A 
BRANCH  72  73
ATOM     73  S   UNL A   1      47.748  26.399  38.016  1.00  0.00     0.124 S 
ATOM     74  O   UNL A   1      47.214  26.451  39.374  1.00  0.00    -0.237 OA
ATOM     75  O   UNL A   1      47.798  25.075  37.405  1.00  0.00    -0.237 OA
ATOM     76  O   UNL A   1      48.911  27.245  37.768  1.00  0.00    -0.744 OA
ENDBRANCH  72  73
ENDBRANCH  51  65
BRANCH  52  77
ATOM     77  C   UNL A   1      36.744  32.882  30.927  1.00  0.00     0.058 A 
ATOM     78  C   UNL A   1      35.414  32.553  31.228  1.00  0.00     0.135 A 
ATOM     79  C   UNL A   1      36.969  33.881  29.966  1.00  0.00     0.135 A 
ATOM     80  F   UNL A   1      35.148  31.598  32.131  1.00  0.00    -0.206 F 
ATOM     81  C   UNL A   1      34.347  33.195  30.609  1.00  0.00     0.059 A 
ATOM     82  C   UNL A   1      35.918  34.555  29.351  1.00  0.00     0.059 A 
ATOM     83  F   UNL A   1      38.224  34.241  29.651  1.00  0.00    -0.206 F 
ATOM     84  C   UNL A   1      34.609  34.204  29.680  1.00  0.00     0.060 A 
BRANCH  84  85
ATOM     85  S   UNL A   1      33.215  35.089  28.951  1.00  0.00     0.124 S 
ATOM     86  O   UNL A   1      32.689  34.097  28.020  1.00  0.00    -0.237 OA
ATOM     87  O   UNL A   1      32.389  35.369  30.121  1.00  0.00    -0.237 OA
ATOM     88  O   UNL A   1      33.842  36.259  28.341  1.00  0.00    -0.744 OA
ENDBRANCH  84  85
ENDBRANCH  52  77
BRANCH  64  89
ATOM     89  C   UNL A   1      39.646  33.795  37.214  1.00  0.00     0.058 A 
ATOM     90  C   UNL A   1      38.915  33.355  38.329  1.00  0.00     0.135 A 
ATOM     91  C   UNL A   1      40.140  35.109  37.233  1.00  0.00     0.135 A 
ATOM     92  F   UNL A   1      38.408  32.112  38.358  1.00  0.00    -0.206 F 
ATOM     93  C   UNL A   1      38.679  34.187  39.418  1.00  0.00     0.059 A 
ATOM     94  C   UNL A   1      39.941  35.950  38.323  1.00  0.00     0.059 A 
ATOM     95  F   UNL A   1      40.848  35.579  36.194  1.00  0.00    -0.206 F 
ATOM     96  C   UNL A   1      39.204  35.481  39.411  1.00  0.00     0.060 A 
BRANCH  96  97
ATOM     97  S   UNL A   1      38.941  36.528  40.858  1.00  0.00     0.124 S 
ATOM     98  O   UNL A   1      40.255  36.497  41.490  1.00  0.00    -0.237 OA
ATOM     99  O   UNL A   1      38.557  37.800  40.254  1.00  0.00    -0.237 OA
ATOM    100  O   UNL A   1      37.878  35.841  41.586  1.00  0.00    -0.744 OA
ENDBRANCH  96  97
ENDBRANCH  64  89
ENDBRANCH  38  39
ENDBRANCH  30  33
ENDBRANCH  28  29
ENDBRANCH  27  28
ENDBRANCH  26  27
ENDBRANCH  25  26
ENDBRANCH   1  25
TORSDOF 22
ENDMDL
MODEL 3
REMARK VINA RESULT:      -9.8      3.682      5.679
REMARK SMILES CC(C)(C)N(CC(=O)NCCCCCCNC(=O)c1ccc(-c2c3nc(c(-c4c(F)cc(S(=O)(=O)[O-])cc4F)c4ccc([nH]4)c(-c4c(F)cc(S(=O)(=O)[O-])cc4F)c4nc(c(-c5c(F)cc(S(=O)(=O)[O-])cc5F)c5ccc2[nH]5)C=C4)C=C3)cc1)C(=O)NCCc1cnc[nH]1
REMARK SMILES IDX 11 1 10 2 9 3 7 4 8 5 6 7 5 8 2 9 1 10 3 11 4 12 85 13 86 14
REMARK SMILES IDX 87 15 88 17 89 18 90 19 91 20 94 21 92 22 93 23 12 25 13 26
REMARK SMILES IDX 14 27 15 28 16 29 17 30 18 32 19 33 20 34 84 35 21 36 83 37
REMARK SMILES IDX 22 38 23 39 24 40 77 41 25 42 82 43 76 44 78 45 26 46 81 47
REMARK SMILES IDX 75 48 74 49 27 51 61 52 40 53 60 54 41 55 44 56 59 57 79 58
REMARK SMILES IDX 42 59 43 60 58 62 80 63 45 64 28 65 29 66 38 67 30 68 31 69
REMARK SMILES IDX 37 70 39 71 32 72 33 73 34 74 35 75 36 76 62 77 63 78 72 79
REMARK SMILES IDX 64 80 65 81 71 82 73 83 66 84 67 85 68 86 69 87 70 88 46 89
REMARK SMILES IDX 47 90 56 91 48 92 49 93 55 94 57 95 50 96 51 97 52 98 53 99
REMARK SMILES IDX 54 100
REMARK H PARENT 9 6 87 16 94 24 16 31 78 50 44 61
REMARK Flexibility Score: inf
ROOT
ATOM      1  C   UNL A   1      33.153  29.873  26.109  1.00  0.00     0.021 C 
ENDROOT
BRANCH   1   2
ATOM      2  C   UNL A   1      33.502  28.604  26.877  1.00  0.00     0.116 C 
BRANCH   2   3
ATOM      3  N   UNL A   1      32.358  27.760  27.113  1.00  0.00    -0.355 N 
ATOM      4  C   UNL A   1      31.996  26.639  26.431  1.00  0.00     0.239 C 
ATOM      5  O   UNL A   1      31.219  25.861  26.998  1.00  0.00    -0.273 OA
ATOM      6  H   UNL A   1      31.767  28.026  27.854  1.00  0.00     0.163 HD
BRANCH   4   7
ATOM      7  C   UNL A   1      32.647  26.256  25.085  1.00  0.00     0.221 C 
BRANCH   7   8
ATOM      8  N   UNL A   1      31.870  26.453  23.847  1.00  0.00    -0.311 N 
BRANCH   8   9
ATOM      9  C   UNL A   1      32.512  26.091  22.500  1.00  0.00     0.037 C 
ATOM     10  C   UNL A   1      31.529  26.074  21.295  1.00  0.00     0.034 C 
ATOM     11  C   UNL A   1      33.176  24.689  22.513  1.00  0.00     0.034 C 
ATOM     12  C   UNL A   1      33.586  27.143  22.126  1.00  0.00     0.034 C 
ENDBRANCH   8   9
BRANCH   8  13
ATOM     13  C   UNL A   1      30.512  26.696  23.851  1.00  0.00     0.318 C 
ATOM     14  O   UNL A   1      29.680  25.817  24.099  1.00  0.00    -0.249 OA
ATOM     15  N   UNL A   1      29.938  27.885  23.614  1.00  0.00    -0.338 N 
ATOM     16  H   UNL A   1      28.958  27.786  23.617  1.00  0.00     0.165 HD
BRANCH  15  17
ATOM     17  C   UNL A   1      30.289  29.278  23.353  1.00  0.00     0.124 C 
BRANCH  17  18
ATOM     18  C   UNL A   1      29.655  29.791  22.051  1.00  0.00     0.077 C 
BRANCH  18  19
ATOM     19  C   UNL A   1      29.140  31.183  22.185  1.00  0.00     0.036 A 
ATOM     20  C   UNL A   1      28.424  31.977  21.314  1.00  0.00     0.134 A 
ATOM     21  N   UNL A   1      29.305  31.957  23.306  1.00  0.00    -0.348 N 
ATOM     22  N   UNL A   1      28.174  33.206  21.865  1.00  0.00    -0.245 NA
ATOM     23  C   UNL A   1      28.715  33.165  23.061  1.00  0.00     0.196 A 
ATOM     24  H   UNL A   1      29.766  31.692  24.135  1.00  0.00     0.167 HD
ENDBRANCH  18  19
ENDBRANCH  17  18
ENDBRANCH  15  17
ENDBRANCH   8  13
ENDBRANCH   7   8
ENDBRANCH   4   7
ENDBRANCH   2   3
ENDBRANCH   1   2
BRANCH   1  25
ATOM     25  C   UNL A   1      32.617  31.008  26.985  1.00  0.00     0.002 C 
BRANCH  25  26
ATOM     26  C   UNL A   1      33.673  31.734  27.829  1.00  0.00     0.002 C 
BRANCH  26  27
ATOM     27  C   UNL A   1      35.122  31.301  27.587  1.00  0.00     0.021 C 
BRANCH  27  28
ATOM     28  C   UNL A   1      36.140  31.904  28.550  1.00  0.00     0.116 C 
BRANCH  28  29
ATOM     29  N   UNL A   1      35.874  31.523  29.928  1.00  0.00    -0.352 N 
ATOM     30  C   UNL A   1      36.497  30.584  30.712  1.00  0.00     0.251 C 
ATOM     31  H   UNL A   1      35.138  32.011  30.364  1.00  0.00     0.163 HD
ATOM     32  O   UNL A   1      35.988  30.239  31.776  1.00  0.00    -0.269 OA
BRANCH  30  33
ATOM     33  C   UNL A   1      37.767  29.977  30.265  1.00  0.00     0.039 A 
ATOM     34  C   UNL A   1      38.013  29.844  28.897  1.00  0.00     0.014 A 
ATOM     35  C   UNL A   1      38.719  29.549  31.196  1.00  0.00     0.014 A 
ATOM     36  C   UNL A   1      39.248  29.361  28.460  1.00  0.00     0.010 A 
ATOM     37  C   UNL A   1      39.972  29.129  30.760  1.00  0.00     0.010 A 
ATOM     38  C   UNL A   1      40.254  29.047  29.389  1.00  0.00    -0.014 A 
BRANCH  38  39
ATOM     39  C   UNL A   1      41.628  28.693  28.949  1.00  0.00     0.031 A 
ATOM     40  C   UNL A   1      42.701  29.741  28.871  1.00  0.00     0.074 A 
ATOM     41  C   UNL A   1      41.878  27.437  28.530  1.00  0.00     0.049 A 
ATOM     42  N   UNL A   1      43.929  29.634  28.435  1.00  0.00    -0.248 NA
ATOM     43  C   UNL A   1      42.338  31.093  29.323  1.00  0.00     0.031 C 
ATOM     44  C   UNL A   1      40.909  26.339  28.530  1.00  0.00     0.029 A 
ATOM     45  N   UNL A   1      43.017  26.872  28.015  1.00  0.00    -0.354 N 
ATOM     46  C   UNL A   1      44.484  30.903  28.547  1.00  0.00     0.074 A 
ATOM     47  C   UNL A   1      43.440  31.773  29.047  1.00  0.00     0.031 C 
ATOM     48  C   UNL A   1      41.502  25.229  28.067  1.00  0.00     0.029 A 
ATOM     49  C   UNL A   1      42.875  25.544  27.688  1.00  0.00     0.049 A 
ATOM     50  H   UNL A   1      43.857  27.370  27.891  1.00  0.00     0.167 HD
ATOM     51  C   UNL A   1      45.750  31.300  28.271  1.00  0.00     0.037 A 
ATOM     52  C   UNL A   1      43.746  24.680  27.132  1.00  0.00     0.037 A 
ATOM     53  C   UNL A   1      46.779  30.423  27.771  1.00  0.00     0.049 A 
ATOM     54  C   UNL A   1      45.127  25.158  26.778  1.00  0.00     0.074 A 
ATOM     55  C   UNL A   1      48.110  30.710  27.522  1.00  0.00     0.029 A 
ATOM     56  N   UNL A   1      46.587  29.093  27.421  1.00  0.00    -0.354 N 
ATOM     57  N   UNL A   1      45.662  26.341  26.963  1.00  0.00    -0.248 NA
ATOM     58  C   UNL A   1      46.020  24.186  26.131  1.00  0.00     0.031 C 
ATOM     59  C   UNL A   1      48.704  29.576  26.958  1.00  0.00     0.029 A 
ATOM     60  C   UNL A   1      47.761  28.561  26.912  1.00  0.00     0.049 A 
ATOM     61  H   UNL A   1      45.740  28.600  27.518  1.00  0.00     0.167 HD
ATOM     62  C   UNL A   1      46.960  26.252  26.474  1.00  0.00     0.074 A 
ATOM     63  C   UNL A   1      47.133  24.895  25.996  1.00  0.00     0.031 C 
ATOM     64  C   UNL A   1      47.920  27.210  26.427  1.00  0.00     0.037 A 
BRANCH  51  65
ATOM     65  C   UNL A   1      46.080  32.755  28.478  1.00  0.00     0.058 A 
ATOM     66  C   UNL A   1      46.552  33.243  29.708  1.00  0.00     0.135 A 
ATOM     67  C   UNL A   1      45.917  33.679  27.432  1.00  0.00     0.135 A 
ATOM     68  F   UNL A   1      46.721  32.409  30.747  1.00  0.00    -0.206 F 
ATOM     69  C   UNL A   1      46.794  34.598  29.911  1.00  0.00     0.059 A 
ATOM     70  C   UNL A   1      46.187  35.034  27.602  1.00  0.00     0.059 A 
ATOM     71  F   UNL A   1      45.477  33.271  26.231  1.00  0.00    -0.206 F 
ATOM     72  C   UNL A   1      46.599  35.487  28.854  1.00  0.00     0.060 A 
BRANCH  72  73
ATOM     73  S   UNL A   1      46.871  37.248  29.147  1.00  0.00     0.124 S 
ATOM     74  O   UNL A   1      45.615  37.817  28.669  1.00  0.00    -0.237 OA
ATOM     75  O   UNL A   1      47.080  37.296  30.590  1.00  0.00    -0.237 OA
ATOM     76  O   UNL A   1      48.045  37.551  28.335  1.00  0.00    -0.744 OA
ENDBRANCH  72  73
ENDBRANCH  51  65
BRANCH  52  77
ATOM     77  C   UNL A   1      43.338  23.268  26.909  1.00  0.00     0.058 A 
ATOM     78  C   UNL A   1      43.091  22.795  25.613  1.00  0.00     0.135 A 
ATOM     79  C   UNL A   1      43.240  22.354  27.970  1.00  0.00     0.135 A 
ATOM     80  F   UNL A   1      43.162  23.633  24.568  1.00  0.00    -0.206 F 
ATOM     81  C   UNL A   1      42.767  21.464  25.373  1.00  0.00     0.059 A 
ATOM     82  C   UNL A   1      42.941  21.012  27.753  1.00  0.00     0.059 A 
ATOM     83  F   UNL A   1      43.479  22.754  29.229  1.00  0.00    -0.206 F 
ATOM     84  C   UNL A   1      42.706  20.576  26.450  1.00  0.00     0.060 A 
BRANCH  84  85
ATOM     85  S   UNL A   1      42.372  18.834  26.113  1.00  0.00     0.124 S 
ATOM     86  O   UNL A   1      42.672  18.221  27.402  1.00  0.00    -0.237 OA
ATOM     87  O   UNL A   1      40.964  18.864  25.731  1.00  0.00    -0.237 OA
ATOM     88  O   UNL A   1      43.301  18.518  25.032  1.00  0.00    -0.744 OA
ENDBRANCH  84  85
ENDBRANCH  52  77
BRANCH  64  89
ATOM     89  C   UNL A   1      49.253  26.828  25.842  1.00  0.00     0.058 A 
ATOM     90  C   UNL A   1      49.585  27.130  24.511  1.00  0.00     0.135 A 
ATOM     91  C   UNL A   1      50.234  26.217  26.638  1.00  0.00     0.135 A 
ATOM     92  F   UNL A   1      48.679  27.702  23.702  1.00  0.00    -0.206 F 
ATOM     93  C   UNL A   1      50.839  26.833  23.990  1.00  0.00     0.059 A 
ATOM     94  C   UNL A   1      51.505  25.937  26.147  1.00  0.00     0.059 A 
ATOM     95  F   UNL A   1      49.971  25.910  27.919  1.00  0.00    -0.206 F 
ATOM     96  C   UNL A   1      51.798  26.245  24.818  1.00  0.00     0.060 A 
BRANCH  96  97
ATOM     97  S   UNL A   1      53.441  25.923  24.143  1.00  0.00     0.124 S 
ATOM     98  O   UNL A   1      53.175  25.912  22.709  1.00  0.00    -0.237 OA
ATOM     99  O   UNL A   1      54.207  27.062  24.639  1.00  0.00    -0.237 OA
ATOM    100  O   UNL A   1      53.801  24.632  24.725  1.00  0.00    -0.744 OA
ENDBRANCH  96  97
ENDBRANCH  64  89
ENDBRANCH  38  39
ENDBRANCH  30  33
ENDBRANCH  28  29
ENDBRANCH  27  28
ENDBRANCH  26  27
ENDBRANCH  25  26
ENDBRANCH   1  25
TORSDOF 22
ENDMDL
