MODEL 1
REMARK VINA RESULT:     -10.6      0.000      0.000
REMARK SMILES CC1(C)CC2=NC(=O)[C@H](C(=O)NCCCCCCNC(=O)c3ccc(-c4c5nc(c(-c6c(F)cc(S(=O)(=O)[O-])cc6F)c6ccc([nH]6)c(-c6c(F)cc(S(=O)(=O)[O-])cc6F)c6nc(c(-c7c(F)cc(S(=O)(=O)[O-])cc7F)c7ccc4[nH]7)C=C6)C=C5)cc3)C=C2CS1
REMARK SMILES IDX 17 1 16 2 15 3 14 4 13 5 12 6 10 7 11 8 9 10 1 11 2 12 3 13
REMARK SMILES IDX 4 14 91 15 5 16 90 17 6 18 89 19 7 20 88 21 8 22 18 23 19 24
REMARK SMILES IDX 20 25 21 27 22 28 23 29 87 30 24 31 86 32 25 33 26 34 27 35
REMARK SMILES IDX 80 36 28 37 85 38 79 39 81 40 29 41 84 42 78 43 77 44 30 46
REMARK SMILES IDX 64 47 43 48 63 49 44 50 47 51 62 52 82 53 45 54 46 55 61 57
REMARK SMILES IDX 83 58 48 59 31 60 32 61 41 62 33 63 34 64 40 65 42 66 35 67
REMARK SMILES IDX 36 68 37 69 38 70 39 71 65 72 66 73 75 74 67 75 68 76 74 77
REMARK SMILES IDX 76 78 69 79 70 80 71 81 72 82 73 83 49 84 50 85 59 86 51 87
REMARK SMILES IDX 52 88 58 89 60 90 53 91 54 92 55 93 56 94 57 95
REMARK H PARENT 12 9 19 26 81 45 47 56
REMARK Flexibility Score: inf
ROOT
ATOM      1  C   UNL A   1      33.918  33.847  28.096  1.00  0.00     0.021 C 
ENDROOT
BRANCH   1   2
ATOM      2  C   UNL A   1      34.151  35.011  29.063  1.00  0.00     0.002 C 
BRANCH   2   3
ATOM      3  C   UNL A   1      32.919  35.880  29.343  1.00  0.00     0.002 C 
BRANCH   3   4
ATOM      4  C   UNL A   1      32.990  36.713  30.630  1.00  0.00     0.021 C 
BRANCH   4   5
ATOM      5  C   UNL A   1      33.287  35.886  31.880  1.00  0.00     0.116 C 
BRANCH   5   6
ATOM      6  N   UNL A   1      34.709  35.892  32.176  1.00  0.00    -0.355 N 
ATOM      7  C   UNL A   1      35.507  35.070  32.896  1.00  0.00     0.236 C 
ATOM      8  O   UNL A   1      36.653  35.503  33.104  1.00  0.00    -0.274 OA
ATOM      9  H   UNL A   1      35.190  36.649  31.769  1.00  0.00     0.163 HD
BRANCH   7  10
ATOM     10  C   UNL A   1      35.161  33.666  33.367  1.00  0.00     0.193 C 
ATOM     11  C   UNL A   1      40.332  29.454  33.599  1.00  0.00     0.023 C 
ATOM     12  C   UNL A   1      39.491  30.721  33.828  1.00  0.00     0.016 C 
ATOM     13  C   UNL A   1      40.395  31.946  33.616  1.00  0.00     0.023 C 
ATOM     14  C   UNL A   1      38.298  30.723  32.872  1.00  0.00     0.074 C 
ATOM     15  S   UNL A   1      38.866  30.633  35.546  1.00  0.00    -0.150 SA
ATOM     16  C   UNL A   1      37.135  31.673  33.162  1.00  0.00     0.049 C 
ATOM     17  C   UNL A   1      37.982  32.194  35.602  1.00  0.00     0.107 C 
ATOM     18  N   UNL A   1      36.243  31.742  32.224  1.00  0.00    -0.217 NA
ATOM     19  C   UNL A   1      37.055  32.410  34.451  1.00  0.00    -0.019 C 
ATOM     20  C   UNL A   1      35.124  32.534  32.372  1.00  0.00     0.262 C 
ATOM     21  C   UNL A   1      36.089  33.342  34.510  1.00  0.00     0.002 C 
ATOM     22  O   UNL A   1      34.134  32.378  31.663  1.00  0.00    -0.271 OA
ENDBRANCH   7  10
ENDBRANCH   5   6
ENDBRANCH   4   5
ENDBRANCH   3   4
ENDBRANCH   2   3
ENDBRANCH   1   2
BRANCH   1  23
ATOM     23  C   UNL A   1      34.805  32.632  28.348  1.00  0.00     0.116 C 
BRANCH  23  24
ATOM     24  N   UNL A   1      34.065  31.389  28.207  1.00  0.00    -0.352 N 
ATOM     25  C   UNL A   1      34.529  30.110  28.037  1.00  0.00     0.251 C 
ATOM     26  H   UNL A   1      33.086  31.480  28.236  1.00  0.00     0.163 HD
ATOM     27  O   UNL A   1      33.749  29.225  27.695  1.00  0.00    -0.269 OA
BRANCH  25  28
ATOM     28  C   UNL A   1      35.959  29.797  28.256  1.00  0.00     0.039 A 
ATOM     29  C   UNL A   1      36.361  29.337  29.512  1.00  0.00     0.014 A 
ATOM     30  C   UNL A   1      36.908  29.998  27.249  1.00  0.00     0.014 A 
ATOM     31  C   UNL A   1      37.707  29.051  29.748  1.00  0.00     0.010 A 
ATOM     32  C   UNL A   1      38.237  29.639  27.461  1.00  0.00     0.010 A 
ATOM     33  C   UNL A   1      38.655  29.180  28.719  1.00  0.00    -0.014 A 
BRANCH  33  34
ATOM     34  C   UNL A   1      40.086  28.860  28.959  1.00  0.00     0.031 A 
ATOM     35  C   UNL A   1      41.005  29.895  29.553  1.00  0.00     0.074 A 
ATOM     36  C   UNL A   1      40.563  27.648  28.618  1.00  0.00     0.049 A 
ATOM     37  N   UNL A   1      42.280  29.804  29.832  1.00  0.00    -0.248 NA
ATOM     38  C   UNL A   1      40.422  31.214  29.850  1.00  0.00     0.031 C 
ATOM     39  C   UNL A   1      39.782  26.580  27.987  1.00  0.00     0.029 A 
ATOM     40  N   UNL A   1      41.816  27.105  28.752  1.00  0.00    -0.354 N 
ATOM     41  C   UNL A   1      42.650  31.048  30.330  1.00  0.00     0.074 A 
ATOM     42  C   UNL A   1      41.482  31.897  30.255  1.00  0.00     0.031 C 
ATOM     43  C   UNL A   1      40.566  25.503  27.817  1.00  0.00     0.029 A 
ATOM     44  C   UNL A   1      41.911  25.812  28.293  1.00  0.00     0.049 A 
ATOM     45  H   UNL A   1      42.576  27.596  29.141  1.00  0.00     0.167 HD
ATOM     46  C   UNL A   1      43.848  31.438  30.831  1.00  0.00     0.037 A 
ATOM     47  C   UNL A   1      42.963  24.970  28.259  1.00  0.00     0.037 A 
ATOM     48  C   UNL A   1      45.000  30.581  30.919  1.00  0.00     0.049 A 
ATOM     49  C   UNL A   1      44.283  25.428  28.819  1.00  0.00     0.074 A 
ATOM     50  C   UNL A   1      46.243  30.863  31.457  1.00  0.00     0.029 A 
ATOM     51  N   UNL A   1      45.053  29.274  30.454  1.00  0.00    -0.354 N 
ATOM     52  N   UNL A   1      44.596  26.585  29.352  1.00  0.00    -0.248 NA
ATOM     53  C   UNL A   1      45.389  24.462  28.783  1.00  0.00     0.031 C 
ATOM     54  C   UNL A   1      47.063  29.744  31.275  1.00  0.00     0.029 A 
ATOM     55  C   UNL A   1      46.315  28.744  30.673  1.00  0.00     0.049 A 
ATOM     56  H   UNL A   1      44.305  28.794  30.031  1.00  0.00     0.167 HD
ATOM     57  C   UNL A   1      45.927  26.478  29.738  1.00  0.00     0.074 A 
ATOM     58  C   UNL A   1      46.355  25.139  29.391  1.00  0.00     0.031 C 
ATOM     59  C   UNL A   1      46.724  27.405  30.326  1.00  0.00     0.037 A 
BRANCH  46  60
ATOM     60  C   UNL A   1      43.966  32.854  31.331  1.00  0.00     0.058 A 
ATOM     61  C   UNL A   1      43.825  33.170  32.692  1.00  0.00     0.135 A 
ATOM     62  C   UNL A   1      44.261  33.905  30.445  1.00  0.00     0.135 A 
ATOM     63  F   UNL A   1      43.530  32.209  33.582  1.00  0.00    -0.206 F 
ATOM     64  C   UNL A   1      43.940  34.478  33.153  1.00  0.00     0.059 A 
ATOM     65  C   UNL A   1      44.410  35.215  30.889  1.00  0.00     0.059 A 
ATOM     66  F   UNL A   1      44.407  33.662  29.133  1.00  0.00    -0.206 F 
ATOM     67  C   UNL A   1      44.232  35.494  32.243  1.00  0.00     0.060 A 
BRANCH  67  68
ATOM     68  S   UNL A   1      44.383  37.183  32.861  1.00  0.00     0.124 S 
ATOM     69  O   UNL A   1      43.590  37.117  34.085  1.00  0.00    -0.237 OA
ATOM     70  O   UNL A   1      45.824  37.322  33.047  1.00  0.00    -0.237 OA
ATOM     71  O   UNL A   1      43.812  37.991  31.787  1.00  0.00    -0.744 OA
ENDBRANCH  67  68
ENDBRANCH  46  60
BRANCH  47  72
ATOM     72  C   UNL A   1      42.800  23.604  27.693  1.00  0.00     0.058 A 
ATOM     73  C   UNL A   1      42.479  22.514  28.516  1.00  0.00     0.135 A 
ATOM     74  C   UNL A   1      42.948  23.363  26.319  1.00  0.00     0.135 A 
ATOM     75  F   UNL A   1      42.332  22.692  29.838  1.00  0.00    -0.206 F 
ATOM     76  C   UNL A   1      42.326  21.230  28.001  1.00  0.00     0.059 A 
ATOM     77  C   UNL A   1      42.774  22.094  25.775  1.00  0.00     0.059 A 
ATOM     78  F   UNL A   1      43.238  24.374  25.485  1.00  0.00    -0.206 F 
ATOM     79  C   UNL A   1      42.473  21.032  26.627  1.00  0.00     0.060 A 
BRANCH  79  80
ATOM     80  S   UNL A   1      42.226  19.370  25.961  1.00  0.00     0.124 S 
ATOM     81  O   UNL A   1      40.783  19.350  25.749  1.00  0.00    -0.237 OA
ATOM     82  O   UNL A   1      43.048  19.398  24.756  1.00  0.00    -0.237 OA
ATOM     83  O   UNL A   1      42.721  18.505  27.028  1.00  0.00    -0.744 OA
ENDBRANCH  79  80
ENDBRANCH  47  72
BRANCH  59  84
ATOM     84  C   UNL A   1      48.132  26.996  30.661  1.00  0.00     0.058 A 
ATOM     85  C   UNL A   1      49.194  27.209  29.770  1.00  0.00     0.135 A 
ATOM     86  C   UNL A   1      48.428  26.432  31.913  1.00  0.00     0.135 A 
ATOM     87  F   UNL A   1      48.966  27.739  28.558  1.00  0.00    -0.206 F 
ATOM     88  C   UNL A   1      50.499  26.853  30.098  1.00  0.00     0.059 A 
ATOM     89  C   UNL A   1      49.730  26.098  32.274  1.00  0.00     0.059 A 
ATOM     90  F   UNL A   1      47.450  26.217  32.807  1.00  0.00    -0.206 F 
ATOM     91  C   UNL A   1      50.757  26.301  31.355  1.00  0.00     0.060 A 
BRANCH  91  92
ATOM     92  S   UNL A   1      52.460  25.875  31.778  1.00  0.00     0.124 S 
ATOM     93  O   UNL A   1      53.149  26.125  30.517  1.00  0.00    -0.237 OA
ATOM     94  O   UNL A   1      52.755  26.811  32.860  1.00  0.00    -0.237 OA
ATOM     95  O   UNL A   1      52.370  24.474  32.178  1.00  0.00    -0.744 OA
ENDBRANCH  91  92
ENDBRANCH  59  84
ENDBRANCH  33  34
ENDBRANCH  25  28
ENDBRANCH  23  24
ENDBRANCH   1  23
TORSDOF 16
ENDMDL
MODEL 2
REMARK VINA RESULT:     -10.6      5.040     11.986
REMARK SMILES CC1(C)CC2=NC(=O)[C@H](C(=O)NCCCCCCNC(=O)c3ccc(-c4c5nc(c(-c6c(F)cc(S(=O)(=O)[O-])cc6F)c6ccc([nH]6)c(-c6c(F)cc(S(=O)(=O)[O-])cc6F)c6nc(c(-c7c(F)cc(S(=O)(=O)[O-])cc7F)c7ccc4[nH]7)C=C6)C=C5)cc3)C=C2CS1
REMARK SMILES IDX 17 1 16 2 15 3 14 4 13 5 12 6 10 7 11 8 9 10 1 11 2 12 3 13
REMARK SMILES IDX 4 14 91 15 5 16 90 17 6 18 89 19 7 20 88 21 8 22 18 23 19 24
REMARK SMILES IDX 20 25 21 27 22 28 23 29 87 30 24 31 86 32 25 33 26 34 27 35
REMARK SMILES IDX 80 36 28 37 85 38 79 39 81 40 29 41 84 42 78 43 77 44 30 46
REMARK SMILES IDX 64 47 43 48 63 49 44 50 47 51 62 52 82 53 45 54 46 55 61 57
REMARK SMILES IDX 83 58 48 59 31 60 32 61 41 62 33 63 34 64 40 65 42 66 35 67
REMARK SMILES IDX 36 68 37 69 38 70 39 71 65 72 66 73 75 74 67 75 68 76 74 77
REMARK SMILES IDX 76 78 69 79 70 80 71 81 72 82 73 83 49 84 50 85 59 86 51 87
REMARK SMILES IDX 52 88 58 89 60 90 53 91 54 92 55 93 56 94 57 95
REMARK H PARENT 12 9 19 26 81 45 47 56
REMARK Flexibility Score: inf
ROOT
ATOM      1  C   UNL A   1      42.294  21.903  27.548  1.00  0.00     0.021 C 
ENDROOT
BRANCH   1   2
ATOM      2  C   UNL A   1      40.779  21.962  27.769  1.00  0.00     0.002 C 
BRANCH   2   3
ATOM      3  C   UNL A   1      39.933  21.834  26.497  1.00  0.00     0.002 C 
BRANCH   3   4
ATOM      4  C   UNL A   1      38.726  22.781  26.422  1.00  0.00     0.021 C 
BRANCH   4   5
ATOM      5  C   UNL A   1      37.607  22.277  25.513  1.00  0.00     0.116 C 
BRANCH   5   6
ATOM      6  N   UNL A   1      36.311  22.455  26.145  1.00  0.00    -0.355 N 
ATOM      7  C   UNL A   1      35.324  23.368  25.990  1.00  0.00     0.236 C 
ATOM      8  O   UNL A   1      34.434  23.328  26.857  1.00  0.00    -0.274 OA
ATOM      9  H   UNL A   1      36.110  21.770  26.824  1.00  0.00     0.163 HD
BRANCH   7  10
ATOM     10  C   UNL A   1      35.169  24.337  24.829  1.00  0.00     0.193 C 
ATOM     11  C   UNL A   1      28.944  26.539  23.854  1.00  0.00     0.023 C 
ATOM     12  C   UNL A   1      30.257  26.194  24.578  1.00  0.00     0.016 C 
ATOM     13  C   UNL A   1      29.908  25.566  25.937  1.00  0.00     0.023 C 
ATOM     14  C   UNL A   1      31.086  25.245  23.711  1.00  0.00     0.074 C 
ATOM     15  S   UNL A   1      31.177  27.763  24.774  1.00  0.00    -0.150 SA
ATOM     16  C   UNL A   1      32.567  25.062  24.044  1.00  0.00     0.049 C 
ATOM     17  C   UNL A   1      32.607  27.139  25.664  1.00  0.00     0.107 C 
ATOM     18  N   UNL A   1      33.160  24.121  23.379  1.00  0.00    -0.217 NA
ATOM     19  C   UNL A   1      33.241  25.944  25.034  1.00  0.00    -0.019 C 
ATOM     20  C   UNL A   1      34.506  23.873  23.556  1.00  0.00     0.262 C 
ATOM     21  C   UNL A   1      34.487  25.568  25.368  1.00  0.00     0.002 C 
ATOM     22  O   UNL A   1      35.149  23.226  22.734  1.00  0.00    -0.271 OA
ENDBRANCH   7  10
ENDBRANCH   5   6
ENDBRANCH   4   5
ENDBRANCH   3   4
ENDBRANCH   2   3
ENDBRANCH   1   2
BRANCH   1  23
ATOM     23  C   UNL A   1      42.979  23.265  27.516  1.00  0.00     0.116 C 
BRANCH  23  24
ATOM     24  N   UNL A   1      42.682  23.986  26.290  1.00  0.00    -0.352 N 
ATOM     25  C   UNL A   1      42.035  25.183  26.115  1.00  0.00     0.251 C 
ATOM     26  H   UNL A   1      42.988  23.550  25.463  1.00  0.00     0.163 HD
ATOM     27  O   UNL A   1      41.666  25.511  24.991  1.00  0.00    -0.269 OA
BRANCH  25  28
ATOM     28  C   UNL A   1      41.777  26.070  27.270  1.00  0.00     0.039 A 
ATOM     29  C   UNL A   1      42.626  27.159  27.484  1.00  0.00     0.014 A 
ATOM     30  C   UNL A   1      40.736  25.810  28.168  1.00  0.00     0.014 A 
ATOM     31  C   UNL A   1      42.412  28.001  28.577  1.00  0.00     0.010 A 
ATOM     32  C   UNL A   1      40.478  26.694  29.212  1.00  0.00     0.010 A 
ATOM     33  C   UNL A   1      41.325  27.788  29.440  1.00  0.00    -0.014 A 
BRANCH  33  34
ATOM     34  C   UNL A   1      41.082  28.691  30.595  1.00  0.00     0.031 A 
ATOM     35  C   UNL A   1      41.931  28.582  31.834  1.00  0.00     0.074 A 
ATOM     36  C   UNL A   1      40.082  29.591  30.537  1.00  0.00     0.049 A 
ATOM     37  N   UNL A   1      41.870  29.277  32.941  1.00  0.00    -0.248 NA
ATOM     38  C   UNL A   1      42.971  27.539  31.842  1.00  0.00     0.031 C 
ATOM     39  C   UNL A   1      39.158  29.756  29.412  1.00  0.00     0.029 A 
ATOM     40  N   UNL A   1      39.671  30.537  31.442  1.00  0.00    -0.354 N 
ATOM     41  C   UNL A   1      42.852  28.755  33.774  1.00  0.00     0.074 A 
ATOM     42  C   UNL A   1      43.453  27.643  33.071  1.00  0.00     0.031 C 
ATOM     43  C   UNL A   1      38.310  30.761  29.682  1.00  0.00     0.029 A 
ATOM     44  C   UNL A   1      38.605  31.290  31.010  1.00  0.00     0.049 A 
ATOM     45  H   UNL A   1      40.100  30.665  32.319  1.00  0.00     0.167 HD
ATOM     46  C   UNL A   1      43.239  29.182  35.001  1.00  0.00     0.037 A 
ATOM     47  C   UNL A   1      37.939  32.294  31.615  1.00  0.00     0.037 A 
ATOM     48  C   UNL A   1      42.648  30.301  35.685  1.00  0.00     0.049 A 
ATOM     49  C   UNL A   1      38.385  32.748  32.979  1.00  0.00     0.074 A 
ATOM     50  C   UNL A   1      43.000  30.846  36.907  1.00  0.00     0.029 A 
ATOM     51  N   UNL A   1      41.578  31.046  35.209  1.00  0.00    -0.354 N 
ATOM     52  N   UNL A   1      39.364  32.289  33.722  1.00  0.00    -0.248 NA
ATOM     53  C   UNL A   1      37.644  33.864  33.582  1.00  0.00     0.031 C 
ATOM     54  C   UNL A   1      42.113  31.890  37.192  1.00  0.00     0.029 A 
ATOM     55  C   UNL A   1      41.243  32.032  36.124  1.00  0.00     0.049 A 
ATOM     56  H   UNL A   1      41.123  30.896  34.349  1.00  0.00     0.167 HD
ATOM     57  C   UNL A   1      39.373  33.075  34.869  1.00  0.00     0.074 A 
ATOM     58  C   UNL A   1      38.312  34.048  34.713  1.00  0.00     0.031 C 
ATOM     59  C   UNL A   1      40.186  32.998  35.952  1.00  0.00     0.037 A 
BRANCH  46  60
ATOM     60  C   UNL A   1      44.360  28.438  35.677  1.00  0.00     0.058 A 
ATOM     61  C   UNL A   1      44.114  27.363  36.546  1.00  0.00     0.135 A 
ATOM     62  C   UNL A   1      45.700  28.778  35.426  1.00  0.00     0.135 A 
ATOM     63  F   UNL A   1      42.853  27.002  36.834  1.00  0.00    -0.206 F 
ATOM     64  C   UNL A   1      45.151  26.674  37.167  1.00  0.00     0.059 A 
ATOM     65  C   UNL A   1      46.754  28.083  36.011  1.00  0.00     0.059 A 
ATOM     66  F   UNL A   1      45.996  29.796  34.602  1.00  0.00    -0.206 F 
ATOM     67  C   UNL A   1      46.469  27.042  36.893  1.00  0.00     0.060 A 
BRANCH  67  68
ATOM     68  S   UNL A   1      47.801  26.132  37.703  1.00  0.00     0.124 S 
ATOM     69  O   UNL A   1      47.098  24.941  38.169  1.00  0.00    -0.237 OA
ATOM     70  O   UNL A   1      48.746  25.922  36.610  1.00  0.00    -0.237 OA
ATOM     71  O   UNL A   1      48.250  27.045  38.749  1.00  0.00    -0.744 OA
ENDBRANCH  67  68
ENDBRANCH  46  60
BRANCH  47  72
ATOM     72  C   UNL A   1      36.797  32.949  30.923  1.00  0.00     0.058 A 
ATOM     73  C   UNL A   1      35.472  32.680  31.299  1.00  0.00     0.135 A 
ATOM     74  C   UNL A   1      37.006  33.868  29.883  1.00  0.00     0.135 A 
ATOM     75  F   UNL A   1      35.220  31.804  32.285  1.00  0.00    -0.206 F 
ATOM     76  C   UNL A   1      34.394  33.283  30.659  1.00  0.00     0.059 A 
ATOM     77  C   UNL A   1      35.946  34.505  29.246  1.00  0.00     0.059 A 
ATOM     78  F   UNL A   1      38.253  34.175  29.497  1.00  0.00    -0.206 F 
ATOM     79  C   UNL A   1      34.642  34.199  29.635  1.00  0.00     0.060 A 
BRANCH  79  80
ATOM     80  S   UNL A   1      33.238  35.013  28.842  1.00  0.00     0.124 S 
ATOM     81  O   UNL A   1      32.753  33.964  27.954  1.00  0.00    -0.237 OA
ATOM     82  O   UNL A   1      32.385  35.331  29.983  1.00  0.00    -0.237 OA
ATOM     83  O   UNL A   1      33.847  36.167  28.186  1.00  0.00    -0.744 OA
ENDBRANCH  79  80
ENDBRANCH  47  72
BRANCH  59  84
ATOM     84  C   UNL A   1      39.981  34.011  37.045  1.00  0.00     0.058 A 
ATOM     85  C   UNL A   1      40.546  35.293  36.978  1.00  0.00     0.135 A 
ATOM     86  C   UNL A   1      39.164  33.710  38.148  1.00  0.00     0.135 A 
ATOM     87  F   UNL A   1      41.339  35.631  35.949  1.00  0.00    -0.206 F 
ATOM     88  C   UNL A   1      40.329  36.235  37.979  1.00  0.00     0.059 A 
ATOM     89  C   UNL A   1      38.909  34.647  39.144  1.00  0.00     0.059 A 
ATOM     90  F   UNL A   1      38.590  32.502  38.255  1.00  0.00    -0.206 F 
ATOM     91  C   UNL A   1      39.506  35.903  39.057  1.00  0.00     0.060 A 
BRANCH  91  92
ATOM     92  S   UNL A   1      39.208  37.147  40.332  1.00  0.00     0.124 S 
ATOM     93  O   UNL A   1      38.563  38.207  39.564  1.00  0.00    -0.237 OA
ATOM     94  O   UNL A   1      38.350  36.431  41.271  1.00  0.00    -0.237 OA
ATOM     95  O   UNL A   1      40.547  37.454  40.826  1.00  0.00    -0.744 OA
ENDBRANCH  91  92
ENDBRANCH  59  84
ENDBRANCH  33  34
ENDBRANCH  25  28
ENDBRANCH  23  24
ENDBRANCH   1  23
TORSDOF 16
ENDMDL
MODEL 3
REMARK VINA RESULT:     -10.6      0.532      8.375
REMARK SMILES CC1(C)CC2=NC(=O)[C@H](C(=O)NCCCCCCNC(=O)c3ccc(-c4c5nc(c(-c6c(F)cc(S(=O)(=O)[O-])cc6F)c6ccc([nH]6)c(-c6c(F)cc(S(=O)(=O)[O-])cc6F)c6nc(c(-c7c(F)cc(S(=O)(=O)[O-])cc7F)c7ccc4[nH]7)C=C6)C=C5)cc3)C=C2CS1
REMARK SMILES IDX 17 1 16 2 15 3 14 4 13 5 12 6 10 7 11 8 9 10 1 11 2 12 3 13
REMARK SMILES IDX 4 14 91 15 5 16 90 17 6 18 89 19 7 20 88 21 8 22 18 23 19 24
REMARK SMILES IDX 20 25 21 27 22 28 23 29 87 30 24 31 86 32 25 33 26 34 27 35
REMARK SMILES IDX 80 36 28 37 85 38 79 39 81 40 29 41 84 42 78 43 77 44 30 46
REMARK SMILES IDX 64 47 43 48 63 49 44 50 47 51 62 52 82 53 45 54 46 55 61 57
REMARK SMILES IDX 83 58 48 59 31 60 32 61 41 62 33 63 34 64 40 65 42 66 35 67
REMARK SMILES IDX 36 68 37 69 38 70 39 71 65 72 66 73 75 74 67 75 68 76 74 77
REMARK SMILES IDX 76 78 69 79 70 80 71 81 72 82 73 83 49 84 50 85 59 86 51 87
REMARK SMILES IDX 52 88 58 89 60 90 53 91 54 92 55 93 56 94 57 95
REMARK H PARENT 12 9 19 26 81 45 47 56
REMARK Flexibility Score: inf
ROOT
ATOM      1  C   UNL A   1      33.813  33.605  28.296  1.00  0.00     0.021 C 
ENDROOT
BRANCH   1   2
ATOM      2  C   UNL A   1      34.094  34.741  29.284  1.00  0.00     0.002 C 
BRANCH   2   3
ATOM      3  C   UNL A   1      32.900  35.658  29.575  1.00  0.00     0.002 C 
BRANCH   3   4
ATOM      4  C   UNL A   1      33.084  36.604  30.770  1.00  0.00     0.021 C 
BRANCH   4   5
ATOM      5  C   UNL A   1      33.401  35.884  32.080  1.00  0.00     0.116 C 
BRANCH   5   6
ATOM      6  N   UNL A   1      34.833  35.859  32.320  1.00  0.00    -0.355 N 
ATOM      7  C   UNL A   1      35.640  35.021  33.011  1.00  0.00     0.236 C 
ATOM      8  O   UNL A   1      36.803  35.429  33.173  1.00  0.00    -0.274 OA
ATOM      9  H   UNL A   1      35.315  36.604  31.891  1.00  0.00     0.163 HD
BRANCH   7  10
ATOM     10  C   UNL A   1      35.281  33.627  33.501  1.00  0.00     0.193 C 
ATOM     11  C   UNL A   1      40.401  29.351  33.721  1.00  0.00     0.023 C 
ATOM     12  C   UNL A   1      39.579  30.632  33.946  1.00  0.00     0.016 C 
ATOM     13  C   UNL A   1      40.495  31.842  33.710  1.00  0.00     0.023 C 
ATOM     14  C   UNL A   1      38.375  30.639  33.003  1.00  0.00     0.074 C 
ATOM     15  S   UNL A   1      38.972  30.569  35.671  1.00  0.00    -0.150 SA
ATOM     16  C   UNL A   1      37.227  31.606  33.296  1.00  0.00     0.049 C 
ATOM     17  C   UNL A   1      38.108  32.143  35.720  1.00  0.00     0.107 C 
ATOM     18  N   UNL A   1      36.326  31.677  32.366  1.00  0.00    -0.217 NA
ATOM     19  C   UNL A   1      37.171  32.359  34.578  1.00  0.00    -0.019 C 
ATOM     20  C   UNL A   1      35.219  32.485  32.519  1.00  0.00     0.262 C 
ATOM     21  C   UNL A   1      36.218  33.303  34.637  1.00  0.00     0.002 C 
ATOM     22  O   UNL A   1      34.219  32.334  31.822  1.00  0.00    -0.271 OA
ENDBRANCH   7  10
ENDBRANCH   5   6
ENDBRANCH   4   5
ENDBRANCH   3   4
ENDBRANCH   2   3
ENDBRANCH   1   2
BRANCH   1  23
ATOM     23  C   UNL A   1      34.787  32.434  28.389  1.00  0.00     0.116 C 
BRANCH  23  24
ATOM     24  N   UNL A   1      34.110  31.160  28.220  1.00  0.00    -0.352 N 
ATOM     25  C   UNL A   1      34.638  29.909  28.029  1.00  0.00     0.251 C 
ATOM     26  H   UNL A   1      33.127  31.201  28.244  1.00  0.00     0.163 HD
ATOM     27  O   UNL A   1      33.905  28.993  27.665  1.00  0.00    -0.269 OA
BRANCH  25  28
ATOM     28  C   UNL A   1      36.080  29.662  28.251  1.00  0.00     0.039 A 
ATOM     29  C   UNL A   1      36.503  29.248  29.517  1.00  0.00     0.014 A 
ATOM     30  C   UNL A   1      37.019  29.882  27.238  1.00  0.00     0.014 A 
ATOM     31  C   UNL A   1      37.861  29.025  29.755  1.00  0.00     0.010 A 
ATOM     32  C   UNL A   1      38.362  29.585  27.455  1.00  0.00     0.010 A 
ATOM     33  C   UNL A   1      38.801  29.172  28.721  1.00  0.00    -0.014 A 
BRANCH  33  34
ATOM     34  C   UNL A   1      40.244  28.920  28.965  1.00  0.00     0.031 A 
ATOM     35  C   UNL A   1      40.852  27.587  28.612  1.00  0.00     0.074 A 
ATOM     36  C   UNL A   1      41.003  29.880  29.527  1.00  0.00     0.049 A 
ATOM     37  N   UNL A   1      42.087  27.180  28.753  1.00  0.00    -0.248 NA
ATOM     38  C   UNL A   1      39.947  26.569  28.050  1.00  0.00     0.031 C 
ATOM     39  C   UNL A   1      40.517  31.193  29.961  1.00  0.00     0.029 A 
ATOM     40  N   UNL A   1      42.340  29.906  29.832  1.00  0.00    -0.354 N 
ATOM     41  C   UNL A   1      42.107  25.864  28.304  1.00  0.00     0.074 A 
ATOM     42  C   UNL A   1      40.749  25.520  27.946  1.00  0.00     0.031 C 
ATOM     43  C   UNL A   1      41.546  31.905  30.448  1.00  0.00     0.029 A 
ATOM     44  C   UNL A   1      42.756  31.091  30.393  1.00  0.00     0.049 A 
ATOM     45  H   UNL A   1      42.945  29.148  29.665  1.00  0.00     0.167 HD
ATOM     46  C   UNL A   1      43.166  25.028  28.174  1.00  0.00     0.037 A 
ATOM     47  C   UNL A   1      43.976  31.477  30.817  1.00  0.00     0.037 A 
ATOM     48  C   UNL A   1      44.518  25.385  28.515  1.00  0.00     0.049 A 
ATOM     49  C   UNL A   1      45.136  30.531  30.665  1.00  0.00     0.074 A 
ATOM     50  C   UNL A   1      45.669  24.631  28.373  1.00  0.00     0.029 A 
ATOM     51  N   UNL A   1      44.901  26.599  29.069  1.00  0.00    -0.354 N 
ATOM     52  N   UNL A   1      45.150  29.316  30.171  1.00  0.00    -0.248 NA
ATOM     53  C   UNL A   1      46.449  31.011  31.117  1.00  0.00     0.031 C 
ATOM     54  C   UNL A   1      46.742  25.369  28.885  1.00  0.00     0.029 A 
ATOM     55  C   UNL A   1      46.269  26.605  29.296  1.00  0.00     0.049 A 
ATOM     56  H   UNL A   1      44.292  27.345  29.272  1.00  0.00     0.167 HD
ATOM     57  C   UNL A   1      46.474  28.895  30.230  1.00  0.00     0.074 A 
ATOM     58  C   UNL A   1      47.234  29.993  30.792  1.00  0.00     0.031 C 
ATOM     59  C   UNL A   1      47.012  27.709  29.852  1.00  0.00     0.037 A 
BRANCH  46  60
ATOM     60  C   UNL A   1      42.903  23.648  27.632  1.00  0.00     0.058 A 
ATOM     61  C   UNL A   1      43.024  23.358  26.263  1.00  0.00     0.135 A 
ATOM     62  C   UNL A   1      42.562  22.592  28.494  1.00  0.00     0.135 A 
ATOM     63  F   UNL A   1      43.334  24.331  25.391  1.00  0.00    -0.206 F 
ATOM     64  C   UNL A   1      42.785  22.081  25.764  1.00  0.00     0.059 A 
ATOM     65  C   UNL A   1      42.349  21.301  28.021  1.00  0.00     0.059 A 
ATOM     66  F   UNL A   1      42.434  22.810  29.813  1.00  0.00    -0.206 F 
ATOM     67  C   UNL A   1      42.448  21.059  26.652  1.00  0.00     0.060 A 
BRANCH  67  68
ATOM     68  S   UNL A   1      42.148  19.408  25.987  1.00  0.00     0.124 S 
ATOM     69  O   UNL A   1      40.703  19.434  25.784  1.00  0.00    -0.237 OA
ATOM     70  O   UNL A   1      42.957  19.408  24.772  1.00  0.00    -0.237 OA
ATOM     71  O   UNL A   1      42.617  18.523  27.048  1.00  0.00    -0.744 OA
ENDBRANCH  67  68
ENDBRANCH  46  60
BRANCH  47  72
ATOM     72  C   UNL A   1      44.162  32.832  31.404  1.00  0.00     0.058 A 
ATOM     73  C   UNL A   1      44.420  33.944  30.590  1.00  0.00     0.135 A 
ATOM     74  C   UNL A   1      44.070  33.044  32.789  1.00  0.00     0.135 A 
ATOM     75  F   UNL A   1      44.522  33.793  29.260  1.00  0.00    -0.206 F 
ATOM     76  C   UNL A   1      44.598  35.216  31.125  1.00  0.00     0.059 A 
ATOM     77  C   UNL A   1      44.216  34.310  33.346  1.00  0.00     0.059 A 
ATOM     78  F   UNL A   1      43.806  32.017  33.611  1.00  0.00    -0.206 F 
ATOM     79  C   UNL A   1      44.490  35.389  32.507  1.00  0.00     0.060 A 
BRANCH  79  80
ATOM     80  S   UNL A   1      44.675  37.052  33.188  1.00  0.00     0.124 S 
ATOM     81  O   UNL A   1      43.980  36.925  34.463  1.00  0.00    -0.237 OA
ATOM     82  O   UNL A   1      46.126  37.193  33.262  1.00  0.00    -0.237 OA
ATOM     83  O   UNL A   1      44.022  37.897  32.192  1.00  0.00    -0.744 OA
ENDBRANCH  79  80
ENDBRANCH  47  72
BRANCH  59  84
ATOM     84  C   UNL A   1      48.499  27.543  30.006  1.00  0.00     0.058 A 
ATOM     85  C   UNL A   1      49.061  26.934  31.138  1.00  0.00     0.135 A 
ATOM     86  C   UNL A   1      49.368  27.952  28.980  1.00  0.00     0.135 A 
ATOM     87  F   UNL A   1      48.276  26.531  32.149  1.00  0.00    -0.206 F 
ATOM     88  C   UNL A   1      50.436  26.759  31.260  1.00  0.00     0.059 A 
ATOM     89  C   UNL A   1      50.743  27.758  29.068  1.00  0.00     0.059 A 
ATOM     90  F   UNL A   1      48.881  28.529  27.871  1.00  0.00    -0.206 F 
ATOM     91  C   UNL A   1      51.269  27.171  30.217  1.00  0.00     0.060 A 
BRANCH  91  92
ATOM     92  S   UNL A   1      53.048  26.907  30.376  1.00  0.00     0.124 S 
ATOM     93  O   UNL A   1      53.376  26.322  29.080  1.00  0.00    -0.237 OA
ATOM     94  O   UNL A   1      53.545  28.260  30.607  1.00  0.00    -0.237 OA
ATOM     95  O   UNL A   1      53.156  26.004  31.519  1.00  0.00    -0.744 OA
ENDBRANCH  91  92
ENDBRANCH  59  84
ENDBRANCH  33  34
ENDBRANCH  25  28
ENDBRANCH  23  24
ENDBRANCH   1  23
TORSDOF 16
ENDMDL
