MODEL 1
REMARK VINA RESULT:     -10.0      0.000      0.000
REMARK SMILES O=C(NCCCCCCNC(=O)c1ccc(-c2c3nc(c(-c4c(F)cc(S(=O)(=O)[O-])cc4F)c4ccc([nH]4)c(-c4c(F)cc(S(=O)(=O)[O-])cc4F)c4nc(c(-c5c(F)cc(S(=O)(=O)[O-])cc5F)c5ccc2[nH]5)C=C4)C=C3)cc1)C1=CCc2ccccc21
REMARK SMILES IDX 8 1 7 2 6 3 5 4 4 5 3 6 1 7 2 8 79 10 80 11 87 12 81 13
REMARK SMILES IDX 82 14 86 15 83 16 85 17 84 18 9 19 10 20 11 21 12 23 13 24
REMARK SMILES IDX 14 25 78 26 15 27 77 28 16 29 17 30 18 31 71 32 19 33 76 34
REMARK SMILES IDX 70 35 72 36 20 37 75 38 69 39 68 40 21 42 55 43 34 44 54 45
REMARK SMILES IDX 35 46 38 47 53 48 73 49 36 50 37 51 52 53 74 54 39 55 22 56
REMARK SMILES IDX 23 57 32 58 24 59 25 60 31 61 33 62 26 63 27 64 28 65 29 66
REMARK SMILES IDX 30 67 56 68 57 69 66 70 58 71 59 72 65 73 67 74 60 75 61 76
REMARK SMILES IDX 62 77 63 78 64 79 40 80 41 81 50 82 42 83 43 84 49 85 51 86
REMARK SMILES IDX 44 87 45 88 46 89 47 90 48 91
REMARK H PARENT 3 9 10 22 72 41 38 52
REMARK Flexibility Score: inf
ROOT
ATOM      1  C   UNL A   1      33.315  34.131  28.366  1.00  0.00     0.021 C 
ENDROOT
BRANCH   1   2
ATOM      2  C   UNL A   1      33.986  35.481  28.626  1.00  0.00     0.002 C 
BRANCH   2   3
ATOM      3  C   UNL A   1      33.270  36.399  29.629  1.00  0.00     0.002 C 
BRANCH   3   4
ATOM      4  C   UNL A   1      32.610  35.706  30.830  1.00  0.00     0.021 C 
BRANCH   4   5
ATOM      5  C   UNL A   1      33.604  35.299  31.920  1.00  0.00     0.116 C 
BRANCH   5   6
ATOM      6  N   UNL A   1      34.028  33.905  31.873  1.00  0.00    -0.352 N 
ATOM      7  O   UNL A   1      35.391  32.138  32.240  1.00  0.00    -0.269 OA
ATOM      8  C   UNL A   1      35.257  33.356  32.144  1.00  0.00     0.251 C 
ATOM      9  H   UNL A   1      33.330  33.263  31.611  1.00  0.00     0.163 HD
BRANCH   8  10
ATOM     10  C   UNL A   1      36.416  34.269  32.135  1.00  0.00     0.043 C 
ATOM     11  C   UNL A   1      36.902  34.572  33.355  1.00  0.00    -0.008 C 
ATOM     12  C   UNL A   1      37.512  34.348  31.175  1.00  0.00    -0.010 A 
ATOM     13  C   UNL A   1      38.398  34.714  33.344  1.00  0.00     0.064 C 
ATOM     14  C   UNL A   1      38.705  34.485  31.896  1.00  0.00    -0.036 A 
ATOM     15  C   UNL A   1      37.524  34.209  29.796  1.00  0.00     0.009 A 
ATOM     16  C   UNL A   1      39.936  34.355  31.280  1.00  0.00     0.004 A 
ATOM     17  C   UNL A   1      38.766  34.132  29.155  1.00  0.00     0.001 A 
ATOM     18  C   UNL A   1      39.959  34.168  29.896  1.00  0.00     0.000 A 
ENDBRANCH   8  10
ENDBRANCH   5   6
ENDBRANCH   4   5
ENDBRANCH   3   4
ENDBRANCH   2   3
ENDBRANCH   1   2
BRANCH   1  19
ATOM     19  C   UNL A   1      34.260  32.935  28.422  1.00  0.00     0.116 C 
BRANCH  19  20
ATOM     20  N   UNL A   1      33.747  31.807  27.654  1.00  0.00    -0.352 N 
ATOM     21  C   UNL A   1      34.364  30.638  27.302  1.00  0.00     0.251 C 
ATOM     22  H   UNL A   1      32.818  31.901  27.343  1.00  0.00     0.163 HD
ATOM     23  O   UNL A   1      33.872  29.930  26.416  1.00  0.00    -0.269 OA
BRANCH  21  24
ATOM     24  C   UNL A   1      35.607  30.216  27.976  1.00  0.00     0.039 A 
ATOM     25  C   UNL A   1      36.831  30.369  27.319  1.00  0.00     0.014 A 
ATOM     26  C   UNL A   1      35.560  29.629  29.244  1.00  0.00     0.014 A 
ATOM     27  C   UNL A   1      38.011  29.979  27.954  1.00  0.00     0.010 A 
ATOM     28  C   UNL A   1      36.742  29.310  29.905  1.00  0.00     0.010 A 
ATOM     29  C   UNL A   1      37.978  29.470  29.263  1.00  0.00    -0.014 A 
BRANCH  29  30
ATOM     30  C   UNL A   1      39.224  29.092  29.975  1.00  0.00     0.031 A 
ATOM     31  C   UNL A   1      39.630  29.822  31.227  1.00  0.00     0.074 A 
ATOM     32  C   UNL A   1      40.021  28.137  29.456  1.00  0.00     0.049 A 
ATOM     33  N   UNL A   1      40.712  29.686  31.949  1.00  0.00    -0.248 NA
ATOM     34  C   UNL A   1      38.711  30.863  31.716  1.00  0.00     0.031 C 
ATOM     35  C   UNL A   1      39.756  27.392  28.223  1.00  0.00     0.029 A 
ATOM     36  N   UNL A   1      41.221  27.634  29.894  1.00  0.00    -0.354 N 
ATOM     37  C   UNL A   1      40.611  30.630  32.966  1.00  0.00     0.074 A 
ATOM     38  C   UNL A   1      39.389  31.369  32.736  1.00  0.00     0.031 C 
ATOM     39  C   UNL A   1      40.749  26.514  28.016  1.00  0.00     0.029 A 
ATOM     40  C   UNL A   1      41.741  26.658  29.077  1.00  0.00     0.049 A 
ATOM     41  H   UNL A   1      41.666  27.944  30.715  1.00  0.00     0.167 HD
ATOM     42  C   UNL A   1      41.448  30.843  34.008  1.00  0.00     0.037 A 
ATOM     43  C   UNL A   1      42.892  25.965  29.168  1.00  0.00     0.037 A 
ATOM     44  C   UNL A   1      42.650  30.084  34.241  1.00  0.00     0.049 A 
ATOM     45  C   UNL A   1      43.810  26.223  30.333  1.00  0.00     0.074 A 
ATOM     46  C   UNL A   1      43.537  30.179  35.299  1.00  0.00     0.029 A 
ATOM     47  N   UNL A   1      43.136  29.091  33.401  1.00  0.00    -0.354 N 
ATOM     48  N   UNL A   1      43.666  27.074  31.322  1.00  0.00    -0.248 NA
ATOM     49  C   UNL A   1      45.040  25.424  30.400  1.00  0.00     0.031 C 
ATOM     50  C   UNL A   1      44.584  29.279  35.073  1.00  0.00     0.029 A 
ATOM     51  C   UNL A   1      44.322  28.583  33.904  1.00  0.00     0.049 A 
ATOM     52  H   UNL A   1      42.701  28.793  32.570  1.00  0.00     0.167 HD
ATOM     53  C   UNL A   1      44.773  26.891  32.144  1.00  0.00     0.074 A 
ATOM     54  C   UNL A   1      45.570  25.842  31.542  1.00  0.00     0.031 C 
ATOM     55  C   UNL A   1      45.099  27.532  33.294  1.00  0.00     0.037 A 
BRANCH  42  56
ATOM     56  C   UNL A   1      41.096  31.940  34.978  1.00  0.00     0.058 A 
ATOM     57  C   UNL A   1      41.598  33.244  34.832  1.00  0.00     0.135 A 
ATOM     58  C   UNL A   1      40.218  31.694  36.047  1.00  0.00     0.135 A 
ATOM     59  F   UNL A   1      42.452  33.533  33.838  1.00  0.00    -0.206 F 
ATOM     60  C   UNL A   1      41.268  34.255  35.728  1.00  0.00     0.059 A 
ATOM     61  C   UNL A   1      39.850  32.698  36.937  1.00  0.00     0.059 A 
ATOM     62  F   UNL A   1      39.707  30.467  36.234  1.00  0.00    -0.206 F 
ATOM     63  C   UNL A   1      40.393  33.972  36.779  1.00  0.00     0.060 A 
BRANCH  63  64
ATOM     64  S   UNL A   1      39.974  35.298  37.930  1.00  0.00     0.124 S 
ATOM     65  O   UNL A   1      38.741  34.787  38.524  1.00  0.00    -0.237 OA
ATOM     66  O   UNL A   1      41.136  35.326  38.812  1.00  0.00    -0.237 OA
ATOM     67  O   UNL A   1      39.816  36.463  37.066  1.00  0.00    -0.744 OA
ENDBRANCH  63  64
ENDBRANCH  42  56
BRANCH  43  68
ATOM     68  C   UNL A   1      43.229  24.944  28.140  1.00  0.00     0.058 A 
ATOM     69  C   UNL A   1      42.834  23.607  28.294  1.00  0.00     0.135 A 
ATOM     70  C   UNL A   1      43.938  25.285  26.977  1.00  0.00     0.135 A 
ATOM     71  F   UNL A   1      42.158  23.230  29.390  1.00  0.00    -0.206 F 
ATOM     72  C   UNL A   1      43.143  22.641  27.343  1.00  0.00     0.059 A 
ATOM     73  C   UNL A   1      44.236  24.342  25.999  1.00  0.00     0.059 A 
ATOM     74  F   UNL A   1      44.324  26.555  26.771  1.00  0.00    -0.206 F 
ATOM     75  C   UNL A   1      43.843  23.019  26.196  1.00  0.00     0.060 A 
BRANCH  75  76
ATOM     76  S   UNL A   1      44.199  21.766  24.947  1.00  0.00     0.124 S 
ATOM     77  O   UNL A   1      43.851  22.468  23.718  1.00  0.00    -0.237 OA
ATOM     78  O   UNL A   1      45.621  21.516  25.160  1.00  0.00    -0.237 OA
ATOM     79  O   UNL A   1      43.316  20.663  25.316  1.00  0.00    -0.744 OA
ENDBRANCH  75  76
ENDBRANCH  43  68
BRANCH  55  80
ATOM     80  C   UNL A   1      46.353  27.094  33.999  1.00  0.00     0.058 A 
ATOM     81  C   UNL A   1      47.602  27.668  33.713  1.00  0.00     0.135 A 
ATOM     82  C   UNL A   1      46.294  26.124  35.013  1.00  0.00     0.135 A 
ATOM     83  F   UNL A   1      47.715  28.593  32.748  1.00  0.00    -0.206 F 
ATOM     84  C   UNL A   1      48.752  27.277  34.390  1.00  0.00     0.059 A 
ATOM     85  C   UNL A   1      47.426  25.740  35.724  1.00  0.00     0.059 A 
ATOM     86  F   UNL A   1      45.122  25.552  35.334  1.00  0.00    -0.206 F 
ATOM     87  C   UNL A   1      48.654  26.314  35.397  1.00  0.00     0.060 A 
BRANCH  87  88
ATOM     88  S   UNL A   1      50.148  25.842  36.292  1.00  0.00     0.124 S 
ATOM     89  O   UNL A   1      49.833  24.474  36.689  1.00  0.00    -0.237 OA
ATOM     90  O   UNL A   1      51.181  25.984  35.271  1.00  0.00    -0.237 OA
ATOM     91  O   UNL A   1      50.213  26.813  37.380  1.00  0.00    -0.744 OA
ENDBRANCH  87  88
ENDBRANCH  55  80
ENDBRANCH  29  30
ENDBRANCH  21  24
ENDBRANCH  19  20
ENDBRANCH   1  19
TORSDOF 16
ENDMDL
MODEL 2
REMARK VINA RESULT:      -9.9      4.500     11.901
REMARK SMILES O=C(NCCCCCCNC(=O)c1ccc(-c2c3nc(c(-c4c(F)cc(S(=O)(=O)[O-])cc4F)c4ccc([nH]4)c(-c4c(F)cc(S(=O)(=O)[O-])cc4F)c4nc(c(-c5c(F)cc(S(=O)(=O)[O-])cc5F)c5ccc2[nH]5)C=C4)C=C3)cc1)C1=CCc2ccccc21
REMARK SMILES IDX 8 1 7 2 6 3 5 4 4 5 3 6 1 7 2 8 79 10 80 11 87 12 81 13
REMARK SMILES IDX 82 14 86 15 83 16 85 17 84 18 9 19 10 20 11 21 12 23 13 24
REMARK SMILES IDX 14 25 78 26 15 27 77 28 16 29 17 30 18 31 71 32 19 33 76 34
REMARK SMILES IDX 70 35 72 36 20 37 75 38 69 39 68 40 21 42 55 43 34 44 54 45
REMARK SMILES IDX 35 46 38 47 53 48 73 49 36 50 37 51 52 53 74 54 39 55 22 56
REMARK SMILES IDX 23 57 32 58 24 59 25 60 31 61 33 62 26 63 27 64 28 65 29 66
REMARK SMILES IDX 30 67 56 68 57 69 66 70 58 71 59 72 65 73 67 74 60 75 61 76
REMARK SMILES IDX 62 77 63 78 64 79 40 80 41 81 50 82 42 83 43 84 49 85 51 86
REMARK SMILES IDX 44 87 45 88 46 89 47 90 48 91
REMARK H PARENT 3 9 10 22 72 41 38 52
REMARK Flexibility Score: inf
ROOT
ATOM      1  C   UNL A   1      40.885  20.293  27.155  1.00  0.00     0.021 C 
ENDROOT
BRANCH   1   2
ATOM      2  C   UNL A   1      42.217  19.552  27.025  1.00  0.00     0.002 C 
BRANCH   2   3
ATOM      3  C   UNL A   1      42.669  19.239  25.590  1.00  0.00     0.002 C 
BRANCH   3   4
ATOM      4  C   UNL A   1      44.182  19.077  25.377  1.00  0.00     0.021 C 
BRANCH   4   5
ATOM      5  C   UNL A   1      44.850  20.325  24.795  1.00  0.00     0.116 C 
BRANCH   5   6
ATOM      6  N   UNL A   1      43.983  21.491  24.686  1.00  0.00    -0.352 N 
ATOM      7  O   UNL A   1      43.369  23.652  24.950  1.00  0.00    -0.269 OA
ATOM      8  C   UNL A   1      44.082  22.715  25.302  1.00  0.00     0.251 C 
ATOM      9  H   UNL A   1      43.213  21.386  24.082  1.00  0.00     0.163 HD
BRANCH   8  10
ATOM     10  C   UNL A   1      44.941  22.796  26.499  1.00  0.00     0.043 C 
ATOM     11  C   UNL A   1      46.158  23.333  26.282  1.00  0.00    -0.008 C 
ATOM     12  C   UNL A   1      44.561  23.066  27.881  1.00  0.00    -0.010 A 
ATOM     13  C   UNL A   1      46.623  24.158  27.450  1.00  0.00     0.064 C 
ATOM     14  C   UNL A   1      45.488  23.975  28.410  1.00  0.00    -0.036 A 
ATOM     15  C   UNL A   1      43.458  22.664  28.617  1.00  0.00     0.009 A 
ATOM     16  C   UNL A   1      45.268  24.601  29.623  1.00  0.00     0.004 A 
ATOM     17  C   UNL A   1      43.255  23.250  29.871  1.00  0.00     0.001 A 
ATOM     18  C   UNL A   1      44.133  24.237  30.352  1.00  0.00     0.000 A 
ENDBRANCH   8  10
ENDBRANCH   5   6
ENDBRANCH   4   5
ENDBRANCH   3   4
ENDBRANCH   2   3
ENDBRANCH   1   2
BRANCH   1  19
ATOM     19  C   UNL A   1      40.724  21.472  26.200  1.00  0.00     0.116 C 
BRANCH  19  20
ATOM     20  N   UNL A   1      39.322  21.728  25.894  1.00  0.00    -0.352 N 
ATOM     21  C   UNL A   1      38.540  22.804  26.218  1.00  0.00     0.251 C 
ATOM     22  H   UNL A   1      38.871  21.022  25.377  1.00  0.00     0.163 HD
ATOM     23  O   UNL A   1      37.311  22.716  26.119  1.00  0.00    -0.269 OA
BRANCH  21  24
ATOM     24  C   UNL A   1      39.155  24.064  26.676  1.00  0.00     0.039 A 
ATOM     25  C   UNL A   1      39.073  24.417  28.025  1.00  0.00     0.014 A 
ATOM     26  C   UNL A   1      39.779  24.920  25.762  1.00  0.00     0.014 A 
ATOM     27  C   UNL A   1      39.659  25.605  28.466  1.00  0.00     0.010 A 
ATOM     28  C   UNL A   1      40.426  26.065  26.216  1.00  0.00     0.010 A 
ATOM     29  C   UNL A   1      40.364  26.426  27.569  1.00  0.00    -0.014 A 
BRANCH  29  30
ATOM     30  C   UNL A   1      41.034  27.669  28.024  1.00  0.00     0.031 A 
ATOM     31  C   UNL A   1      42.529  27.804  27.916  1.00  0.00     0.074 A 
ATOM     32  C   UNL A   1      40.302  28.646  28.596  1.00  0.00     0.049 A 
ATOM     33  N   UNL A   1      43.301  28.779  28.321  1.00  0.00    -0.248 NA
ATOM     34  C   UNL A   1      43.253  26.683  27.296  1.00  0.00     0.031 C 
ATOM     35  C   UNL A   1      38.852  28.608  28.798  1.00  0.00     0.029 A 
ATOM     36  N   UNL A   1      40.677  29.858  29.120  1.00  0.00    -0.354 N 
ATOM     37  C   UNL A   1      44.601  28.383  28.019  1.00  0.00     0.074 A 
ATOM     38  C   UNL A   1      44.516  27.057  27.447  1.00  0.00     0.031 C 
ATOM     39  C   UNL A   1      38.458  29.752  29.380  1.00  0.00     0.029 A 
ATOM     40  C   UNL A   1      39.628  30.587  29.629  1.00  0.00     0.049 A 
ATOM     41  H   UNL A   1      41.609  30.174  29.130  1.00  0.00     0.167 HD
ATOM     42  C   UNL A   1      45.754  29.073  28.181  1.00  0.00     0.037 A 
ATOM     43  C   UNL A   1      39.614  31.789  30.237  1.00  0.00     0.037 A 
ATOM     44  C   UNL A   1      45.824  30.403  28.730  1.00  0.00     0.049 A 
ATOM     45  C   UNL A   1      40.909  32.535  30.411  1.00  0.00     0.074 A 
ATOM     46  C   UNL A   1      46.934  31.214  28.883  1.00  0.00     0.029 A 
ATOM     47  N   UNL A   1      44.738  31.116  29.219  1.00  0.00    -0.354 N 
ATOM     48  N   UNL A   1      42.121  32.174  30.059  1.00  0.00    -0.248 NA
ATOM     49  C   UNL A   1      40.837  33.852  31.057  1.00  0.00     0.031 C 
ATOM     50  C   UNL A   1      46.528  32.397  29.510  1.00  0.00     0.029 A 
ATOM     51  C   UNL A   1      45.156  32.347  29.696  1.00  0.00     0.049 A 
ATOM     52  H   UNL A   1      43.808  30.794  29.226  1.00  0.00     0.167 HD
ATOM     53  C   UNL A   1      42.951  33.233  30.414  1.00  0.00     0.074 A 
ATOM     54  C   UNL A   1      42.100  34.250  30.997  1.00  0.00     0.031 C 
ATOM     55  C   UNL A   1      44.294  33.352  30.268  1.00  0.00     0.037 A 
BRANCH  42  56
ATOM     56  C   UNL A   1      47.036  28.404  27.761  1.00  0.00     0.058 A 
ATOM     57  C   UNL A   1      47.777  27.605  28.648  1.00  0.00     0.135 A 
ATOM     58  C   UNL A   1      47.513  28.535  26.447  1.00  0.00     0.135 A 
ATOM     59  F   UNL A   1      47.377  27.457  29.921  1.00  0.00    -0.206 F 
ATOM     60  C   UNL A   1      48.960  26.987  28.255  1.00  0.00     0.059 A 
ATOM     61  C   UNL A   1      48.677  27.900  26.024  1.00  0.00     0.059 A 
ATOM     62  F   UNL A   1      46.845  29.285  25.557  1.00  0.00    -0.206 F 
ATOM     63  C   UNL A   1      49.402  27.141  26.941  1.00  0.00     0.060 A 
BRANCH  63  64
ATOM     64  S   UNL A   1      50.937  26.328  26.448  1.00  0.00     0.124 S 
ATOM     65  O   UNL A   1      50.776  25.010  27.055  1.00  0.00    -0.237 OA
ATOM     66  O   UNL A   1      50.859  26.368  24.991  1.00  0.00    -0.237 OA
ATOM     67  O   UNL A   1      51.973  27.168  27.041  1.00  0.00    -0.744 OA
ENDBRANCH  63  64
ENDBRANCH  42  56
BRANCH  43  68
ATOM     68  C   UNL A   1      38.326  32.372  30.702  1.00  0.00     0.058 A 
ATOM     69  C   UNL A   1      37.498  33.085  29.823  1.00  0.00     0.135 A 
ATOM     70  C   UNL A   1      37.890  32.215  32.027  1.00  0.00     0.135 A 
ATOM     71  F   UNL A   1      37.873  33.266  28.547  1.00  0.00    -0.206 F 
ATOM     72  C   UNL A   1      36.293  33.638  30.243  1.00  0.00     0.059 A 
ATOM     73  C   UNL A   1      36.677  32.736  32.464  1.00  0.00     0.059 A 
ATOM     74  F   UNL A   1      38.636  31.525  32.904  1.00  0.00    -0.206 F 
ATOM     75  C   UNL A   1      35.889  33.456  31.566  1.00  0.00     0.060 A 
BRANCH  75  76
ATOM     76  S   UNL A   1      34.302  34.138  32.089  1.00  0.00     0.124 S 
ATOM     77  O   UNL A   1      33.707  33.001  32.782  1.00  0.00    -0.237 OA
ATOM     78  O   UNL A   1      34.712  35.257  32.931  1.00  0.00    -0.237 OA
ATOM     79  O   UNL A   1      33.666  34.513  30.829  1.00  0.00    -0.744 OA
ENDBRANCH  75  76
ENDBRANCH  43  68
BRANCH  55  80
ATOM     80  C   UNL A   1      44.926  34.642  30.713  1.00  0.00     0.058 A 
ATOM     81  C   UNL A   1      45.041  35.746  29.854  1.00  0.00     0.135 A 
ATOM     82  C   UNL A   1      45.374  34.792  32.036  1.00  0.00     0.135 A 
ATOM     83  F   UNL A   1      44.636  35.653  28.578  1.00  0.00    -0.206 F 
ATOM     84  C   UNL A   1      45.601  36.944  30.283  1.00  0.00     0.059 A 
ATOM     85  C   UNL A   1      45.909  35.991  32.495  1.00  0.00     0.059 A 
ATOM     86  F   UNL A   1      45.277  33.771  32.903  1.00  0.00    -0.206 F 
ATOM     87  C   UNL A   1      46.030  37.059  31.607  1.00  0.00     0.060 A 
BRANCH  87  88
ATOM     88  S   UNL A   1      46.721  38.631  32.160  1.00  0.00     0.124 S 
ATOM     89  O   UNL A   1      45.891  38.923  33.326  1.00  0.00    -0.237 OA
ATOM     90  O   UNL A   1      48.109  38.279  32.443  1.00  0.00    -0.237 OA
ATOM     91  O   UNL A   1      46.524  39.512  31.013  1.00  0.00    -0.744 OA
ENDBRANCH  87  88
ENDBRANCH  55  80
ENDBRANCH  29  30
ENDBRANCH  21  24
ENDBRANCH  19  20
ENDBRANCH   1  19
TORSDOF 16
ENDMDL
MODEL 3
REMARK VINA RESULT:      -9.9      2.686      3.913
REMARK SMILES O=C(NCCCCCCNC(=O)c1ccc(-c2c3nc(c(-c4c(F)cc(S(=O)(=O)[O-])cc4F)c4ccc([nH]4)c(-c4c(F)cc(S(=O)(=O)[O-])cc4F)c4nc(c(-c5c(F)cc(S(=O)(=O)[O-])cc5F)c5ccc2[nH]5)C=C4)C=C3)cc1)C1=CCc2ccccc21
REMARK SMILES IDX 8 1 7 2 6 3 5 4 4 5 3 6 1 7 2 8 79 10 80 11 87 12 81 13
REMARK SMILES IDX 82 14 86 15 83 16 85 17 84 18 9 19 10 20 11 21 12 23 13 24
REMARK SMILES IDX 14 25 78 26 15 27 77 28 16 29 17 30 18 31 71 32 19 33 76 34
REMARK SMILES IDX 70 35 72 36 20 37 75 38 69 39 68 40 21 42 55 43 34 44 54 45
REMARK SMILES IDX 35 46 38 47 53 48 73 49 36 50 37 51 52 53 74 54 39 55 22 56
REMARK SMILES IDX 23 57 32 58 24 59 25 60 31 61 33 62 26 63 27 64 28 65 29 66
REMARK SMILES IDX 30 67 56 68 57 69 66 70 58 71 59 72 65 73 67 74 60 75 61 76
REMARK SMILES IDX 62 77 63 78 64 79 40 80 41 81 50 82 42 83 43 84 49 85 51 86
REMARK SMILES IDX 44 87 45 88 46 89 47 90 48 91
REMARK H PARENT 3 9 10 22 72 41 38 52
REMARK Flexibility Score: inf
ROOT
ATOM      1  C   UNL A   1      35.146  33.384  28.164  1.00  0.00     0.021 C 
ENDROOT
BRANCH   1   2
ATOM      2  C   UNL A   1      36.664  33.309  27.996  1.00  0.00     0.002 C 
BRANCH   2   3
ATOM      3  C   UNL A   1      37.467  33.082  29.287  1.00  0.00     0.002 C 
BRANCH   3   4
ATOM      4  C   UNL A   1      38.263  34.287  29.809  1.00  0.00     0.021 C 
BRANCH   4   5
ATOM      5  C   UNL A   1      38.356  34.339  31.336  1.00  0.00     0.116 C 
BRANCH   5   6
ATOM      6  N   UNL A   1      37.245  35.015  31.995  1.00  0.00    -0.352 N 
ATOM      7  O   UNL A   1      35.735  35.411  33.631  1.00  0.00    -0.269 OA
ATOM      8  C   UNL A   1      36.514  34.629  33.092  1.00  0.00     0.251 C 
ATOM      9  H   UNL A   1      36.982  35.875  31.596  1.00  0.00     0.163 HD
BRANCH   8  10
ATOM     10  C   UNL A   1      36.575  33.204  33.471  1.00  0.00     0.043 C 
ATOM     11  C   UNL A   1      35.727  32.405  32.794  1.00  0.00    -0.008 C 
ATOM     12  C   UNL A   1      37.735  32.411  33.865  1.00  0.00    -0.010 A 
ATOM     13  C   UNL A   1      36.324  31.051  32.527  1.00  0.00     0.064 C 
ATOM     14  C   UNL A   1      37.654  31.177  33.205  1.00  0.00    -0.036 A 
ATOM     15  C   UNL A   1      38.838  32.735  34.639  1.00  0.00     0.009 A 
ATOM     16  C   UNL A   1      38.721  30.299  33.193  1.00  0.00     0.004 A 
ATOM     17  C   UNL A   1      39.902  31.827  34.678  1.00  0.00     0.001 A 
ATOM     18  C   UNL A   1      39.858  30.637  33.932  1.00  0.00     0.000 A 
ENDBRANCH   8  10
ENDBRANCH   5   6
ENDBRANCH   4   5
ENDBRANCH   3   4
ENDBRANCH   2   3
ENDBRANCH   1   2
BRANCH   1  19
ATOM     19  C   UNL A   1      34.563  32.340  29.111  1.00  0.00     0.116 C 
BRANCH  19  20
ATOM     20  N   UNL A   1      34.019  31.199  28.385  1.00  0.00    -0.352 N 
ATOM     21  C   UNL A   1      34.667  30.134  27.821  1.00  0.00     0.251 C 
ATOM     22  H   UNL A   1      33.040  31.194  28.286  1.00  0.00     0.163 HD
ATOM     23  O   UNL A   1      34.072  29.418  27.008  1.00  0.00    -0.269 OA
BRANCH  21  24
ATOM     24  C   UNL A   1      36.066  29.833  28.182  1.00  0.00     0.039 A 
ATOM     25  C   UNL A   1      36.356  29.359  29.464  1.00  0.00     0.014 A 
ATOM     26  C   UNL A   1      37.098  30.059  27.266  1.00  0.00     0.014 A 
ATOM     27  C   UNL A   1      37.677  29.065  29.810  1.00  0.00     0.010 A 
ATOM     28  C   UNL A   1      38.402  29.696  27.588  1.00  0.00     0.010 A 
ATOM     29  C   UNL A   1      38.707  29.206  28.866  1.00  0.00    -0.014 A 
BRANCH  29  30
ATOM     30  C   UNL A   1      40.111  28.857  29.197  1.00  0.00     0.031 A 
ATOM     31  C   UNL A   1      40.999  29.865  29.875  1.00  0.00     0.074 A 
ATOM     32  C   UNL A   1      40.602  27.658  28.826  1.00  0.00     0.049 A 
ATOM     33  N   UNL A   1      42.268  29.773  30.182  1.00  0.00    -0.248 NA
ATOM     34  C   UNL A   1      40.389  31.156  30.230  1.00  0.00     0.031 C 
ATOM     35  C   UNL A   1      39.849  26.618  28.121  1.00  0.00     0.029 A 
ATOM     36  N   UNL A   1      41.852  27.113  28.980  1.00  0.00    -0.354 N 
ATOM     37  C   UNL A   1      42.610  30.996  30.751  1.00  0.00     0.074 A 
ATOM     38  C   UNL A   1      41.430  31.831  30.697  1.00  0.00     0.031 C 
ATOM     39  C   UNL A   1      40.643  25.554  27.925  1.00  0.00     0.029 A 
ATOM     40  C   UNL A   1      41.972  25.849  28.453  1.00  0.00     0.049 A 
ATOM     41  H   UNL A   1      42.592  27.584  29.427  1.00  0.00     0.167 HD
ATOM     42  C   UNL A   1      43.791  31.376  31.291  1.00  0.00     0.037 A 
ATOM     43  C   UNL A   1      43.035  25.025  28.395  1.00  0.00     0.037 A 
ATOM     44  C   UNL A   1      44.953  30.527  31.361  1.00  0.00     0.049 A 
ATOM     45  C   UNL A   1      44.340  25.472  28.997  1.00  0.00     0.074 A 
ATOM     46  C   UNL A   1      46.181  30.794  31.940  1.00  0.00     0.029 A 
ATOM     47  N   UNL A   1      45.031  29.246  30.832  1.00  0.00    -0.354 N 
ATOM     48  N   UNL A   1      44.627  26.607  29.590  1.00  0.00    -0.248 NA
ATOM     49  C   UNL A   1      45.463  24.527  28.928  1.00  0.00     0.031 C 
ATOM     50  C   UNL A   1      47.017  29.695  31.718  1.00  0.00     0.029 A 
ATOM     51  C   UNL A   1      46.293  28.720  31.050  1.00  0.00     0.049 A 
ATOM     52  H   UNL A   1      44.297  28.781  30.370  1.00  0.00     0.167 HD
ATOM     53  C   UNL A   1      45.954  26.500  29.992  1.00  0.00     0.074 A 
ATOM     54  C   UNL A   1      46.408  25.186  29.584  1.00  0.00     0.031 C 
ATOM     55  C   UNL A   1      46.727  27.406  30.643  1.00  0.00     0.037 A 
BRANCH  42  56
ATOM     56  C   UNL A   1      43.890  32.771  31.849  1.00  0.00     0.058 A 
ATOM     57  C   UNL A   1      43.559  33.058  33.184  1.00  0.00     0.135 A 
ATOM     58  C   UNL A   1      44.352  33.830  31.049  1.00  0.00     0.135 A 
ATOM     59  F   UNL A   1      43.098  32.089  33.990  1.00  0.00    -0.206 F 
ATOM     60  C   UNL A   1      43.654  34.348  33.696  1.00  0.00     0.059 A 
ATOM     61  C   UNL A   1      44.483  35.122  31.550  1.00  0.00     0.059 A 
ATOM     62  F   UNL A   1      44.682  33.614  29.767  1.00  0.00    -0.206 F 
ATOM     63  C   UNL A   1      44.117  35.374  32.871  1.00  0.00     0.060 A 
BRANCH  63  64
ATOM     64  S   UNL A   1      44.236  37.041  33.553  1.00  0.00     0.124 S 
ATOM     65  O   UNL A   1      43.000  37.127  34.326  1.00  0.00    -0.237 OA
ATOM     66  O   UNL A   1      45.467  36.972  34.334  1.00  0.00    -0.237 OA
ATOM     67  O   UNL A   1      44.294  37.892  32.368  1.00  0.00    -0.744 OA
ENDBRANCH  63  64
ENDBRANCH  42  56
BRANCH  43  68
ATOM     68  C   UNL A   1      42.903  23.684  27.763  1.00  0.00     0.058 A 
ATOM     69  C   UNL A   1      43.124  23.508  26.390  1.00  0.00     0.135 A 
ATOM     70  C   UNL A   1      42.568  22.550  28.521  1.00  0.00     0.135 A 
ATOM     71  F   UNL A   1      43.442  24.562  25.622  1.00  0.00    -0.206 F 
ATOM     72  C   UNL A   1      43.002  22.262  25.784  1.00  0.00     0.059 A 
ATOM     73  C   UNL A   1      42.466  21.289  27.943  1.00  0.00     0.059 A 
ATOM     74  F   UNL A   1      42.363  22.660  29.843  1.00  0.00    -0.206 F 
ATOM     75  C   UNL A   1      42.675  21.156  26.571  1.00  0.00     0.060 A 
BRANCH  75  76
ATOM     76  S   UNL A   1      42.564  19.536  25.783  1.00  0.00     0.124 S 
ATOM     77  O   UNL A   1      42.985  18.654  26.865  1.00  0.00    -0.237 OA
ATOM     78  O   UNL A   1      41.153  19.471  25.416  1.00  0.00    -0.237 OA
ATOM     79  O   UNL A   1      43.491  19.645  24.660  1.00  0.00    -0.744 OA
ENDBRANCH  75  76
ENDBRANCH  43  68
BRANCH  55  80
ATOM     80  C   UNL A   1      48.132  26.998  30.986  1.00  0.00     0.058 A 
ATOM     81  C   UNL A   1      48.422  26.228  32.123  1.00  0.00     0.135 A 
ATOM     82  C   UNL A   1      49.197  27.337  30.135  1.00  0.00     0.135 A 
ATOM     83  F   UNL A   1      47.443  25.883  32.974  1.00  0.00    -0.206 F 
ATOM     84  C   UNL A   1      49.722  25.830  32.418  1.00  0.00     0.059 A 
ATOM     85  C   UNL A   1      50.500  26.924  30.394  1.00  0.00     0.059 A 
ATOM     86  F   UNL A   1      48.973  28.063  29.028  1.00  0.00    -0.206 F 
ATOM     87  C   UNL A   1      50.754  26.180  31.546  1.00  0.00     0.060 A 
BRANCH  87  88
ATOM     88  S   UNL A   1      52.430  25.626  31.921  1.00  0.00     0.124 S 
ATOM     89  O   UNL A   1      52.221  24.204  32.171  1.00  0.00    -0.237 OA
ATOM     90  O   UNL A   1      53.149  25.955  30.693  1.00  0.00    -0.237 OA
ATOM     91  O   UNL A   1      52.799  26.422  33.088  1.00  0.00    -0.744 OA
ENDBRANCH  87  88
ENDBRANCH  55  80
ENDBRANCH  29  30
ENDBRANCH  21  24
ENDBRANCH  19  20
ENDBRANCH   1  19
TORSDOF 16
ENDMDL
