MODEL 1
REMARK VINA RESULT:     -11.6      0.000      0.000
REMARK SMILES O=C(NCCCCCCNC(=O)c1ccccc1Nc1cccc(C(F)(F)F)c1)c1ccc(-c2c3nc(c(-c4c(F)cc(S(=O)(=O)[O-])cc4F)c4ccc([nH]4)c(-c4c(F)cc(S(=O)(=O)[O-])cc4F)c4nc(c(-c5c(F)cc(S(=O)(=O)[O-])cc5F)c5ccc2[nH]5)C=C4)C=C3)cc1
REMARK SMILES IDX 6 1 5 2 4 3 3 4 1 5 2 6 30 8 31 9 95 10 32 11 94 12 33 13
REMARK SMILES IDX 34 14 35 15 88 16 36 17 93 18 87 19 89 20 37 21 92 22 86 23
REMARK SMILES IDX 85 24 38 26 72 27 51 28 71 29 52 30 55 31 70 32 90 33 53 34
REMARK SMILES IDX 54 35 69 37 91 38 56 39 39 40 40 41 49 42 41 43 42 44 48 45
REMARK SMILES IDX 50 46 43 47 44 48 45 49 46 50 47 51 73 52 74 53 83 54 75 55
REMARK SMILES IDX 76 56 82 57 84 58 77 59 78 60 79 61 80 62 81 63 57 64 58 65
REMARK SMILES IDX 67 66 59 67 60 68 66 69 68 70 61 71 62 72 63 73 64 74 65 75
REMARK SMILES IDX 7 76 8 77 9 78 10 79 11 80 12 82 13 83 14 84 18 85 15 86
REMARK SMILES IDX 17 87 16 88 19 89 20 91 21 92 29 93 22 94 24 95 23 96 25 97
REMARK SMILES IDX 26 98 27 99 28 100
REMARK H PARENT 3 7 89 25 55 36 10 81 19 90
REMARK Flexibility Score: inf
ROOT
ATOM      1  C   UNL A   1      33.483  29.553  26.541  1.00  0.00     0.002 C 
ENDROOT
BRANCH   1   2
ATOM      2  C   UNL A   1      34.707  29.314  27.426  1.00  0.00     0.021 C 
BRANCH   2   3
ATOM      3  C   UNL A   1      35.490  30.570  27.796  1.00  0.00     0.116 C 
BRANCH   3   4
ATOM      4  N   UNL A   1      35.356  30.907  29.202  1.00  0.00    -0.352 N 
ATOM      5  O   UNL A   1      35.886  30.895  31.392  1.00  0.00    -0.269 OA
ATOM      6  C   UNL A   1      36.245  30.715  30.230  1.00  0.00     0.251 C 
ATOM      7  H   UNL A   1      34.506  31.334  29.455  1.00  0.00     0.163 HD
BRANCH   6   8
ATOM      8  C   UNL A   1      37.625  30.272  29.938  1.00  0.00     0.039 A 
ATOM      9  C   UNL A   1      38.438  29.741  30.945  1.00  0.00     0.014 A 
ATOM     10  C   UNL A   1      38.102  30.375  28.629  1.00  0.00     0.014 A 
ATOM     11  C   UNL A   1      39.764  29.423  30.669  1.00  0.00     0.010 A 
ATOM     12  C   UNL A   1      39.412  29.986  28.340  1.00  0.00     0.010 A 
ATOM     13  C   UNL A   1      40.260  29.529  29.362  1.00  0.00    -0.014 A 
BRANCH  13  14
ATOM     14  C   UNL A   1      41.650  29.115  29.046  1.00  0.00     0.031 A 
ATOM     15  C   UNL A   1      42.766  30.122  29.045  1.00  0.00     0.074 A 
ATOM     16  C   UNL A   1      41.892  27.834  28.710  1.00  0.00     0.049 A 
ATOM     17  N   UNL A   1      44.013  29.970  28.683  1.00  0.00    -0.248 NA
ATOM     18  C   UNL A   1      42.430  31.479  29.500  1.00  0.00     0.031 C 
ATOM     19  C   UNL A   1      40.887  26.769  28.677  1.00  0.00     0.029 A 
ATOM     20  N   UNL A   1      43.048  27.214  28.312  1.00  0.00    -0.354 N 
ATOM     21  C   UNL A   1      44.609  31.216  28.840  1.00  0.00     0.074 A 
ATOM     22  C   UNL A   1      43.576  32.118  29.307  1.00  0.00     0.031 C 
ATOM     23  C   UNL A   1      41.468  25.630  28.280  1.00  0.00     0.029 A 
ATOM     24  C   UNL A   1      42.869  25.895  27.968  1.00  0.00     0.049 A 
ATOM     25  H   UNL A   1      43.920  27.668  28.277  1.00  0.00     0.167 HD
ATOM     26  C   UNL A   1      45.898  31.570  28.616  1.00  0.00     0.037 A 
ATOM     27  C   UNL A   1      43.721  25.006  27.422  1.00  0.00     0.037 A 
ATOM     28  C   UNL A   1      46.911  30.659  28.147  1.00  0.00     0.049 A 
ATOM     29  C   UNL A   1      45.134  25.427  27.138  1.00  0.00     0.074 A 
ATOM     30  C   UNL A   1      48.253  30.907  27.918  1.00  0.00     0.029 A 
ATOM     31  N   UNL A   1      46.691  29.327  27.817  1.00  0.00    -0.354 N 
ATOM     32  N   UNL A   1      45.693  26.600  27.321  1.00  0.00    -0.248 NA
ATOM     33  C   UNL A   1      46.034  24.411  26.578  1.00  0.00     0.031 C 
ATOM     34  C   UNL A   1      48.830  29.746  27.394  1.00  0.00     0.029 A 
ATOM     35  C   UNL A   1      47.866  28.751  27.362  1.00  0.00     0.049 A 
ATOM     36  H   UNL A   1      45.827  28.863  27.895  1.00  0.00     0.167 HD
ATOM     37  C   UNL A   1      47.019  26.455  26.931  1.00  0.00     0.074 A 
ATOM     38  C   UNL A   1      47.177  25.082  26.496  1.00  0.00     0.031 C 
ATOM     39  C   UNL A   1      48.014  27.375  26.945  1.00  0.00     0.037 A 
BRANCH  26  40
ATOM     40  C   UNL A   1      46.271  33.014  28.833  1.00  0.00     0.058 A 
ATOM     41  C   UNL A   1      46.736  33.488  30.071  1.00  0.00     0.135 A 
ATOM     42  C   UNL A   1      46.160  33.942  27.783  1.00  0.00     0.135 A 
ATOM     43  F   UNL A   1      46.857  32.650  31.113  1.00  0.00    -0.206 F 
ATOM     44  C   UNL A   1      47.022  34.834  30.276  1.00  0.00     0.059 A 
ATOM     45  C   UNL A   1      46.473  35.287  27.955  1.00  0.00     0.059 A 
ATOM     46  F   UNL A   1      45.731  33.548  26.574  1.00  0.00    -0.206 F 
ATOM     47  C   UNL A   1      46.878  35.728  29.214  1.00  0.00     0.060 A 
BRANCH  47  48
ATOM     48  S   UNL A   1      47.200  37.480  29.511  1.00  0.00     0.124 S 
ATOM     49  O   UNL A   1      47.963  37.840  28.319  1.00  0.00    -0.237 OA
ATOM     50  O   UNL A   1      45.854  38.037  29.591  1.00  0.00    -0.237 OA
ATOM     51  O   UNL A   1      47.954  37.481  30.761  1.00  0.00    -0.744 OA
ENDBRANCH  47  48
ENDBRANCH  26  40
BRANCH  27  52
ATOM     52  C   UNL A   1      43.233  23.638  27.110  1.00  0.00     0.058 A 
ATOM     53  C   UNL A   1      42.920  23.264  25.797  1.00  0.00     0.135 A 
ATOM     54  C   UNL A   1      43.156  22.653  28.109  1.00  0.00     0.135 A 
ATOM     55  F   UNL A   1      42.974  24.171  24.810  1.00  0.00    -0.206 F 
ATOM     56  C   UNL A   1      42.556  21.959  25.480  1.00  0.00     0.059 A 
ATOM     57  C   UNL A   1      42.820  21.336  27.813  1.00  0.00     0.059 A 
ATOM     58  F   UNL A   1      43.464  22.958  29.379  1.00  0.00    -0.206 F 
ATOM     59  C   UNL A   1      42.522  20.999  26.494  1.00  0.00     0.060 A 
BRANCH  59  60
ATOM     60  S   UNL A   1      42.144  19.289  26.052  1.00  0.00     0.124 S 
ATOM     61  O   UNL A   1      42.998  19.090  24.887  1.00  0.00    -0.237 OA
ATOM     62  O   UNL A   1      42.535  18.570  27.261  1.00  0.00    -0.237 OA
ATOM     63  O   UNL A   1      40.709  19.319  25.786  1.00  0.00    -0.744 OA
ENDBRANCH  59  60
ENDBRANCH  27  52
BRANCH  39  64
ATOM     64  C   UNL A   1      49.391  26.929  26.533  1.00  0.00     0.058 A 
ATOM     65  C   UNL A   1      50.278  26.322  27.435  1.00  0.00     0.135 A 
ATOM     66  C   UNL A   1      49.782  27.021  25.187  1.00  0.00     0.135 A 
ATOM     67  F   UNL A   1      49.959  26.222  28.734  1.00  0.00    -0.206 F 
ATOM     68  C   UNL A   1      51.505  25.818  27.014  1.00  0.00     0.059 A 
ATOM     69  C   UNL A   1      50.992  26.499  24.740  1.00  0.00     0.059 A 
ATOM     70  F   UNL A   1      48.968  27.589  24.284  1.00  0.00    -0.206 F 
ATOM     71  C   UNL A   1      51.847  25.899  25.662  1.00  0.00     0.060 A 
BRANCH  71  72
ATOM     72  S   UNL A   1      53.403  25.165  25.116  1.00  0.00     0.124 S 
ATOM     73  O   UNL A   1      54.357  25.771  26.040  1.00  0.00    -0.237 OA
ATOM     74  O   UNL A   1      53.157  23.739  25.303  1.00  0.00    -0.237 OA
ATOM     75  O   UNL A   1      53.516  25.598  23.726  1.00  0.00    -0.744 OA
ENDBRANCH  71  72
ENDBRANCH  39  64
ENDBRANCH  13  14
ENDBRANCH   6   8
ENDBRANCH   3   4
ENDBRANCH   2   3
ENDBRANCH   1   2
BRANCH   1  76
ATOM     76  C   UNL A   1      32.133  29.520  27.263  1.00  0.00     0.002 C 
BRANCH  76  77
ATOM     77  C   UNL A   1      31.538  28.126  27.492  1.00  0.00     0.021 C 
BRANCH  77  78
ATOM     78  C   UNL A   1      31.697  27.154  26.326  1.00  0.00     0.116 C 
BRANCH  78  79
ATOM     79  N   UNL A   1      31.242  25.815  26.662  1.00  0.00    -0.352 N 
ATOM     80  C   UNL A   1      31.269  24.680  25.894  1.00  0.00     0.253 C 
ATOM     81  H   UNL A   1      30.863  25.709  27.565  1.00  0.00     0.163 HD
ATOM     82  O   UNL A   1      30.733  23.651  26.300  1.00  0.00    -0.269 OA
BRANCH  80  83
ATOM     83  C   UNL A   1      31.918  24.688  24.566  1.00  0.00     0.063 A 
ATOM     84  C   UNL A   1      31.156  25.211  23.508  1.00  0.00     0.016 A 
ATOM     85  C   UNL A   1      33.208  24.166  24.344  1.00  0.00     0.051 A 
ATOM     86  C   UNL A   1      31.689  25.268  22.223  1.00  0.00     0.001 A 
ATOM     87  C   UNL A   1      33.726  24.255  23.041  1.00  0.00     0.027 A 
ATOM     88  C   UNL A   1      32.977  24.798  21.992  1.00  0.00     0.002 A 
BRANCH  85  89
ATOM     89  N   UNL A   1      33.971  23.599  25.386  1.00  0.00    -0.355 N 
ATOM     90  H   UNL A   1      33.517  23.582  26.260  1.00  0.00     0.167 HD
BRANCH  89  91
ATOM     91  C   UNL A   1      35.267  23.054  25.394  1.00  0.00     0.039 A 
ATOM     92  C   UNL A   1      35.511  21.866  24.696  1.00  0.00     0.026 A 
ATOM     93  C   UNL A   1      36.344  23.688  26.025  1.00  0.00     0.039 A 
ATOM     94  C   UNL A   1      36.797  21.328  24.622  1.00  0.00     0.003 A 
ATOM     95  C   UNL A   1      37.643  23.156  25.970  1.00  0.00     0.058 A 
ATOM     96  C   UNL A   1      37.860  21.972  25.253  1.00  0.00     0.013 A 
BRANCH  95  97
ATOM     97  C   UNL A   1      38.796  23.851  26.652  1.00  0.00     0.416 C 
ATOM     98  F   UNL A   1      39.380  24.794  25.868  1.00  0.00    -0.166 F 
ATOM     99  F   UNL A   1      38.412  24.487  27.794  1.00  0.00    -0.166 F 
ATOM    100  F   UNL A   1      39.795  23.001  27.021  1.00  0.00    -0.166 F 
ENDBRANCH  95  97
ENDBRANCH  89  91
ENDBRANCH  85  89
ENDBRANCH  80  83
ENDBRANCH  78  79
ENDBRANCH  77  78
ENDBRANCH  76  77
ENDBRANCH   1  76
TORSDOF 19
ENDMDL
MODEL 2
REMARK VINA RESULT:     -11.5      3.214      4.146
REMARK SMILES O=C(NCCCCCCNC(=O)c1ccccc1Nc1cccc(C(F)(F)F)c1)c1ccc(-c2c3nc(c(-c4c(F)cc(S(=O)(=O)[O-])cc4F)c4ccc([nH]4)c(-c4c(F)cc(S(=O)(=O)[O-])cc4F)c4nc(c(-c5c(F)cc(S(=O)(=O)[O-])cc5F)c5ccc2[nH]5)C=C4)C=C3)cc1
REMARK SMILES IDX 6 1 5 2 4 3 3 4 1 5 2 6 30 8 31 9 95 10 32 11 94 12 33 13
REMARK SMILES IDX 34 14 35 15 88 16 36 17 93 18 87 19 89 20 37 21 92 22 86 23
REMARK SMILES IDX 85 24 38 26 72 27 51 28 71 29 52 30 55 31 70 32 90 33 53 34
REMARK SMILES IDX 54 35 69 37 91 38 56 39 39 40 40 41 49 42 41 43 42 44 48 45
REMARK SMILES IDX 50 46 43 47 44 48 45 49 46 50 47 51 73 52 74 53 83 54 75 55
REMARK SMILES IDX 76 56 82 57 84 58 77 59 78 60 79 61 80 62 81 63 57 64 58 65
REMARK SMILES IDX 67 66 59 67 60 68 66 69 68 70 61 71 62 72 63 73 64 74 65 75
REMARK SMILES IDX 7 76 8 77 9 78 10 79 11 80 12 82 13 83 14 84 18 85 15 86
REMARK SMILES IDX 17 87 16 88 19 89 20 91 21 92 29 93 22 94 24 95 23 96 25 97
REMARK SMILES IDX 26 98 27 99 28 100
REMARK H PARENT 3 7 89 25 55 36 10 81 19 90
REMARK Flexibility Score: inf
ROOT
ATOM      1  C   UNL A   1      31.653  27.726  25.693  1.00  0.00     0.002 C 
ENDROOT
BRANCH   1   2
ATOM      2  C   UNL A   1      33.129  27.950  25.360  1.00  0.00     0.021 C 
BRANCH   2   3
ATOM      3  C   UNL A   1      34.010  28.311  26.553  1.00  0.00     0.116 C 
BRANCH   3   4
ATOM      4  N   UNL A   1      33.736  29.645  27.056  1.00  0.00    -0.352 N 
ATOM      5  O   UNL A   1      34.020  31.465  28.353  1.00  0.00    -0.269 OA
ATOM      6  C   UNL A   1      34.497  30.436  27.880  1.00  0.00     0.251 C 
ATOM      7  H   UNL A   1      32.882  30.039  26.766  1.00  0.00     0.163 HD
BRANCH   6   8
ATOM      8  C   UNL A   1      35.881  30.037  28.212  1.00  0.00     0.039 A 
ATOM      9  C   UNL A   1      36.205  29.559  29.486  1.00  0.00     0.014 A 
ATOM     10  C   UNL A   1      36.864  30.127  27.223  1.00  0.00     0.014 A 
ATOM     11  C   UNL A   1      37.532  29.281  29.806  1.00  0.00     0.010 A 
ATOM     12  C   UNL A   1      38.181  29.778  27.526  1.00  0.00     0.010 A 
ATOM     13  C   UNL A   1      38.530  29.375  28.825  1.00  0.00    -0.014 A 
BRANCH  13  14
ATOM     14  C   UNL A   1      39.932  29.005  29.139  1.00  0.00     0.031 A 
ATOM     15  C   UNL A   1      40.886  30.024  29.695  1.00  0.00     0.074 A 
ATOM     16  C   UNL A   1      40.356  27.755  28.871  1.00  0.00     0.049 A 
ATOM     17  N   UNL A   1      42.171  29.916  29.919  1.00  0.00    -0.248 NA
ATOM     18  C   UNL A   1      40.324  31.340  30.031  1.00  0.00     0.031 C 
ATOM     19  C   UNL A   1      39.518  26.682  28.331  1.00  0.00     0.029 A 
ATOM     20  N   UNL A   1      41.594  27.181  28.995  1.00  0.00    -0.354 N 
ATOM     21  C   UNL A   1      42.578  31.155  30.398  1.00  0.00     0.074 A 
ATOM     22  C   UNL A   1      41.407  32.007  30.408  1.00  0.00     0.031 C 
ATOM     23  C   UNL A   1      40.266  25.582  28.168  1.00  0.00     0.029 A 
ATOM     24  C   UNL A   1      41.646  25.888  28.530  1.00  0.00     0.049 A 
ATOM     25  H   UNL A   1      42.370  27.648  29.379  1.00  0.00     0.167 HD
ATOM     26  C   UNL A   1      43.816  31.542  30.794  1.00  0.00     0.037 A 
ATOM     27  C   UNL A   1      42.690  25.053  28.370  1.00  0.00     0.037 A 
ATOM     28  C   UNL A   1      44.972  30.681  30.773  1.00  0.00     0.049 A 
ATOM     29  C   UNL A   1      44.062  25.513  28.771  1.00  0.00     0.074 A 
ATOM     30  C   UNL A   1      46.263  30.964  31.182  1.00  0.00     0.029 A 
ATOM     31  N   UNL A   1      44.980  29.374  30.302  1.00  0.00    -0.354 N 
ATOM     32  N   UNL A   1      44.429  26.677  29.252  1.00  0.00    -0.248 NA
ATOM     33  C   UNL A   1      45.161  24.553  28.613  1.00  0.00     0.031 C 
ATOM     34  C   UNL A   1      47.064  29.852  30.903  1.00  0.00     0.029 A 
ATOM     35  C   UNL A   1      46.259  28.848  30.385  1.00  0.00     0.049 A 
ATOM     36  H   UNL A   1      44.193  28.893  29.958  1.00  0.00     0.167 HD
ATOM     37  C   UNL A   1      45.795  26.578  29.488  1.00  0.00     0.074 A 
ATOM     38  C   UNL A   1      46.191  25.243  29.089  1.00  0.00     0.031 C 
ATOM     39  C   UNL A   1      46.638  27.509  29.998  1.00  0.00     0.037 A 
BRANCH  26  40
ATOM     40  C   UNL A   1      43.989  32.971  31.239  1.00  0.00     0.058 A 
ATOM     41  C   UNL A   1      44.337  33.996  30.343  1.00  0.00     0.135 A 
ATOM     42  C   UNL A   1      43.804  33.323  32.587  1.00  0.00     0.135 A 
ATOM     43  F   UNL A   1      44.533  33.720  29.043  1.00  0.00    -0.206 F 
ATOM     44  C   UNL A   1      44.550  35.301  30.775  1.00  0.00     0.059 A 
ATOM     45  C   UNL A   1      43.978  34.629  33.036  1.00  0.00     0.059 A 
ATOM     46  F   UNL A   1      43.462  32.390  33.489  1.00  0.00    -0.206 F 
ATOM     47  C   UNL A   1      44.378  35.606  32.126  1.00  0.00     0.060 A 
BRANCH  47  48
ATOM     48  S   UNL A   1      44.712  37.291  32.680  1.00  0.00     0.124 S 
ATOM     49  O   UNL A   1      43.460  37.629  33.352  1.00  0.00    -0.237 OA
ATOM     50  O   UNL A   1      45.868  37.112  33.552  1.00  0.00    -0.237 OA
ATOM     51  O   UNL A   1      44.971  38.014  31.438  1.00  0.00    -0.744 OA
ENDBRANCH  47  48
ENDBRANCH  26  40
BRANCH  27  52
ATOM     52  C   UNL A   1      42.453  23.705  27.793  1.00  0.00     0.058 A 
ATOM     53  C   UNL A   1      42.376  23.514  26.407  1.00  0.00     0.135 A 
ATOM     54  C   UNL A   1      42.387  22.567  28.616  1.00  0.00     0.135 A 
ATOM     55  F   UNL A   1      42.429  24.570  25.581  1.00  0.00    -0.206 F 
ATOM     56  C   UNL A   1      42.252  22.243  25.854  1.00  0.00     0.059 A 
ATOM     57  C   UNL A   1      42.290  21.286  28.086  1.00  0.00     0.059 A 
ATOM     58  F   UNL A   1      42.475  22.697  29.949  1.00  0.00    -0.206 F 
ATOM     59  C   UNL A   1      42.223  21.135  26.701  1.00  0.00     0.060 A 
BRANCH  59  60
ATOM     60  S   UNL A   1      42.161  19.486  25.966  1.00  0.00     0.124 S 
ATOM     61  O   UNL A   1      40.749  19.371  25.619  1.00  0.00    -0.237 OA
ATOM     62  O   UNL A   1      43.085  19.620  24.843  1.00  0.00    -0.237 OA
ATOM     63  O   UNL A   1      42.620  18.618  27.045  1.00  0.00    -0.744 OA
ENDBRANCH  59  60
ENDBRANCH  27  52
BRANCH  39  64
ATOM     64  C   UNL A   1      48.073  27.112  30.218  1.00  0.00     0.058 A 
ATOM     65  C   UNL A   1      49.071  27.368  29.266  1.00  0.00     0.135 A 
ATOM     66  C   UNL A   1      48.464  26.561  31.449  1.00  0.00     0.135 A 
ATOM     67  F   UNL A   1      48.749  27.881  28.069  1.00  0.00    -0.206 F 
ATOM     68  C   UNL A   1      50.410  27.093  29.529  1.00  0.00     0.059 A 
ATOM     69  C   UNL A   1      49.800  26.304  31.743  1.00  0.00     0.059 A 
ATOM     70  F   UNL A   1      47.549  26.300  32.395  1.00  0.00    -0.206 F 
ATOM     71  C   UNL A   1      50.766  26.573  30.777  1.00  0.00     0.060 A 
BRANCH  71  72
ATOM     72  S   UNL A   1      52.514  26.303  31.135  1.00  0.00     0.124 S 
ATOM     73  O   UNL A   1      52.841  27.485  31.926  1.00  0.00    -0.237 OA
ATOM     74  O   UNL A   1      52.491  25.039  31.864  1.00  0.00    -0.237 OA
ATOM     75  O   UNL A   1      53.129  26.244  29.811  1.00  0.00    -0.744 OA
ENDBRANCH  71  72
ENDBRANCH  39  64
ENDBRANCH  13  14
ENDBRANCH   6   8
ENDBRANCH   3   4
ENDBRANCH   2   3
ENDBRANCH   1   2
BRANCH   1  76
ATOM     76  C   UNL A   1      30.710  27.660  24.487  1.00  0.00     0.002 C 
BRANCH  76  77
ATOM     77  C   UNL A   1      29.770  26.450  24.447  1.00  0.00     0.021 C 
BRANCH  77  78
ATOM     78  C   UNL A   1      30.462  25.090  24.489  1.00  0.00     0.116 C 
BRANCH  78  79
ATOM     79  N   UNL A   1      30.389  24.478  25.806  1.00  0.00    -0.352 N 
ATOM     80  C   UNL A   1      31.331  23.727  26.459  1.00  0.00     0.253 C 
ATOM     81  H   UNL A   1      29.546  24.622  26.295  1.00  0.00     0.163 HD
ATOM     82  O   UNL A   1      31.054  23.188  27.528  1.00  0.00    -0.269 OA
BRANCH  80  83
ATOM     83  C   UNL A   1      32.676  23.538  25.875  1.00  0.00     0.063 A 
ATOM     84  C   UNL A   1      33.592  24.583  26.081  1.00  0.00     0.016 A 
ATOM     85  C   UNL A   1      33.025  22.404  25.113  1.00  0.00     0.051 A 
ATOM     86  C   UNL A   1      34.886  24.489  25.575  1.00  0.00     0.001 A 
ATOM     87  C   UNL A   1      34.343  22.329  24.633  1.00  0.00     0.027 A 
ATOM     88  C   UNL A   1      35.264  23.358  24.859  1.00  0.00     0.002 A 
BRANCH  85  89
ATOM     89  N   UNL A   1      32.106  21.365  24.860  1.00  0.00    -0.355 N 
ATOM     90  H   UNL A   1      31.193  21.541  25.187  1.00  0.00     0.167 HD
BRANCH  89  91
ATOM     91  C   UNL A   1      32.265  20.123  24.223  1.00  0.00     0.039 A 
ATOM     92  C   UNL A   1      32.165  20.054  22.829  1.00  0.00     0.026 A 
ATOM     93  C   UNL A   1      32.581  18.954  24.926  1.00  0.00     0.039 A 
ATOM     94  C   UNL A   1      32.385  18.852  22.153  1.00  0.00     0.003 A 
ATOM     95  C   UNL A   1      32.795  17.734  24.263  1.00  0.00     0.058 A 
ATOM     96  C   UNL A   1      32.702  17.697  22.866  1.00  0.00     0.013 A 
BRANCH  95  97
ATOM     97  C   UNL A   1      33.139  16.482  25.033  1.00  0.00     0.416 C 
ATOM     98  F   UNL A   1      33.784  16.743  26.200  1.00  0.00    -0.166 F 
ATOM     99  F   UNL A   1      32.033  15.757  25.360  1.00  0.00    -0.166 F 
ATOM    100  F   UNL A   1      33.948  15.630  24.341  1.00  0.00    -0.166 F 
ENDBRANCH  95  97
ENDBRANCH  89  91
ENDBRANCH  85  89
ENDBRANCH  80  83
ENDBRANCH  78  79
ENDBRANCH  77  78
ENDBRANCH  76  77
ENDBRANCH   1  76
TORSDOF 19
ENDMDL
MODEL 3
REMARK VINA RESULT:     -11.4      2.329      3.431
REMARK SMILES O=C(NCCCCCCNC(=O)c1ccccc1Nc1cccc(C(F)(F)F)c1)c1ccc(-c2c3nc(c(-c4c(F)cc(S(=O)(=O)[O-])cc4F)c4ccc([nH]4)c(-c4c(F)cc(S(=O)(=O)[O-])cc4F)c4nc(c(-c5c(F)cc(S(=O)(=O)[O-])cc5F)c5ccc2[nH]5)C=C4)C=C3)cc1
REMARK SMILES IDX 6 1 5 2 4 3 3 4 1 5 2 6 30 8 31 9 95 10 32 11 94 12 33 13
REMARK SMILES IDX 34 14 35 15 88 16 36 17 93 18 87 19 89 20 37 21 92 22 86 23
REMARK SMILES IDX 85 24 38 26 72 27 51 28 71 29 52 30 55 31 70 32 90 33 53 34
REMARK SMILES IDX 54 35 69 37 91 38 56 39 39 40 40 41 49 42 41 43 42 44 48 45
REMARK SMILES IDX 50 46 43 47 44 48 45 49 46 50 47 51 73 52 74 53 83 54 75 55
REMARK SMILES IDX 76 56 82 57 84 58 77 59 78 60 79 61 80 62 81 63 57 64 58 65
REMARK SMILES IDX 67 66 59 67 60 68 66 69 68 70 61 71 62 72 63 73 64 74 65 75
REMARK SMILES IDX 7 76 8 77 9 78 10 79 11 80 12 82 13 83 14 84 18 85 15 86
REMARK SMILES IDX 17 87 16 88 19 89 20 91 21 92 29 93 22 94 24 95 23 96 25 97
REMARK SMILES IDX 26 98 27 99 28 100
REMARK H PARENT 3 7 89 25 55 36 10 81 19 90
REMARK Flexibility Score: inf
ROOT
ATOM      1  C   UNL A   1      32.814  28.199  26.995  1.00  0.00     0.002 C 
ENDROOT
BRANCH   1   2
ATOM      2  C   UNL A   1      34.016  29.058  26.602  1.00  0.00     0.021 C 
BRANCH   2   3
ATOM      3  C   UNL A   1      35.210  28.966  27.548  1.00  0.00     0.116 C 
BRANCH   3   4
ATOM      4  N   UNL A   1      35.147  29.953  28.612  1.00  0.00    -0.352 N 
ATOM      5  O   UNL A   1      35.843  31.072  30.439  1.00  0.00    -0.269 OA
ATOM      6  C   UNL A   1      36.129  30.358  29.480  1.00  0.00     0.251 C 
ATOM      7  H   UNL A   1      34.275  30.394  28.728  1.00  0.00     0.163 HD
BRANCH   6   8
ATOM      8  C   UNL A   1      37.525  29.919  29.271  1.00  0.00     0.039 A 
ATOM      9  C   UNL A   1      38.314  29.494  30.346  1.00  0.00     0.014 A 
ATOM     10  C   UNL A   1      38.042  29.915  27.974  1.00  0.00     0.014 A 
ATOM     11  C   UNL A   1      39.654  29.178  30.140  1.00  0.00     0.010 A 
ATOM     12  C   UNL A   1      39.367  29.527  27.760  1.00  0.00     0.010 A 
ATOM     13  C   UNL A   1      40.189  29.178  28.844  1.00  0.00    -0.014 A 
BRANCH  13  14
ATOM     14  C   UNL A   1      41.595  28.766  28.609  1.00  0.00     0.031 A 
ATOM     15  C   UNL A   1      42.702  29.782  28.618  1.00  0.00     0.074 A 
ATOM     16  C   UNL A   1      41.862  27.475  28.335  1.00  0.00     0.049 A 
ATOM     17  N   UNL A   1      43.966  29.627  28.320  1.00  0.00    -0.248 NA
ATOM     18  C   UNL A   1      42.336  31.153  29.002  1.00  0.00     0.031 C 
ATOM     19  C   UNL A   1      40.867  26.400  28.299  1.00  0.00     0.029 A 
ATOM     20  N   UNL A   1      43.040  26.850  28.016  1.00  0.00    -0.354 N 
ATOM     21  C   UNL A   1      44.544  30.884  28.454  1.00  0.00     0.074 A 
ATOM     22  C   UNL A   1      43.485  31.794  28.837  1.00  0.00     0.031 C 
ATOM     23  C   UNL A   1      41.475  25.251  27.975  1.00  0.00     0.029 A 
ATOM     24  C   UNL A   1      42.887  25.516  27.717  1.00  0.00     0.049 A 
ATOM     25  H   UNL A   1      43.909  27.310  28.002  1.00  0.00     0.167 HD
ATOM     26  C   UNL A   1      45.840  31.241  28.275  1.00  0.00     0.037 A 
ATOM     27  C   UNL A   1      43.769  24.615  27.246  1.00  0.00     0.037 A 
ATOM     28  C   UNL A   1      46.881  30.321  27.889  1.00  0.00     0.049 A 
ATOM     29  C   UNL A   1      45.191  25.037  27.011  1.00  0.00     0.074 A 
ATOM     30  C   UNL A   1      48.230  30.573  27.713  1.00  0.00     0.029 A 
ATOM     31  N   UNL A   1      46.686  28.976  27.603  1.00  0.00    -0.354 N 
ATOM     32  N   UNL A   1      45.732  26.222  27.171  1.00  0.00    -0.248 NA
ATOM     33  C   UNL A   1      46.123  24.009  26.533  1.00  0.00     0.031 C 
ATOM     34  C   UNL A   1      48.839  29.397  27.262  1.00  0.00     0.029 A 
ATOM     35  C   UNL A   1      47.884  28.392  27.226  1.00  0.00     0.049 A 
ATOM     36  H   UNL A   1      45.823  28.506  27.660  1.00  0.00     0.167 HD
ATOM     37  C   UNL A   1      47.076  26.073  26.849  1.00  0.00     0.074 A 
ATOM     38  C   UNL A   1      47.264  24.686  26.477  1.00  0.00     0.031 C 
ATOM     39  C   UNL A   1      48.062  27.003  26.871  1.00  0.00     0.037 A 
BRANCH  26  40
ATOM     40  C   UNL A   1      46.192  32.696  28.450  1.00  0.00     0.058 A 
ATOM     41  C   UNL A   1      46.485  33.247  29.709  1.00  0.00     0.135 A 
ATOM     42  C   UNL A   1      46.235  33.556  27.340  1.00  0.00     0.135 A 
ATOM     43  F   UNL A   1      46.453  32.476  30.809  1.00  0.00    -0.206 F 
ATOM     44  C   UNL A   1      46.751  34.603  29.867  1.00  0.00     0.059 A 
ATOM     45  C   UNL A   1      46.534  34.909  27.469  1.00  0.00     0.059 A 
ATOM     46  F   UNL A   1      45.974  33.085  26.110  1.00  0.00    -0.206 F 
ATOM     47  C   UNL A   1      46.763  35.429  28.742  1.00  0.00     0.060 A 
BRANCH  47  48
ATOM     48  S   UNL A   1      47.057  37.195  28.970  1.00  0.00     0.124 S 
ATOM     49  O   UNL A   1      48.490  37.217  29.250  1.00  0.00    -0.237 OA
ATOM     50  O   UNL A   1      46.656  37.749  27.681  1.00  0.00    -0.237 OA
ATOM     51  O   UNL A   1      46.194  37.542  30.095  1.00  0.00    -0.744 OA
ENDBRANCH  47  48
ENDBRANCH  26  40
BRANCH  27  52
ATOM     52  C   UNL A   1      43.307  23.231  26.967  1.00  0.00     0.058 A 
ATOM     53  C   UNL A   1      43.185  22.760  25.654  1.00  0.00     0.135 A 
ATOM     54  C   UNL A   1      43.062  22.326  28.014  1.00  0.00     0.135 A 
ATOM     55  F   UNL A   1      43.403  23.588  24.621  1.00  0.00    -0.206 F 
ATOM     56  C   UNL A   1      42.847  21.437  25.384  1.00  0.00     0.059 A 
ATOM     57  C   UNL A   1      42.748  20.993  27.770  1.00  0.00     0.059 A 
ATOM     58  F   UNL A   1      43.183  22.725  29.289  1.00  0.00    -0.206 F 
ATOM     59  C   UNL A   1      42.644  20.559  26.449  1.00  0.00     0.060 A 
BRANCH  59  60
ATOM     60  S   UNL A   1      42.302  18.823  26.084  1.00  0.00     0.124 S 
ATOM     61  O   UNL A   1      42.652  18.182  27.346  1.00  0.00    -0.237 OA
ATOM     62  O   UNL A   1      40.879  18.855  25.758  1.00  0.00    -0.237 OA
ATOM     63  O   UNL A   1      43.188  18.534  24.961  1.00  0.00    -0.744 OA
ENDBRANCH  59  60
ENDBRANCH  27  52
BRANCH  39  64
ATOM     64  C   UNL A   1      49.460  26.553  26.541  1.00  0.00     0.058 A 
ATOM     65  C   UNL A   1      49.961  26.580  25.231  1.00  0.00     0.135 A 
ATOM     66  C   UNL A   1      50.339  26.189  27.575  1.00  0.00     0.135 A 
ATOM     67  F   UNL A   1      49.159  26.908  24.206  1.00  0.00    -0.206 F 
ATOM     68  C   UNL A   1      51.288  26.264  24.958  1.00  0.00     0.059 A 
ATOM     69  C   UNL A   1      51.676  25.896  27.326  1.00  0.00     0.059 A 
ATOM     70  F   UNL A   1      49.910  26.152  28.845  1.00  0.00    -0.206 F 
ATOM     71  C   UNL A   1      52.142  25.936  26.014  1.00  0.00     0.060 A 
BRANCH  71  72
ATOM     72  S   UNL A   1      53.881  25.612  25.655  1.00  0.00     0.124 S 
ATOM     73  O   UNL A   1      53.784  24.570  24.638  1.00  0.00    -0.237 OA
ATOM     74  O   UNL A   1      54.350  26.913  25.188  1.00  0.00    -0.237 OA
ATOM     75  O   UNL A   1      54.421  25.183  26.942  1.00  0.00    -0.744 OA
ENDBRANCH  71  72
ENDBRANCH  39  64
ENDBRANCH  13  14
ENDBRANCH   6   8
ENDBRANCH   3   4
ENDBRANCH   2   3
ENDBRANCH   1   2
BRANCH   1  76
ATOM     76  C   UNL A   1      32.577  26.962  26.123  1.00  0.00     0.002 C 
BRANCH  76  77
ATOM     77  C   UNL A   1      31.203  26.298  26.274  1.00  0.00     0.021 C 
BRANCH  77  78
ATOM     78  C   UNL A   1      31.212  24.773  26.228  1.00  0.00     0.116 C 
BRANCH  78  79
ATOM     79  N   UNL A   1      30.505  24.256  25.068  1.00  0.00    -0.352 N 
ATOM     80  C   UNL A   1      31.007  23.587  23.982  1.00  0.00     0.253 C 
ATOM     81  H   UNL A   1      29.532  24.407  25.061  1.00  0.00     0.163 HD
ATOM     82  O   UNL A   1      30.275  23.321  23.032  1.00  0.00    -0.269 OA
BRANCH  80  83
ATOM     83  C   UNL A   1      32.434  23.201  23.933  1.00  0.00     0.063 A 
ATOM     84  C   UNL A   1      32.826  22.168  24.801  1.00  0.00     0.016 A 
ATOM     85  C   UNL A   1      33.372  23.849  23.104  1.00  0.00     0.051 A 
ATOM     86  C   UNL A   1      34.148  21.732  24.818  1.00  0.00     0.001 A 
ATOM     87  C   UNL A   1      34.693  23.373  23.128  1.00  0.00     0.027 A 
ATOM     88  C   UNL A   1      35.079  22.328  23.974  1.00  0.00     0.002 A 
BRANCH  85  89
ATOM     89  N   UNL A   1      33.005  24.914  22.256  1.00  0.00    -0.355 N 
ATOM     90  H   UNL A   1      32.859  24.656  21.317  1.00  0.00     0.167 HD
BRANCH  89  91
ATOM     91  C   UNL A   1      32.810  26.281  22.518  1.00  0.00     0.039 A 
ATOM     92  C   UNL A   1      33.926  27.110  22.680  1.00  0.00     0.026 A 
ATOM     93  C   UNL A   1      31.537  26.862  22.564  1.00  0.00     0.039 A 
ATOM     94  C   UNL A   1      33.776  28.485  22.873  1.00  0.00     0.003 A 
ATOM     95  C   UNL A   1      31.367  28.242  22.768  1.00  0.00     0.058 A 
ATOM     96  C   UNL A   1      32.502  29.050  22.914  1.00  0.00     0.013 A 
BRANCH  95  97
ATOM     97  C   UNL A   1      29.989  28.857  22.812  1.00  0.00     0.416 C 
ATOM     98  F   UNL A   1      29.690  29.558  21.688  1.00  0.00    -0.166 F 
ATOM     99  F   UNL A   1      29.011  27.919  22.950  1.00  0.00    -0.166 F 
ATOM    100  F   UNL A   1      29.820  29.724  23.850  1.00  0.00    -0.166 F 
ENDBRANCH  95  97
ENDBRANCH  89  91
ENDBRANCH  85  89
ENDBRANCH  80  83
ENDBRANCH  78  79
ENDBRANCH  77  78
ENDBRANCH  76  77
ENDBRANCH   1  76
TORSDOF 19
ENDMDL
