MODEL 1
REMARK VINA RESULT:     -10.8      0.000      0.000
REMARK SMILES CC1=C(C(=O)NCCCCCCNC(=O)c2ccc(-c3c4nc(c(-c5c(F)cc(S(=O)(=O)[O-])cc5F)c5ccc([nH]5)c(-c5c(F)cc(S(=O)(=O)[O-])cc5F)c5nc(c(-c6c(F)cc(S(=O)(=O)[O-])cc6F)c6ccc3[nH]6)C=C5)C=C4)cc2)C(C)(C)CCC1
REMARK SMILES IDX 11 1 10 2 9 3 8 4 7 5 6 6 4 7 5 8 3 10 1 11 2 12 87 13 82 14
REMARK SMILES IDX 86 15 83 16 84 17 85 18 12 19 13 20 14 21 15 23 16 24 17 25
REMARK SMILES IDX 81 26 18 27 80 28 19 29 20 30 21 31 74 32 22 33 79 34 73 35
REMARK SMILES IDX 75 36 23 37 78 38 72 39 71 40 24 42 58 43 37 44 57 45 38 46
REMARK SMILES IDX 41 47 56 48 76 49 39 50 40 51 55 53 77 54 42 55 25 56 26 57
REMARK SMILES IDX 35 58 27 59 28 60 34 61 36 62 29 63 30 64 31 65 32 66 33 67
REMARK SMILES IDX 59 68 60 69 69 70 61 71 62 72 68 73 70 74 63 75 64 76 65 77
REMARK SMILES IDX 66 78 67 79 43 80 44 81 53 82 45 83 46 84 52 85 54 86 47 87
REMARK SMILES IDX 48 88 49 89 50 90 51 91
REMARK H PARENT 6 9 13 22 75 41 41 52
REMARK Flexibility Score: inf
ROOT
ATOM      1  C   UNL A   1      32.167  27.686  27.132  1.00  0.00     0.021 C 
ENDROOT
BRANCH   1   2
ATOM      2  C   UNL A   1      32.156  26.304  26.476  1.00  0.00     0.002 C 
BRANCH   2   3
ATOM      3  C   UNL A   1      30.857  25.863  25.794  1.00  0.00     0.002 C 
BRANCH   3   4
ATOM      4  C   UNL A   1      30.256  24.514  26.209  1.00  0.00     0.021 C 
BRANCH   4   5
ATOM      5  C   UNL A   1      31.202  23.515  26.870  1.00  0.00     0.116 C 
BRANCH   5   6
ATOM      6  N   UNL A   1      31.212  22.190  26.287  1.00  0.00    -0.352 N 
ATOM      7  C   UNL A   1      32.120  21.570  25.473  1.00  0.00     0.247 C 
ATOM      8  O   UNL A   1      31.938  20.371  25.261  1.00  0.00    -0.270 OA
ATOM      9  H   UNL A   1      30.430  21.638  26.517  1.00  0.00     0.163 HD
BRANCH   7  10
ATOM     10  C   UNL A   1      33.214  22.334  24.752  1.00  0.00     0.021 C 
ATOM     11  C   UNL A   1      31.672  23.492  23.082  1.00  0.00     0.040 C 
ATOM     12  C   UNL A   1      33.009  23.049  23.616  1.00  0.00    -0.064 C 
ATOM     13  C   UNL A   1      34.148  23.572  22.759  1.00  0.00     0.031 C 
ATOM     14  C   UNL A   1      34.599  22.360  25.466  1.00  0.00    -0.005 C 
ATOM     15  C   UNL A   1      35.536  23.182  23.243  1.00  0.00     0.005 C 
ATOM     16  C   UNL A   1      34.507  22.903  26.916  1.00  0.00     0.016 C 
ATOM     17  C   UNL A   1      35.221  20.951  25.510  1.00  0.00     0.016 C 
ATOM     18  C   UNL A   1      35.589  23.328  24.751  1.00  0.00     0.012 C 
ENDBRANCH   7  10
ENDBRANCH   5   6
ENDBRANCH   4   5
ENDBRANCH   3   4
ENDBRANCH   2   3
ENDBRANCH   1   2
BRANCH   1  19
ATOM     19  C   UNL A   1      33.528  28.364  27.258  1.00  0.00     0.116 C 
BRANCH  19  20
ATOM     20  N   UNL A   1      33.437  29.776  27.584  1.00  0.00    -0.352 N 
ATOM     21  C   UNL A   1      34.379  30.612  28.135  1.00  0.00     0.251 C 
ATOM     22  H   UNL A   1      32.571  30.198  27.381  1.00  0.00     0.163 HD
ATOM     23  O   UNL A   1      34.069  31.755  28.448  1.00  0.00    -0.269 OA
BRANCH  21  24
ATOM     24  C   UNL A   1      35.759  30.127  28.379  1.00  0.00     0.039 A 
ATOM     25  C   UNL A   1      36.667  30.131  27.317  1.00  0.00     0.014 A 
ATOM     26  C   UNL A   1      36.157  29.665  29.636  1.00  0.00     0.014 A 
ATOM     27  C   UNL A   1      37.989  29.733  27.531  1.00  0.00     0.010 A 
ATOM     28  C   UNL A   1      37.494  29.341  29.866  1.00  0.00     0.010 A 
ATOM     29  C   UNL A   1      38.424  29.369  28.816  1.00  0.00    -0.014 A 
BRANCH  29  30
ATOM     30  C   UNL A   1      39.847  29.021  29.078  1.00  0.00     0.031 A 
ATOM     31  C   UNL A   1      40.788  30.049  29.648  1.00  0.00     0.074 A 
ATOM     32  C   UNL A   1      40.305  27.795  28.752  1.00  0.00     0.049 A 
ATOM     33  N   UNL A   1      42.070  29.952  29.888  1.00  0.00    -0.248 NA
ATOM     34  C   UNL A   1      40.218  31.369  29.964  1.00  0.00     0.031 C 
ATOM     35  C   UNL A   1      39.503  26.725  28.153  1.00  0.00     0.029 A 
ATOM     36  N   UNL A   1      41.557  27.243  28.866  1.00  0.00    -0.354 N 
ATOM     37  C   UNL A   1      42.462  31.195  30.372  1.00  0.00     0.074 A 
ATOM     38  C   UNL A   1      41.294  32.047  30.339  1.00  0.00     0.031 C 
ATOM     39  C   UNL A   1      40.276  25.641  27.975  1.00  0.00     0.029 A 
ATOM     40  C   UNL A   1      41.636  25.950  28.405  1.00  0.00     0.049 A 
ATOM     41  H   UNL A   1      42.326  27.728  29.243  1.00  0.00     0.167 HD
ATOM     42  C   UNL A   1      43.679  31.584  30.826  1.00  0.00     0.037 A 
ATOM     43  C   UNL A   1      42.687  25.110  28.325  1.00  0.00     0.037 A 
ATOM     44  C   UNL A   1      44.833  30.724  30.873  1.00  0.00     0.049 A 
ATOM     45  C   UNL A   1      44.032  25.569  28.819  1.00  0.00     0.074 A 
ATOM     46  C   UNL A   1      46.096  31.006  31.364  1.00  0.00     0.029 A 
ATOM     47  N   UNL A   1      44.870  29.417  30.407  1.00  0.00    -0.354 N 
ATOM     48  N   UNL A   1      44.369  26.729  29.335  1.00  0.00    -0.248 NA
ATOM     49  C   UNL A   1      45.140  24.608  28.729  1.00  0.00     0.031 C 
ATOM     50  C   UNL A   1      46.910  29.892  31.144  1.00  0.00     0.029 A 
ATOM     51  C   UNL A   1      46.141  28.890  30.574  1.00  0.00     0.049 A 
ATOM     52  H   UNL A   1      44.107  28.935  30.015  1.00  0.00     0.167 HD
ATOM     53  C   UNL A   1      45.718  26.624  29.658  1.00  0.00     0.074 A 
ATOM     54  C   UNL A   1      46.131  25.285  29.290  1.00  0.00     0.031 C 
ATOM     55  C   UNL A   1      46.538  27.552  30.210  1.00  0.00     0.037 A 
BRANCH  42  56
ATOM     56  C   UNL A   1      43.826  33.003  31.309  1.00  0.00     0.058 A 
ATOM     57  C   UNL A   1      44.339  34.016  30.483  1.00  0.00     0.135 A 
ATOM     58  C   UNL A   1      43.411  33.363  32.602  1.00  0.00     0.135 A 
ATOM     59  F   UNL A   1      44.764  33.727  29.242  1.00  0.00    -0.206 F 
ATOM     60  C   UNL A   1      44.465  35.327  30.930  1.00  0.00     0.059 A 
ATOM     61  C   UNL A   1      43.498  34.675  33.060  1.00  0.00     0.059 A 
ATOM     62  F   UNL A   1      42.912  32.436  33.435  1.00  0.00    -0.206 F 
ATOM     63  C   UNL A   1      44.041  35.648  32.221  1.00  0.00     0.060 A 
BRANCH  63  64
ATOM     64  S   UNL A   1      44.206  37.355  32.782  1.00  0.00     0.124 S 
ATOM     65  O   UNL A   1      43.744  38.093  31.610  1.00  0.00    -0.237 OA
ATOM     66  O   UNL A   1      43.320  37.389  33.941  1.00  0.00    -0.237 OA
ATOM     67  O   UNL A   1      45.629  37.480  33.080  1.00  0.00    -0.744 OA
ENDBRANCH  63  64
ENDBRANCH  42  56
BRANCH  43  68
ATOM     68  C   UNL A   1      42.506  23.741  27.767  1.00  0.00     0.058 A 
ATOM     69  C   UNL A   1      42.484  23.521  26.382  1.00  0.00     0.135 A 
ATOM     70  C   UNL A   1      42.360  22.626  28.607  1.00  0.00     0.135 A 
ATOM     71  F   UNL A   1      42.611  24.554  25.536  1.00  0.00    -0.206 F 
ATOM     72  C   UNL A   1      42.307  22.247  25.848  1.00  0.00     0.059 A 
ATOM     73  C   UNL A   1      42.212  21.339  28.097  1.00  0.00     0.059 A 
ATOM     74  F   UNL A   1      42.391  22.779  29.941  1.00  0.00    -0.206 F 
ATOM     75  C   UNL A   1      42.175  21.162  26.715  1.00  0.00     0.060 A 
BRANCH  75  76
ATOM     76  S   UNL A   1      41.991  19.509  26.012  1.00  0.00     0.124 S 
ATOM     77  O   UNL A   1      40.576  19.497  25.656  1.00  0.00    -0.237 OA
ATOM     78  O   UNL A   1      42.931  19.546  24.897  1.00  0.00    -0.237 OA
ATOM     79  O   UNL A   1      42.372  18.631  27.115  1.00  0.00    -0.744 OA
ENDBRANCH  75  76
ENDBRANCH  43  68
BRANCH  55  80
ATOM     80  C   UNL A   1      47.961  27.145  30.490  1.00  0.00     0.058 A 
ATOM     81  C   UNL A   1      48.977  27.292  29.532  1.00  0.00     0.135 A 
ATOM     82  C   UNL A   1      48.320  26.649  31.755  1.00  0.00     0.135 A 
ATOM     83  F   UNL A   1      48.688  27.755  28.306  1.00  0.00    -0.206 F 
ATOM     84  C   UNL A   1      50.293  26.940  29.810  1.00  0.00     0.059 A 
ATOM     85  C   UNL A   1      49.635  26.320  32.064  1.00  0.00     0.059 A 
ATOM     86  F   UNL A   1      47.390  26.497  32.710  1.00  0.00    -0.206 F 
ATOM     87  C   UNL A   1      50.613  26.458  31.081  1.00  0.00     0.060 A 
BRANCH  87  88
ATOM     88  S   UNL A   1      52.333  26.038  31.438  1.00  0.00     0.124 S 
ATOM     89  O   UNL A   1      52.949  26.173  30.123  1.00  0.00    -0.237 OA
ATOM     90  O   UNL A   1      52.704  27.054  32.420  1.00  0.00    -0.237 OA
ATOM     91  O   UNL A   1      52.251  24.675  31.956  1.00  0.00    -0.744 OA
ENDBRANCH  87  88
ENDBRANCH  55  80
ENDBRANCH  29  30
ENDBRANCH  21  24
ENDBRANCH  19  20
ENDBRANCH   1  19
TORSDOF 16
ENDMDL
MODEL 2
REMARK VINA RESULT:     -10.7      3.162      4.406
REMARK SMILES CC1=C(C(=O)NCCCCCCNC(=O)c2ccc(-c3c4nc(c(-c5c(F)cc(S(=O)(=O)[O-])cc5F)c5ccc([nH]5)c(-c5c(F)cc(S(=O)(=O)[O-])cc5F)c5nc(c(-c6c(F)cc(S(=O)(=O)[O-])cc6F)c6ccc3[nH]6)C=C5)C=C4)cc2)C(C)(C)CCC1
REMARK SMILES IDX 11 1 10 2 9 3 8 4 7 5 6 6 4 7 5 8 3 10 1 11 2 12 87 13 82 14
REMARK SMILES IDX 86 15 83 16 84 17 85 18 12 19 13 20 14 21 15 23 16 24 17 25
REMARK SMILES IDX 81 26 18 27 80 28 19 29 20 30 21 31 74 32 22 33 79 34 73 35
REMARK SMILES IDX 75 36 23 37 78 38 72 39 71 40 24 42 58 43 37 44 57 45 38 46
REMARK SMILES IDX 41 47 56 48 76 49 39 50 40 51 55 53 77 54 42 55 25 56 26 57
REMARK SMILES IDX 35 58 27 59 28 60 34 61 36 62 29 63 30 64 31 65 32 66 33 67
REMARK SMILES IDX 59 68 60 69 69 70 61 71 62 72 68 73 70 74 63 75 64 76 65 77
REMARK SMILES IDX 66 78 67 79 43 80 44 81 53 82 45 83 46 84 52 85 54 86 47 87
REMARK SMILES IDX 48 88 49 89 50 90 51 91
REMARK H PARENT 6 9 13 22 75 41 41 52
REMARK Flexibility Score: inf
ROOT
ATOM      1  C   UNL A   1      35.528  32.726  28.072  1.00  0.00     0.021 C 
ENDROOT
BRANCH   1   2
ATOM      2  C   UNL A   1      34.424  31.667  28.046  1.00  0.00     0.002 C 
BRANCH   2   3
ATOM      3  C   UNL A   1      34.745  30.336  27.359  1.00  0.00     0.002 C 
BRANCH   3   4
ATOM      4  C   UNL A   1      33.577  29.385  27.066  1.00  0.00     0.021 C 
BRANCH   4   5
ATOM      5  C   UNL A   1      32.681  29.742  25.884  1.00  0.00     0.116 C 
BRANCH   5   6
ATOM      6  N   UNL A   1      33.267  29.538  24.576  1.00  0.00    -0.352 N 
ATOM      7  C   UNL A   1      32.922  28.695  23.555  1.00  0.00     0.247 C 
ATOM      8  O   UNL A   1      33.516  28.855  22.488  1.00  0.00    -0.270 OA
ATOM      9  H   UNL A   1      34.049  30.105  24.388  1.00  0.00     0.163 HD
BRANCH   7  10
ATOM     10  C   UNL A   1      31.968  27.533  23.752  1.00  0.00     0.021 C 
ATOM     11  C   UNL A   1      29.873  28.779  23.000  1.00  0.00     0.040 C 
ATOM     12  C   UNL A   1      30.618  27.641  23.646  1.00  0.00    -0.064 C 
ATOM     13  C   UNL A   1      29.669  26.553  24.114  1.00  0.00     0.031 C 
ATOM     14  C   UNL A   1      32.637  26.143  23.968  1.00  0.00    -0.005 C 
ATOM     15  C   UNL A   1      30.347  25.357  24.763  1.00  0.00     0.005 C 
ATOM     16  C   UNL A   1      33.616  25.774  22.823  1.00  0.00     0.016 C 
ATOM     17  C   UNL A   1      33.407  26.104  25.302  1.00  0.00     0.016 C 
ATOM     18  C   UNL A   1      31.581  24.996  23.961  1.00  0.00     0.012 C 
ENDBRANCH   7  10
ENDBRANCH   5   6
ENDBRANCH   4   5
ENDBRANCH   3   4
ENDBRANCH   2   3
ENDBRANCH   1   2
BRANCH   1  19
ATOM     19  C   UNL A   1      36.292  32.875  29.384  1.00  0.00     0.116 C 
BRANCH  19  20
ATOM     20  N   UNL A   1      35.897  31.907  30.391  1.00  0.00    -0.352 N 
ATOM     21  C   UNL A   1      36.556  30.784  30.835  1.00  0.00     0.251 C 
ATOM     22  H   UNL A   1      35.028  32.078  30.819  1.00  0.00     0.163 HD
ATOM     23  O   UNL A   1      35.998  30.021  31.614  1.00  0.00    -0.269 OA
BRANCH  21  24
ATOM     24  C   UNL A   1      37.924  30.480  30.352  1.00  0.00     0.039 A 
ATOM     25  C   UNL A   1      38.963  30.410  31.285  1.00  0.00     0.014 A 
ATOM     26  C   UNL A   1      38.190  30.273  28.996  1.00  0.00     0.014 A 
ATOM     27  C   UNL A   1      40.252  30.069  30.866  1.00  0.00     0.010 A 
ATOM     28  C   UNL A   1      39.458  29.858  28.591  1.00  0.00     0.010 A 
ATOM     29  C   UNL A   1      40.504  29.754  29.520  1.00  0.00    -0.014 A 
BRANCH  29  30
ATOM     30  C   UNL A   1      41.851  29.311  29.072  1.00  0.00     0.031 A 
ATOM     31  C   UNL A   1      42.988  30.294  28.995  1.00  0.00     0.074 A 
ATOM     32  C   UNL A   1      42.037  28.033  28.681  1.00  0.00     0.049 A 
ATOM     33  N   UNL A   1      44.213  30.110  28.573  1.00  0.00    -0.248 NA
ATOM     34  C   UNL A   1      42.705  31.674  29.424  1.00  0.00     0.031 C 
ATOM     35  C   UNL A   1      41.003  26.995  28.667  1.00  0.00     0.029 A 
ATOM     36  N   UNL A   1      43.155  27.391  28.210  1.00  0.00    -0.354 N 
ATOM     37  C   UNL A   1      44.841  31.346  28.676  1.00  0.00     0.074 A 
ATOM     38  C   UNL A   1      43.847  32.286  29.146  1.00  0.00     0.031 C 
ATOM     39  C   UNL A   1      41.541  25.843  28.234  1.00  0.00     0.029 A 
ATOM     40  C   UNL A   1      42.944  26.068  27.897  1.00  0.00     0.049 A 
ATOM     41  H   UNL A   1      44.027  27.836  28.105  1.00  0.00     0.167 HD
ATOM     42  C   UNL A   1      46.134  31.664  28.424  1.00  0.00     0.037 A 
ATOM     43  C   UNL A   1      43.779  25.143  27.386  1.00  0.00     0.037 A 
ATOM     44  C   UNL A   1      47.123  30.719  27.973  1.00  0.00     0.049 A 
ATOM     45  C   UNL A   1      45.207  25.523  27.099  1.00  0.00     0.074 A 
ATOM     46  C   UNL A   1      48.471  30.930  27.741  1.00  0.00     0.029 A 
ATOM     47  N   UNL A   1      46.872  29.386  27.679  1.00  0.00    -0.354 N 
ATOM     48  N   UNL A   1      45.800  26.683  27.264  1.00  0.00    -0.248 NA
ATOM     49  C   UNL A   1      46.082  24.472  26.563  1.00  0.00     0.031 C 
ATOM     50  C   UNL A   1      49.022  29.741  27.254  1.00  0.00     0.029 A 
ATOM     51  C   UNL A   1      48.034  28.770  27.242  1.00  0.00     0.049 A 
ATOM     52  H   UNL A   1      45.997  28.943  27.768  1.00  0.00     0.167 HD
ATOM     53  C   UNL A   1      47.124  26.491  26.882  1.00  0.00     0.074 A 
ATOM     54  C   UNL A   1      47.246  25.102  26.488  1.00  0.00     0.031 C 
ATOM     55  C   UNL A   1      48.144  27.384  26.859  1.00  0.00     0.037 A 
BRANCH  42  56
ATOM     56  C   UNL A   1      46.557  33.095  28.631  1.00  0.00     0.058 A 
ATOM     57  C   UNL A   1      46.497  34.041  27.594  1.00  0.00     0.135 A 
ATOM     58  C   UNL A   1      46.991  33.536  29.892  1.00  0.00     0.135 A 
ATOM     59  F   UNL A   1      46.103  33.673  26.364  1.00  0.00    -0.206 F 
ATOM     60  C   UNL A   1      46.880  35.364  27.792  1.00  0.00     0.059 A 
ATOM     61  C   UNL A   1      47.349  34.862  30.120  1.00  0.00     0.059 A 
ATOM     62  F   UNL A   1      47.069  32.676  30.920  1.00  0.00    -0.206 F 
ATOM     63  C   UNL A   1      47.304  35.766  29.059  1.00  0.00     0.060 A 
BRANCH  63  64
ATOM     64  S   UNL A   1      47.791  37.487  29.298  1.00  0.00     0.124 S 
ATOM     65  O   UNL A   1      47.434  38.072  28.010  1.00  0.00    -0.237 OA
ATOM     66  O   UNL A   1      46.962  37.891  30.429  1.00  0.00    -0.237 OA
ATOM     67  O   UNL A   1      49.222  37.401  29.572  1.00  0.00    -0.744 OA
ENDBRANCH  63  64
ENDBRANCH  42  56
BRANCH  43  68
ATOM     68  C   UNL A   1      43.292  23.760  27.128  1.00  0.00     0.058 A 
ATOM     69  C   UNL A   1      42.946  23.344  25.834  1.00  0.00     0.135 A 
ATOM     70  C   UNL A   1      43.170  22.824  28.168  1.00  0.00     0.135 A 
ATOM     71  F   UNL A   1      43.037  24.202  24.807  1.00  0.00    -0.206 F 
ATOM     72  C   UNL A   1      42.481  22.057  25.581  1.00  0.00     0.059 A 
ATOM     73  C   UNL A   1      42.736  21.523  27.935  1.00  0.00     0.059 A 
ATOM     74  F   UNL A   1      43.503  23.165  29.423  1.00  0.00    -0.206 F 
ATOM     75  C   UNL A   1      42.382  21.152  26.639  1.00  0.00     0.060 A 
BRANCH  75  76
ATOM     76  S   UNL A   1      41.821  19.472  26.291  1.00  0.00     0.124 S 
ATOM     77  O   UNL A   1      42.239  18.766  27.498  1.00  0.00    -0.237 OA
ATOM     78  O   UNL A   1      40.383  19.658  26.125  1.00  0.00    -0.237 OA
ATOM     79  O   UNL A   1      42.545  19.122  25.072  1.00  0.00    -0.744 OA
ENDBRANCH  75  76
ENDBRANCH  43  68
BRANCH  55  80
ATOM     80  C   UNL A   1      49.498  26.882  26.432  1.00  0.00     0.058 A 
ATOM     81  C   UNL A   1      50.378  26.262  27.333  1.00  0.00     0.135 A 
ATOM     82  C   UNL A   1      49.897  26.978  25.088  1.00  0.00     0.135 A 
ATOM     83  F   UNL A   1      50.050  26.150  28.630  1.00  0.00    -0.206 F 
ATOM     84  C   UNL A   1      51.615  25.776  26.922  1.00  0.00     0.059 A 
ATOM     85  C   UNL A   1      51.116  26.470  24.649  1.00  0.00     0.059 A 
ATOM     86  F   UNL A   1      49.091  27.553  24.182  1.00  0.00    -0.206 F 
ATOM     87  C   UNL A   1      51.973  25.882  25.577  1.00  0.00     0.060 A 
BRANCH  87  88
ATOM     88  S   UNL A   1      53.567  25.214  25.052  1.00  0.00     0.124 S 
ATOM     89  O   UNL A   1      53.371  23.784  25.264  1.00  0.00    -0.237 OA
ATOM     90  O   UNL A   1      53.641  25.643  23.658  1.00  0.00    -0.237 OA
ATOM     91  O   UNL A   1      54.520  25.858  25.952  1.00  0.00    -0.744 OA
ENDBRANCH  87  88
ENDBRANCH  55  80
ENDBRANCH  29  30
ENDBRANCH  21  24
ENDBRANCH  19  20
ENDBRANCH   1  19
TORSDOF 16
ENDMDL
MODEL 3
REMARK VINA RESULT:     -10.6      3.441      9.231
REMARK SMILES CC1=C(C(=O)NCCCCCCNC(=O)c2ccc(-c3c4nc(c(-c5c(F)cc(S(=O)(=O)[O-])cc5F)c5ccc([nH]5)c(-c5c(F)cc(S(=O)(=O)[O-])cc5F)c5nc(c(-c6c(F)cc(S(=O)(=O)[O-])cc6F)c6ccc3[nH]6)C=C5)C=C4)cc2)C(C)(C)CCC1
REMARK SMILES IDX 11 1 10 2 9 3 8 4 7 5 6 6 4 7 5 8 3 10 1 11 2 12 87 13 82 14
REMARK SMILES IDX 86 15 83 16 84 17 85 18 12 19 13 20 14 21 15 23 16 24 17 25
REMARK SMILES IDX 81 26 18 27 80 28 19 29 20 30 21 31 74 32 22 33 79 34 73 35
REMARK SMILES IDX 75 36 23 37 78 38 72 39 71 40 24 42 58 43 37 44 57 45 38 46
REMARK SMILES IDX 41 47 56 48 76 49 39 50 40 51 55 53 77 54 42 55 25 56 26 57
REMARK SMILES IDX 35 58 27 59 28 60 34 61 36 62 29 63 30 64 31 65 32 66 33 67
REMARK SMILES IDX 59 68 60 69 69 70 61 71 62 72 68 73 70 74 63 75 64 76 65 77
REMARK SMILES IDX 66 78 67 79 43 80 44 81 53 82 45 83 46 84 52 85 54 86 47 87
REMARK SMILES IDX 48 88 49 89 50 90 51 91
REMARK H PARENT 6 9 13 22 75 41 41 52
REMARK Flexibility Score: inf
ROOT
ATOM      1  C   UNL A   1      38.199  19.953  24.982  1.00  0.00     0.021 C 
ENDROOT
BRANCH   1   2
ATOM      2  C   UNL A   1      36.957  20.845  25.022  1.00  0.00     0.002 C 
BRANCH   2   3
ATOM      3  C   UNL A   1      36.816  21.899  23.920  1.00  0.00     0.002 C 
BRANCH   3   4
ATOM      4  C   UNL A   1      36.925  23.375  24.328  1.00  0.00     0.021 C 
BRANCH   4   5
ATOM      5  C   UNL A   1      36.423  23.740  25.722  1.00  0.00     0.116 C 
BRANCH   5   6
ATOM      6  N   UNL A   1      35.217  24.541  25.759  1.00  0.00    -0.352 N 
ATOM      7  C   UNL A   1      33.897  24.184  25.737  1.00  0.00     0.247 C 
ATOM      8  O   UNL A   1      33.082  25.085  25.941  1.00  0.00    -0.270 OA
ATOM      9  H   UNL A   1      35.375  25.512  25.809  1.00  0.00     0.163 HD
BRANCH   7  10
ATOM     10  C   UNL A   1      33.442  22.792  25.346  1.00  0.00     0.021 C 
ATOM     11  C   UNL A   1      33.824  21.733  27.635  1.00  0.00     0.040 C 
ATOM     12  C   UNL A   1      33.562  21.706  26.152  1.00  0.00    -0.064 C 
ATOM     13  C   UNL A   1      33.364  20.287  25.652  1.00  0.00     0.031 C 
ATOM     14  C   UNL A   1      32.695  22.687  23.982  1.00  0.00    -0.005 C 
ATOM     15  C   UNL A   1      33.076  20.174  24.164  1.00  0.00     0.005 C 
ATOM     16  C   UNL A   1      31.470  23.635  23.904  1.00  0.00     0.016 C 
ATOM     17  C   UNL A   1      33.641  23.014  22.811  1.00  0.00     0.016 C 
ATOM     18  C   UNL A   1      32.099  21.263  23.768  1.00  0.00     0.012 C 
ENDBRANCH   7  10
ENDBRANCH   5   6
ENDBRANCH   4   5
ENDBRANCH   3   4
ENDBRANCH   2   3
ENDBRANCH   1   2
BRANCH   1  19
ATOM     19  C   UNL A   1      39.375  20.392  25.848  1.00  0.00     0.116 C 
BRANCH  19  20
ATOM     20  N   UNL A   1      40.368  19.349  26.038  1.00  0.00    -0.352 N 
ATOM     21  C   UNL A   1      41.714  19.456  26.299  1.00  0.00     0.251 C 
ATOM     22  H   UNL A   1      40.028  18.428  25.969  1.00  0.00     0.163 HD
ATOM     23  O   UNL A   1      42.413  18.450  26.308  1.00  0.00    -0.269 OA
BRANCH  21  24
ATOM     24  C   UNL A   1      42.326  20.784  26.541  1.00  0.00     0.039 A 
ATOM     25  C   UNL A   1      42.713  21.554  25.441  1.00  0.00     0.014 A 
ATOM     26  C   UNL A   1      42.528  21.269  27.836  1.00  0.00     0.014 A 
ATOM     27  C   UNL A   1      43.241  22.833  25.638  1.00  0.00     0.010 A 
ATOM     28  C   UNL A   1      42.982  22.573  28.028  1.00  0.00     0.010 A 
ATOM     29  C   UNL A   1      43.346  23.369  26.932  1.00  0.00    -0.014 A 
BRANCH  29  30
ATOM     30  C   UNL A   1      43.829  24.758  27.153  1.00  0.00     0.031 A 
ATOM     31  C   UNL A   1      45.285  25.095  26.971  1.00  0.00     0.074 A 
ATOM     32  C   UNL A   1      42.965  25.706  27.572  1.00  0.00     0.049 A 
ATOM     33  N   UNL A   1      45.902  26.230  27.175  1.00  0.00    -0.248 NA
ATOM     34  C   UNL A   1      46.169  24.005  26.527  1.00  0.00     0.031 C 
ATOM     35  C   UNL A   1      41.538  25.495  27.828  1.00  0.00     0.029 A 
ATOM     36  N   UNL A   1      43.160  27.032  27.869  1.00  0.00    -0.354 N 
ATOM     37  C   UNL A   1      47.243  25.991  26.895  1.00  0.00     0.074 A 
ATOM     38  C   UNL A   1      47.359  24.588  26.561  1.00  0.00     0.031 C 
ATOM     39  C   UNL A   1      40.984  26.654  28.219  1.00  0.00     0.029 A 
ATOM     40  C   UNL A   1      42.020  27.680  28.285  1.00  0.00     0.049 A 
ATOM     41  H   UNL A   1      44.034  27.478  27.791  1.00  0.00     0.167 HD
ATOM     42  C   UNL A   1      48.279  26.865  26.892  1.00  0.00     0.037 A 
ATOM     43  C   UNL A   1      41.831  28.952  28.686  1.00  0.00     0.037 A 
ATOM     44  C   UNL A   1      48.152  28.264  27.208  1.00  0.00     0.049 A 
ATOM     45  C   UNL A   1      42.999  29.901  28.690  1.00  0.00     0.074 A 
ATOM     46  C   UNL A   1      49.130  29.244  27.182  1.00  0.00     0.029 A 
ATOM     47  N   UNL A   1      46.979  28.884  27.613  1.00  0.00    -0.354 N 
ATOM     48  N   UNL A   1      44.249  29.671  28.359  1.00  0.00    -0.248 NA
ATOM     49  C   UNL A   1      42.735  31.282  29.116  1.00  0.00     0.031 C 
ATOM     50  C   UNL A   1      48.562  30.441  27.625  1.00  0.00     0.029 A 
ATOM     51  C   UNL A   1      47.215  30.226  27.867  1.00  0.00     0.049 A 
ATOM     52  H   UNL A   1      46.107  28.437  27.708  1.00  0.00     0.167 HD
ATOM     53  C   UNL A   1      44.910  30.886  28.507  1.00  0.00     0.074 A 
ATOM     54  C   UNL A   1      43.921  31.849  28.946  1.00  0.00     0.031 C 
ATOM     55  C   UNL A   1      46.219  31.176  28.297  1.00  0.00     0.037 A 
BRANCH  42  56
ATOM     56  C   UNL A   1      49.643  26.334  26.536  1.00  0.00     0.058 A 
ATOM     57  C   UNL A   1      50.097  26.291  25.208  1.00  0.00     0.135 A 
ATOM     58  C   UNL A   1      50.524  25.900  27.541  1.00  0.00     0.135 A 
ATOM     59  F   UNL A   1      49.293  26.680  24.205  1.00  0.00    -0.206 F 
ATOM     60  C   UNL A   1      51.361  25.808  24.885  1.00  0.00     0.059 A 
ATOM     61  C   UNL A   1      51.805  25.444  27.244  1.00  0.00     0.059 A 
ATOM     62  F   UNL A   1      50.144  25.919  28.828  1.00  0.00    -0.206 F 
ATOM     63  C   UNL A   1      52.209  25.388  25.910  1.00  0.00     0.060 A 
BRANCH  63  64
ATOM     64  S   UNL A   1      53.847  24.771  25.473  1.00  0.00     0.124 S 
ATOM     65  O   UNL A   1      54.226  25.684  24.400  1.00  0.00    -0.237 OA
ATOM     66  O   UNL A   1      54.582  24.925  26.725  1.00  0.00    -0.237 OA
ATOM     67  O   UNL A   1      53.595  23.392  25.063  1.00  0.00    -0.744 OA
ENDBRANCH  63  64
ENDBRANCH  42  56
BRANCH  43  68
ATOM     68  C   UNL A   1      40.476  29.408  29.101  1.00  0.00     0.058 A 
ATOM     69  C   UNL A   1      40.165  29.617  30.453  1.00  0.00     0.135 A 
ATOM     70  C   UNL A   1      39.468  29.655  28.155  1.00  0.00     0.135 A 
ATOM     71  F   UNL A   1      41.091  29.389  31.397  1.00  0.00    -0.206 F 
ATOM     72  C   UNL A   1      38.900  30.035  30.855  1.00  0.00     0.059 A 
ATOM     73  C   UNL A   1      38.205  30.102  28.531  1.00  0.00     0.059 A 
ATOM     74  F   UNL A   1      39.718  29.488  26.847  1.00  0.00    -0.206 F 
ATOM     75  C   UNL A   1      37.927  30.278  29.885  1.00  0.00     0.060 A 
BRANCH  75  76
ATOM     76  S   UNL A   1      36.303  30.864  30.415  1.00  0.00     0.124 S 
ATOM     77  O   UNL A   1      35.507  30.652  29.211  1.00  0.00    -0.237 OA
ATOM     78  O   UNL A   1      36.011  29.980  31.539  1.00  0.00    -0.237 OA
ATOM     79  O   UNL A   1      36.550  32.259  30.772  1.00  0.00    -0.744 OA
ENDBRANCH  75  76
ENDBRANCH  43  68
BRANCH  55  80
ATOM     80  C   UNL A   1      46.655  32.604  28.500  1.00  0.00     0.058 A 
ATOM     81  C   UNL A   1      47.158  33.058  29.729  1.00  0.00     0.135 A 
ATOM     82  C   UNL A   1      46.618  33.514  27.430  1.00  0.00     0.135 A 
ATOM     83  F   UNL A   1      47.210  32.232  30.786  1.00  0.00    -0.206 F 
ATOM     84  C   UNL A   1      47.586  34.371  29.898  1.00  0.00     0.059 A 
ATOM     85  C   UNL A   1      47.071  34.822  27.569  1.00  0.00     0.059 A 
ATOM     86  F   UNL A   1      46.156  33.130  26.230  1.00  0.00    -0.206 F 
ATOM     87  C   UNL A   1      47.541  35.245  28.810  1.00  0.00     0.060 A 
BRANCH  87  88
ATOM     88  S   UNL A   1      48.134  36.936  29.036  1.00  0.00     0.124 S 
ATOM     89  O   UNL A   1      48.758  36.856  30.352  1.00  0.00    -0.237 OA
ATOM     90  O   UNL A   1      49.048  37.098  27.909  1.00  0.00    -0.237 OA
ATOM     91  O   UNL A   1      46.914  37.736  28.966  1.00  0.00    -0.744 OA
ENDBRANCH  87  88
ENDBRANCH  55  80
ENDBRANCH  29  30
ENDBRANCH  21  24
ENDBRANCH  19  20
ENDBRANCH   1  19
TORSDOF 16
ENDMDL
