MODEL 1
REMARK VINA RESULT:     -10.5      0.000      0.000
REMARK SMILES Cc1cccc(CN(C)c2nc(C)c(C(=O)NCCCCCCNC(=O)c3ccc(-c4c5nc(c(-c6c(F)cc(S(=O)(=O)[O-])cc6F)c6ccc([nH]6)c(-c6c(F)cc(S(=O)(=O)[O-])cc6F)c6nc(c(-c7c(F)cc(S(=O)(=O)[O-])cc7F)c7ccc4[nH]7)C=C6)C=C5)cc3)s2)n1
REMARK SMILES IDX 20 1 19 2 18 3 17 4 15 5 16 6 14 8 10 9 11 10 93 11 12 12
REMARK SMILES IDX 13 13 8 14 9 15 7 16 6 17 1 18 2 19 3 20 94 21 4 22 5 23
REMARK SMILES IDX 21 24 22 25 23 26 24 27 25 28 26 30 27 31 28 32 92 33 29 34
REMARK SMILES IDX 91 35 30 36 31 37 32 38 85 39 33 40 90 41 84 42 86 43 34 44
REMARK SMILES IDX 89 45 83 46 82 47 35 49 69 50 48 51 68 52 49 53 52 54 67 55
REMARK SMILES IDX 87 56 50 57 51 58 66 60 88 61 53 62 36 63 37 64 46 65 38 66
REMARK SMILES IDX 39 67 45 68 47 69 40 70 41 71 42 72 43 73 44 74 70 75 71 76
REMARK SMILES IDX 80 77 72 78 73 79 79 80 81 81 74 82 75 83 76 84 77 85 78 86
REMARK SMILES IDX 54 87 55 88 64 89 56 90 57 91 63 92 65 93 58 94 59 95 60 96
REMARK SMILES IDX 61 97 62 98
REMARK H PARENT 17 7 24 29 86 48 52 59
REMARK Flexibility Score: inf
ROOT
ATOM      1  C   UNL A   1      31.286  27.803  24.964  1.00  0.00     0.002 C 
ENDROOT
BRANCH   1   2
ATOM      2  C   UNL A   1      31.339  27.959  23.441  1.00  0.00     0.021 C 
BRANCH   2   3
ATOM      3  C   UNL A   1      32.757  27.855  22.876  1.00  0.00     0.116 C 
BRANCH   3   4
ATOM      4  N   UNL A   1      32.732  27.044  21.688  1.00  0.00    -0.351 N 
ATOM      5  C   UNL A   1      32.901  25.706  21.464  1.00  0.00     0.263 C 
ATOM      6  O   UNL A   1      32.952  25.428  20.258  1.00  0.00    -0.268 OA
ATOM      7  H   UNL A   1      32.558  27.558  20.867  1.00  0.00     0.163 HD
BRANCH   5   8
ATOM      8  C   UNL A   1      32.947  24.688  22.506  1.00  0.00     0.117 A 
ATOM      9  C   UNL A   1      33.983  23.064  24.070  1.00  0.00     0.186 A 
ATOM     10  N   UNL A   1      32.675  23.036  24.152  1.00  0.00    -0.225 NA
ATOM     11  S   UNL A   1      34.551  24.186  22.912  1.00  0.00    -0.091 S 
ATOM     12  C   UNL A   1      32.073  23.998  23.340  1.00  0.00     0.063 A 
ATOM     13  C   UNL A   1      30.610  24.120  23.563  1.00  0.00     0.068 C 
BRANCH   9  14
ATOM     14  N   UNL A   1      34.795  22.248  24.800  1.00  0.00    -0.345 N 
ATOM     15  C   UNL A   1      34.470  22.065  26.201  1.00  0.00     0.146 C 
BRANCH  14  16
ATOM     16  C   UNL A   1      36.152  21.913  24.355  1.00  0.00     0.174 C 
BRANCH  16  17
ATOM     17  C   UNL A   1      37.243  22.395  25.297  1.00  0.00     0.060 A 
ATOM     18  C   UNL A   1      40.327  20.939  26.659  1.00  0.00     0.067 C 
ATOM     19  C   UNL A   1      39.261  21.947  26.363  1.00  0.00     0.038 A 
ATOM     20  C   UNL A   1      39.424  23.287  26.698  1.00  0.00     0.023 A 
ATOM     21  N   UNL A   1      38.175  21.491  25.698  1.00  0.00    -0.256 NA
ATOM     22  C   UNL A   1      38.430  24.193  26.347  1.00  0.00     0.004 A 
ATOM     23  C   UNL A   1      37.321  23.745  25.639  1.00  0.00     0.026 A 
ENDBRANCH  16  17
ENDBRANCH  14  16
ENDBRANCH   9  14
ENDBRANCH   5   8
ENDBRANCH   3   4
ENDBRANCH   2   3
ENDBRANCH   1   2
BRANCH   1  24
ATOM     24  C   UNL A   1      32.387  26.907  25.543  1.00  0.00     0.002 C 
BRANCH  24  25
ATOM     25  C   UNL A   1      33.219  27.547  26.657  1.00  0.00     0.021 C 
BRANCH  25  26
ATOM     26  C   UNL A   1      34.284  28.521  26.162  1.00  0.00     0.116 C 
BRANCH  26  27
ATOM     27  N   UNL A   1      33.908  29.899  26.437  1.00  0.00    -0.352 N 
ATOM     28  C   UNL A   1      34.384  30.747  27.406  1.00  0.00     0.251 C 
ATOM     29  H   UNL A   1      33.216  30.275  25.847  1.00  0.00     0.163 HD
ATOM     30  O   UNL A   1      33.773  31.775  27.677  1.00  0.00    -0.269 OA
BRANCH  28  31
ATOM     31  C   UNL A   1      35.632  30.410  28.121  1.00  0.00     0.039 A 
ATOM     32  C   UNL A   1      35.564  29.660  29.297  1.00  0.00     0.014 A 
ATOM     33  C   UNL A   1      36.868  30.856  27.639  1.00  0.00     0.014 A 
ATOM     34  C   UNL A   1      36.741  29.313  29.964  1.00  0.00     0.010 A 
ATOM     35  C   UNL A   1      38.042  30.452  28.268  1.00  0.00     0.010 A 
ATOM     36  C   UNL A   1      37.990  29.685  29.441  1.00  0.00    -0.014 A 
BRANCH  36  37
ATOM     37  C   UNL A   1      39.255  29.289  30.109  1.00  0.00     0.031 A 
ATOM     38  C   UNL A   1      39.713  30.014  31.345  1.00  0.00     0.074 A 
ATOM     39  C   UNL A   1      40.023  28.326  29.562  1.00  0.00     0.049 A 
ATOM     40  N   UNL A   1      40.822  29.873  32.024  1.00  0.00    -0.248 NA
ATOM     41  C   UNL A   1      38.816  31.057  31.873  1.00  0.00     0.031 C 
ATOM     42  C   UNL A   1      39.708  27.585  28.339  1.00  0.00     0.029 A 
ATOM     43  N   UNL A   1      41.234  27.814  29.958  1.00  0.00    -0.354 N 
ATOM     44  C   UNL A   1      40.765  30.814  33.045  1.00  0.00     0.074 A 
ATOM     45  C   UNL A   1      39.536  31.557  32.866  1.00  0.00     0.031 C 
ATOM     46  C   UNL A   1      40.690  26.703  28.094  1.00  0.00     0.029 A 
ATOM     47  C   UNL A   1      41.719  26.839  29.119  1.00  0.00     0.049 A 
ATOM     48  H   UNL A   1      41.708  28.116  30.765  1.00  0.00     0.167 HD
ATOM     49  C   UNL A   1      41.646  31.026  34.051  1.00  0.00     0.037 A 
ATOM     50  C   UNL A   1      42.869  26.138  29.168  1.00  0.00     0.037 A 
ATOM     51  C   UNL A   1      42.853  30.263  34.236  1.00  0.00     0.049 A 
ATOM     52  C   UNL A   1      43.829  26.385  30.300  1.00  0.00     0.074 A 
ATOM     53  C   UNL A   1      43.785  30.359  35.256  1.00  0.00     0.029 A 
ATOM     54  N   UNL A   1      43.296  29.261  33.384  1.00  0.00    -0.354 N 
ATOM     55  N   UNL A   1      43.732  27.238  31.291  1.00  0.00    -0.248 NA
ATOM     56  C   UNL A   1      45.051  25.567  30.327  1.00  0.00     0.031 C 
ATOM     57  C   UNL A   1      44.810  29.443  34.998  1.00  0.00     0.029 A 
ATOM     58  C   UNL A   1      44.493  28.742  33.845  1.00  0.00     0.049 A 
ATOM     59  H   UNL A   1      42.826  28.964  32.571  1.00  0.00     0.167 HD
ATOM     60  C   UNL A   1      44.863  27.041  32.075  1.00  0.00     0.074 A 
ATOM     61  C   UNL A   1      45.626  25.982  31.447  1.00  0.00     0.031 C 
ATOM     62  C   UNL A   1      45.233  27.677  33.213  1.00  0.00     0.037 A 
BRANCH  49  63
ATOM     63  C   UNL A   1      41.335  32.123  35.032  1.00  0.00     0.058 A 
ATOM     64  C   UNL A   1      41.940  33.387  34.938  1.00  0.00     0.135 A 
ATOM     65  C   UNL A   1      40.399  31.921  36.059  1.00  0.00     0.135 A 
ATOM     66  F   UNL A   1      42.853  33.632  33.985  1.00  0.00    -0.206 F 
ATOM     67  C   UNL A   1      41.650  34.402  35.846  1.00  0.00     0.059 A 
ATOM     68  C   UNL A   1      40.073  32.931  36.960  1.00  0.00     0.059 A 
ATOM     69  F   UNL A   1      39.790  30.732  36.195  1.00  0.00    -0.206 F 
ATOM     70  C   UNL A   1      40.717  34.163  36.854  1.00  0.00     0.060 A 
BRANCH  70  71
ATOM     71  S   UNL A   1      40.351  35.490  38.023  1.00  0.00     0.124 S 
ATOM     72  O   UNL A   1      39.856  36.533  37.130  1.00  0.00    -0.237 OA
ATOM     73  O   UNL A   1      39.353  34.874  38.892  1.00  0.00    -0.237 OA
ATOM     74  O   UNL A   1      41.641  35.759  38.648  1.00  0.00    -0.744 OA
ENDBRANCH  70  71
ENDBRANCH  49  63
BRANCH  50  75
ATOM     75  C   UNL A   1      43.162  25.119  28.124  1.00  0.00     0.058 A 
ATOM     76  C   UNL A   1      43.800  25.476  26.928  1.00  0.00     0.135 A 
ATOM     77  C   UNL A   1      42.827  23.769  28.309  1.00  0.00     0.135 A 
ATOM     78  F   UNL A   1      44.136  26.756  26.704  1.00  0.00    -0.206 F 
ATOM     79  C   UNL A   1      44.084  24.536  25.944  1.00  0.00     0.059 A 
ATOM     80  C   UNL A   1      43.121  22.805  27.350  1.00  0.00     0.059 A 
ATOM     81  F   UNL A   1      42.231  23.373  29.445  1.00  0.00    -0.206 F 
ATOM     82  C   UNL A   1      43.742  23.200  26.166  1.00  0.00     0.060 A 
BRANCH  82  83
ATOM     83  S   UNL A   1      44.160  21.978  24.903  1.00  0.00     0.124 S 
ATOM     84  O   UNL A   1      43.578  22.580  23.709  1.00  0.00    -0.237 OA
ATOM     85  O   UNL A   1      45.618  21.959  24.964  1.00  0.00    -0.237 OA
ATOM     86  O   UNL A   1      43.505  20.765  25.384  1.00  0.00    -0.744 OA
ENDBRANCH  82  83
ENDBRANCH  50  75
BRANCH  62  87
ATOM     87  C   UNL A   1      46.500  27.221  33.882  1.00  0.00     0.058 A 
ATOM     88  C   UNL A   1      46.504  26.181  34.824  1.00  0.00     0.135 A 
ATOM     89  C   UNL A   1      47.733  27.793  33.528  1.00  0.00     0.135 A 
ATOM     90  F   UNL A   1      45.352  25.606  35.202  1.00  0.00    -0.206 F 
ATOM     91  C   UNL A   1      47.687  25.735  35.405  1.00  0.00     0.059 A 
ATOM     92  C   UNL A   1      48.929  27.345  34.077  1.00  0.00     0.059 A 
ATOM     93  F   UNL A   1      47.783  28.786  32.625  1.00  0.00    -0.206 F 
ATOM     94  C   UNL A   1      48.895  26.321  35.022  1.00  0.00     0.060 A 
BRANCH  94  95
ATOM     95  S   UNL A   1      50.427  25.703  35.750  1.00  0.00     0.124 S 
ATOM     96  O   UNL A   1      50.220  25.995  37.165  1.00  0.00    -0.237 OA
ATOM     97  O   UNL A   1      50.400  24.290  35.385  1.00  0.00    -0.237 OA
ATOM     98  O   UNL A   1      51.461  26.494  35.090  1.00  0.00    -0.744 OA
ENDBRANCH  94  95
ENDBRANCH  62  87
ENDBRANCH  36  37
ENDBRANCH  28  31
ENDBRANCH  26  27
ENDBRANCH  25  26
ENDBRANCH  24  25
ENDBRANCH   1  24
TORSDOF 19
ENDMDL
MODEL 2
REMARK VINA RESULT:     -10.5      4.946      6.213
REMARK SMILES Cc1cccc(CN(C)c2nc(C)c(C(=O)NCCCCCCNC(=O)c3ccc(-c4c5nc(c(-c6c(F)cc(S(=O)(=O)[O-])cc6F)c6ccc([nH]6)c(-c6c(F)cc(S(=O)(=O)[O-])cc6F)c6nc(c(-c7c(F)cc(S(=O)(=O)[O-])cc7F)c7ccc4[nH]7)C=C6)C=C5)cc3)s2)n1
REMARK SMILES IDX 20 1 19 2 18 3 17 4 15 5 16 6 14 8 10 9 11 10 93 11 12 12
REMARK SMILES IDX 13 13 8 14 9 15 7 16 6 17 1 18 2 19 3 20 94 21 4 22 5 23
REMARK SMILES IDX 21 24 22 25 23 26 24 27 25 28 26 30 27 31 28 32 92 33 29 34
REMARK SMILES IDX 91 35 30 36 31 37 32 38 85 39 33 40 90 41 84 42 86 43 34 44
REMARK SMILES IDX 89 45 83 46 82 47 35 49 69 50 48 51 68 52 49 53 52 54 67 55
REMARK SMILES IDX 87 56 50 57 51 58 66 60 88 61 53 62 36 63 37 64 46 65 38 66
REMARK SMILES IDX 39 67 45 68 47 69 40 70 41 71 42 72 43 73 44 74 70 75 71 76
REMARK SMILES IDX 80 77 72 78 73 79 79 80 81 81 74 82 75 83 76 84 77 85 78 86
REMARK SMILES IDX 54 87 55 88 64 89 56 90 57 91 63 92 65 93 58 94 59 95 60 96
REMARK SMILES IDX 61 97 62 98
REMARK H PARENT 17 7 24 29 86 48 52 59
REMARK Flexibility Score: inf
ROOT
ATOM      1  C   UNL A   1      33.183  27.412  26.518  1.00  0.00     0.002 C 
ENDROOT
BRANCH   1   2
ATOM      2  C   UNL A   1      31.671  27.588  26.690  1.00  0.00     0.021 C 
BRANCH   2   3
ATOM      3  C   UNL A   1      30.852  26.637  25.814  1.00  0.00     0.116 C 
BRANCH   3   4
ATOM      4  N   UNL A   1      30.316  25.585  26.636  1.00  0.00    -0.351 N 
ATOM      5  C   UNL A   1      30.227  24.229  26.480  1.00  0.00     0.263 C 
ATOM      6  O   UNL A   1      29.548  23.693  27.367  1.00  0.00    -0.268 OA
ATOM      7  H   UNL A   1      29.933  25.907  27.483  1.00  0.00     0.163 HD
BRANCH   5   8
ATOM      8  C   UNL A   1      30.903  23.466  25.440  1.00  0.00     0.117 A 
ATOM      9  C   UNL A   1      32.186  21.583  24.456  1.00  0.00     0.186 A 
ATOM     10  N   UNL A   1      31.951  22.516  23.566  1.00  0.00    -0.225 NA
ATOM     11  S   UNL A   1      31.556  21.964  25.999  1.00  0.00    -0.091 S 
ATOM     12  C   UNL A   1      31.160  23.548  24.075  1.00  0.00     0.063 A 
ATOM     13  C   UNL A   1      30.716  24.512  23.038  1.00  0.00     0.068 C 
BRANCH   9  14
ATOM     14  N   UNL A   1      32.900  20.455  24.184  1.00  0.00    -0.345 N 
ATOM     15  C   UNL A   1      32.380  19.567  23.162  1.00  0.00     0.146 C 
BRANCH  14  16
ATOM     16  C   UNL A   1      33.883  19.917  25.131  1.00  0.00     0.174 C 
BRANCH  16  17
ATOM     17  C   UNL A   1      35.261  20.549  25.011  1.00  0.00     0.060 A 
ATOM     18  C   UNL A   1      36.667  23.866  25.718  1.00  0.00     0.067 C 
ATOM     19  C   UNL A   1      36.602  22.421  25.333  1.00  0.00     0.038 A 
ATOM     20  C   UNL A   1      37.759  21.669  25.160  1.00  0.00     0.023 A 
ATOM     21  N   UNL A   1      35.364  21.885  25.233  1.00  0.00    -0.256 NA
ATOM     22  C   UNL A   1      37.642  20.316  24.862  1.00  0.00     0.004 A 
ATOM     23  C   UNL A   1      36.377  19.744  24.783  1.00  0.00     0.026 A 
ENDBRANCH  16  17
ENDBRANCH  14  16
ENDBRANCH   9  14
ENDBRANCH   5   8
ENDBRANCH   3   4
ENDBRANCH   2   3
ENDBRANCH   1   2
BRANCH   1  24
ATOM     24  C   UNL A   1      33.932  28.708  26.184  1.00  0.00     0.002 C 
BRANCH  24  25
ATOM     25  C   UNL A   1      34.080  29.686  27.352  1.00  0.00     0.021 C 
BRANCH  25  26
ATOM     26  C   UNL A   1      35.446  29.653  28.029  1.00  0.00     0.116 C 
BRANCH  26  27
ATOM     27  N   UNL A   1      35.418  30.338  29.311  1.00  0.00    -0.352 N 
ATOM     28  C   UNL A   1      36.409  30.447  30.255  1.00  0.00     0.251 C 
ATOM     29  H   UNL A   1      34.571  30.787  29.533  1.00  0.00     0.163 HD
ATOM     30  O   UNL A   1      36.138  30.821  31.390  1.00  0.00    -0.269 OA
BRANCH  28  31
ATOM     31  C   UNL A   1      37.801  30.105  29.894  1.00  0.00     0.039 A 
ATOM     32  C   UNL A   1      38.694  29.729  30.899  1.00  0.00     0.014 A 
ATOM     33  C   UNL A   1      38.227  30.179  28.564  1.00  0.00     0.014 A 
ATOM     34  C   UNL A   1      40.003  29.378  30.564  1.00  0.00     0.010 A 
ATOM     35  C   UNL A   1      39.511  29.764  28.224  1.00  0.00     0.010 A 
ATOM     36  C   UNL A   1      40.414  29.368  29.221  1.00  0.00    -0.014 A 
BRANCH  36  37
ATOM     37  C   UNL A   1      41.788  28.956  28.837  1.00  0.00     0.031 A 
ATOM     38  C   UNL A   1      42.897  29.972  28.803  1.00  0.00     0.074 A 
ATOM     39  C   UNL A   1      42.018  27.685  28.454  1.00  0.00     0.049 A 
ATOM     40  N   UNL A   1      44.139  29.827  28.418  1.00  0.00    -0.248 NA
ATOM     41  C   UNL A   1      42.559  31.339  29.232  1.00  0.00     0.031 C 
ATOM     42  C   UNL A   1      41.012  26.622  28.400  1.00  0.00     0.029 A 
ATOM     43  N   UNL A   1      43.169  27.073  28.024  1.00  0.00    -0.354 N 
ATOM     44  C   UNL A   1      44.723  31.081  28.542  1.00  0.00     0.074 A 
ATOM     45  C   UNL A   1      43.687  31.988  28.989  1.00  0.00     0.031 C 
ATOM     46  C   UNL A   1      41.593  25.487  27.979  1.00  0.00     0.029 A 
ATOM     47  C   UNL A   1      43.001  25.748  27.700  1.00  0.00     0.049 A 
ATOM     48  H   UNL A   1      44.033  27.539  27.955  1.00  0.00     0.167 HD
ATOM     49  C   UNL A   1      46.011  31.441  28.324  1.00  0.00     0.037 A 
ATOM     50  C   UNL A   1      43.882  24.846  27.224  1.00  0.00     0.037 A 
ATOM     51  C   UNL A   1      47.041  30.526  27.907  1.00  0.00     0.049 A 
ATOM     52  C   UNL A   1      45.309  25.266  26.998  1.00  0.00     0.074 A 
ATOM     53  C   UNL A   1      48.389  30.777  27.714  1.00  0.00     0.029 A 
ATOM     54  N   UNL A   1      46.839  29.183  27.619  1.00  0.00    -0.354 N 
ATOM     55  N   UNL A   1      45.859  26.443  27.177  1.00  0.00    -0.248 NA
ATOM     56  C   UNL A   1      46.238  24.235  26.514  1.00  0.00     0.031 C 
ATOM     57  C   UNL A   1      48.993  29.595  27.271  1.00  0.00     0.029 A 
ATOM     58  C   UNL A   1      48.033  28.596  27.236  1.00  0.00     0.049 A 
ATOM     59  H   UNL A   1      45.974  28.717  27.679  1.00  0.00     0.167 HD
ATOM     60  C   UNL A   1      47.203  26.288  26.857  1.00  0.00     0.074 A 
ATOM     61  C   UNL A   1      47.384  24.901  26.480  1.00  0.00     0.031 C 
ATOM     62  C   UNL A   1      48.197  27.210  26.877  1.00  0.00     0.037 A 
BRANCH  49  63
ATOM     63  C   UNL A   1      46.379  32.884  28.539  1.00  0.00     0.058 A 
ATOM     64  C   UNL A   1      46.818  33.353  29.787  1.00  0.00     0.135 A 
ATOM     65  C   UNL A   1      46.324  33.802  27.478  1.00  0.00     0.135 A 
ATOM     66  F   UNL A   1      46.877  32.523  30.840  1.00  0.00    -0.206 F 
ATOM     67  C   UNL A   1      47.160  34.688  29.984  1.00  0.00     0.059 A 
ATOM     68  C   UNL A   1      46.689  35.135  27.645  1.00  0.00     0.059 A 
ATOM     69  F   UNL A   1      45.912  33.407  26.263  1.00  0.00    -0.206 F 
ATOM     70  C   UNL A   1      47.090  35.571  28.907  1.00  0.00     0.060 A 
BRANCH  70  71
ATOM     71  S   UNL A   1      47.538  37.299  29.178  1.00  0.00     0.124 S 
ATOM     72  O   UNL A   1      46.878  37.950  28.050  1.00  0.00    -0.237 OA
ATOM     73  O   UNL A   1      46.961  37.570  30.491  1.00  0.00    -0.237 OA
ATOM     74  O   UNL A   1      48.997  37.285  29.129  1.00  0.00    -0.744 OA
ENDBRANCH  70  71
ENDBRANCH  49  63
BRANCH  50  75
ATOM     75  C   UNL A   1      43.443  23.451  26.955  1.00  0.00     0.058 A 
ATOM     76  C   UNL A   1      43.202  23.012  25.645  1.00  0.00     0.135 A 
ATOM     77  C   UNL A   1      43.274  22.526  27.996  1.00  0.00     0.135 A 
ATOM     78  F   UNL A   1      43.347  23.862  24.616  1.00  0.00    -0.206 F 
ATOM     79  C   UNL A   1      42.795  21.710  25.375  1.00  0.00     0.059 A 
ATOM     80  C   UNL A   1      42.890  21.211  27.751  1.00  0.00     0.059 A 
ATOM     81  F   UNL A   1      43.510  22.891  29.266  1.00  0.00    -0.206 F 
ATOM     82  C   UNL A   1      42.644  20.815  26.436  1.00  0.00     0.060 A 
BRANCH  82  83
ATOM     83  S   UNL A   1      42.162  19.113  26.071  1.00  0.00     0.124 S 
ATOM     84  O   UNL A   1      42.982  18.820  24.902  1.00  0.00    -0.237 OA
ATOM     85  O   UNL A   1      42.532  18.419  27.301  1.00  0.00    -0.237 OA
ATOM     86  O   UNL A   1      40.726  19.217  25.829  1.00  0.00    -0.744 OA
ENDBRANCH  82  83
ENDBRANCH  50  75
BRANCH  62  87
ATOM     87  C   UNL A   1      49.582  26.744  26.520  1.00  0.00     0.058 A 
ATOM     88  C   UNL A   1      50.420  26.132  27.464  1.00  0.00     0.135 A 
ATOM     89  C   UNL A   1      50.049  26.859  25.201  1.00  0.00     0.135 A 
ATOM     90  F   UNL A   1      50.023  26.004  28.739  1.00  0.00    -0.206 F 
ATOM     91  C   UNL A   1      51.683  25.664  27.115  1.00  0.00     0.059 A 
ATOM     92  C   UNL A   1      51.297  26.375  24.825  1.00  0.00     0.059 A 
ATOM     93  F   UNL A   1      49.280  27.430  24.259  1.00  0.00    -0.206 F 
ATOM     94  C   UNL A   1      52.110  25.787  25.791  1.00  0.00     0.060 A 
BRANCH  94  95
ATOM     95  S   UNL A   1      53.733  25.135  25.341  1.00  0.00     0.124 S 
ATOM     96  O   UNL A   1      54.572  25.672  26.408  1.00  0.00    -0.237 OA
ATOM     97  O   UNL A   1      53.512  23.693  25.375  1.00  0.00    -0.237 OA
ATOM     98  O   UNL A   1      53.969  25.695  24.014  1.00  0.00    -0.744 OA
ENDBRANCH  94  95
ENDBRANCH  62  87
ENDBRANCH  36  37
ENDBRANCH  28  31
ENDBRANCH  26  27
ENDBRANCH  25  26
ENDBRANCH  24  25
ENDBRANCH   1  24
TORSDOF 19
ENDMDL
MODEL 3
REMARK VINA RESULT:     -10.5      2.687      3.431
REMARK SMILES Cc1cccc(CN(C)c2nc(C)c(C(=O)NCCCCCCNC(=O)c3ccc(-c4c5nc(c(-c6c(F)cc(S(=O)(=O)[O-])cc6F)c6ccc([nH]6)c(-c6c(F)cc(S(=O)(=O)[O-])cc6F)c6nc(c(-c7c(F)cc(S(=O)(=O)[O-])cc7F)c7ccc4[nH]7)C=C6)C=C5)cc3)s2)n1
REMARK SMILES IDX 20 1 19 2 18 3 17 4 15 5 16 6 14 8 10 9 11 10 93 11 12 12
REMARK SMILES IDX 13 13 8 14 9 15 7 16 6 17 1 18 2 19 3 20 94 21 4 22 5 23
REMARK SMILES IDX 21 24 22 25 23 26 24 27 25 28 26 30 27 31 28 32 92 33 29 34
REMARK SMILES IDX 91 35 30 36 31 37 32 38 85 39 33 40 90 41 84 42 86 43 34 44
REMARK SMILES IDX 89 45 83 46 82 47 35 49 69 50 48 51 68 52 49 53 52 54 67 55
REMARK SMILES IDX 87 56 50 57 51 58 66 60 88 61 53 62 36 63 37 64 46 65 38 66
REMARK SMILES IDX 39 67 45 68 47 69 40 70 41 71 42 72 43 73 44 74 70 75 71 76
REMARK SMILES IDX 80 77 72 78 73 79 79 80 81 81 74 82 75 83 76 84 77 85 78 86
REMARK SMILES IDX 54 87 55 88 64 89 56 90 57 91 63 92 65 93 58 94 59 95 60 96
REMARK SMILES IDX 61 97 62 98
REMARK H PARENT 17 7 24 29 86 48 52 59
REMARK Flexibility Score: inf
ROOT
ATOM      1  C   UNL A   1      30.685  27.498  25.012  1.00  0.00     0.002 C 
ENDROOT
BRANCH   1   2
ATOM      2  C   UNL A   1      30.891  28.752  24.157  1.00  0.00     0.021 C 
BRANCH   2   3
ATOM      3  C   UNL A   1      31.060  28.442  22.668  1.00  0.00     0.116 C 
BRANCH   3   4
ATOM      4  N   UNL A   1      32.446  28.590  22.312  1.00  0.00    -0.351 N 
ATOM      5  C   UNL A   1      33.458  27.695  22.100  1.00  0.00     0.263 C 
ATOM      6  O   UNL A   1      34.558  28.247  21.955  1.00  0.00    -0.268 OA
ATOM      7  H   UNL A   1      32.723  29.527  22.198  1.00  0.00     0.163 HD
BRANCH   5   8
ATOM      8  C   UNL A   1      33.282  26.254  21.981  1.00  0.00     0.117 A 
ATOM      9  C   UNL A   1      33.200  23.891  22.737  1.00  0.00     0.186 A 
ATOM     10  N   UNL A   1      32.988  23.986  21.447  1.00  0.00    -0.225 NA
ATOM     11  S   UNL A   1      33.480  25.407  23.476  1.00  0.00    -0.091 S 
ATOM     12  C   UNL A   1      32.949  25.312  21.013  1.00  0.00     0.063 A 
ATOM     13  C   UNL A   1      32.514  25.453  19.600  1.00  0.00     0.068 C 
BRANCH   9  14
ATOM     14  N   UNL A   1      33.240  22.702  23.402  1.00  0.00    -0.345 N 
ATOM     15  C   UNL A   1      32.418  21.624  22.888  1.00  0.00     0.146 C 
BRANCH  14  16
ATOM     16  C   UNL A   1      33.718  22.608  24.786  1.00  0.00     0.174 C 
BRANCH  16  17
ATOM     17  C   UNL A   1      35.194  22.266  24.904  1.00  0.00     0.060 A 
ATOM     18  C   UNL A   1      38.180  24.032  26.105  1.00  0.00     0.067 C 
ATOM     19  C   UNL A   1      37.319  22.929  25.575  1.00  0.00     0.038 A 
ATOM     20  C   UNL A   1      37.797  21.626  25.478  1.00  0.00     0.023 A 
ATOM     21  N   UNL A   1      36.045  23.261  25.266  1.00  0.00    -0.256 NA
ATOM     22  C   UNL A   1      36.937  20.626  25.036  1.00  0.00     0.004 A 
ATOM     23  C   UNL A   1      35.617  20.946  24.741  1.00  0.00     0.026 A 
ENDBRANCH  16  17
ENDBRANCH  14  16
ENDBRANCH   9  14
ENDBRANCH   5   8
ENDBRANCH   3   4
ENDBRANCH   2   3
ENDBRANCH   1   2
BRANCH   1  24
ATOM     24  C   UNL A   1      31.662  27.371  26.188  1.00  0.00     0.002 C 
BRANCH  24  25
ATOM     25  C   UNL A   1      33.030  28.018  25.961  1.00  0.00     0.021 C 
BRANCH  25  26
ATOM     26  C   UNL A   1      33.762  28.402  27.243  1.00  0.00     0.116 C 
BRANCH  26  27
ATOM     27  N   UNL A   1      33.596  29.815  27.543  1.00  0.00    -0.352 N 
ATOM     28  C   UNL A   1      34.439  30.659  28.224  1.00  0.00     0.251 C 
ATOM     29  H   UNL A   1      32.763  30.224  27.213  1.00  0.00     0.163 HD
ATOM     30  O   UNL A   1      34.030  31.742  28.626  1.00  0.00    -0.269 OA
BRANCH  28  31
ATOM     31  C   UNL A   1      35.837  30.249  28.471  1.00  0.00     0.039 A 
ATOM     32  C   UNL A   1      36.769  30.344  27.435  1.00  0.00     0.014 A 
ATOM     33  C   UNL A   1      36.220  29.750  29.720  1.00  0.00     0.014 A 
ATOM     34  C   UNL A   1      38.098  29.985  27.666  1.00  0.00     0.010 A 
ATOM     35  C   UNL A   1      37.558  29.458  29.968  1.00  0.00     0.010 A 
ATOM     36  C   UNL A   1      38.508  29.564  28.942  1.00  0.00    -0.014 A 
BRANCH  36  37
ATOM     37  C   UNL A   1      39.925  29.220  29.223  1.00  0.00     0.031 A 
ATOM     38  C   UNL A   1      40.849  30.254  29.805  1.00  0.00     0.074 A 
ATOM     39  C   UNL A   1      40.392  28.002  28.888  1.00  0.00     0.049 A 
ATOM     40  N   UNL A   1      42.132  30.174  30.046  1.00  0.00    -0.248 NA
ATOM     41  C   UNL A   1      40.258  31.562  30.136  1.00  0.00     0.031 C 
ATOM     42  C   UNL A   1      39.604  26.932  28.273  1.00  0.00     0.029 A 
ATOM     43  N   UNL A   1      41.648  27.461  29.006  1.00  0.00    -0.354 N 
ATOM     44  C   UNL A   1      42.505  31.419  30.539  1.00  0.00     0.074 A 
ATOM     45  C   UNL A   1      41.322  32.253  30.515  1.00  0.00     0.031 C 
ATOM     46  C   UNL A   1      40.388  25.859  28.084  1.00  0.00     0.029 A 
ATOM     47  C   UNL A   1      41.741  26.174  28.531  1.00  0.00     0.049 A 
ATOM     48  H   UNL A   1      42.409  27.947  29.396  1.00  0.00     0.167 HD
ATOM     49  C   UNL A   1      43.716  31.823  30.990  1.00  0.00     0.037 A 
ATOM     50  C   UNL A   1      42.801  25.345  28.455  1.00  0.00     0.037 A 
ATOM     51  C   UNL A   1      44.880  30.977  31.036  1.00  0.00     0.049 A 
ATOM     52  C   UNL A   1      44.135  25.813  28.971  1.00  0.00     0.074 A 
ATOM     53  C   UNL A   1      46.140  31.272  31.528  1.00  0.00     0.029 A 
ATOM     54  N   UNL A   1      44.927  29.669  30.574  1.00  0.00    -0.354 N 
ATOM     55  N   UNL A   1      44.456  26.974  29.489  1.00  0.00    -0.248 NA
ATOM     56  C   UNL A   1      45.248  24.856  28.901  1.00  0.00     0.031 C 
ATOM     57  C   UNL A   1      46.959  30.155  31.327  1.00  0.00     0.029 A 
ATOM     58  C   UNL A   1      46.197  29.149  30.755  1.00  0.00     0.049 A 
ATOM     59  H   UNL A   1      44.168  29.184  30.176  1.00  0.00     0.167 HD
ATOM     60  C   UNL A   1      45.799  26.879  29.833  1.00  0.00     0.074 A 
ATOM     61  C   UNL A   1      46.228  25.543  29.471  1.00  0.00     0.031 C 
ATOM     62  C   UNL A   1      46.603  27.811  30.401  1.00  0.00     0.037 A 
BRANCH  49  63
ATOM     63  C   UNL A   1      43.843  33.242  31.475  1.00  0.00     0.058 A 
ATOM     64  C   UNL A   1      44.243  34.279  30.618  1.00  0.00     0.135 A 
ATOM     65  C   UNL A   1      43.529  33.575  32.802  1.00  0.00     0.135 A 
ATOM     66  F   UNL A   1      44.569  34.016  29.343  1.00  0.00    -0.206 F 
ATOM     67  C   UNL A   1      44.359  35.591  31.067  1.00  0.00     0.059 A 
ATOM     68  C   UNL A   1      43.610  34.885  33.265  1.00  0.00     0.059 A 
ATOM     69  F   UNL A   1      43.139  32.623  33.665  1.00  0.00    -0.206 F 
ATOM     70  C   UNL A   1      44.042  35.884  32.393  1.00  0.00     0.060 A 
BRANCH  70  71
ATOM     71  S   UNL A   1      44.195  37.591  32.961  1.00  0.00     0.124 S 
ATOM     72  O   UNL A   1      44.097  38.324  31.702  1.00  0.00    -0.237 OA
ATOM     73  O   UNL A   1      43.054  37.725  33.861  1.00  0.00    -0.237 OA
ATOM     74  O   UNL A   1      45.504  37.620  33.605  1.00  0.00    -0.744 OA
ENDBRANCH  70  71
ENDBRANCH  49  63
BRANCH  50  75
ATOM     75  C   UNL A   1      42.634  23.978  27.892  1.00  0.00     0.058 A 
ATOM     76  C   UNL A   1      42.547  22.859  28.733  1.00  0.00     0.135 A 
ATOM     77  C   UNL A   1      42.538  23.766  26.508  1.00  0.00     0.135 A 
ATOM     78  F   UNL A   1      42.638  23.012  30.064  1.00  0.00    -0.206 F 
ATOM     79  C   UNL A   1      42.388  21.575  28.224  1.00  0.00     0.059 A 
ATOM     80  C   UNL A   1      42.354  22.494  25.975  1.00  0.00     0.059 A 
ATOM     81  F   UNL A   1      42.595  24.806  25.662  1.00  0.00    -0.206 F 
ATOM     82  C   UNL A   1      42.289  21.403  26.842  1.00  0.00     0.060 A 
BRANCH  82  83
ATOM     83  S   UNL A   1      42.032  19.737  26.193  1.00  0.00     0.124 S 
ATOM     84  O   UNL A   1      42.920  19.732  25.037  1.00  0.00    -0.237 OA
ATOM     85  O   UNL A   1      42.442  18.903  27.318  1.00  0.00    -0.237 OA
ATOM     86  O   UNL A   1      40.603  19.712  25.894  1.00  0.00    -0.744 OA
ENDBRANCH  82  83
ENDBRANCH  50  75
BRANCH  62  87
ATOM     87  C   UNL A   1      48.020  27.412  30.707  1.00  0.00     0.058 A 
ATOM     88  C   UNL A   1      48.371  26.816  31.928  1.00  0.00     0.135 A 
ATOM     89  C   UNL A   1      49.025  27.574  29.740  1.00  0.00     0.135 A 
ATOM     90  F   UNL A   1      47.450  26.645  32.888  1.00  0.00    -0.206 F 
ATOM     91  C   UNL A   1      49.676  26.409  32.185  1.00  0.00     0.059 A 
ATOM     92  C   UNL A   1      50.330  27.151  29.966  1.00  0.00     0.059 A 
ATOM     93  F   UNL A   1      48.737  28.131  28.552  1.00  0.00    -0.206 F 
ATOM     94  C   UNL A   1      50.648  26.577  31.196  1.00  0.00     0.060 A 
BRANCH  94  95
ATOM     95  S   UNL A   1      52.328  26.003  31.526  1.00  0.00     0.124 S 
ATOM     96  O   UNL A   1      52.793  26.995  32.491  1.00  0.00    -0.237 OA
ATOM     97  O   UNL A   1      52.103  24.662  32.055  1.00  0.00    -0.237 OA
ATOM     98  O   UNL A   1      52.969  26.054  30.215  1.00  0.00    -0.744 OA
ENDBRANCH  94  95
ENDBRANCH  62  87
ENDBRANCH  36  37
ENDBRANCH  28  31
ENDBRANCH  26  27
ENDBRANCH  25  26
ENDBRANCH  24  25
ENDBRANCH   1  24
TORSDOF 19
ENDMDL
