MODEL 1
REMARK VINA RESULT:     -11.7      0.000      0.000
REMARK SMILES O=C(C[C@@H](NS(=O)(=O)c1ccc(Cl)cc1)c1ccc(F)cc1)NCCCCCCNC(=O)c1ccc(-c2c3nc(c(-c4c(F)cc(S(=O)(=O)[O-])cc4F)c4ccc([nH]4)c(-c4c(F)cc(S(=O)(=O)[O-])cc4F)c4nc(c(-c5c(F)cc(S(=O)(=O)[O-])cc5F)c5ccc2[nH]5)C=C4)C=C3)cc1
REMARK SMILES IDX 26 1 25 2 24 3 23 4 1 5 2 6 3 8 4 9 5 10 6 12 7 13 8 14 9 15
REMARK SMILES IDX 10 16 15 17 11 18 14 19 12 20 13 21 16 22 17 23 22 24 18 25
REMARK SMILES IDX 21 26 19 27 20 28 27 29 28 30 29 31 30 32 31 33 32 35 33 36
REMARK SMILES IDX 34 37 98 38 35 39 97 40 36 41 37 42 38 43 91 44 39 45 96 46
REMARK SMILES IDX 90 47 92 48 40 49 95 50 89 51 88 52 41 54 75 55 54 56 74 57
REMARK SMILES IDX 55 58 58 59 73 60 93 61 56 62 57 63 72 65 94 66 59 67 42 68
REMARK SMILES IDX 43 69 52 70 44 71 45 72 51 73 53 74 46 75 47 76 48 77 49 78
REMARK SMILES IDX 50 79 76 80 77 81 86 82 78 83 79 84 85 85 87 86 80 87 81 88
REMARK SMILES IDX 82 89 83 90 84 91 60 92 61 93 70 94 62 95 63 96 69 97 71 98
REMARK SMILES IDX 64 99 65 100 66 101 67 102 68 103
REMARK H PARENT 23 7 5 11 30 34 92 53 58 64
REMARK Flexibility Score: inf
ROOT
ATOM      1  C   UNL A   1      35.350  24.217  25.972  1.00  0.00     0.002 C 
ENDROOT
BRANCH   1   2
ATOM      2  C   UNL A   1      34.588  23.134  26.745  1.00  0.00     0.021 C 
BRANCH   2   3
ATOM      3  C   UNL A   1      33.067  23.219  26.639  1.00  0.00     0.116 C 
BRANCH   3   4
ATOM      4  N   UNL A   1      32.607  24.582  26.458  1.00  0.00    -0.356 N 
ATOM      5  O   UNL A   1      30.418  24.118  26.989  1.00  0.00    -0.275 OA
ATOM      6  C   UNL A   1      31.284  24.916  26.650  1.00  0.00     0.221 C 
ATOM      7  H   UNL A   1      33.249  25.281  26.194  1.00  0.00     0.163 HD
BRANCH   6   8
ATOM      8  C   UNL A   1      30.982  26.380  26.442  1.00  0.00     0.124 C 
BRANCH   8   9
ATOM      9  C   UNL A   1      32.030  27.013  25.504  1.00  0.00     0.109 C 
BRANCH   9  10
ATOM     10  N   UNL A   1      31.351  27.397  24.236  1.00  0.00    -0.203 NA
ATOM     11  H   UNL A   1      31.317  28.416  24.215  1.00  0.00     0.142 HD
BRANCH  10  12
ATOM     12  S   UNL A   1      32.006  26.894  22.761  1.00  0.00     0.241 S 
ATOM     13  O   UNL A   1      31.053  27.204  21.715  1.00  0.00    -0.207 OA
ATOM     14  O   UNL A   1      33.351  27.416  22.748  1.00  0.00    -0.207 OA
BRANCH  12  15
ATOM     15  C   UNL A   1      32.152  25.131  22.876  1.00  0.00     0.082 A 
ATOM     16  C   UNL A   1      31.007  24.388  23.187  1.00  0.00     0.023 A 
ATOM     17  C   UNL A   1      33.390  24.500  22.725  1.00  0.00     0.023 A 
ATOM     18  C   UNL A   1      31.106  23.007  23.365  1.00  0.00     0.022 A 
ATOM     19  C   UNL A   1      33.487  23.122  22.926  1.00  0.00     0.022 A 
ATOM     20  C   UNL A   1      32.348  22.382  23.248  1.00  0.00     0.041 A 
ATOM     21  Cl  UNL A   1      32.479  20.688  23.512  1.00  0.00    -0.084 Cl
ENDBRANCH  12  15
ENDBRANCH  10  12
ENDBRANCH   9  10
BRANCH   9  22
ATOM     22  C   UNL A   1      32.697  28.218  26.162  1.00  0.00    -0.029 A 
ATOM     23  C   UNL A   1      34.027  28.181  26.628  1.00  0.00     0.008 A 
ATOM     24  C   UNL A   1      31.951  29.393  26.372  1.00  0.00     0.008 A 
ATOM     25  C   UNL A   1      34.589  29.283  27.276  1.00  0.00     0.039 A 
ATOM     26  C   UNL A   1      32.507  30.484  27.044  1.00  0.00     0.039 A 
ATOM     27  C   UNL A   1      33.821  30.420  27.488  1.00  0.00     0.123 A 
ATOM     28  F   UNL A   1      34.353  31.464  28.134  1.00  0.00    -0.207 F 
ENDBRANCH   9  22
ENDBRANCH   8   9
ENDBRANCH   6   8
ENDBRANCH   3   4
ENDBRANCH   2   3
ENDBRANCH   1   2
BRANCH   1  29
ATOM     29  C   UNL A   1      36.494  23.717  25.086  1.00  0.00     0.002 C 
BRANCH  29  30
ATOM     30  C   UNL A   1      37.711  23.157  25.829  1.00  0.00     0.021 C 
BRANCH  30  31
ATOM     31  C   UNL A   1      38.635  24.197  26.455  1.00  0.00     0.116 C 
BRANCH  31  32
ATOM     32  N   UNL A   1      40.037  23.969  26.147  1.00  0.00    -0.352 N 
ATOM     33  C   UNL A   1      41.140  24.665  26.580  1.00  0.00     0.251 C 
ATOM     34  H   UNL A   1      40.222  23.213  25.544  1.00  0.00     0.163 HD
ATOM     35  O   UNL A   1      42.249  24.411  26.119  1.00  0.00    -0.269 OA
BRANCH  33  36
ATOM     36  C   UNL A   1      40.985  25.744  27.583  1.00  0.00     0.039 A 
ATOM     37  C   UNL A   1      39.900  25.695  28.463  1.00  0.00     0.014 A 
ATOM     38  C   UNL A   1      41.901  26.798  27.655  1.00  0.00     0.014 A 
ATOM     39  C   UNL A   1      39.768  26.668  29.457  1.00  0.00     0.010 A 
ATOM     40  C   UNL A   1      41.796  27.738  28.678  1.00  0.00     0.010 A 
ATOM     41  C   UNL A   1      40.732  27.680  29.592  1.00  0.00    -0.014 A 
BRANCH  41  42
ATOM     42  C   UNL A   1      40.647  28.690  30.678  1.00  0.00     0.031 A 
ATOM     43  C   UNL A   1      41.544  28.578  31.880  1.00  0.00     0.074 A 
ATOM     44  C   UNL A   1      39.720  29.666  30.614  1.00  0.00     0.049 A 
ATOM     45  N   UNL A   1      41.540  29.286  32.981  1.00  0.00    -0.248 NA
ATOM     46  C   UNL A   1      42.565  27.519  31.851  1.00  0.00     0.031 C 
ATOM     47  C   UNL A   1      38.773  29.864  29.515  1.00  0.00     0.029 A 
ATOM     48  N   UNL A   1      39.412  30.670  31.500  1.00  0.00    -0.354 N 
ATOM     49  C   UNL A   1      42.542  28.748  33.780  1.00  0.00     0.074 A 
ATOM     50  C   UNL A   1      43.110  27.633  33.054  1.00  0.00     0.031 C 
ATOM     51  C   UNL A   1      38.002  30.931  29.785  1.00  0.00     0.029 A 
ATOM     52  C   UNL A   1      38.374  31.471  31.089  1.00  0.00     0.049 A 
ATOM     53  H   UNL A   1      39.891  30.803  32.351  1.00  0.00     0.167 HD
ATOM     54  C   UNL A   1      42.960  29.159  35.000  1.00  0.00     0.037 A 
ATOM     55  C   UNL A   1      37.779  32.516  31.698  1.00  0.00     0.037 A 
ATOM     56  C   UNL A   1      42.419  30.293  35.702  1.00  0.00     0.049 A 
ATOM     57  C   UNL A   1      38.269  32.958  33.050  1.00  0.00     0.074 A 
ATOM     58  C   UNL A   1      42.806  30.809  36.927  1.00  0.00     0.029 A 
ATOM     59  N   UNL A   1      41.387  31.094  35.238  1.00  0.00    -0.354 N 
ATOM     60  N   UNL A   1      39.230  32.450  33.782  1.00  0.00    -0.248 NA
ATOM     61  C   UNL A   1      37.595  34.114  33.660  1.00  0.00     0.031 C 
ATOM     62  C   UNL A   1      41.992  31.908  37.214  1.00  0.00     0.029 A 
ATOM     63  C   UNL A   1      41.121  32.098  36.154  1.00  0.00     0.049 A 
ATOM     64  H   UNL A   1      40.913  30.968  34.384  1.00  0.00     0.167 HD
ATOM     65  C   UNL A   1      39.292  33.236  34.927  1.00  0.00     0.074 A 
ATOM     66  C   UNL A   1      38.277  34.260  34.790  1.00  0.00     0.031 C 
ATOM     67  C   UNL A   1      40.119  33.120  35.994  1.00  0.00     0.037 A 
BRANCH  54  68
ATOM     68  C   UNL A   1      44.073  28.394  35.655  1.00  0.00     0.058 A 
ATOM     69  C   UNL A   1      43.794  27.357  36.558  1.00  0.00     0.135 A 
ATOM     70  C   UNL A   1      45.419  28.735  35.442  1.00  0.00     0.135 A 
ATOM     71  F   UNL A   1      42.525  26.986  36.791  1.00  0.00    -0.206 F 
ATOM     72  C   UNL A   1      44.809  26.696  37.242  1.00  0.00     0.059 A 
ATOM     73  C   UNL A   1      46.451  28.073  36.099  1.00  0.00     0.059 A 
ATOM     74  F   UNL A   1      45.738  29.705  34.570  1.00  0.00    -0.206 F 
ATOM     75  C   UNL A   1      46.135  27.065  37.009  1.00  0.00     0.060 A 
BRANCH  75  76
ATOM     76  S   UNL A   1      47.445  26.183  37.884  1.00  0.00     0.124 S 
ATOM     77  O   UNL A   1      48.535  26.227  36.916  1.00  0.00    -0.237 OA
ATOM     78  O   UNL A   1      47.622  27.004  39.080  1.00  0.00    -0.237 OA
ATOM     79  O   UNL A   1      46.864  24.865  38.122  1.00  0.00    -0.744 OA
ENDBRANCH  75  76
ENDBRANCH  54  68
BRANCH  55  80
ATOM     80  C   UNL A   1      36.666  33.232  31.021  1.00  0.00     0.058 A 
ATOM     81  C   UNL A   1      35.342  33.116  31.470  1.00  0.00     0.135 A 
ATOM     82  C   UNL A   1      36.909  34.032  29.895  1.00  0.00     0.135 A 
ATOM     83  F   UNL A   1      35.058  32.355  32.538  1.00  0.00    -0.206 F 
ATOM     84  C   UNL A   1      34.296  33.755  30.817  1.00  0.00     0.059 A 
ATOM     85  C   UNL A   1      35.880  34.698  29.237  1.00  0.00     0.059 A 
ATOM     86  F   UNL A   1      38.162  34.182  29.438  1.00  0.00    -0.206 F 
ATOM     87  C   UNL A   1      34.574  34.541  29.697  1.00  0.00     0.060 A 
BRANCH  87  88
ATOM     88  S   UNL A   1      33.202  35.366  28.860  1.00  0.00     0.124 S 
ATOM     89  O   UNL A   1      33.911  36.312  28.005  1.00  0.00    -0.237 OA
ATOM     90  O   UNL A   1      32.547  34.256  28.174  1.00  0.00    -0.237 OA
ATOM     91  O   UNL A   1      32.443  35.955  29.959  1.00  0.00    -0.744 OA
ENDBRANCH  87  88
ENDBRANCH  55  80
BRANCH  67  92
ATOM     92  C   UNL A   1      39.992  34.135  37.093  1.00  0.00     0.058 A 
ATOM     93  C   UNL A   1      39.146  33.894  38.187  1.00  0.00     0.135 A 
ATOM     94  C   UNL A   1      40.629  35.382  37.013  1.00  0.00     0.135 A 
ATOM     95  F   UNL A   1      38.513  32.716  38.305  1.00  0.00    -0.206 F 
ATOM     96  C   UNL A   1      38.915  34.867  39.153  1.00  0.00     0.059 A 
ATOM     97  C   UNL A   1      40.428  36.364  37.980  1.00  0.00     0.059 A 
ATOM     98  F   UNL A   1      41.456  35.654  35.992  1.00  0.00    -0.206 F 
ATOM     99  C   UNL A   1      39.553  36.102  39.035  1.00  0.00     0.060 A 
BRANCH  99 100
ATOM    100  S   UNL A   1      39.232  37.361  40.290  1.00  0.00     0.124 S 
ATOM    101  O   UNL A   1      40.581  37.802  40.622  1.00  0.00    -0.237 OA
ATOM    102  O   UNL A   1      38.410  38.323  39.560  1.00  0.00    -0.237 OA
ATOM    103  O   UNL A   1      38.535  36.622  41.338  1.00  0.00    -0.744 OA
ENDBRANCH  99 100
ENDBRANCH  67  92
ENDBRANCH  41  42
ENDBRANCH  33  36
ENDBRANCH  31  32
ENDBRANCH  30  31
ENDBRANCH  29  30
ENDBRANCH   1  29
TORSDOF 21
ENDMDL
MODEL 2
REMARK VINA RESULT:     -11.6      0.417      8.016
REMARK SMILES O=C(C[C@@H](NS(=O)(=O)c1ccc(Cl)cc1)c1ccc(F)cc1)NCCCCCCNC(=O)c1ccc(-c2c3nc(c(-c4c(F)cc(S(=O)(=O)[O-])cc4F)c4ccc([nH]4)c(-c4c(F)cc(S(=O)(=O)[O-])cc4F)c4nc(c(-c5c(F)cc(S(=O)(=O)[O-])cc5F)c5ccc2[nH]5)C=C4)C=C3)cc1
REMARK SMILES IDX 26 1 25 2 24 3 23 4 1 5 2 6 3 8 4 9 5 10 6 12 7 13 8 14 9 15
REMARK SMILES IDX 10 16 15 17 11 18 14 19 12 20 13 21 16 22 17 23 22 24 18 25
REMARK SMILES IDX 21 26 19 27 20 28 27 29 28 30 29 31 30 32 31 33 32 35 33 36
REMARK SMILES IDX 34 37 98 38 35 39 97 40 36 41 37 42 38 43 91 44 39 45 96 46
REMARK SMILES IDX 90 47 92 48 40 49 95 50 89 51 88 52 41 54 75 55 54 56 74 57
REMARK SMILES IDX 55 58 58 59 73 60 93 61 56 62 57 63 72 65 94 66 59 67 42 68
REMARK SMILES IDX 43 69 52 70 44 71 45 72 51 73 53 74 46 75 47 76 48 77 49 78
REMARK SMILES IDX 50 79 76 80 77 81 86 82 78 83 79 84 85 85 87 86 80 87 81 88
REMARK SMILES IDX 82 89 83 90 84 91 60 92 61 93 70 94 62 95 63 96 69 97 71 98
REMARK SMILES IDX 64 99 65 100 66 101 67 102 68 103
REMARK H PARENT 23 7 5 11 30 34 92 53 58 64
REMARK Flexibility Score: inf
ROOT
ATOM      1  C   UNL A   1      35.494  24.149  25.877  1.00  0.00     0.002 C 
ENDROOT
BRANCH   1   2
ATOM      2  C   UNL A   1      34.664  23.245  26.797  1.00  0.00     0.021 C 
BRANCH   2   3
ATOM      3  C   UNL A   1      33.162  23.257  26.524  1.00  0.00     0.116 C 
BRANCH   3   4
ATOM      4  N   UNL A   1      32.656  24.599  26.307  1.00  0.00    -0.356 N 
ATOM      5  O   UNL A   1      30.542  24.138  27.086  1.00  0.00    -0.275 OA
ATOM      6  C   UNL A   1      31.353  24.926  26.612  1.00  0.00     0.221 C 
ATOM      7  H   UNL A   1      33.253  25.289  25.936  1.00  0.00     0.163 HD
BRANCH   6   8
ATOM      8  C   UNL A   1      31.000  26.368  26.345  1.00  0.00     0.124 C 
BRANCH   8   9
ATOM      9  C   UNL A   1      32.044  27.008  25.409  1.00  0.00     0.109 C 
BRANCH   9  10
ATOM     10  N   UNL A   1      31.358  27.418  24.153  1.00  0.00    -0.203 NA
ATOM     11  H   UNL A   1      31.340  28.437  24.143  1.00  0.00     0.142 HD
BRANCH  10  12
ATOM     12  S   UNL A   1      31.987  26.921  22.665  1.00  0.00     0.241 S 
ATOM     13  O   UNL A   1      31.025  27.253  21.635  1.00  0.00    -0.207 OA
ATOM     14  O   UNL A   1      33.339  27.425  22.640  1.00  0.00    -0.207 OA
BRANCH  12  15
ATOM     15  C   UNL A   1      32.111  25.155  22.762  1.00  0.00     0.082 A 
ATOM     16  C   UNL A   1      30.959  24.424  23.080  1.00  0.00     0.023 A 
ATOM     17  C   UNL A   1      33.339  24.509  22.590  1.00  0.00     0.023 A 
ATOM     18  C   UNL A   1      31.043  23.040  23.243  1.00  0.00     0.022 A 
ATOM     19  C   UNL A   1      33.420  23.128  22.778  1.00  0.00     0.022 A 
ATOM     20  C   UNL A   1      32.274  22.400  23.106  1.00  0.00     0.041 A 
ATOM     21  Cl  UNL A   1      32.386  20.701  23.353  1.00  0.00    -0.084 Cl
ENDBRANCH  12  15
ENDBRANCH  10  12
ENDBRANCH   9  10
BRANCH   9  22
ATOM     22  C   UNL A   1      32.726  28.198  26.081  1.00  0.00    -0.029 A 
ATOM     23  C   UNL A   1      34.079  28.167  26.475  1.00  0.00     0.008 A 
ATOM     24  C   UNL A   1      31.973  29.350  26.376  1.00  0.00     0.008 A 
ATOM     25  C   UNL A   1      34.656  29.251  27.139  1.00  0.00     0.039 A 
ATOM     26  C   UNL A   1      32.546  30.423  27.063  1.00  0.00     0.039 A 
ATOM     27  C   UNL A   1      33.882  30.365  27.436  1.00  0.00     0.123 A 
ATOM     28  F   UNL A   1      34.431  31.392  28.096  1.00  0.00    -0.207 F 
ENDBRANCH   9  22
ENDBRANCH   8   9
ENDBRANCH   6   8
ENDBRANCH   3   4
ENDBRANCH   2   3
ENDBRANCH   1   2
BRANCH   1  29
ATOM     29  C   UNL A   1      36.639  23.459  25.130  1.00  0.00     0.002 C 
BRANCH  29  30
ATOM     30  C   UNL A   1      37.885  23.151  25.965  1.00  0.00     0.021 C 
BRANCH  30  31
ATOM     31  C   UNL A   1      38.639  24.367  26.495  1.00  0.00     0.116 C 
BRANCH  31  32
ATOM     32  N   UNL A   1      39.847  24.658  25.740  1.00  0.00    -0.352 N 
ATOM     33  C   UNL A   1      40.826  25.587  26.004  1.00  0.00     0.251 C 
ATOM     34  H   UNL A   1      39.981  24.117  24.929  1.00  0.00     0.163 HD
ATOM     35  O   UNL A   1      41.721  25.785  25.188  1.00  0.00    -0.269 OA
BRANCH  33  36
ATOM     36  C   UNL A   1      40.782  26.368  27.261  1.00  0.00     0.039 A 
ATOM     37  C   UNL A   1      41.636  27.465  27.403  1.00  0.00     0.014 A 
ATOM     38  C   UNL A   1      39.908  26.020  28.295  1.00  0.00     0.014 A 
ATOM     39  C   UNL A   1      41.569  28.253  28.555  1.00  0.00     0.010 A 
ATOM     40  C   UNL A   1      39.806  26.835  29.420  1.00  0.00     0.010 A 
ATOM     41  C   UNL A   1      40.631  27.962  29.560  1.00  0.00    -0.014 A 
BRANCH  41  42
ATOM     42  C   UNL A   1      40.499  28.819  30.766  1.00  0.00     0.031 A 
ATOM     43  C   UNL A   1      39.459  29.905  30.805  1.00  0.00     0.074 A 
ATOM     44  C   UNL A   1      41.355  28.665  31.795  1.00  0.00     0.049 A 
ATOM     45  N   UNL A   1      39.265  30.829  31.711  1.00  0.00    -0.248 NA
ATOM     46  C   UNL A   1      38.528  29.975  29.667  1.00  0.00     0.031 C 
ATOM     47  C   UNL A   1      42.424  27.668  31.865  1.00  0.00     0.029 A 
ATOM     48  N   UNL A   1      41.469  29.356  32.977  1.00  0.00    -0.354 N 
ATOM     49  C   UNL A   1      38.205  31.599  31.246  1.00  0.00     0.074 A 
ATOM     50  C   UNL A   1      37.819  31.057  29.961  1.00  0.00     0.031 C 
ATOM     51  C   UNL A   1      43.075  27.801  33.033  1.00  0.00     0.029 A 
ATOM     52  C   UNL A   1      42.494  28.913  33.779  1.00  0.00     0.049 A 
ATOM     53  H   UNL A   1      40.872  30.098  33.227  1.00  0.00     0.167 HD
ATOM     54  C   UNL A   1      37.599  32.651  31.845  1.00  0.00     0.037 A 
ATOM     55  C   UNL A   1      42.927  29.360  34.975  1.00  0.00     0.037 A 
ATOM     56  C   UNL A   1      37.960  33.163  33.141  1.00  0.00     0.049 A 
ATOM     57  C   UNL A   1      42.230  30.525  35.623  1.00  0.00     0.074 A 
ATOM     58  C   UNL A   1      37.377  34.201  33.846  1.00  0.00     0.029 A 
ATOM     59  N   UNL A   1      38.986  32.668  33.931  1.00  0.00    -0.354 N 
ATOM     60  N   UNL A   1      41.217  31.228  35.178  1.00  0.00    -0.248 NA
ATOM     61  C   UNL A   1      42.732  30.958  36.935  1.00  0.00     0.031 C 
ATOM     62  C   UNL A   1      38.065  34.350  35.053  1.00  0.00     0.029 A 
ATOM     63  C   UNL A   1      39.054  33.383  35.115  1.00  0.00     0.049 A 
ATOM     64  H   UNL A   1      39.578  31.920  33.687  1.00  0.00     0.167 HD
ATOM     65  C   UNL A   1      40.947  32.171  36.163  1.00  0.00     0.074 A 
ATOM     66  C   UNL A   1      41.897  31.946  37.232  1.00  0.00     0.031 C 
ATOM     67  C   UNL A   1      39.995  33.134  36.178  1.00  0.00     0.037 A 
BRANCH  54  68
ATOM     68  C   UNL A   1      36.465  33.314  31.119  1.00  0.00     0.058 A 
ATOM     69  C   UNL A   1      36.704  34.085  29.971  1.00  0.00     0.135 A 
ATOM     70  C   UNL A   1      35.148  33.244  31.601  1.00  0.00     0.135 A 
ATOM     71  F   UNL A   1      37.944  34.179  29.464  1.00  0.00    -0.206 F 
ATOM     72  C   UNL A   1      35.680  34.780  29.336  1.00  0.00     0.059 A 
ATOM     73  C   UNL A   1      34.104  33.913  30.969  1.00  0.00     0.059 A 
ATOM     74  F   UNL A   1      34.865  32.500  32.682  1.00  0.00    -0.206 F 
ATOM     75  C   UNL A   1      34.383  34.691  29.846  1.00  0.00     0.060 A 
BRANCH  75  76
ATOM     76  S   UNL A   1      33.057  35.577  28.998  1.00  0.00     0.124 S 
ATOM     77  O   UNL A   1      32.213  35.991  30.114  1.00  0.00    -0.237 OA
ATOM     78  O   UNL A   1      33.787  36.646  28.321  1.00  0.00    -0.237 OA
ATOM     79  O   UNL A   1      32.486  34.565  28.115  1.00  0.00    -0.744 OA
ENDBRANCH  75  76
ENDBRANCH  54  68
BRANCH  55  80
ATOM     80  C   UNL A   1      44.067  28.685  35.649  1.00  0.00     0.058 A 
ATOM     81  C   UNL A   1      45.395  29.031  35.359  1.00  0.00     0.135 A 
ATOM     82  C   UNL A   1      43.844  27.663  36.584  1.00  0.00     0.135 A 
ATOM     83  F   UNL A   1      45.660  29.996  34.465  1.00  0.00    -0.206 F 
ATOM     84  C   UNL A   1      46.463  28.376  35.961  1.00  0.00     0.059 A 
ATOM     85  C   UNL A   1      44.897  27.007  37.214  1.00  0.00     0.059 A 
ATOM     86  F   UNL A   1      42.589  27.308  36.901  1.00  0.00    -0.206 F 
ATOM     87  C   UNL A   1      46.204  27.361  36.884  1.00  0.00     0.060 A 
BRANCH  87  88
ATOM     88  S   UNL A   1      47.604  26.522  37.657  1.00  0.00     0.124 S 
ATOM     89  O   UNL A   1      47.844  27.370  38.820  1.00  0.00    -0.237 OA
ATOM     90  O   UNL A   1      47.052  25.199  37.938  1.00  0.00    -0.237 OA
ATOM     91  O   UNL A   1      48.633  26.561  36.624  1.00  0.00    -0.744 OA
ENDBRANCH  87  88
ENDBRANCH  55  80
BRANCH  67  92
ATOM     92  C   UNL A   1      39.901  34.008  37.395  1.00  0.00     0.058 A 
ATOM     93  C   UNL A   1      39.067  33.645  38.465  1.00  0.00     0.135 A 
ATOM     94  C   UNL A   1      40.556  35.246  37.460  1.00  0.00     0.135 A 
ATOM     95  F   UNL A   1      38.418  32.470  38.448  1.00  0.00    -0.206 F 
ATOM     96  C   UNL A   1      38.865  34.494  39.548  1.00  0.00     0.059 A 
ATOM     97  C   UNL A   1      40.384  36.104  38.543  1.00  0.00     0.059 A 
ATOM     98  F   UNL A   1      41.372  35.632  36.466  1.00  0.00    -0.206 F 
ATOM     99  C   UNL A   1      39.521  35.726  39.572  1.00  0.00     0.060 A 
BRANCH  99 100
ATOM    100  S   UNL A   1      39.238  36.825  40.977  1.00  0.00     0.124 S 
ATOM    101  O   UNL A   1      40.596  37.049  41.459  1.00  0.00    -0.237 OA
ATOM    102  O   UNL A   1      38.588  37.971  40.348  1.00  0.00    -0.237 OA
ATOM    103  O   UNL A   1      38.382  36.034  41.856  1.00  0.00    -0.744 OA
ENDBRANCH  99 100
ENDBRANCH  67  92
ENDBRANCH  41  42
ENDBRANCH  33  36
ENDBRANCH  31  32
ENDBRANCH  30  31
ENDBRANCH  29  30
ENDBRANCH   1  29
TORSDOF 21
ENDMDL
MODEL 3
REMARK VINA RESULT:     -11.3      5.341     12.178
REMARK SMILES O=C(C[C@@H](NS(=O)(=O)c1ccc(Cl)cc1)c1ccc(F)cc1)NCCCCCCNC(=O)c1ccc(-c2c3nc(c(-c4c(F)cc(S(=O)(=O)[O-])cc4F)c4ccc([nH]4)c(-c4c(F)cc(S(=O)(=O)[O-])cc4F)c4nc(c(-c5c(F)cc(S(=O)(=O)[O-])cc5F)c5ccc2[nH]5)C=C4)C=C3)cc1
REMARK SMILES IDX 26 1 25 2 24 3 23 4 1 5 2 6 3 8 4 9 5 10 6 12 7 13 8 14 9 15
REMARK SMILES IDX 10 16 15 17 11 18 14 19 12 20 13 21 16 22 17 23 22 24 18 25
REMARK SMILES IDX 21 26 19 27 20 28 27 29 28 30 29 31 30 32 31 33 32 35 33 36
REMARK SMILES IDX 34 37 98 38 35 39 97 40 36 41 37 42 38 43 91 44 39 45 96 46
REMARK SMILES IDX 90 47 92 48 40 49 95 50 89 51 88 52 41 54 75 55 54 56 74 57
REMARK SMILES IDX 55 58 58 59 73 60 93 61 56 62 57 63 72 65 94 66 59 67 42 68
REMARK SMILES IDX 43 69 52 70 44 71 45 72 51 73 53 74 46 75 47 76 48 77 49 78
REMARK SMILES IDX 50 79 76 80 77 81 86 82 78 83 79 84 85 85 87 86 80 87 81 88
REMARK SMILES IDX 82 89 83 90 84 91 60 92 61 93 70 94 62 95 63 96 69 97 71 98
REMARK SMILES IDX 64 99 65 100 66 101 67 102 68 103
REMARK H PARENT 23 7 5 11 30 34 92 53 58 64
REMARK Flexibility Score: inf
ROOT
ATOM      1  C   UNL A   1      37.144  33.031  29.111  1.00  0.00     0.002 C 
ENDROOT
BRANCH   1   2
ATOM      2  C   UNL A   1      37.744  33.934  30.196  1.00  0.00     0.021 C 
BRANCH   2   3
ATOM      3  C   UNL A   1      37.157  33.739  31.592  1.00  0.00     0.116 C 
BRANCH   3   4
ATOM      4  N   UNL A   1      37.588  32.494  32.198  1.00  0.00    -0.356 N 
ATOM      5  O   UNL A   1      35.510  31.513  32.123  1.00  0.00    -0.275 OA
ATOM      6  C   UNL A   1      36.698  31.466  32.419  1.00  0.00     0.221 C 
ATOM      7  H   UNL A   1      38.532  32.380  32.454  1.00  0.00     0.163 HD
BRANCH   6   8
ATOM      8  C   UNL A   1      37.319  30.237  33.035  1.00  0.00     0.124 C 
BRANCH   8   9
ATOM      9  C   UNL A   1      38.574  30.620  33.843  1.00  0.00     0.109 C 
BRANCH   9  10
ATOM     10  N   UNL A   1      38.261  30.477  35.291  1.00  0.00    -0.203 NA
ATOM     11  H   UNL A   1      39.056  30.004  35.721  1.00  0.00     0.142 HD
BRANCH  10  12
ATOM     12  S   UNL A   1      37.951  31.859  36.213  1.00  0.00     0.241 S 
ATOM     13  O   UNL A   1      36.977  32.663  35.506  1.00  0.00    -0.207 OA
ATOM     14  O   UNL A   1      37.717  31.375  37.552  1.00  0.00    -0.207 OA
BRANCH  12  15
ATOM     15  C   UNL A   1      39.480  32.755  36.264  1.00  0.00     0.082 A 
ATOM     16  C   UNL A   1      40.591  32.143  36.858  1.00  0.00     0.023 A 
ATOM     17  C   UNL A   1      39.563  34.065  35.783  1.00  0.00     0.023 A 
ATOM     18  C   UNL A   1      41.785  32.853  36.986  1.00  0.00     0.022 A 
ATOM     19  C   UNL A   1      40.754  34.778  35.936  1.00  0.00     0.022 A 
ATOM     20  C   UNL A   1      41.858  34.172  36.538  1.00  0.00     0.041 A 
ATOM     21  Cl  UNL A   1      43.315  35.063  36.739  1.00  0.00    -0.084 Cl
ENDBRANCH  12  15
ENDBRANCH  10  12
ENDBRANCH   9  10
BRANCH   9  22
ATOM     22  C   UNL A   1      39.767  29.753  33.445  1.00  0.00    -0.029 A 
ATOM     23  C   UNL A   1      39.616  28.538  32.748  1.00  0.00     0.008 A 
ATOM     24  C   UNL A   1      41.063  30.140  33.835  1.00  0.00     0.008 A 
ATOM     25  C   UNL A   1      40.724  27.742  32.450  1.00  0.00     0.039 A 
ATOM     26  C   UNL A   1      42.166  29.329  33.559  1.00  0.00     0.039 A 
ATOM     27  C   UNL A   1      41.987  28.139  32.866  1.00  0.00     0.123 A 
ATOM     28  F   UNL A   1      43.043  27.360  32.603  1.00  0.00    -0.207 F 
ENDBRANCH   9  22
ENDBRANCH   8   9
ENDBRANCH   6   8
ENDBRANCH   3   4
ENDBRANCH   2   3
ENDBRANCH   1   2
BRANCH   1  29
ATOM     29  C   UNL A   1      36.318  33.744  28.038  1.00  0.00     0.002 C 
BRANCH  29  30
ATOM     30  C   UNL A   1      34.828  33.392  28.006  1.00  0.00     0.021 C 
BRANCH  30  31
ATOM     31  C   UNL A   1      34.400  32.257  28.932  1.00  0.00     0.116 C 
BRANCH  31  32
ATOM     32  N   UNL A   1      33.871  31.109  28.214  1.00  0.00    -0.352 N 
ATOM     33  C   UNL A   1      34.533  29.990  27.767  1.00  0.00     0.251 C 
ATOM     34  H   UNL A   1      32.906  31.137  28.019  1.00  0.00     0.163 HD
ATOM     35  O   UNL A   1      33.951  29.169  27.065  1.00  0.00    -0.269 OA
BRANCH  33  36
ATOM     36  C   UNL A   1      35.959  29.790  28.112  1.00  0.00     0.039 A 
ATOM     37  C   UNL A   1      36.286  29.330  29.391  1.00  0.00     0.014 A 
ATOM     38  C   UNL A   1      36.969  30.057  27.182  1.00  0.00     0.014 A 
ATOM     39  C   UNL A   1      37.621  29.076  29.718  1.00  0.00     0.010 A 
ATOM     40  C   UNL A   1      38.294  29.755  27.492  1.00  0.00     0.010 A 
ATOM     41  C   UNL A   1      38.633  29.258  28.760  1.00  0.00    -0.014 A 
BRANCH  41  42
ATOM     42  C   UNL A   1      40.051  28.937  29.064  1.00  0.00     0.031 A 
ATOM     43  C   UNL A   1      40.940  29.977  29.686  1.00  0.00     0.074 A 
ATOM     44  C   UNL A   1      40.554  27.735  28.719  1.00  0.00     0.049 A 
ATOM     45  N   UNL A   1      42.228  29.931  29.917  1.00  0.00    -0.248 NA
ATOM     46  C   UNL A   1      40.304  31.244  30.082  1.00  0.00     0.031 C 
ATOM     47  C   UNL A   1      39.801  26.652  28.084  1.00  0.00     0.029 A 
ATOM     48  N   UNL A   1      41.824  27.226  28.843  1.00  0.00    -0.354 N 
ATOM     49  C   UNL A   1      42.558  31.164  30.466  1.00  0.00     0.074 A 
ATOM     50  C   UNL A   1      41.345  31.950  30.503  1.00  0.00     0.031 C 
ATOM     51  C   UNL A   1      40.617  25.603  27.889  1.00  0.00     0.029 A 
ATOM     52  C   UNL A   1      41.959  25.949  28.350  1.00  0.00     0.049 A 
ATOM     53  H   UNL A   1      42.568  27.728  29.247  1.00  0.00     0.167 HD
ATOM     54  C   UNL A   1      43.762  31.593  30.915  1.00  0.00     0.037 A 
ATOM     55  C   UNL A   1      43.042  25.151  28.268  1.00  0.00     0.037 A 
ATOM     56  C   UNL A   1      44.958  30.793  30.913  1.00  0.00     0.049 A 
ATOM     57  C   UNL A   1      44.365  25.649  28.782  1.00  0.00     0.074 A 
ATOM     58  C   UNL A   1      46.216  31.129  31.383  1.00  0.00     0.029 A 
ATOM     59  N   UNL A   1      45.045  29.497  30.430  1.00  0.00    -0.354 N 
ATOM     60  N   UNL A   1      44.655  26.810  29.316  1.00  0.00    -0.248 NA
ATOM     61  C   UNL A   1      45.508  24.730  28.683  1.00  0.00     0.031 C 
ATOM     62  C   UNL A   1      47.069  30.044  31.164  1.00  0.00     0.029 A 
ATOM     63  C   UNL A   1      46.336  29.020  30.588  1.00  0.00     0.049 A 
ATOM     64  H   UNL A   1      44.300  28.989  30.034  1.00  0.00     0.167 HD
ATOM     65  C   UNL A   1      46.006  26.754  29.638  1.00  0.00     0.074 A 
ATOM     66  C   UNL A   1      46.478  25.442  29.245  1.00  0.00     0.031 C 
ATOM     67  C   UNL A   1      46.784  27.705  30.208  1.00  0.00     0.037 A 
BRANCH  54  68
ATOM     68  C   UNL A   1      43.848  32.985  31.468  1.00  0.00     0.058 A 
ATOM     69  C   UNL A   1      43.677  33.222  32.841  1.00  0.00     0.135 A 
ATOM     70  C   UNL A   1      44.030  34.095  30.628  1.00  0.00     0.135 A 
ATOM     71  F   UNL A   1      43.507  32.195  33.688  1.00  0.00    -0.206 F 
ATOM     72  C   UNL A   1      43.665  34.512  33.360  1.00  0.00     0.059 A 
ATOM     73  C   UNL A   1      44.043  35.394  31.128  1.00  0.00     0.059 A 
ATOM     74  F   UNL A   1      44.221  33.919  29.310  1.00  0.00    -0.206 F 
ATOM     75  C   UNL A   1      43.844  35.593  32.494  1.00  0.00     0.060 A 
BRANCH  75  76
ATOM     76  S   UNL A   1      43.850  37.262  33.183  1.00  0.00     0.124 S 
ATOM     77  O   UNL A   1      43.781  38.083  31.979  1.00  0.00    -0.237 OA
ATOM     78  O   UNL A   1      42.652  37.254  34.018  1.00  0.00    -0.237 OA
ATOM     79  O   UNL A   1      45.111  37.319  33.915  1.00  0.00    -0.744 OA
ENDBRANCH  75  76
ENDBRANCH  54  68
BRANCH  55  80
ATOM     80  C   UNL A   1      42.913  23.786  27.694  1.00  0.00     0.058 A 
ATOM     81  C   UNL A   1      43.063  23.555  26.319  1.00  0.00     0.135 A 
ATOM     82  C   UNL A   1      42.616  22.688  28.515  1.00  0.00     0.135 A 
ATOM     83  F   UNL A   1      43.338  24.574  25.490  1.00  0.00    -0.206 F 
ATOM     84  C   UNL A   1      42.907  22.285  25.775  1.00  0.00     0.059 A 
ATOM     85  C   UNL A   1      42.476  21.405  27.997  1.00  0.00     0.059 A 
ATOM     86  F   UNL A   1      42.477  22.861  29.839  1.00  0.00    -0.206 F 
ATOM     87  C   UNL A   1      42.609  21.217  26.622  1.00  0.00     0.060 A 
BRANCH  87  88
ATOM     88  S   UNL A   1      42.411  19.573  25.900  1.00  0.00     0.124 S 
ATOM     89  O   UNL A   1      42.705  18.717  27.044  1.00  0.00    -0.237 OA
ATOM     90  O   UNL A   1      41.018  19.594  25.464  1.00  0.00    -0.237 OA
ATOM     91  O   UNL A   1      43.400  19.556  24.827  1.00  0.00    -0.744 OA
ENDBRANCH  87  88
ENDBRANCH  55  80
BRANCH  67  92
ATOM     92  C   UNL A   1      48.222  27.366  30.477  1.00  0.00     0.058 A 
ATOM     93  C   UNL A   1      48.597  26.791  31.702  1.00  0.00     0.135 A 
ATOM     94  C   UNL A   1      49.235  27.701  29.567  1.00  0.00     0.135 A 
ATOM     95  F   UNL A   1      47.664  26.455  32.605  1.00  0.00    -0.206 F 
ATOM     96  C   UNL A   1      49.934  26.582  32.025  1.00  0.00     0.059 A 
ATOM     97  C   UNL A   1      50.578  27.484  29.862  1.00  0.00     0.059 A 
ATOM     98  F   UNL A   1      48.923  28.243  28.379  1.00  0.00    -0.206 F 
ATOM     99  C   UNL A   1      50.917  26.942  31.102  1.00  0.00     0.060 A 
BRANCH  99 100
ATOM    100  S   UNL A   1      52.649  26.679  31.542  1.00  0.00     0.124 S 
ATOM    101  O   UNL A   1      52.537  26.171  32.904  1.00  0.00    -0.237 OA
ATOM    102  O   UNL A   1      53.081  25.713  30.537  1.00  0.00    -0.237 OA
ATOM    103  O   UNL A   1      53.235  28.010  31.413  1.00  0.00    -0.744 OA
ENDBRANCH  99 100
ENDBRANCH  67  92
ENDBRANCH  41  42
ENDBRANCH  33  36
ENDBRANCH  31  32
ENDBRANCH  30  31
ENDBRANCH  29  30
ENDBRANCH   1  29
TORSDOF 21
ENDMDL
