MODEL 1
REMARK VINA RESULT:     -12.6      0.000      0.000
REMARK SMILES C[C@@]1(Oc2c[nH]c3ccc(Br)c(Cl)c23)O[C@@H](C(=O)NCCCCCCNC(=O)c2ccc(-c3c4nc(c(-c5c(F)cc(S(=O)(=O)[O-])cc5F)c5ccc([nH]5)c(-c5c(F)cc(S(=O)(=O)[O-])cc5F)c5nc(c(-c6c(F)cc(S(=O)(=O)[O-])cc6F)c6ccc3[nH]6)C=C5)C=C4)cc2)[C@@](C)(O)[C@@](C)(O)[C@@]1(C)O
REMARK SMILES IDX 23 1 22 2 21 3 20 4 19 5 17 6 18 7 16 9 1 10 2 11 15 12
REMARK SMILES IDX 101 13 98 14 102 15 95 16 99 17 96 18 3 19 4 20 5 21 14 22
REMARK SMILES IDX 6 23 7 24 12 25 8 27 10 28 13 29 9 30 11 31 103 32 100 34
REMARK SMILES IDX 97 36 24 38 25 39 26 40 27 41 28 43 29 44 30 45 94 46 31 47
REMARK SMILES IDX 93 48 32 49 33 50 34 51 87 52 35 53 92 54 86 55 88 56 36 57
REMARK SMILES IDX 91 58 85 59 84 60 37 62 71 63 50 64 70 65 51 66 54 67 69 68
REMARK SMILES IDX 89 69 52 70 53 71 68 73 90 74 55 75 38 76 39 77 48 78 40 79
REMARK SMILES IDX 41 80 47 81 49 82 42 83 43 84 44 85 45 86 46 87 72 88 73 89
REMARK SMILES IDX 82 90 74 91 75 92 81 93 83 94 76 95 77 96 78 97 79 98 80 99
REMARK SMILES IDX 56 100 57 101 66 102 58 103 59 104 65 105 67 106 60 107
REMARK SMILES IDX 61 108 62 109 63 110 64 111
REMARK H PARENT 19 8 6 26 103 33 100 35 97 37 26 42 88 61 54 72
REMARK Flexibility Score: inf
ROOT
ATOM      1  C   UNL A   1      40.807  21.435  27.412  1.00  0.00     0.002 C 
ENDROOT
BRANCH   1   2
ATOM      2  C   UNL A   1      39.839  21.742  26.253  1.00  0.00     0.002 C 
BRANCH   2   3
ATOM      3  C   UNL A   1      38.760  22.801  26.488  1.00  0.00     0.021 C 
BRANCH   3   4
ATOM      4  C   UNL A   1      37.444  22.539  25.756  1.00  0.00     0.116 C 
BRANCH   4   5
ATOM      5  N   UNL A   1      36.866  21.189  25.765  1.00  0.00    -0.354 N 
ATOM      6  C   UNL A   1      35.841  20.624  25.040  1.00  0.00     0.252 C 
ATOM      7  O   UNL A   1      36.018  19.424  24.766  1.00  0.00    -0.272 OA
ATOM      8  H   UNL A   1      37.288  20.576  26.409  1.00  0.00     0.163 HD
BRANCH   6   9
ATOM      9  C   UNL A   1      34.430  21.301  24.596  1.00  0.00     0.246 C 
ATOM     10  C   UNL A   1      36.135  23.652  23.957  1.00  0.00     0.094 C 
ATOM     11  C   UNL A   1      34.619  23.691  24.286  1.00  0.00     0.240 C 
ATOM     12  O   UNL A   1      34.189  22.443  23.718  1.00  0.00    -0.322 OA
ATOM     13  C   UNL A   1      33.884  23.836  25.759  1.00  0.00     0.158 C 
ATOM     14  C   UNL A   1      33.684  22.529  26.662  1.00  0.00     0.128 C 
ATOM     15  C   UNL A   1      32.421  24.316  25.538  1.00  0.00     0.053 C 
ATOM     16  C   UNL A   1      33.396  21.293  25.775  1.00  0.00     0.129 C 
ATOM     17  C   UNL A   1      32.716  22.704  27.872  1.00  0.00     0.049 C 
ATOM     18  C   UNL A   1      31.966  21.206  25.195  1.00  0.00     0.049 C 
BRANCH  11  19
ATOM     19  O   UNL A   1      34.517  24.977  23.554  1.00  0.00    -0.457 OA
BRANCH  19  20
ATOM     20  C   UNL A   1      33.452  25.325  22.833  1.00  0.00     0.150 A 
ATOM     21  C   UNL A   1      32.965  24.627  21.762  1.00  0.00     0.130 A 
ATOM     22  C   UNL A   1      32.741  26.557  22.948  1.00  0.00     0.061 A 
ATOM     23  N   UNL A   1      31.841  25.294  21.347  1.00  0.00    -0.358 N 
ATOM     24  C   UNL A   1      31.588  26.362  22.186  1.00  0.00     0.051 A 
ATOM     25  C   UNL A   1      32.828  27.716  23.755  1.00  0.00     0.068 A 
ATOM     26  H   UNL A   1      31.295  25.049  20.566  1.00  0.00     0.166 HD
ATOM     27  C   UNL A   1      30.447  27.154  22.348  1.00  0.00     0.028 A 
ATOM     28  C   UNL A   1      31.662  28.436  24.028  1.00  0.00     0.037 A 
ATOM     29  Cl  UNL A   1      34.354  28.036  24.468  1.00  0.00    -0.082 Cl
ATOM     30  C   UNL A   1      30.481  28.135  23.349  1.00  0.00     0.019 A 
ATOM     31  Br  UNL A   1      31.581  29.716  25.430  1.00  0.00    -0.049 Br
ENDBRANCH  19  20
ENDBRANCH  11  19
BRANCH  13  32
ATOM     32  O   UNL A   1      34.599  24.830  26.513  1.00  0.00    -0.380 OA
ATOM     33  H   UNL A   1      34.073  25.091  27.285  1.00  0.00     0.211 HD
ENDBRANCH  13  32
BRANCH  14  34
ATOM     34  O   UNL A   1      34.859  22.238  27.419  1.00  0.00    -0.384 OA
ATOM     35  H   UNL A   1      35.606  22.097  26.816  1.00  0.00     0.211 HD
ENDBRANCH  14  34
BRANCH  16  36
ATOM     36  O   UNL A   1      33.556  20.115  26.598  1.00  0.00    -0.384 OA
ATOM     37  H   UNL A   1      34.497  19.892  26.663  1.00  0.00     0.211 HD
ENDBRANCH  16  36
ENDBRANCH   6   9
ENDBRANCH   4   5
ENDBRANCH   3   4
ENDBRANCH   2   3
ENDBRANCH   1   2
BRANCH   1  38
ATOM     38  C   UNL A   1      41.862  20.338  27.207  1.00  0.00     0.021 C 
BRANCH  38  39
ATOM     39  C   UNL A   1      41.859  19.734  25.815  1.00  0.00     0.116 C 
BRANCH  39  40
ATOM     40  N   UNL A   1      43.198  19.658  25.240  1.00  0.00    -0.352 N 
ATOM     41  C   UNL A   1      44.140  20.636  25.014  1.00  0.00     0.251 C 
ATOM     42  H   UNL A   1      43.475  18.753  24.967  1.00  0.00     0.163 HD
ATOM     43  O   UNL A   1      45.093  20.395  24.292  1.00  0.00    -0.269 OA
BRANCH  41  44
ATOM     44  C   UNL A   1      43.998  21.965  25.640  1.00  0.00     0.039 A 
ATOM     45  C   UNL A   1      44.649  22.237  26.849  1.00  0.00     0.014 A 
ATOM     46  C   UNL A   1      43.157  22.919  25.068  1.00  0.00     0.014 A 
ATOM     47  C   UNL A   1      44.458  23.474  27.455  1.00  0.00     0.010 A 
ATOM     48  C   UNL A   1      43.088  24.185  25.578  1.00  0.00     0.010 A 
ATOM     49  C   UNL A   1      43.668  24.432  26.809  1.00  0.00    -0.014 A 
BRANCH  49  50
ATOM     50  C   UNL A   1      43.441  25.733  27.398  1.00  0.00     0.031 A 
ATOM     51  C   UNL A   1      44.450  26.755  27.049  1.00  0.00     0.074 A 
ATOM     52  C   UNL A   1      42.302  26.034  28.052  1.00  0.00     0.049 A 
ATOM     53  N   UNL A   1      45.369  27.232  27.818  1.00  0.00    -0.248 NA
ATOM     54  C   UNL A   1      44.561  27.184  25.648  1.00  0.00     0.031 C 
ATOM     55  C   UNL A   1      41.086  25.229  28.213  1.00  0.00     0.029 A 
ATOM     56  N   UNL A   1      41.970  27.203  28.650  1.00  0.00    -0.354 N 
ATOM     57  C   UNL A   1      46.047  28.181  27.065  1.00  0.00     0.074 A 
ATOM     58  C   UNL A   1      45.638  27.972  25.699  1.00  0.00     0.031 C 
ATOM     59  C   UNL A   1      40.089  26.013  28.681  1.00  0.00     0.029 A 
ATOM     60  C   UNL A   1      40.633  27.322  28.995  1.00  0.00     0.049 A 
ATOM     61  H   UNL A   1      42.628  27.914  28.826  1.00  0.00     0.167 HD
ATOM     62  C   UNL A   1      46.726  29.199  27.664  1.00  0.00     0.037 A 
ATOM     63  C   UNL A   1      40.028  28.439  29.470  1.00  0.00     0.037 A 
ATOM     64  C   UNL A   1      46.862  28.962  29.082  1.00  0.00     0.049 A 
ATOM     65  C   UNL A   1      41.108  29.283  30.059  1.00  0.00     0.074 A 
ATOM     66  C   UNL A   1      47.460  27.972  29.839  1.00  0.00     0.029 A 
ATOM     67  N   UNL A   1      45.975  29.596  29.923  1.00  0.00    -0.354 N 
ATOM     68  N   UNL A   1      41.799  28.934  31.113  1.00  0.00    -0.248 NA
ATOM     69  C   UNL A   1      41.754  30.266  29.198  1.00  0.00     0.031 C 
ATOM     70  C   UNL A   1      46.565  27.749  30.925  1.00  0.00     0.029 A 
ATOM     71  C   UNL A   1      45.511  28.659  30.813  1.00  0.00     0.049 A 
ATOM     72  H   UNL A   1      45.721  30.547  29.892  1.00  0.00     0.167 HD
ATOM     73  C   UNL A   1      43.105  29.316  30.835  1.00  0.00     0.074 A 
ATOM     74  C   UNL A   1      42.999  30.210  29.683  1.00  0.00     0.031 C 
ATOM     75  C   UNL A   1      44.174  28.654  31.373  1.00  0.00     0.037 A 
BRANCH  62  76
ATOM     76  C   UNL A   1      46.971  30.556  27.058  1.00  0.00     0.058 A 
ATOM     77  C   UNL A   1      48.275  31.092  27.081  1.00  0.00     0.135 A 
ATOM     78  C   UNL A   1      45.946  31.461  26.711  1.00  0.00     0.135 A 
ATOM     79  F   UNL A   1      49.328  30.318  27.392  1.00  0.00    -0.206 F 
ATOM     80  C   UNL A   1      48.530  32.445  26.866  1.00  0.00     0.059 A 
ATOM     81  C   UNL A   1      46.183  32.802  26.435  1.00  0.00     0.059 A 
ATOM     82  F   UNL A   1      44.652  31.117  26.723  1.00  0.00    -0.206 F 
ATOM     83  C   UNL A   1      47.471  33.296  26.563  1.00  0.00     0.060 A 
BRANCH  83  84
ATOM     84  S   UNL A   1      47.774  35.066  26.426  1.00  0.00     0.124 S 
ATOM     85  O   UNL A   1      46.414  35.589  26.366  1.00  0.00    -0.237 OA
ATOM     86  O   UNL A   1      48.514  35.341  27.652  1.00  0.00    -0.237 OA
ATOM     87  O   UNL A   1      48.549  35.179  25.193  1.00  0.00    -0.744 OA
ENDBRANCH  83  84
ENDBRANCH  62  76
BRANCH  63  88
ATOM     88  C   UNL A   1      38.665  28.940  29.145  1.00  0.00     0.058 A 
ATOM     89  C   UNL A   1      37.710  29.161  30.152  1.00  0.00     0.135 A 
ATOM     90  C   UNL A   1      38.353  29.469  27.874  1.00  0.00     0.135 A 
ATOM     91  F   UNL A   1      37.926  28.710  31.397  1.00  0.00    -0.206 F 
ATOM     92  C   UNL A   1      36.546  29.910  29.930  1.00  0.00     0.059 A 
ATOM     93  C   UNL A   1      37.197  30.206  27.626  1.00  0.00     0.059 A 
ATOM     94  F   UNL A   1      39.209  29.368  26.847  1.00  0.00    -0.206 F 
ATOM     95  C   UNL A   1      36.311  30.450  28.666  1.00  0.00     0.060 A 
BRANCH  95  96
ATOM     96  S   UNL A   1      34.916  31.575  28.418  1.00  0.00     0.124 S 
ATOM     97  O   UNL A   1      34.625  32.004  29.782  1.00  0.00    -0.237 OA
ATOM     98  O   UNL A   1      35.492  32.587  27.539  1.00  0.00    -0.237 OA
ATOM     99  O   UNL A   1      33.900  30.726  27.802  1.00  0.00    -0.744 OA
ENDBRANCH  95  96
ENDBRANCH  63  88
BRANCH  75 100
ATOM    100  C   UNL A   1      43.923  27.653  32.475  1.00  0.00     0.058 A 
ATOM    101  C   UNL A   1      43.825  26.264  32.269  1.00  0.00     0.135 A 
ATOM    102  C   UNL A   1      43.992  28.093  33.805  1.00  0.00     0.135 A 
ATOM    103  F   UNL A   1      43.855  25.747  31.035  1.00  0.00    -0.206 F 
ATOM    104  C   UNL A   1      43.774  25.359  33.331  1.00  0.00     0.059 A 
ATOM    105  C   UNL A   1      43.972  27.208  34.880  1.00  0.00     0.059 A 
ATOM    106  F   UNL A   1      44.149  29.401  34.070  1.00  0.00    -0.206 F 
ATOM    107  C   UNL A   1      43.857  25.841  34.636  1.00  0.00     0.060 A 
BRANCH 107 108
ATOM    108  S   UNL A   1      43.896  24.663  36.005  1.00  0.00     0.124 S 
ATOM    109  O   UNL A   1      45.227  24.884  36.562  1.00  0.00    -0.237 OA
ATOM    110  O   UNL A   1      42.780  25.104  36.836  1.00  0.00    -0.237 OA
ATOM    111  O   UNL A   1      43.701  23.372  35.350  1.00  0.00    -0.744 OA
ENDBRANCH 107 108
ENDBRANCH  75 100
ENDBRANCH  49  50
ENDBRANCH  41  44
ENDBRANCH  39  40
ENDBRANCH  38  39
ENDBRANCH   1  38
TORSDOF 21
ENDMDL
MODEL 2
REMARK VINA RESULT:     -12.5      2.055      2.779
REMARK SMILES C[C@@]1(Oc2c[nH]c3ccc(Br)c(Cl)c23)O[C@@H](C(=O)NCCCCCCNC(=O)c2ccc(-c3c4nc(c(-c5c(F)cc(S(=O)(=O)[O-])cc5F)c5ccc([nH]5)c(-c5c(F)cc(S(=O)(=O)[O-])cc5F)c5nc(c(-c6c(F)cc(S(=O)(=O)[O-])cc6F)c6ccc3[nH]6)C=C5)C=C4)cc2)[C@@](C)(O)[C@@](C)(O)[C@@]1(C)O
REMARK SMILES IDX 23 1 22 2 21 3 20 4 19 5 17 6 18 7 16 9 1 10 2 11 15 12
REMARK SMILES IDX 101 13 98 14 102 15 95 16 99 17 96 18 3 19 4 20 5 21 14 22
REMARK SMILES IDX 6 23 7 24 12 25 8 27 10 28 13 29 9 30 11 31 103 32 100 34
REMARK SMILES IDX 97 36 24 38 25 39 26 40 27 41 28 43 29 44 30 45 94 46 31 47
REMARK SMILES IDX 93 48 32 49 33 50 34 51 87 52 35 53 92 54 86 55 88 56 36 57
REMARK SMILES IDX 91 58 85 59 84 60 37 62 71 63 50 64 70 65 51 66 54 67 69 68
REMARK SMILES IDX 89 69 52 70 53 71 68 73 90 74 55 75 38 76 39 77 48 78 40 79
REMARK SMILES IDX 41 80 47 81 49 82 42 83 43 84 44 85 45 86 46 87 72 88 73 89
REMARK SMILES IDX 82 90 74 91 75 92 81 93 83 94 76 95 77 96 78 97 79 98 80 99
REMARK SMILES IDX 56 100 57 101 66 102 58 103 59 104 65 105 67 106 60 107
REMARK SMILES IDX 61 108 62 109 63 110 64 111
REMARK H PARENT 19 8 6 26 103 33 100 35 97 37 26 42 88 61 54 72
REMARK Flexibility Score: inf
ROOT
ATOM      1  C   UNL A   1      39.709  21.688  26.119  1.00  0.00     0.002 C 
ENDROOT
BRANCH   1   2
ATOM      2  C   UNL A   1      39.534  22.946  26.994  1.00  0.00     0.002 C 
BRANCH   2   3
ATOM      3  C   UNL A   1      38.596  24.042  26.486  1.00  0.00     0.021 C 
BRANCH   3   4
ATOM      4  C   UNL A   1      37.278  23.529  25.905  1.00  0.00     0.116 C 
BRANCH   4   5
ATOM      5  N   UNL A   1      36.127  23.321  26.793  1.00  0.00    -0.354 N 
ATOM      6  C   UNL A   1      34.877  22.791  26.567  1.00  0.00     0.252 C 
ATOM      7  O   UNL A   1      34.418  22.150  27.529  1.00  0.00    -0.272 OA
ATOM      8  H   UNL A   1      36.277  23.616  27.721  1.00  0.00     0.163 HD
BRANCH   6   9
ATOM      9  C   UNL A   1      33.924  22.981  25.261  1.00  0.00     0.246 C 
ATOM     10  C   UNL A   1      34.205  25.875  25.886  1.00  0.00     0.094 C 
ATOM     11  C   UNL A   1      33.039  25.225  25.094  1.00  0.00     0.240 C 
ATOM     12  O   UNL A   1      33.733  24.160  24.422  1.00  0.00    -0.322 OA
ATOM     13  C   UNL A   1      31.622  24.597  25.668  1.00  0.00     0.158 C 
ATOM     14  C   UNL A   1      31.605  23.099  26.231  1.00  0.00     0.128 C 
ATOM     15  C   UNL A   1      30.601  24.526  24.496  1.00  0.00     0.053 C 
ATOM     16  C   UNL A   1      32.573  22.201  25.421  1.00  0.00     0.129 C 
ATOM     17  C   UNL A   1      30.185  22.493  26.454  1.00  0.00     0.049 C 
ATOM     18  C   UNL A   1      32.071  21.766  24.026  1.00  0.00     0.049 C 
BRANCH  11  19
ATOM     19  O   UNL A   1      32.776  26.535  24.451  1.00  0.00    -0.457 OA
BRANCH  19  20
ATOM     20  C   UNL A   1      32.478  27.638  25.137  1.00  0.00     0.150 A 
ATOM     21  C   UNL A   1      33.079  28.026  26.302  1.00  0.00     0.130 A 
ATOM     22  C   UNL A   1      31.382  28.510  24.866  1.00  0.00     0.061 A 
ATOM     23  N   UNL A   1      32.519  29.230  26.642  1.00  0.00    -0.358 N 
ATOM     24  C   UNL A   1      31.623  29.626  25.669  1.00  0.00     0.051 A 
ATOM     25  C   UNL A   1      30.345  28.582  23.906  1.00  0.00     0.068 A 
ATOM     26  H   UNL A   1      32.724  29.738  27.460  1.00  0.00     0.166 HD
ATOM     27  C   UNL A   1      31.023  30.865  25.421  1.00  0.00     0.028 A 
ATOM     28  C   UNL A   1      29.834  29.835  23.558  1.00  0.00     0.037 A 
ATOM     29  Cl  UNL A   1      29.924  27.114  23.127  1.00  0.00    -0.082 Cl
ATOM     30  C   UNL A   1      30.195  30.964  24.294  1.00  0.00     0.019 A 
ATOM     31  Br  UNL A   1      28.784  30.089  21.995  1.00  0.00    -0.049 Br
ENDBRANCH  19  20
ENDBRANCH  11  19
BRANCH  13  32
ATOM     32  O   UNL A   1      31.121  25.491  26.678  1.00  0.00    -0.380 OA
ATOM     33  H   UNL A   1      31.009  25.008  27.511  1.00  0.00     0.211 HD
ENDBRANCH  13  32
BRANCH  14  34
ATOM     34  O   UNL A   1      32.029  23.053  27.594  1.00  0.00    -0.384 OA
ATOM     35  H   UNL A   1      32.364  22.165  27.798  1.00  0.00     0.211 HD
ENDBRANCH  14  34
BRANCH  16  36
ATOM     36  O   UNL A   1      32.765  20.978  26.167  1.00  0.00    -0.384 OA
ATOM     37  H   UNL A   1      33.347  20.384  25.669  1.00  0.00     0.211 HD
ENDBRANCH  16  36
ENDBRANCH   6   9
ENDBRANCH   4   5
ENDBRANCH   3   4
ENDBRANCH   2   3
ENDBRANCH   1   2
BRANCH   1  38
ATOM     38  C   UNL A   1      40.422  20.472  26.728  1.00  0.00     0.021 C 
BRANCH  38  39
ATOM     39  C   UNL A   1      41.583  20.832  27.637  1.00  0.00     0.116 C 
BRANCH  39  40
ATOM     40  N   UNL A   1      42.839  20.966  26.907  1.00  0.00    -0.352 N 
ATOM     41  C   UNL A   1      43.529  22.085  26.496  1.00  0.00     0.251 C 
ATOM     42  H   UNL A   1      43.265  20.112  26.665  1.00  0.00     0.163 HD
ATOM     43  O   UNL A   1      44.428  21.968  25.679  1.00  0.00    -0.269 OA
BRANCH  41  44
ATOM     44  C   UNL A   1      43.185  23.413  27.040  1.00  0.00     0.039 A 
ATOM     45  C   UNL A   1      42.589  24.370  26.210  1.00  0.00     0.014 A 
ATOM     46  C   UNL A   1      43.522  23.738  28.353  1.00  0.00     0.014 A 
ATOM     47  C   UNL A   1      42.325  25.636  26.721  1.00  0.00     0.010 A 
ATOM     48  C   UNL A   1      43.126  24.925  28.903  1.00  0.00     0.010 A 
ATOM     49  C   UNL A   1      42.607  25.897  28.067  1.00  0.00    -0.014 A 
BRANCH  49  50
ATOM     50  C   UNL A   1      42.349  27.197  28.646  1.00  0.00     0.031 A 
ATOM     51  C   UNL A   1      43.419  28.194  28.431  1.00  0.00     0.074 A 
ATOM     52  C   UNL A   1      41.151  27.523  29.168  1.00  0.00     0.049 A 
ATOM     53  N   UNL A   1      44.255  28.634  29.309  1.00  0.00    -0.248 NA
ATOM     54  C   UNL A   1      43.703  28.637  27.059  1.00  0.00     0.031 C 
ATOM     55  C   UNL A   1      39.902  26.752  29.176  1.00  0.00     0.029 A 
ATOM     56  N   UNL A   1      40.784  28.694  29.743  1.00  0.00    -0.354 N 
ATOM     57  C   UNL A   1      45.042  29.572  28.654  1.00  0.00     0.074 A 
ATOM     58  C   UNL A   1      44.788  29.392  27.247  1.00  0.00     0.031 C 
ATOM     59  C   UNL A   1      38.879  27.558  29.537  1.00  0.00     0.029 A 
ATOM     60  C   UNL A   1      39.419  28.847  29.932  1.00  0.00     0.049 A 
ATOM     61  H   UNL A   1      41.436  29.383  30.004  1.00  0.00     0.167 HD
ATOM     62  C   UNL A   1      45.675  30.562  29.343  1.00  0.00     0.037 A 
ATOM     63  C   UNL A   1      38.794  29.975  30.352  1.00  0.00     0.037 A 
ATOM     64  C   UNL A   1      45.639  30.304  30.764  1.00  0.00     0.049 A 
ATOM     65  C   UNL A   1      39.822  30.780  31.075  1.00  0.00     0.074 A 
ATOM     66  C   UNL A   1      46.118  29.288  31.569  1.00  0.00     0.029 A 
ATOM     67  N   UNL A   1      44.679  30.954  31.507  1.00  0.00    -0.354 N 
ATOM     68  N   UNL A   1      40.375  30.398  32.196  1.00  0.00    -0.248 NA
ATOM     69  C   UNL A   1      40.590  31.754  30.310  1.00  0.00     0.031 C 
ATOM     70  C   UNL A   1      45.097  29.078  32.541  1.00  0.00     0.029 A 
ATOM     71  C   UNL A   1      44.089  30.019  32.322  1.00  0.00     0.049 A 
ATOM     72  H   UNL A   1      44.456  31.912  31.461  1.00  0.00     0.167 HD
ATOM     73  C   UNL A   1      41.715  30.746  32.077  1.00  0.00     0.074 A 
ATOM     74  C   UNL A   1      41.768  31.656  30.934  1.00  0.00     0.031 C 
ATOM     75  C   UNL A   1      42.696  30.047  32.724  1.00  0.00     0.037 A 
BRANCH  62  76
ATOM     76  C   UNL A   1      46.025  31.920  28.791  1.00  0.00     0.058 A 
ATOM     77  C   UNL A   1      45.000  32.728  28.258  1.00  0.00     0.135 A 
ATOM     78  C   UNL A   1      47.342  32.341  28.513  1.00  0.00     0.135 A 
ATOM     79  F   UNL A   1      43.709  32.424  28.466  1.00  0.00    -0.206 F 
ATOM     80  C   UNL A   1      45.264  33.820  27.433  1.00  0.00     0.059 A 
ATOM     81  C   UNL A   1      47.630  33.460  27.741  1.00  0.00     0.059 A 
ATOM     82  F   UNL A   1      48.416  31.633  28.886  1.00  0.00    -0.206 F 
ATOM     83  C   UNL A   1      46.586  34.164  27.164  1.00  0.00     0.060 A 
BRANCH  83  84
ATOM     84  S   UNL A   1      46.931  35.482  25.987  1.00  0.00     0.124 S 
ATOM     85  O   UNL A   1      46.541  34.857  24.728  1.00  0.00    -0.237 OA
ATOM     86  O   UNL A   1      46.063  36.552  26.468  1.00  0.00    -0.237 OA
ATOM     87  O   UNL A   1      48.362  35.719  26.158  1.00  0.00    -0.744 OA
ENDBRANCH  83  84
ENDBRANCH  62  76
BRANCH  63  88
ATOM     88  C   UNL A   1      37.493  30.520  29.880  1.00  0.00     0.058 A 
ATOM     89  C   UNL A   1      36.614  31.176  30.759  1.00  0.00     0.135 A 
ATOM     90  C   UNL A   1      37.198  30.649  28.505  1.00  0.00     0.135 A 
ATOM     91  F   UNL A   1      36.823  31.124  32.084  1.00  0.00    -0.206 F 
ATOM     92  C   UNL A   1      35.545  31.960  30.305  1.00  0.00     0.059 A 
ATOM     93  C   UNL A   1      36.133  31.412  28.030  1.00  0.00     0.059 A 
ATOM     94  F   UNL A   1      37.992  30.112  27.568  1.00  0.00    -0.206 F 
ATOM     95  C   UNL A   1      35.327  32.091  28.934  1.00  0.00     0.060 A 
BRANCH  95  96
ATOM     96  S   UNL A   1      34.075  33.250  28.333  1.00  0.00     0.124 S 
ATOM     97  O   UNL A   1      34.866  34.147  27.498  1.00  0.00    -0.237 OA
ATOM     98  O   UNL A   1      33.154  32.366  27.627  1.00  0.00    -0.237 OA
ATOM     99  O   UNL A   1      33.545  33.844  29.557  1.00  0.00    -0.744 OA
ENDBRANCH  95  96
ENDBRANCH  63  88
BRANCH  75 100
ATOM    100  C   UNL A   1      42.292  29.039  33.774  1.00  0.00     0.058 A 
ATOM    101  C   UNL A   1      42.148  27.661  33.528  1.00  0.00     0.135 A 
ATOM    102  C   UNL A   1      42.252  29.451  35.114  1.00  0.00     0.135 A 
ATOM    103  F   UNL A   1      42.272  27.165  32.291  1.00  0.00    -0.206 F 
ATOM    104  C   UNL A   1      41.950  26.741  34.559  1.00  0.00     0.059 A 
ATOM    105  C   UNL A   1      42.086  28.549  36.162  1.00  0.00     0.059 A 
ATOM    106  F   UNL A   1      42.446  30.745  35.423  1.00  0.00    -0.206 F 
ATOM    107  C   UNL A   1      41.930  27.194  35.877  1.00  0.00     0.060 A 
BRANCH 107 108
ATOM    108  S   UNL A   1      41.779  25.991  37.216  1.00  0.00     0.124 S 
ATOM    109  O   UNL A   1      42.823  26.427  38.139  1.00  0.00    -0.237 OA
ATOM    110  O   UNL A   1      40.407  26.192  37.671  1.00  0.00    -0.237 OA
ATOM    111  O   UNL A   1      42.026  24.712  36.555  1.00  0.00    -0.744 OA
ENDBRANCH 107 108
ENDBRANCH  75 100
ENDBRANCH  49  50
ENDBRANCH  41  44
ENDBRANCH  39  40
ENDBRANCH  38  39
ENDBRANCH   1  38
TORSDOF 21
ENDMDL
MODEL 3
REMARK VINA RESULT:     -12.4      1.299      2.060
REMARK SMILES C[C@@]1(Oc2c[nH]c3ccc(Br)c(Cl)c23)O[C@@H](C(=O)NCCCCCCNC(=O)c2ccc(-c3c4nc(c(-c5c(F)cc(S(=O)(=O)[O-])cc5F)c5ccc([nH]5)c(-c5c(F)cc(S(=O)(=O)[O-])cc5F)c5nc(c(-c6c(F)cc(S(=O)(=O)[O-])cc6F)c6ccc3[nH]6)C=C5)C=C4)cc2)[C@@](C)(O)[C@@](C)(O)[C@@]1(C)O
REMARK SMILES IDX 23 1 22 2 21 3 20 4 19 5 17 6 18 7 16 9 1 10 2 11 15 12
REMARK SMILES IDX 101 13 98 14 102 15 95 16 99 17 96 18 3 19 4 20 5 21 14 22
REMARK SMILES IDX 6 23 7 24 12 25 8 27 10 28 13 29 9 30 11 31 103 32 100 34
REMARK SMILES IDX 97 36 24 38 25 39 26 40 27 41 28 43 29 44 30 45 94 46 31 47
REMARK SMILES IDX 93 48 32 49 33 50 34 51 87 52 35 53 92 54 86 55 88 56 36 57
REMARK SMILES IDX 91 58 85 59 84 60 37 62 71 63 50 64 70 65 51 66 54 67 69 68
REMARK SMILES IDX 89 69 52 70 53 71 68 73 90 74 55 75 38 76 39 77 48 78 40 79
REMARK SMILES IDX 41 80 47 81 49 82 42 83 43 84 44 85 45 86 46 87 72 88 73 89
REMARK SMILES IDX 82 90 74 91 75 92 81 93 83 94 76 95 77 96 78 97 79 98 80 99
REMARK SMILES IDX 56 100 57 101 66 102 58 103 59 104 65 105 67 106 60 107
REMARK SMILES IDX 61 108 62 109 63 110 64 111
REMARK H PARENT 19 8 6 26 103 33 100 35 97 37 26 42 88 61 54 72
REMARK Flexibility Score: inf
ROOT
ATOM      1  C   UNL A   1      40.970  20.995  27.501  1.00  0.00     0.002 C 
ENDROOT
BRANCH   1   2
ATOM      2  C   UNL A   1      39.995  21.388  26.372  1.00  0.00     0.002 C 
BRANCH   2   3
ATOM      3  C   UNL A   1      39.267  22.728  26.496  1.00  0.00     0.021 C 
BRANCH   3   4
ATOM      4  C   UNL A   1      37.874  22.753  25.867  1.00  0.00     0.116 C 
BRANCH   4   5
ATOM      5  N   UNL A   1      36.691  22.875  26.728  1.00  0.00    -0.354 N 
ATOM      6  C   UNL A   1      35.345  22.781  26.458  1.00  0.00     0.252 C 
ATOM      7  O   UNL A   1      34.680  22.270  27.377  1.00  0.00    -0.272 OA
ATOM      8  H   UNL A   1      36.900  23.059  27.673  1.00  0.00     0.163 HD
BRANCH   6   9
ATOM      9  C   UNL A   1      34.539  23.330  25.155  1.00  0.00     0.246 C 
ATOM     10  C   UNL A   1      32.557  24.242  27.175  1.00  0.00     0.094 C 
ATOM     11  C   UNL A   1      32.261  23.944  25.681  1.00  0.00     0.240 C 
ATOM     12  O   UNL A   1      33.499  24.351  25.076  1.00  0.00    -0.322 OA
ATOM     13  C   UNL A   1      31.823  22.512  24.980  1.00  0.00     0.158 C 
ATOM     14  C   UNL A   1      32.960  21.451  24.600  1.00  0.00     0.128 C 
ATOM     15  C   UNL A   1      31.173  22.816  23.599  1.00  0.00     0.053 C 
ATOM     16  C   UNL A   1      34.247  22.175  24.135  1.00  0.00     0.129 C 
ATOM     17  C   UNL A   1      32.493  20.288  23.671  1.00  0.00     0.049 C 
ATOM     18  C   UNL A   1      34.206  22.759  22.705  1.00  0.00     0.049 C 
BRANCH  11  19
ATOM     19  O   UNL A   1      31.080  24.838  25.760  1.00  0.00    -0.457 OA
BRANCH  19  20
ATOM     20  C   UNL A   1      31.159  26.123  26.102  1.00  0.00     0.150 A 
ATOM     21  C   UNL A   1      30.715  26.652  27.283  1.00  0.00     0.130 A 
ATOM     22  C   UNL A   1      31.565  27.185  25.241  1.00  0.00     0.061 A 
ATOM     23  N   UNL A   1      31.032  27.985  27.251  1.00  0.00    -0.358 N 
ATOM     24  C   UNL A   1      31.725  28.278  26.093  1.00  0.00     0.051 A 
ATOM     25  C   UNL A   1      32.009  27.304  23.903  1.00  0.00     0.068 A 
ATOM     26  H   UNL A   1      30.801  28.637  27.951  1.00  0.00     0.166 HD
ATOM     27  C   UNL A   1      32.484  29.397  25.735  1.00  0.00     0.028 A 
ATOM     28  C   UNL A   1      32.877  28.347  23.569  1.00  0.00     0.037 A 
ATOM     29  Cl  UNL A   1      31.565  26.037  22.836  1.00  0.00    -0.082 Cl
ATOM     30  C   UNL A   1      33.130  29.364  24.491  1.00  0.00     0.019 A 
ATOM     31  Br  UNL A   1      33.872  28.344  21.951  1.00  0.00    -0.049 Br
ENDBRANCH  19  20
ENDBRANCH  11  19
BRANCH  13  32
ATOM     32  O   UNL A   1      30.850  21.883  25.832  1.00  0.00    -0.380 OA
ATOM     33  H   UNL A   1      31.298  21.471  26.587  1.00  0.00     0.211 HD
ENDBRANCH  13  32
BRANCH  14  34
ATOM     34  O   UNL A   1      33.312  20.645  25.724  1.00  0.00    -0.384 OA
ATOM     35  H   UNL A   1      33.458  19.731  25.434  1.00  0.00     0.211 HD
ENDBRANCH  14  34
BRANCH  16  36
ATOM     36  O   UNL A   1      35.318  21.204  24.129  1.00  0.00    -0.384 OA
ATOM     37  H   UNL A   1      35.067  20.449  23.574  1.00  0.00     0.211 HD
ENDBRANCH  16  36
ENDBRANCH   6   9
ENDBRANCH   4   5
ENDBRANCH   3   4
ENDBRANCH   2   3
ENDBRANCH   1   2
BRANCH   1  38
ATOM     38  C   UNL A   1      42.048  19.944  27.197  1.00  0.00     0.021 C 
BRANCH  38  39
ATOM     39  C   UNL A   1      42.122  19.544  25.735  1.00  0.00     0.116 C 
BRANCH  39  40
ATOM     40  N   UNL A   1      43.485  19.587  25.216  1.00  0.00    -0.352 N 
ATOM     41  C   UNL A   1      44.343  20.645  25.021  1.00  0.00     0.251 C 
ATOM     42  H   UNL A   1      43.853  18.710  24.962  1.00  0.00     0.163 HD
ATOM     43  O   UNL A   1      45.344  20.488  24.340  1.00  0.00    -0.269 OA
BRANCH  41  44
ATOM     44  C   UNL A   1      44.056  21.959  25.629  1.00  0.00     0.039 A 
ATOM     45  C   UNL A   1      43.146  22.826  25.012  1.00  0.00     0.014 A 
ATOM     46  C   UNL A   1      44.745  22.365  26.770  1.00  0.00     0.014 A 
ATOM     47  C   UNL A   1      42.930  24.083  25.566  1.00  0.00     0.010 A 
ATOM     48  C   UNL A   1      44.424  23.534  27.403  1.00  0.00     0.010 A 
ATOM     49  C   UNL A   1      43.584  24.422  26.756  1.00  0.00    -0.014 A 
BRANCH  49  50
ATOM     50  C   UNL A   1      43.391  25.716  27.372  1.00  0.00     0.031 A 
ATOM     51  C   UNL A   1      44.422  26.721  27.036  1.00  0.00     0.074 A 
ATOM     52  C   UNL A   1      42.264  26.032  28.039  1.00  0.00     0.049 A 
ATOM     53  N   UNL A   1      45.357  27.160  27.808  1.00  0.00    -0.248 NA
ATOM     54  C   UNL A   1      44.535  27.175  25.643  1.00  0.00     0.031 C 
ATOM     55  C   UNL A   1      41.030  25.253  28.193  1.00  0.00     0.029 A 
ATOM     56  N   UNL A   1      41.964  27.196  28.663  1.00  0.00    -0.354 N 
ATOM     57  C   UNL A   1      46.053  28.108  27.069  1.00  0.00     0.074 A 
ATOM     58  C   UNL A   1      45.631  27.935  25.702  1.00  0.00     0.031 C 
ATOM     59  C   UNL A   1      40.055  26.051  28.682  1.00  0.00     0.029 A 
ATOM     60  C   UNL A   1      40.632  27.340  29.018  1.00  0.00     0.049 A 
ATOM     61  H   UNL A   1      42.640  27.888  28.848  1.00  0.00     0.167 HD
ATOM     62  C   UNL A   1      46.760  29.097  27.684  1.00  0.00     0.037 A 
ATOM     63  C   UNL A   1      40.057  28.461  29.519  1.00  0.00     0.037 A 
ATOM     64  C   UNL A   1      46.899  28.829  29.096  1.00  0.00     0.049 A 
ATOM     65  C   UNL A   1      41.161  29.267  30.117  1.00  0.00     0.074 A 
ATOM     66  C   UNL A   1      47.478  27.810  29.830  1.00  0.00     0.029 A 
ATOM     67  N   UNL A   1      46.033  29.468  29.956  1.00  0.00    -0.354 N 
ATOM     68  N   UNL A   1      41.849  28.882  31.160  1.00  0.00    -0.248 NA
ATOM     69  C   UNL A   1      41.825  30.252  29.272  1.00  0.00     0.031 C 
ATOM     70  C   UNL A   1      46.584  27.587  30.917  1.00  0.00     0.029 A 
ATOM     71  C   UNL A   1      45.552  28.524  30.830  1.00  0.00     0.049 A 
ATOM     72  H   UNL A   1      45.802  30.425  29.945  1.00  0.00     0.167 HD
ATOM     73  C   UNL A   1      43.163  29.238  30.881  1.00  0.00     0.074 A 
ATOM     74  C   UNL A   1      43.071  30.157  29.747  1.00  0.00     0.031 C 
ATOM     75  C   UNL A   1      44.219  28.540  31.398  1.00  0.00     0.037 A 
BRANCH  62  76
ATOM     76  C   UNL A   1      47.034  30.460  27.103  1.00  0.00     0.058 A 
ATOM     77  C   UNL A   1      48.352  30.961  27.123  1.00  0.00     0.135 A 
ATOM     78  C   UNL A   1      46.029  31.398  26.786  1.00  0.00     0.135 A 
ATOM     79  F   UNL A   1      49.387  30.155  27.408  1.00  0.00    -0.206 F 
ATOM     80  C   UNL A   1      48.639  32.312  26.933  1.00  0.00     0.059 A 
ATOM     81  C   UNL A   1      46.298  32.737  26.535  1.00  0.00     0.059 A 
ATOM     82  F   UNL A   1      44.727  31.087  26.805  1.00  0.00    -0.206 F 
ATOM     83  C   UNL A   1      47.600  33.196  26.659  1.00  0.00     0.060 A 
BRANCH  83  84
ATOM     84  S   UNL A   1      47.947  34.959  26.554  1.00  0.00     0.124 S 
ATOM     85  O   UNL A   1      47.961  35.167  25.111  1.00  0.00    -0.237 OA
ATOM     86  O   UNL A   1      46.814  35.533  27.274  1.00  0.00    -0.237 OA
ATOM     87  O   UNL A   1      49.238  35.088  27.223  1.00  0.00    -0.744 OA
ENDBRANCH  83  84
ENDBRANCH  62  76
BRANCH  63  88
ATOM     88  C   UNL A   1      38.705  29.002  29.213  1.00  0.00     0.058 A 
ATOM     89  C   UNL A   1      37.766  29.239  30.233  1.00  0.00     0.135 A 
ATOM     90  C   UNL A   1      38.394  29.549  27.950  1.00  0.00     0.135 A 
ATOM     91  F   UNL A   1      37.983  28.771  31.471  1.00  0.00    -0.206 F 
ATOM     92  C   UNL A   1      36.620  30.020  30.029  1.00  0.00     0.059 A 
ATOM     93  C   UNL A   1      37.254  30.319  27.720  1.00  0.00     0.059 A 
ATOM     94  F   UNL A   1      39.236  29.435  26.913  1.00  0.00    -0.206 F 
ATOM     95  C   UNL A   1      36.386  30.577  28.773  1.00  0.00     0.060 A 
BRANCH  95  96
ATOM     96  S   UNL A   1      35.020  31.740  28.549  1.00  0.00     0.124 S 
ATOM     97  O   UNL A   1      35.605  32.728  27.649  1.00  0.00    -0.237 OA
ATOM     98  O   UNL A   1      33.983  30.888  27.977  1.00  0.00    -0.237 OA
ATOM     99  O   UNL A   1      34.751  32.214  29.904  1.00  0.00    -0.744 OA
ENDBRANCH  95  96
ENDBRANCH  63  88
BRANCH  75 100
ATOM    100  C   UNL A   1      43.951  27.523  32.482  1.00  0.00     0.058 A 
ATOM    101  C   UNL A   1      43.844  26.139  32.253  1.00  0.00     0.135 A 
ATOM    102  C   UNL A   1      44.011  27.942  33.819  1.00  0.00     0.135 A 
ATOM    103  F   UNL A   1      43.880  25.641  31.011  1.00  0.00    -0.206 F 
ATOM    104  C   UNL A   1      43.776  25.218  33.300  1.00  0.00     0.059 A 
ATOM    105  C   UNL A   1      43.975  27.040  34.881  1.00  0.00     0.059 A 
ATOM    106  F   UNL A   1      44.176  29.244  34.107  1.00  0.00    -0.206 F 
ATOM    107  C   UNL A   1      43.852  25.678  34.614  1.00  0.00     0.060 A 
BRANCH 107 108
ATOM    108  S   UNL A   1      43.870  24.478  35.964  1.00  0.00     0.124 S 
ATOM    109  O   UNL A   1      44.972  24.963  36.790  1.00  0.00    -0.237 OA
ATOM    110  O   UNL A   1      42.536  24.625  36.538  1.00  0.00    -0.237 OA
ATOM    111  O   UNL A   1      44.111  23.206  35.287  1.00  0.00    -0.744 OA
ENDBRANCH 107 108
ENDBRANCH  75 100
ENDBRANCH  49  50
ENDBRANCH  41  44
ENDBRANCH  39  40
ENDBRANCH  38  39
ENDBRANCH   1  38
TORSDOF 21
ENDMDL
