MODEL 1
REMARK VINA RESULT:     -11.7      0.000      0.000
REMARK SMILES Cc1ccc(F)c(NC(=O)NC(=O)CCCCC(=O)NCCCCCCNC(=O)c2ccc(-c3c4nc(c(-c5c(F)cc(S(=O)(=O)[O-])cc5F)c5ccc([nH]5)c(-c5c(F)cc(S(=O)(=O)[O-])cc5F)c5nc(c(-c6c(F)cc(S(=O)(=O)[O-])cc6F)c6ccc3[nH]6)C=C5)C=C4)cc2)c1
REMARK SMILES IDX 22 1 21 2 20 3 18 4 19 5 17 7 16 8 15 9 14 10 12 11 8 12
REMARK SMILES IDX 9 13 10 15 11 16 13 18 7 19 1 20 2 21 3 22 96 23 4 24 5 25
REMARK SMILES IDX 6 26 23 27 24 28 25 29 26 30 27 31 28 32 29 34 30 35 31 36
REMARK SMILES IDX 95 37 32 38 94 39 33 40 34 41 35 42 88 43 36 44 93 45 87 46
REMARK SMILES IDX 89 47 37 48 92 49 86 50 85 51 38 53 72 54 51 55 71 56 52 57
REMARK SMILES IDX 55 58 70 59 90 60 53 61 54 62 69 64 91 65 56 66 39 67 40 68
REMARK SMILES IDX 49 69 41 70 42 71 48 72 50 73 43 74 44 75 45 76 46 77 47 78
REMARK SMILES IDX 73 79 74 80 83 81 75 82 76 83 82 84 84 85 77 86 78 87 79 88
REMARK SMILES IDX 80 89 81 90 57 91 58 92 67 93 59 94 60 95 66 96 68 97 61 98
REMARK SMILES IDX 62 99 63 100 64 101 65 102
REMARK H PARENT 20 6 8 14 11 17 27 33 89 52 55 63
REMARK Flexibility Score: inf
ROOT
ATOM      1  C   UNL A   1      36.416  20.806  25.276  1.00  0.00     0.021 C 
ENDROOT
BRANCH   1   2
ATOM      2  C   UNL A   1      35.256  21.402  26.055  1.00  0.00     0.116 C 
BRANCH   2   3
ATOM      3  N   UNL A   1      34.022  20.682  25.859  1.00  0.00    -0.356 N 
ATOM      4  C   UNL A   1      33.033  20.917  24.953  1.00  0.00     0.219 C 
ATOM      5  O   UNL A   1      32.132  20.083  24.843  1.00  0.00    -0.275 OA
ATOM      6  H   UNL A   1      33.873  19.919  26.463  1.00  0.00     0.163 HD
BRANCH   4   7
ATOM      7  C   UNL A   1      33.094  22.131  24.046  1.00  0.00     0.100 C 
BRANCH   7   8
ATOM      8  C   UNL A   1      31.859  22.467  23.210  1.00  0.00     0.010 C 
BRANCH   8   9
ATOM      9  C   UNL A   1      31.777  23.851  22.552  1.00  0.00     0.010 C 
BRANCH   9  10
ATOM     10  C   UNL A   1      33.091  24.568  22.226  1.00  0.00     0.100 C 
BRANCH  10  11
ATOM     11  C   UNL A   1      32.992  25.765  21.314  1.00  0.00     0.227 C 
ATOM     12  N   UNL A   1      33.097  27.468  24.153  1.00  0.00    -0.305 N 
ATOM     13  C   UNL A   1      33.414  27.695  22.862  1.00  0.00     0.325 C 
ATOM     14  H   UNL A   1      33.711  27.926  24.769  1.00  0.00     0.171 HD
ATOM     15  O   UNL A   1      34.272  28.557  22.641  1.00  0.00    -0.248 OA
ATOM     16  N   UNL A   1      32.856  27.047  21.808  1.00  0.00    -0.278 N 
ATOM     17  H   UNL A   1      32.227  27.602  21.293  1.00  0.00     0.174 HD
ATOM     18  O   UNL A   1      33.037  25.616  20.090  1.00  0.00    -0.275 OA
BRANCH  12  19
ATOM     19  C   UNL A   1      32.107  26.740  24.839  1.00  0.00     0.079 A 
ATOM     20  C   UNL A   1      32.252  23.680  27.130  1.00  0.00     0.044 C 
ATOM     21  C   UNL A   1      31.709  24.841  26.342  1.00  0.00    -0.049 A 
ATOM     22  C   UNL A   1      30.333  24.978  26.124  1.00  0.00     0.006 A 
ATOM     23  C   UNL A   1      32.583  25.732  25.702  1.00  0.00     0.032 A 
ATOM     24  C   UNL A   1      29.848  26.008  25.316  1.00  0.00     0.042 A 
ATOM     25  C   UNL A   1      30.730  26.890  24.695  1.00  0.00     0.146 A 
ATOM     26  F   UNL A   1      30.213  27.861  23.932  1.00  0.00    -0.205 F 
ENDBRANCH  12  19
ENDBRANCH  10  11
ENDBRANCH   9  10
ENDBRANCH   8   9
ENDBRANCH   7   8
ENDBRANCH   4   7
ENDBRANCH   2   3
ENDBRANCH   1   2
BRANCH   1  27
ATOM     27  C   UNL A   1      37.446  21.869  24.885  1.00  0.00     0.002 C 
BRANCH  27  28
ATOM     28  C   UNL A   1      38.660  21.959  25.821  1.00  0.00     0.002 C 
BRANCH  28  29
ATOM     29  C   UNL A   1      38.800  23.273  26.588  1.00  0.00     0.021 C 
BRANCH  29  30
ATOM     30  C   UNL A   1      40.186  23.498  27.169  1.00  0.00     0.116 C 
BRANCH  30  31
ATOM     31  N   UNL A   1      41.092  24.079  26.187  1.00  0.00    -0.352 N 
ATOM     32  C   UNL A   1      41.477  25.387  26.046  1.00  0.00     0.251 C 
ATOM     33  H   UNL A   1      41.478  23.448  25.537  1.00  0.00     0.163 HD
ATOM     34  O   UNL A   1      42.048  25.760  25.022  1.00  0.00    -0.269 OA
BRANCH  32  35
ATOM     35  C   UNL A   1      41.183  26.334  27.135  1.00  0.00     0.039 A 
ATOM     36  C   UNL A   1      40.210  26.017  28.082  1.00  0.00     0.014 A 
ATOM     37  C   UNL A   1      41.909  27.525  27.229  1.00  0.00     0.014 A 
ATOM     38  C   UNL A   1      39.999  26.880  29.158  1.00  0.00     0.010 A 
ATOM     39  C   UNL A   1      41.778  28.320  28.357  1.00  0.00     0.010 A 
ATOM     40  C   UNL A   1      40.804  28.022  29.318  1.00  0.00    -0.014 A 
BRANCH  40  41
ATOM     41  C   UNL A   1      40.618  28.948  30.461  1.00  0.00     0.031 A 
ATOM     42  C   UNL A   1      41.475  28.790  31.689  1.00  0.00     0.074 A 
ATOM     43  C   UNL A   1      39.641  29.874  30.420  1.00  0.00     0.049 A 
ATOM     44  N   UNL A   1      41.424  29.440  32.822  1.00  0.00    -0.248 NA
ATOM     45  C   UNL A   1      42.499  27.730  31.655  1.00  0.00     0.031 C 
ATOM     46  C   UNL A   1      38.711  30.074  29.306  1.00  0.00     0.029 A 
ATOM     47  N   UNL A   1      39.262  30.816  31.341  1.00  0.00    -0.354 N 
ATOM     48  C   UNL A   1      42.389  28.856  33.635  1.00  0.00     0.074 A 
ATOM     49  C   UNL A   1      42.955  27.751  32.897  1.00  0.00     0.031 C 
ATOM     50  C   UNL A   1      37.892  31.098  29.596  1.00  0.00     0.029 A 
ATOM     51  C   UNL A   1      38.209  31.597  30.931  1.00  0.00     0.049 A 
ATOM     52  H   UNL A   1      39.703  30.922  32.214  1.00  0.00     0.167 HD
ATOM     53  C   UNL A   1      42.789  29.229  34.872  1.00  0.00     0.037 A 
ATOM     54  C   UNL A   1      37.568  32.600  31.562  1.00  0.00     0.037 A 
ATOM     55  C   UNL A   1      42.236  30.352  35.581  1.00  0.00     0.049 A 
ATOM     56  C   UNL A   1      38.035  33.005  32.933  1.00  0.00     0.074 A 
ATOM     57  C   UNL A   1      42.608  30.862  36.811  1.00  0.00     0.029 A 
ATOM     58  N   UNL A   1      41.189  31.138  35.121  1.00  0.00    -0.354 N 
ATOM     59  N   UNL A   1      38.999  32.490  33.661  1.00  0.00    -0.248 NA
ATOM     60  C   UNL A   1      37.337  34.131  33.567  1.00  0.00     0.031 C 
ATOM     61  C   UNL A   1      41.749  31.922  37.120  1.00  0.00     0.029 A 
ATOM     62  C   UNL A   1      40.883  32.114  36.054  1.00  0.00     0.049 A 
ATOM     63  H   UNL A   1      40.729  31.018  34.258  1.00  0.00     0.167 HD
ATOM     64  C   UNL A   1      39.042  33.247  34.826  1.00  0.00     0.074 A 
ATOM     65  C   UNL A   1      38.015  34.263  34.699  1.00  0.00     0.031 C 
ATOM     66  C   UNL A   1      39.858  33.118  35.903  1.00  0.00     0.037 A 
BRANCH  53  67
ATOM     67  C   UNL A   1      43.874  28.417  35.528  1.00  0.00     0.058 A 
ATOM     68  C   UNL A   1      45.237  28.680  35.304  1.00  0.00     0.135 A 
ATOM     69  C   UNL A   1      43.551  27.363  36.398  1.00  0.00     0.135 A 
ATOM     70  F   UNL A   1      45.608  29.664  34.469  1.00  0.00    -0.206 F 
ATOM     71  C   UNL A   1      46.235  27.902  35.882  1.00  0.00     0.059 A 
ATOM     72  C   UNL A   1      44.533  26.594  37.017  1.00  0.00     0.059 A 
ATOM     73  F   UNL A   1      42.266  27.064  36.650  1.00  0.00    -0.206 F 
ATOM     74  C   UNL A   1      45.872  26.860  36.735  1.00  0.00     0.060 A 
BRANCH  74  75
ATOM     75  S   UNL A   1      47.180  25.856  37.470  1.00  0.00     0.124 S 
ATOM     76  O   UNL A   1      47.100  24.640  36.664  1.00  0.00    -0.237 OA
ATOM     77  O   UNL A   1      48.365  26.680  37.255  1.00  0.00    -0.237 OA
ATOM     78  O   UNL A   1      46.761  25.715  38.861  1.00  0.00    -0.744 OA
ENDBRANCH  74  75
ENDBRANCH  53  67
BRANCH  54  79
ATOM     79  C   UNL A   1      36.446  33.303  30.885  1.00  0.00     0.058 A 
ATOM     80  C   UNL A   1      35.127  33.169  31.345  1.00  0.00     0.135 A 
ATOM     81  C   UNL A   1      36.672  34.155  29.792  1.00  0.00     0.135 A 
ATOM     82  F   UNL A   1      34.858  32.365  32.384  1.00  0.00    -0.206 F 
ATOM     83  C   UNL A   1      34.071  33.846  30.741  1.00  0.00     0.059 A 
ATOM     84  C   UNL A   1      35.637  34.863  29.188  1.00  0.00     0.059 A 
ATOM     85  F   UNL A   1      37.918  34.335  29.325  1.00  0.00    -0.206 F 
ATOM     86  C   UNL A   1      34.338  34.696  29.666  1.00  0.00     0.060 A 
BRANCH  86  87
ATOM     87  S   UNL A   1      32.969  35.619  28.934  1.00  0.00     0.124 S 
ATOM     88  O   UNL A   1      32.356  34.610  28.079  1.00  0.00    -0.237 OA
ATOM     89  O   UNL A   1      32.201  36.010  30.112  1.00  0.00    -0.237 OA
ATOM     90  O   UNL A   1      33.637  36.716  28.240  1.00  0.00    -0.744 OA
ENDBRANCH  86  87
ENDBRANCH  54  79
BRANCH  66  91
ATOM     91  C   UNL A   1      39.700  34.117  37.016  1.00  0.00     0.058 A 
ATOM     92  C   UNL A   1      38.920  33.846  38.149  1.00  0.00     0.135 A 
ATOM     93  C   UNL A   1      40.392  35.339  36.970  1.00  0.00     0.135 A 
ATOM     94  F   UNL A   1      38.233  32.696  38.240  1.00  0.00    -0.206 F 
ATOM     95  C   UNL A   1      38.812  34.762  39.191  1.00  0.00     0.059 A 
ATOM     96  C   UNL A   1      40.325  36.255  38.014  1.00  0.00     0.059 A 
ATOM     97  F   UNL A   1      41.161  35.643  35.912  1.00  0.00    -0.206 F 
ATOM     98  C   UNL A   1      39.523  35.962  39.116  1.00  0.00     0.060 A 
BRANCH  98  99
ATOM     99  S   UNL A   1      39.403  37.124  40.491  1.00  0.00     0.124 S 
ATOM    100  O   UNL A   1      40.808  37.402  40.764  1.00  0.00    -0.237 OA
ATOM    101  O   UNL A   1      38.641  38.222  39.905  1.00  0.00    -0.237 OA
ATOM    102  O   UNL A   1      38.702  36.362  41.521  1.00  0.00    -0.744 OA
ENDBRANCH  98  99
ENDBRANCH  66  91
ENDBRANCH  40  41
ENDBRANCH  32  35
ENDBRANCH  30  31
ENDBRANCH  29  30
ENDBRANCH  28  29
ENDBRANCH  27  28
ENDBRANCH   1  27
TORSDOF 21
ENDMDL
MODEL 2
REMARK VINA RESULT:     -11.6      5.071      6.391
REMARK SMILES Cc1ccc(F)c(NC(=O)NC(=O)CCCCC(=O)NCCCCCCNC(=O)c2ccc(-c3c4nc(c(-c5c(F)cc(S(=O)(=O)[O-])cc5F)c5ccc([nH]5)c(-c5c(F)cc(S(=O)(=O)[O-])cc5F)c5nc(c(-c6c(F)cc(S(=O)(=O)[O-])cc6F)c6ccc3[nH]6)C=C5)C=C4)cc2)c1
REMARK SMILES IDX 22 1 21 2 20 3 18 4 19 5 17 7 16 8 15 9 14 10 12 11 8 12
REMARK SMILES IDX 9 13 10 15 11 16 13 18 7 19 1 20 2 21 3 22 96 23 4 24 5 25
REMARK SMILES IDX 6 26 23 27 24 28 25 29 26 30 27 31 28 32 29 34 30 35 31 36
REMARK SMILES IDX 95 37 32 38 94 39 33 40 34 41 35 42 88 43 36 44 93 45 87 46
REMARK SMILES IDX 89 47 37 48 92 49 86 50 85 51 38 53 72 54 51 55 71 56 52 57
REMARK SMILES IDX 55 58 70 59 90 60 53 61 54 62 69 64 91 65 56 66 39 67 40 68
REMARK SMILES IDX 49 69 41 70 42 71 48 72 50 73 43 74 44 75 45 76 46 77 47 78
REMARK SMILES IDX 73 79 74 80 83 81 75 82 76 83 82 84 84 85 77 86 78 87 79 88
REMARK SMILES IDX 80 89 81 90 57 91 58 92 67 93 59 94 60 95 66 96 68 97 61 98
REMARK SMILES IDX 62 99 63 100 64 101 65 102
REMARK H PARENT 20 6 8 14 11 17 27 33 89 52 55 63
REMARK Flexibility Score: inf
ROOT
ATOM      1  C   UNL A   1      32.911  20.822  25.575  1.00  0.00     0.021 C 
ENDROOT
BRANCH   1   2
ATOM      2  C   UNL A   1      31.781  21.755  25.174  1.00  0.00     0.116 C 
BRANCH   2   3
ATOM      3  N   UNL A   1      30.849  21.998  26.247  1.00  0.00    -0.356 N 
ATOM      4  C   UNL A   1      30.419  23.188  26.749  1.00  0.00     0.219 C 
ATOM      5  O   UNL A   1      29.493  23.179  27.562  1.00  0.00    -0.275 OA
ATOM      6  H   UNL A   1      30.473  21.195  26.676  1.00  0.00     0.163 HD
BRANCH   4   7
ATOM      7  C   UNL A   1      31.011  24.492  26.249  1.00  0.00     0.100 C 
BRANCH   7   8
ATOM      8  C   UNL A   1      30.585  24.994  24.870  1.00  0.00     0.010 C 
BRANCH   8   9
ATOM      9  C   UNL A   1      29.765  26.290  24.785  1.00  0.00     0.010 C 
BRANCH   9  10
ATOM     10  C   UNL A   1      29.203  26.692  23.419  1.00  0.00     0.100 C 
BRANCH  10  11
ATOM     11  C   UNL A   1      28.459  28.003  23.361  1.00  0.00     0.227 C 
ATOM     12  N   UNL A   1      31.386  29.193  22.368  1.00  0.00    -0.305 N 
ATOM     13  C   UNL A   1      30.089  29.533  22.219  1.00  0.00     0.325 C 
ATOM     14  H   UNL A   1      31.915  29.402  21.565  1.00  0.00     0.171 HD
ATOM     15  O   UNL A   1      29.797  30.198  21.220  1.00  0.00    -0.248 OA
ATOM     16  N   UNL A   1      29.103  29.194  23.087  1.00  0.00    -0.278 N 
ATOM     17  H   UNL A   1      28.782  29.948  23.632  1.00  0.00     0.174 HD
ATOM     18  O   UNL A   1      27.241  28.033  23.556  1.00  0.00    -0.275 OA
BRANCH  12  19
ATOM     19  C   UNL A   1      32.172  28.615  23.382  1.00  0.00     0.079 A 
ATOM     20  C   UNL A   1      34.140  25.343  23.600  1.00  0.00     0.044 C 
ATOM     21  C   UNL A   1      33.558  26.679  23.974  1.00  0.00    -0.049 A 
ATOM     22  C   UNL A   1      33.596  27.131  25.298  1.00  0.00     0.006 A 
ATOM     23  C   UNL A   1      32.852  27.434  23.025  1.00  0.00     0.032 A 
ATOM     24  C   UNL A   1      32.973  28.330  25.650  1.00  0.00     0.042 A 
ATOM     25  C   UNL A   1      32.283  29.072  24.694  1.00  0.00     0.146 A 
ATOM     26  F   UNL A   1      31.705  30.215  25.082  1.00  0.00    -0.205 F 
ENDBRANCH  12  19
ENDBRANCH  10  11
ENDBRANCH   9  10
ENDBRANCH   8   9
ENDBRANCH   7   8
ENDBRANCH   4   7
ENDBRANCH   2   3
ENDBRANCH   1   2
BRANCH   1  27
ATOM     27  C   UNL A   1      33.811  21.443  26.646  1.00  0.00     0.002 C 
BRANCH  27  28
ATOM     28  C   UNL A   1      35.212  21.835  26.157  1.00  0.00     0.002 C 
BRANCH  28  29
ATOM     29  C   UNL A   1      35.524  23.331  26.191  1.00  0.00     0.021 C 
BRANCH  29  30
ATOM     30  C   UNL A   1      36.930  23.674  25.724  1.00  0.00     0.116 C 
BRANCH  30  31
ATOM     31  N   UNL A   1      37.877  22.615  26.052  1.00  0.00    -0.352 N 
ATOM     32  C   UNL A   1      39.169  22.729  26.492  1.00  0.00     0.251 C 
ATOM     33  H   UNL A   1      37.543  21.695  25.941  1.00  0.00     0.163 HD
ATOM     34  O   UNL A   1      39.916  21.752  26.487  1.00  0.00    -0.269 OA
BRANCH  32  35
ATOM     35  C   UNL A   1      39.646  24.042  26.959  1.00  0.00     0.039 A 
ATOM     36  C   UNL A   1      39.932  24.233  28.311  1.00  0.00     0.014 A 
ATOM     37  C   UNL A   1      39.843  25.074  26.036  1.00  0.00     0.014 A 
ATOM     38  C   UNL A   1      40.465  25.452  28.729  1.00  0.00     0.010 A 
ATOM     39  C   UNL A   1      40.477  26.240  26.436  1.00  0.00     0.010 A 
ATOM     40  C   UNL A   1      40.769  26.453  27.789  1.00  0.00    -0.014 A 
BRANCH  40  41
ATOM     41  C   UNL A   1      41.354  27.751  28.200  1.00  0.00     0.031 A 
ATOM     42  C   UNL A   1      42.841  27.963  28.087  1.00  0.00     0.074 A 
ATOM     43  C   UNL A   1      40.565  28.702  28.735  1.00  0.00     0.049 A 
ATOM     44  N   UNL A   1      43.561  28.988  28.460  1.00  0.00    -0.248 NA
ATOM     45  C   UNL A   1      43.630  26.855  27.518  1.00  0.00     0.031 C 
ATOM     46  C   UNL A   1      39.120  28.580  28.949  1.00  0.00     0.029 A 
ATOM     47  N   UNL A   1      40.864  29.955  29.202  1.00  0.00    -0.354 N 
ATOM     48  C   UNL A   1      44.880  28.640  28.190  1.00  0.00     0.074 A 
ATOM     49  C   UNL A   1      44.869  27.283  27.696  1.00  0.00     0.031 C 
ATOM     50  C   UNL A   1      38.656  29.726  29.474  1.00  0.00     0.029 A 
ATOM     51  C   UNL A   1      39.773  30.644  29.674  1.00  0.00     0.049 A 
ATOM     52  H   UNL A   1      41.775  30.327  29.200  1.00  0.00     0.167 HD
ATOM     53  C   UNL A   1      45.995  29.397  28.311  1.00  0.00     0.037 A 
ATOM     54  C   UNL A   1      39.684  31.877  30.210  1.00  0.00     0.037 A 
ATOM     55  C   UNL A   1      45.984  30.759  28.776  1.00  0.00     0.049 A 
ATOM     56  C   UNL A   1      40.934  32.705  30.328  1.00  0.00     0.074 A 
ATOM     57  C   UNL A   1      47.043  31.642  28.878  1.00  0.00     0.029 A 
ATOM     58  N   UNL A   1      44.854  31.433  29.218  1.00  0.00    -0.354 N 
ATOM     59  N   UNL A   1      42.165  32.390  29.999  1.00  0.00    -0.248 NA
ATOM     60  C   UNL A   1      40.785  34.058  30.878  1.00  0.00     0.031 C 
ATOM     61  C   UNL A   1      46.562  32.832  29.434  1.00  0.00     0.029 A 
ATOM     62  C   UNL A   1      45.193  32.714  29.619  1.00  0.00     0.049 A 
ATOM     63  H   UNL A   1      43.945  31.055  29.244  1.00  0.00     0.167 HD
ATOM     64  C   UNL A   1      42.933  33.515  30.277  1.00  0.00     0.074 A 
ATOM     65  C   UNL A   1      42.024  34.521  30.788  1.00  0.00     0.031 C 
ATOM     66  C   UNL A   1      44.269  33.701  30.122  1.00  0.00     0.037 A 
BRANCH  53  67
ATOM     67  C   UNL A   1      47.309  28.767  27.934  1.00  0.00     0.058 A 
ATOM     68  C   UNL A   1      48.167  28.207  28.897  1.00  0.00     0.135 A 
ATOM     69  C   UNL A   1      47.717  28.714  26.591  1.00  0.00     0.135 A 
ATOM     70  F   UNL A   1      47.839  28.243  30.198  1.00  0.00    -0.206 F 
ATOM     71  C   UNL A   1      49.398  27.660  28.548  1.00  0.00     0.059 A 
ATOM     72  C   UNL A   1      48.928  28.138  26.215  1.00  0.00     0.059 A 
ATOM     73  F   UNL A   1      46.940  29.233  25.627  1.00  0.00    -0.206 F 
ATOM     74  C   UNL A   1      49.770  27.633  27.204  1.00  0.00     0.060 A 
BRANCH  74  75
ATOM     75  S   UNL A   1      51.373  26.926  26.770  1.00  0.00     0.124 S 
ATOM     76  O   UNL A   1      51.803  26.374  28.052  1.00  0.00    -0.237 OA
ATOM     77  O   UNL A   1      51.017  25.949  25.748  1.00  0.00    -0.237 OA
ATOM     78  O   UNL A   1      52.136  28.077  26.296  1.00  0.00    -0.744 OA
ENDBRANCH  74  75
ENDBRANCH  53  67
BRANCH  54  79
ATOM     79  C   UNL A   1      38.361  32.403  30.641  1.00  0.00     0.058 A 
ATOM     80  C   UNL A   1      37.894  32.202  31.949  1.00  0.00     0.135 A 
ATOM     81  C   UNL A   1      37.555  33.151  29.768  1.00  0.00     0.135 A 
ATOM     82  F   UNL A   1      38.625  31.491  32.819  1.00  0.00    -0.206 F 
ATOM     83  C   UNL A   1      36.672  32.715  32.374  1.00  0.00     0.059 A 
ATOM     84  C   UNL A   1      36.342  33.698  30.178  1.00  0.00     0.059 A 
ATOM     85  F   UNL A   1      37.964  33.391  28.512  1.00  0.00    -0.206 F 
ATOM     86  C   UNL A   1      35.906  33.468  31.482  1.00  0.00     0.060 A 
BRANCH  86  87
ATOM     87  S   UNL A   1      34.355  34.185  32.067  1.00  0.00     0.124 S 
ATOM     88  O   UNL A   1      33.680  34.491  30.812  1.00  0.00    -0.237 OA
ATOM     89  O   UNL A   1      33.788  33.088  32.846  1.00  0.00    -0.237 OA
ATOM     90  O   UNL A   1      34.791  35.338  32.849  1.00  0.00    -0.744 OA
ENDBRANCH  86  87
ENDBRANCH  54  79
BRANCH  66  91
ATOM     91  C   UNL A   1      44.825  35.053  30.474  1.00  0.00     0.058 A 
ATOM     92  C   UNL A   1      45.341  35.333  31.748  1.00  0.00     0.135 A 
ATOM     93  C   UNL A   1      44.898  36.061  29.499  1.00  0.00     0.135 A 
ATOM     94  F   UNL A   1      45.290  34.405  32.717  1.00  0.00    -0.206 F 
ATOM     95  C   UNL A   1      45.889  36.574  32.052  1.00  0.00     0.059 A 
ATOM     96  C   UNL A   1      45.471  37.299  29.771  1.00  0.00     0.059 A 
ATOM     97  F   UNL A   1      44.429  35.842  28.260  1.00  0.00    -0.206 F 
ATOM     98  C   UNL A   1      45.954  37.550  31.054  1.00  0.00     0.060 A 
BRANCH  98  99
ATOM     99  S   UNL A   1      46.701  39.143  31.452  1.00  0.00     0.124 S 
ATOM    100  O   UNL A   1      48.048  38.745  31.846  1.00  0.00    -0.237 OA
ATOM    101  O   UNL A   1      46.597  39.861  30.186  1.00  0.00    -0.237 OA
ATOM    102  O   UNL A   1      45.858  39.656  32.528  1.00  0.00    -0.744 OA
ENDBRANCH  98  99
ENDBRANCH  66  91
ENDBRANCH  40  41
ENDBRANCH  32  35
ENDBRANCH  30  31
ENDBRANCH  29  30
ENDBRANCH  28  29
ENDBRANCH  27  28
ENDBRANCH   1  27
TORSDOF 21
ENDMDL
MODEL 3
REMARK VINA RESULT:     -11.6      4.778     10.502
REMARK SMILES Cc1ccc(F)c(NC(=O)NC(=O)CCCCC(=O)NCCCCCCNC(=O)c2ccc(-c3c4nc(c(-c5c(F)cc(S(=O)(=O)[O-])cc5F)c5ccc([nH]5)c(-c5c(F)cc(S(=O)(=O)[O-])cc5F)c5nc(c(-c6c(F)cc(S(=O)(=O)[O-])cc6F)c6ccc3[nH]6)C=C5)C=C4)cc2)c1
REMARK SMILES IDX 22 1 21 2 20 3 18 4 19 5 17 7 16 8 15 9 14 10 12 11 8 12
REMARK SMILES IDX 9 13 10 15 11 16 13 18 7 19 1 20 2 21 3 22 96 23 4 24 5 25
REMARK SMILES IDX 6 26 23 27 24 28 25 29 26 30 27 31 28 32 29 34 30 35 31 36
REMARK SMILES IDX 95 37 32 38 94 39 33 40 34 41 35 42 88 43 36 44 93 45 87 46
REMARK SMILES IDX 89 47 37 48 92 49 86 50 85 51 38 53 72 54 51 55 71 56 52 57
REMARK SMILES IDX 55 58 70 59 90 60 53 61 54 62 69 64 91 65 56 66 39 67 40 68
REMARK SMILES IDX 49 69 41 70 42 71 48 72 50 73 43 74 44 75 45 76 46 77 47 78
REMARK SMILES IDX 73 79 74 80 83 81 75 82 76 83 82 84 84 85 77 86 78 87 79 88
REMARK SMILES IDX 80 89 81 90 57 91 58 92 67 93 59 94 60 95 66 96 68 97 61 98
REMARK SMILES IDX 62 99 63 100 64 101 65 102
REMARK H PARENT 20 6 8 14 11 17 27 33 89 52 55 63
REMARK Flexibility Score: inf
ROOT
ATOM      1  C   UNL A   1      31.736  26.401  24.220  1.00  0.00     0.021 C 
ENDROOT
BRANCH   1   2
ATOM      2  C   UNL A   1      30.977  25.596  23.179  1.00  0.00     0.116 C 
BRANCH   2   3
ATOM      3  N   UNL A   1      31.494  25.778  21.845  1.00  0.00    -0.356 N 
ATOM      4  C   UNL A   1      32.734  25.488  21.364  1.00  0.00     0.219 C 
ATOM      5  O   UNL A   1      32.923  25.569  20.149  1.00  0.00    -0.275 OA
ATOM      6  H   UNL A   1      30.865  26.166  21.194  1.00  0.00     0.163 HD
BRANCH   4   7
ATOM      7  C   UNL A   1      33.824  24.994  22.297  1.00  0.00     0.100 C 
BRANCH   7   8
ATOM      8  C   UNL A   1      34.045  23.486  22.410  1.00  0.00     0.010 C 
BRANCH   8   9
ATOM      9  C   UNL A   1      32.850  22.552  22.170  1.00  0.00     0.010 C 
BRANCH   9  10
ATOM     10  C   UNL A   1      32.372  21.688  23.341  1.00  0.00     0.100 C 
BRANCH  10  11
ATOM     11  C   UNL A   1      32.368  20.197  23.113  1.00  0.00     0.227 C 
ATOM     12  N   UNL A   1      33.889  20.118  26.054  1.00  0.00    -0.305 N 
ATOM     13  C   UNL A   1      33.124  19.281  25.325  1.00  0.00     0.325 C 
ATOM     14  H   UNL A   1      33.724  20.021  27.019  1.00  0.00     0.171 HD
ATOM     15  O   UNL A   1      32.492  18.419  25.945  1.00  0.00    -0.248 OA
ATOM     16  N   UNL A   1      33.008  19.327  23.974  1.00  0.00    -0.278 N 
ATOM     17  H   UNL A   1      33.476  18.593  23.514  1.00  0.00     0.174 HD
ATOM     18  O   UNL A   1      31.776  19.721  22.141  1.00  0.00    -0.275 OA
BRANCH  12  19
ATOM     19  C   UNL A   1      34.864  21.096  25.782  1.00  0.00     0.079 A 
ATOM     20  C   UNL A   1      34.791  24.920  25.817  1.00  0.00     0.044 C 
ATOM     21  C   UNL A   1      35.297  23.509  25.680  1.00  0.00    -0.049 A 
ATOM     22  C   UNL A   1      36.532  23.246  25.078  1.00  0.00     0.006 A 
ATOM     23  C   UNL A   1      34.477  22.427  26.035  1.00  0.00     0.032 A 
ATOM     24  C   UNL A   1      36.949  21.930  24.874  1.00  0.00     0.042 A 
ATOM     25  C   UNL A   1      36.127  20.866  25.241  1.00  0.00     0.146 A 
ATOM     26  F   UNL A   1      36.574  19.623  25.026  1.00  0.00    -0.205 F 
ENDBRANCH  12  19
ENDBRANCH  10  11
ENDBRANCH   9  10
ENDBRANCH   8   9
ENDBRANCH   7   8
ENDBRANCH   4   7
ENDBRANCH   2   3
ENDBRANCH   1   2
BRANCH   1  27
ATOM     27  C   UNL A   1      30.792  27.207  25.116  1.00  0.00     0.002 C 
BRANCH  27  28
ATOM     28  C   UNL A   1      31.491  28.216  26.038  1.00  0.00     0.002 C 
BRANCH  28  29
ATOM     29  C   UNL A   1      32.685  27.671  26.822  1.00  0.00     0.021 C 
BRANCH  29  30
ATOM     30  C   UNL A   1      33.946  28.506  26.677  1.00  0.00     0.116 C 
BRANCH  30  31
ATOM     31  N   UNL A   1      33.767  29.847  27.220  1.00  0.00    -0.352 N 
ATOM     32  C   UNL A   1      34.596  30.550  28.053  1.00  0.00     0.251 C 
ATOM     33  H   UNL A   1      32.940  30.308  26.952  1.00  0.00     0.163 HD
ATOM     34  O   UNL A   1      34.194  31.565  28.620  1.00  0.00    -0.269 OA
BRANCH  32  35
ATOM     35  C   UNL A   1      35.970  30.062  28.264  1.00  0.00     0.039 A 
ATOM     36  C   UNL A   1      36.878  30.074  27.205  1.00  0.00     0.014 A 
ATOM     37  C   UNL A   1      36.361  29.625  29.534  1.00  0.00     0.014 A 
ATOM     38  C   UNL A   1      38.199  29.691  27.436  1.00  0.00     0.010 A 
ATOM     39  C   UNL A   1      37.697  29.355  29.784  1.00  0.00     0.010 A 
ATOM     40  C   UNL A   1      38.624  29.358  28.735  1.00  0.00    -0.014 A 
BRANCH  40  41
ATOM     41  C   UNL A   1      40.026  28.967  29.016  1.00  0.00     0.031 A 
ATOM     42  C   UNL A   1      40.971  29.974  29.617  1.00  0.00     0.074 A 
ATOM     43  C   UNL A   1      40.460  27.740  28.668  1.00  0.00     0.049 A 
ATOM     44  N   UNL A   1      42.248  29.860  29.870  1.00  0.00    -0.248 NA
ATOM     45  C   UNL A   1      40.413  31.300  29.938  1.00  0.00     0.031 C 
ATOM     46  C   UNL A   1      39.648  26.705  28.022  1.00  0.00     0.029 A 
ATOM     47  N   UNL A   1      41.694  27.157  28.802  1.00  0.00    -0.354 N 
ATOM     48  C   UNL A   1      42.647  31.101  30.356  1.00  0.00     0.074 A 
ATOM     49  C   UNL A   1      41.497  31.973  30.290  1.00  0.00     0.031 C 
ATOM     50  C   UNL A   1      40.397  25.605  27.847  1.00  0.00     0.029 A 
ATOM     51  C   UNL A   1      41.750  25.868  28.327  1.00  0.00     0.049 A 
ATOM     52  H   UNL A   1      42.467  27.618  29.200  1.00  0.00     0.167 HD
ATOM     53  C   UNL A   1      43.854  31.468  30.845  1.00  0.00     0.037 A 
ATOM     54  C   UNL A   1      42.778  24.999  28.280  1.00  0.00     0.037 A 
ATOM     55  C   UNL A   1      44.980  30.578  30.932  1.00  0.00     0.049 A 
ATOM     56  C   UNL A   1      44.109  25.425  28.837  1.00  0.00     0.074 A 
ATOM     57  C   UNL A   1      46.231  30.821  31.469  1.00  0.00     0.029 A 
ATOM     58  N   UNL A   1      44.990  29.270  30.467  1.00  0.00    -0.354 N 
ATOM     59  N   UNL A   1      44.451  26.578  29.363  1.00  0.00    -0.248 NA
ATOM     60  C   UNL A   1      45.190  24.432  28.806  1.00  0.00     0.031 C 
ATOM     61  C   UNL A   1      47.015  29.679  31.277  1.00  0.00     0.029 A 
ATOM     62  C   UNL A   1      46.234  28.701  30.681  1.00  0.00     0.049 A 
ATOM     63  H   UNL A   1      44.225  28.814  30.046  1.00  0.00     0.167 HD
ATOM     64  C   UNL A   1      45.780  26.440  29.750  1.00  0.00     0.074 A 
ATOM     65  C   UNL A   1      46.172  25.087  29.409  1.00  0.00     0.031 C 
ATOM     66  C   UNL A   1      46.601  27.349  30.336  1.00  0.00     0.037 A 
BRANCH  53  67
ATOM     67  C   UNL A   1      44.009  32.888  31.321  1.00  0.00     0.058 A 
ATOM     68  C   UNL A   1      43.710  33.266  32.641  1.00  0.00     0.135 A 
ATOM     69  C   UNL A   1      44.471  33.887  30.448  1.00  0.00     0.135 A 
ATOM     70  F   UNL A   1      43.249  32.358  33.516  1.00  0.00    -0.206 F 
ATOM     71  C   UNL A   1      43.818  34.586  33.066  1.00  0.00     0.059 A 
ATOM     72  C   UNL A   1      44.623  35.209  30.861  1.00  0.00     0.059 A 
ATOM     73  F   UNL A   1      44.772  33.587  29.175  1.00  0.00    -0.206 F 
ATOM     74  C   UNL A   1      44.274  35.551  32.166  1.00  0.00     0.060 A 
BRANCH  74  75
ATOM     75  S   UNL A   1      44.402  37.261  32.731  1.00  0.00     0.124 S 
ATOM     76  O   UNL A   1      45.850  37.428  32.822  1.00  0.00    -0.237 OA
ATOM     77  O   UNL A   1      43.747  37.995  31.654  1.00  0.00    -0.237 OA
ATOM     78  O   UNL A   1      43.690  37.253  34.005  1.00  0.00    -0.744 OA
ENDBRANCH  74  75
ENDBRANCH  53  67
BRANCH  54  79
ATOM     79  C   UNL A   1      42.572  23.638  27.717  1.00  0.00     0.058 A 
ATOM     80  C   UNL A   1      42.654  23.408  26.335  1.00  0.00     0.135 A 
ATOM     81  C   UNL A   1      42.330  22.534  28.548  1.00  0.00     0.135 A 
ATOM     82  F   UNL A   1      42.880  24.431  25.498  1.00  0.00    -0.206 F 
ATOM     83  C   UNL A   1      42.494  22.135  25.796  1.00  0.00     0.059 A 
ATOM     84  C   UNL A   1      42.193  21.246  28.036  1.00  0.00     0.059 A 
ATOM     85  F   UNL A   1      42.262  22.695  29.879  1.00  0.00    -0.206 F 
ATOM     86  C   UNL A   1      42.271  21.058  26.657  1.00  0.00     0.060 A 
BRANCH  86  87
ATOM     87  S   UNL A   1      42.131  19.402  25.951  1.00  0.00     0.124 S 
ATOM     88  O   UNL A   1      42.652  18.575  27.033  1.00  0.00    -0.237 OA
ATOM     89  O   UNL A   1      40.697  19.298  25.700  1.00  0.00    -0.237 OA
ATOM     90  O   UNL A   1      42.964  19.477  24.754  1.00  0.00    -0.744 OA
ENDBRANCH  86  87
ENDBRANCH  54  79
BRANCH  66  91
ATOM     91  C   UNL A   1      47.994  26.901  30.680  1.00  0.00     0.058 A 
ATOM     92  C   UNL A   1      49.057  27.026  29.774  1.00  0.00     0.135 A 
ATOM     93  C   UNL A   1      48.278  26.398  31.961  1.00  0.00     0.135 A 
ATOM     94  F   UNL A   1      48.840  27.496  28.535  1.00  0.00    -0.206 F 
ATOM     95  C   UNL A   1      50.351  26.646  30.116  1.00  0.00     0.059 A 
ATOM     96  C   UNL A   1      49.569  26.042  32.336  1.00  0.00     0.059 A 
ATOM     97  F   UNL A   1      47.298  26.268  32.870  1.00  0.00    -0.206 F 
ATOM     98  C   UNL A   1      50.597  26.159  31.402  1.00  0.00     0.060 A 
BRANCH  98  99
ATOM     99  S   UNL A   1      52.286  25.705  31.845  1.00  0.00     0.124 S 
ATOM    100  O   UNL A   1      52.130  24.296  32.190  1.00  0.00    -0.237 OA
ATOM    101  O   UNL A   1      53.016  25.978  30.611  1.00  0.00    -0.237 OA
ATOM    102  O   UNL A   1      52.597  26.594  32.961  1.00  0.00    -0.744 OA
ENDBRANCH  98  99
ENDBRANCH  66  91
ENDBRANCH  40  41
ENDBRANCH  32  35
ENDBRANCH  30  31
ENDBRANCH  29  30
ENDBRANCH  28  29
ENDBRANCH  27  28
ENDBRANCH   1  27
TORSDOF 21
ENDMDL
