MODEL 1
REMARK VINA RESULT:     -10.7      0.000      0.000
REMARK SMILES CC(C)[C@@H]([NH2+][C@@H]1CSCC(C)(C)C1)C(=O)NCCCCCCNC(=O)c1ccc(-c2c3nc(c(-c4c(F)cc(S(=O)(=O)[O-])cc4F)c4ccc([nH]4)c(-c4c(F)cc(S(=O)(=O)[O-])cc4F)c4nc(c(-c5c(F)cc(S(=O)(=O)[O-])cc5F)c5ccc2[nH]5)C=C4)C=C3)cc1
REMARK SMILES IDX 20 1 19 2 18 3 17 4 16 5 14 6 15 7 4 9 2 10 1 11 3 12 5 13
REMARK SMILES IDX 6 16 7 17 13 18 8 19 10 20 9 21 11 22 12 23 21 24 22 25
REMARK SMILES IDX 23 26 24 27 25 29 26 30 27 31 91 32 28 33 90 34 29 35 30 36
REMARK SMILES IDX 31 37 84 38 32 39 89 40 83 41 85 42 33 43 88 44 82 45 81 46
REMARK SMILES IDX 34 48 68 49 47 50 67 51 48 52 51 53 66 54 86 55 49 56 50 57
REMARK SMILES IDX 65 59 87 60 52 61 35 62 36 63 45 64 37 65 38 66 44 67 46 68
REMARK SMILES IDX 39 69 40 70 41 71 42 72 43 73 69 74 70 75 79 76 71 77 72 78
REMARK SMILES IDX 78 79 80 80 73 81 74 82 75 83 76 84 77 85 53 86 54 87 63 88
REMARK SMILES IDX 55 89 56 90 62 91 64 92 57 93 58 94 59 95 60 96 61 97
REMARK H PARENT 16 8 5 14 5 15 23 28 85 47 51 58
REMARK Flexibility Score: inf
ROOT
ATOM      1  C   UNL A   1      38.783  22.831  26.232  1.00  0.00     0.002 C 
ENDROOT
BRANCH   1   2
ATOM      2  C   UNL A   1      37.710  21.930  25.618  1.00  0.00     0.002 C 
BRANCH   2   3
ATOM      3  C   UNL A   1      37.166  22.426  24.273  1.00  0.00     0.021 C 
BRANCH   3   4
ATOM      4  C   UNL A   1      35.957  23.349  24.421  1.00  0.00     0.116 C 
BRANCH   4   5
ATOM      5  N   UNL A   1      35.271  23.045  25.659  1.00  0.00    -0.351 N 
ATOM      6  C   UNL A   1      33.976  22.671  25.843  1.00  0.00     0.278 C 
ATOM      7  O   UNL A   1      33.549  22.615  27.001  1.00  0.00    -0.268 OA
ATOM      8  H   UNL A   1      35.815  23.119  26.475  1.00  0.00     0.163 HD
BRANCH   6   9
ATOM      9  C   UNL A   1      33.086  22.267  24.640  1.00  0.00     0.275 C 
BRANCH   9  10
ATOM     10  C   UNL A   1      32.849  20.733  24.548  1.00  0.00     0.051 C 
ATOM     11  C   UNL A   1      32.304  20.280  23.187  1.00  0.00     0.014 C 
ATOM     12  C   UNL A   1      34.162  19.984  24.821  1.00  0.00     0.014 C 
ENDBRANCH   9  10
BRANCH   9  13
ATOM     13  N   UNL A   1      31.853  23.096  24.641  1.00  0.00    -0.333 N 
ATOM     14  H   UNL A   1      31.919  23.760  25.413  1.00  0.00     0.347 HD
ATOM     15  H   UNL A   1      31.071  22.449  24.734  1.00  0.00     0.347 HD
BRANCH  13  16
ATOM     16  C   UNL A   1      31.619  23.860  23.395  1.00  0.00     0.193 C 
ATOM     17  C   UNL A   1      32.835  24.755  23.061  1.00  0.00     0.134 C 
ATOM     18  C   UNL A   1      30.314  24.684  23.332  1.00  0.00     0.073 C 
ATOM     19  S   UNL A   1      32.993  26.220  24.136  1.00  0.00    -0.155 SA
ATOM     20  C   UNL A   1      30.196  25.929  24.250  1.00  0.00    -0.021 C 
ATOM     21  C   UNL A   1      31.323  26.923  23.915  1.00  0.00     0.076 C 
ATOM     22  C   UNL A   1      30.192  25.629  25.762  1.00  0.00     0.012 C 
ATOM     23  C   UNL A   1      28.827  26.579  23.947  1.00  0.00     0.012 C 
ENDBRANCH  13  16
ENDBRANCH   9  13
ENDBRANCH   6   9
ENDBRANCH   4   5
ENDBRANCH   3   4
ENDBRANCH   2   3
ENDBRANCH   1   2
BRANCH   1  24
ATOM     24  C   UNL A   1      39.959  22.073  26.854  1.00  0.00     0.021 C 
BRANCH  24  25
ATOM     25  C   UNL A   1      41.105  22.973  27.297  1.00  0.00     0.116 C 
BRANCH  25  26
ATOM     26  N   UNL A   1      41.657  23.720  26.178  1.00  0.00    -0.352 N 
ATOM     27  C   UNL A   1      41.819  25.076  26.049  1.00  0.00     0.251 C 
ATOM     28  H   UNL A   1      41.954  23.180  25.410  1.00  0.00     0.163 HD
ATOM     29  O   UNL A   1      42.070  25.568  24.955  1.00  0.00    -0.269 OA
BRANCH  27  30
ATOM     30  C   UNL A   1      41.672  25.932  27.243  1.00  0.00     0.039 A 
ATOM     31  C   UNL A   1      42.668  26.864  27.536  1.00  0.00     0.014 A 
ATOM     32  C   UNL A   1      40.544  25.818  28.062  1.00  0.00     0.014 A 
ATOM     33  C   UNL A   1      42.508  27.718  28.627  1.00  0.00     0.010 A 
ATOM     34  C   UNL A   1      40.350  26.721  29.100  1.00  0.00     0.010 A 
ATOM     35  C   UNL A   1      41.334  27.674  29.399  1.00  0.00    -0.014 A 
BRANCH  35  36
ATOM     36  C   UNL A   1      41.121  28.616  30.526  1.00  0.00     0.031 A 
ATOM     37  C   UNL A   1      41.968  28.514  31.765  1.00  0.00     0.074 A 
ATOM     38  C   UNL A   1      40.129  29.525  30.452  1.00  0.00     0.049 A 
ATOM     39  N   UNL A   1      41.899  29.209  32.871  1.00  0.00    -0.248 NA
ATOM     40  C   UNL A   1      43.012  27.476  31.774  1.00  0.00     0.031 C 
ATOM     41  C   UNL A   1      39.211  29.686  29.322  1.00  0.00     0.029 A 
ATOM     42  N   UNL A   1      39.720  30.481  31.348  1.00  0.00    -0.354 N 
ATOM     43  C   UNL A   1      42.880  28.689  33.707  1.00  0.00     0.074 A 
ATOM     44  C   UNL A   1      43.490  27.582  33.005  1.00  0.00     0.031 C 
ATOM     45  C   UNL A   1      38.366  30.695  29.580  1.00  0.00     0.029 A 
ATOM     46  C   UNL A   1      38.651  31.226  30.910  1.00  0.00     0.049 A 
ATOM     47  H   UNL A   1      40.151  30.620  32.221  1.00  0.00     0.167 HD
ATOM     48  C   UNL A   1      43.253  29.113  34.938  1.00  0.00     0.037 A 
ATOM     49  C   UNL A   1      37.971  32.220  31.514  1.00  0.00     0.037 A 
ATOM     50  C   UNL A   1      42.651  30.228  35.620  1.00  0.00     0.049 A 
ATOM     51  C   UNL A   1      38.399  32.666  32.887  1.00  0.00     0.074 A 
ATOM     52  C   UNL A   1      42.992  30.773  36.846  1.00  0.00     0.029 A 
ATOM     53  N   UNL A   1      41.579  30.968  35.139  1.00  0.00    -0.354 N 
ATOM     54  N   UNL A   1      39.373  32.207  33.637  1.00  0.00    -0.248 NA
ATOM     55  C   UNL A   1      37.641  33.769  33.493  1.00  0.00     0.031 C 
ATOM     56  C   UNL A   1      42.095  31.807  37.130  1.00  0.00     0.029 A 
ATOM     57  C   UNL A   1      41.231  31.948  36.055  1.00  0.00     0.049 A 
ATOM     58  H   UNL A   1      41.133  30.818  34.274  1.00  0.00     0.167 HD
ATOM     59  C   UNL A   1      39.364  32.984  34.789  1.00  0.00     0.074 A 
ATOM     60  C   UNL A   1      38.295  33.950  34.632  1.00  0.00     0.031 C 
ATOM     61  C   UNL A   1      40.168  32.907  35.879  1.00  0.00     0.037 A 
BRANCH  48  62
ATOM     62  C   UNL A   1      44.367  28.368  35.627  1.00  0.00     0.058 A 
ATOM     63  C   UNL A   1      44.111  27.294  36.493  1.00  0.00     0.135 A 
ATOM     64  C   UNL A   1      45.708  28.710  35.389  1.00  0.00     0.135 A 
ATOM     65  F   UNL A   1      42.847  26.933  36.770  1.00  0.00    -0.206 F 
ATOM     66  C   UNL A   1      45.141  26.603  37.121  1.00  0.00     0.059 A 
ATOM     67  C   UNL A   1      46.756  28.013  35.983  1.00  0.00     0.059 A 
ATOM     68  F   UNL A   1      46.012  29.730  34.571  1.00  0.00    -0.206 F 
ATOM     69  C   UNL A   1      46.462  26.970  36.860  1.00  0.00     0.060 A 
BRANCH  69  70
ATOM     70  S   UNL A   1      47.788  26.058  37.677  1.00  0.00     0.124 S 
ATOM     71  O   UNL A   1      48.134  25.071  36.658  1.00  0.00    -0.237 OA
ATOM     72  O   UNL A   1      48.783  27.100  37.913  1.00  0.00    -0.237 OA
ATOM     73  O   UNL A   1      47.148  25.524  38.875  1.00  0.00    -0.744 OA
ENDBRANCH  69  70
ENDBRANCH  48  62
BRANCH  49  74
ATOM     74  C   UNL A   1      36.830  32.873  30.818  1.00  0.00     0.058 A 
ATOM     75  C   UNL A   1      35.505  32.583  31.174  1.00  0.00     0.135 A 
ATOM     76  C   UNL A   1      37.040  33.808  29.793  1.00  0.00     0.135 A 
ATOM     77  F   UNL A   1      35.251  31.690  32.145  1.00  0.00    -0.206 F 
ATOM     78  C   UNL A   1      34.428  33.180  30.528  1.00  0.00     0.059 A 
ATOM     79  C   UNL A   1      35.981  34.441  29.151  1.00  0.00     0.059 A 
ATOM     80  F   UNL A   1      38.289  34.136  29.426  1.00  0.00    -0.206 F 
ATOM     81  C   UNL A   1      34.677  34.112  29.518  1.00  0.00     0.060 A 
BRANCH  81  82
ATOM     82  S   UNL A   1      33.272  34.915  28.717  1.00  0.00     0.124 S 
ATOM     83  O   UNL A   1      33.905  36.082  28.113  1.00  0.00    -0.237 OA
ATOM     84  O   UNL A   1      32.817  33.883  27.791  1.00  0.00    -0.237 OA
ATOM     85  O   UNL A   1      32.366  35.193  29.828  1.00  0.00    -0.744 OA
ENDBRANCH  81  82
ENDBRANCH  49  74
BRANCH  61  86
ATOM     86  C   UNL A   1      39.951  33.915  36.974  1.00  0.00     0.058 A 
ATOM     87  C   UNL A   1      40.572  35.173  36.958  1.00  0.00     0.135 A 
ATOM     88  C   UNL A   1      39.066  33.635  38.029  1.00  0.00     0.135 A 
ATOM     89  F   UNL A   1      41.432  35.489  35.977  1.00  0.00    -0.206 F 
ATOM     90  C   UNL A   1      40.342  36.110  37.961  1.00  0.00     0.059 A 
ATOM     91  C   UNL A   1      38.796  34.569  39.026  1.00  0.00     0.059 A 
ATOM     92  F   UNL A   1      38.436  32.450  38.089  1.00  0.00    -0.206 F 
ATOM     93  C   UNL A   1      39.450  35.799  38.989  1.00  0.00     0.060 A 
BRANCH  93  94
ATOM     94  S   UNL A   1      39.136  37.038  40.264  1.00  0.00     0.124 S 
ATOM     95  O   UNL A   1      38.346  36.277  41.225  1.00  0.00    -0.237 OA
ATOM     96  O   UNL A   1      40.485  37.395  40.691  1.00  0.00    -0.237 OA
ATOM     97  O   UNL A   1      38.415  38.087  39.548  1.00  0.00    -0.744 OA
ENDBRANCH  93  94
ENDBRANCH  61  86
ENDBRANCH  35  36
ENDBRANCH  27  30
ENDBRANCH  25  26
ENDBRANCH  24  25
ENDBRANCH   1  24
TORSDOF 19
ENDMDL
MODEL 2
REMARK VINA RESULT:     -10.7      1.142      2.103
REMARK SMILES CC(C)[C@@H]([NH2+][C@@H]1CSCC(C)(C)C1)C(=O)NCCCCCCNC(=O)c1ccc(-c2c3nc(c(-c4c(F)cc(S(=O)(=O)[O-])cc4F)c4ccc([nH]4)c(-c4c(F)cc(S(=O)(=O)[O-])cc4F)c4nc(c(-c5c(F)cc(S(=O)(=O)[O-])cc5F)c5ccc2[nH]5)C=C4)C=C3)cc1
REMARK SMILES IDX 20 1 19 2 18 3 17 4 16 5 14 6 15 7 4 9 2 10 1 11 3 12 5 13
REMARK SMILES IDX 6 16 7 17 13 18 8 19 10 20 9 21 11 22 12 23 21 24 22 25
REMARK SMILES IDX 23 26 24 27 25 29 26 30 27 31 91 32 28 33 90 34 29 35 30 36
REMARK SMILES IDX 31 37 84 38 32 39 89 40 83 41 85 42 33 43 88 44 82 45 81 46
REMARK SMILES IDX 34 48 68 49 47 50 67 51 48 52 51 53 66 54 86 55 49 56 50 57
REMARK SMILES IDX 65 59 87 60 52 61 35 62 36 63 45 64 37 65 38 66 44 67 46 68
REMARK SMILES IDX 39 69 40 70 41 71 42 72 43 73 69 74 70 75 79 76 71 77 72 78
REMARK SMILES IDX 78 79 80 80 73 81 74 82 75 83 76 84 77 85 53 86 54 87 63 88
REMARK SMILES IDX 55 89 56 90 62 91 64 92 57 93 58 94 59 95 60 96 61 97
REMARK H PARENT 16 8 5 14 5 15 23 28 85 47 51 58
REMARK Flexibility Score: inf
ROOT
ATOM      1  C   UNL A   1      37.702  22.045  25.221  1.00  0.00     0.002 C 
ENDROOT
BRANCH   1   2
ATOM      2  C   UNL A   1      36.427  21.200  25.168  1.00  0.00     0.002 C 
BRANCH   2   3
ATOM      3  C   UNL A   1      35.166  21.934  25.641  1.00  0.00     0.021 C 
BRANCH   3   4
ATOM      4  C   UNL A   1      33.914  21.058  25.598  1.00  0.00     0.116 C 
BRANCH   4   5
ATOM      5  N   UNL A   1      32.910  21.613  26.479  1.00  0.00    -0.351 N 
ATOM      6  C   UNL A   1      32.315  22.836  26.426  1.00  0.00     0.278 C 
ATOM      7  O   UNL A   1      31.597  23.172  27.373  1.00  0.00    -0.268 OA
ATOM      8  H   UNL A   1      32.619  21.029  27.215  1.00  0.00     0.163 HD
BRANCH   6   9
ATOM      9  C   UNL A   1      32.483  23.749  25.184  1.00  0.00     0.275 C 
BRANCH   9  10
ATOM     10  C   UNL A   1      31.876  23.136  23.892  1.00  0.00     0.051 C 
ATOM     11  C   UNL A   1      30.606  23.850  23.415  1.00  0.00     0.014 C 
ATOM     12  C   UNL A   1      32.912  23.176  22.758  1.00  0.00     0.014 C 
ENDBRANCH   9  10
BRANCH   9  13
ATOM     13  N   UNL A   1      32.010  25.118  25.515  1.00  0.00    -0.333 N 
ATOM     14  H   UNL A   1      31.834  25.159  26.519  1.00  0.00     0.347 HD
ATOM     15  H   UNL A   1      31.173  25.276  24.954  1.00  0.00     0.347 HD
BRANCH  13  16
ATOM     16  C   UNL A   1      32.957  26.201  25.169  1.00  0.00     0.193 C 
ATOM     17  C   UNL A   1      33.206  27.125  26.383  1.00  0.00     0.134 C 
ATOM     18  C   UNL A   1      32.610  27.041  23.919  1.00  0.00     0.073 C 
ATOM     19  S   UNL A   1      31.808  28.232  26.770  1.00  0.00    -0.155 SA
ATOM     20  C   UNL A   1      31.382  27.987  23.998  1.00  0.00    -0.021 C 
ATOM     21  C   UNL A   1      31.593  29.007  25.132  1.00  0.00     0.076 C 
ATOM     22  C   UNL A   1      30.023  27.281  24.172  1.00  0.00     0.012 C 
ATOM     23  C   UNL A   1      31.301  28.727  22.645  1.00  0.00     0.012 C 
ENDBRANCH  13  16
ENDBRANCH   9  13
ENDBRANCH   6   9
ENDBRANCH   4   5
ENDBRANCH   3   4
ENDBRANCH   2   3
ENDBRANCH   1   2
BRANCH   1  24
ATOM     24  C   UNL A   1      37.472  23.506  25.618  1.00  0.00     0.021 C 
BRANCH  24  25
ATOM     25  C   UNL A   1      38.412  24.002  26.709  1.00  0.00     0.116 C 
BRANCH  25  26
ATOM     26  N   UNL A   1      39.804  23.880  26.307  1.00  0.00    -0.352 N 
ATOM     27  C   UNL A   1      40.851  24.725  26.573  1.00  0.00     0.251 C 
ATOM     28  H   UNL A   1      40.025  23.083  25.772  1.00  0.00     0.163 HD
ATOM     29  O   UNL A   1      41.907  24.613  25.963  1.00  0.00    -0.269 OA
BRANCH  27  30
ATOM     30  C   UNL A   1      40.680  25.778  27.594  1.00  0.00     0.039 A 
ATOM     31  C   UNL A   1      39.702  25.618  28.577  1.00  0.00     0.014 A 
ATOM     32  C   UNL A   1      41.494  26.915  27.582  1.00  0.00     0.014 A 
ATOM     33  C   UNL A   1      39.575  26.579  29.580  1.00  0.00     0.010 A 
ATOM     34  C   UNL A   1      41.418  27.830  28.625  1.00  0.00     0.010 A 
ATOM     35  C   UNL A   1      40.451  27.676  29.629  1.00  0.00    -0.014 A 
BRANCH  35  36
ATOM     36  C   UNL A   1      40.368  28.675  30.724  1.00  0.00     0.031 A 
ATOM     37  C   UNL A   1      41.251  28.542  31.934  1.00  0.00     0.074 A 
ATOM     38  C   UNL A   1      39.460  29.668  30.649  1.00  0.00     0.049 A 
ATOM     39  N   UNL A   1      41.289  29.282  33.012  1.00  0.00    -0.248 NA
ATOM     40  C   UNL A   1      42.198  27.414  31.947  1.00  0.00     0.031 C 
ATOM     41  C   UNL A   1      38.516  29.870  29.547  1.00  0.00     0.029 A 
ATOM     42  N   UNL A   1      39.174  30.690  31.519  1.00  0.00    -0.354 N 
ATOM     43  C   UNL A   1      42.252  28.706  33.833  1.00  0.00     0.074 A 
ATOM     44  C   UNL A   1      42.732  27.522  33.155  1.00  0.00     0.031 C 
ATOM     45  C   UNL A   1      37.776  30.961  29.795  1.00  0.00     0.029 A 
ATOM     46  C   UNL A   1      38.160  31.513  31.090  1.00  0.00     0.049 A 
ATOM     47  H   UNL A   1      39.651  30.821  32.370  1.00  0.00     0.167 HD
ATOM     48  C   UNL A   1      42.711  29.139  35.031  1.00  0.00     0.037 A 
ATOM     49  C   UNL A   1      37.597  32.587  31.678  1.00  0.00     0.037 A 
ATOM     50  C   UNL A   1      42.239  30.330  35.689  1.00  0.00     0.049 A 
ATOM     51  C   UNL A   1      38.118  33.043  33.015  1.00  0.00     0.074 A 
ATOM     52  C   UNL A   1      42.676  30.886  36.878  1.00  0.00     0.029 A 
ATOM     53  N   UNL A   1      41.220  31.146  35.217  1.00  0.00    -0.354 N 
ATOM     54  N   UNL A   1      39.076  32.525  33.747  1.00  0.00    -0.248 NA
ATOM     55  C   UNL A   1      37.487  34.232  33.602  1.00  0.00     0.031 C 
ATOM     56  C   UNL A   1      41.887  32.008  37.152  1.00  0.00     0.029 A 
ATOM     57  C   UNL A   1      40.998  32.187  36.104  1.00  0.00     0.049 A 
ATOM     58  H   UNL A   1      40.727  31.006  34.376  1.00  0.00     0.167 HD
ATOM     59  C   UNL A   1      39.182  33.341  34.866  1.00  0.00     0.074 A 
ATOM     60  C   UNL A   1      38.200  34.394  34.708  1.00  0.00     0.031 C 
ATOM     61  C   UNL A   1      40.019  33.232  35.929  1.00  0.00     0.037 A 
BRANCH  48  62
ATOM     62  C   UNL A   1      43.779  28.322  35.709  1.00  0.00     0.058 A 
ATOM     63  C   UNL A   1      45.142  28.524  35.443  1.00  0.00     0.135 A 
ATOM     64  C   UNL A   1      43.437  27.351  36.664  1.00  0.00     0.135 A 
ATOM     65  F   UNL A   1      45.528  29.428  34.528  1.00  0.00    -0.206 F 
ATOM     66  C   UNL A   1      46.127  27.773  36.077  1.00  0.00     0.059 A 
ATOM     67  C   UNL A   1      44.406  26.609  37.333  1.00  0.00     0.059 A 
ATOM     68  F   UNL A   1      42.149  27.114  36.957  1.00  0.00    -0.206 F 
ATOM     69  C   UNL A   1      45.749  26.818  37.021  1.00  0.00     0.060 A 
BRANCH  69  70
ATOM     70  S   UNL A   1      47.040  25.858  37.840  1.00  0.00     0.124 S 
ATOM     71  O   UNL A   1      47.388  24.892  36.802  1.00  0.00    -0.237 OA
ATOM     72  O   UNL A   1      48.050  26.873  38.124  1.00  0.00    -0.237 OA
ATOM     73  O   UNL A   1      46.365  25.305  39.009  1.00  0.00    -0.744 OA
ENDBRANCH  69  70
ENDBRANCH  48  62
BRANCH  49  74
ATOM     74  C   UNL A   1      36.493  33.314  30.997  1.00  0.00     0.058 A 
ATOM     75  C   UNL A   1      35.175  33.237  31.473  1.00  0.00     0.135 A 
ATOM     76  C   UNL A   1      36.732  34.112  29.867  1.00  0.00     0.135 A 
ATOM     77  F   UNL A   1      34.893  32.483  32.547  1.00  0.00    -0.206 F 
ATOM     78  C   UNL A   1      34.131  33.907  30.843  1.00  0.00     0.059 A 
ATOM     79  C   UNL A   1      35.710  34.814  29.237  1.00  0.00     0.059 A 
ATOM     80  F   UNL A   1      37.978  34.235  29.382  1.00  0.00    -0.206 F 
ATOM     81  C   UNL A   1      34.411  34.697  29.726  1.00  0.00     0.060 A 
BRANCH  81  82
ATOM     82  S   UNL A   1      33.055  35.598  28.944  1.00  0.00     0.124 S 
ATOM     83  O   UNL A   1      32.301  36.058  30.104  1.00  0.00    -0.237 OA
ATOM     84  O   UNL A   1      33.765  36.627  28.193  1.00  0.00    -0.237 OA
ATOM     85  O   UNL A   1      32.399  34.577  28.130  1.00  0.00    -0.744 OA
ENDBRANCH  81  82
ENDBRANCH  49  74
BRANCH  61  86
ATOM     86  C   UNL A   1      39.937  34.296  36.989  1.00  0.00     0.058 A 
ATOM     87  C   UNL A   1      39.051  34.195  38.073  1.00  0.00     0.135 A 
ATOM     88  C   UNL A   1      40.796  35.406  36.946  1.00  0.00     0.135 A 
ATOM     89  F   UNL A   1      38.204  33.158  38.159  1.00  0.00    -0.206 F 
ATOM     90  C   UNL A   1      39.003  35.170  39.064  1.00  0.00     0.059 A 
ATOM     91  C   UNL A   1      40.787  36.377  37.943  1.00  0.00     0.059 A 
ATOM     92  F   UNL A   1      41.671  35.547  35.937  1.00  0.00    -0.206 F 
ATOM     93  C   UNL A   1      39.878  36.256  38.991  1.00  0.00     0.060 A 
BRANCH  93  94
ATOM     94  S   UNL A   1      39.827  37.495  40.304  1.00  0.00     0.124 S 
ATOM     95  O   UNL A   1      40.473  36.786  41.403  1.00  0.00    -0.237 OA
ATOM     96  O   UNL A   1      40.590  38.596  39.723  1.00  0.00    -0.237 OA
ATOM     97  O   UNL A   1      38.400  37.752  40.474  1.00  0.00    -0.744 OA
ENDBRANCH  93  94
ENDBRANCH  61  86
ENDBRANCH  35  36
ENDBRANCH  27  30
ENDBRANCH  25  26
ENDBRANCH  24  25
ENDBRANCH   1  24
TORSDOF 19
ENDMDL
MODEL 3
REMARK VINA RESULT:     -10.7      2.453      9.017
REMARK SMILES CC(C)[C@@H]([NH2+][C@@H]1CSCC(C)(C)C1)C(=O)NCCCCCCNC(=O)c1ccc(-c2c3nc(c(-c4c(F)cc(S(=O)(=O)[O-])cc4F)c4ccc([nH]4)c(-c4c(F)cc(S(=O)(=O)[O-])cc4F)c4nc(c(-c5c(F)cc(S(=O)(=O)[O-])cc5F)c5ccc2[nH]5)C=C4)C=C3)cc1
REMARK SMILES IDX 20 1 19 2 18 3 17 4 16 5 14 6 15 7 4 9 2 10 1 11 3 12 5 13
REMARK SMILES IDX 6 16 7 17 13 18 8 19 10 20 9 21 11 22 12 23 21 24 22 25
REMARK SMILES IDX 23 26 24 27 25 29 26 30 27 31 91 32 28 33 90 34 29 35 30 36
REMARK SMILES IDX 31 37 84 38 32 39 89 40 83 41 85 42 33 43 88 44 82 45 81 46
REMARK SMILES IDX 34 48 68 49 47 50 67 51 48 52 51 53 66 54 86 55 49 56 50 57
REMARK SMILES IDX 65 59 87 60 52 61 35 62 36 63 45 64 37 65 38 66 44 67 46 68
REMARK SMILES IDX 39 69 40 70 41 71 42 72 43 73 69 74 70 75 79 76 71 77 72 78
REMARK SMILES IDX 78 79 80 80 73 81 74 82 75 83 76 84 77 85 53 86 54 87 63 88
REMARK SMILES IDX 55 89 56 90 62 91 64 92 57 93 58 94 59 95 60 96 61 97
REMARK H PARENT 16 8 5 14 5 15 23 28 85 47 51 58
REMARK Flexibility Score: inf
ROOT
ATOM      1  C   UNL A   1      31.543  31.157  26.530  1.00  0.00     0.002 C 
ENDROOT
BRANCH   1   2
ATOM      2  C   UNL A   1      32.723  30.418  27.166  1.00  0.00     0.002 C 
BRANCH   2   3
ATOM      3  C   UNL A   1      32.574  28.892  27.184  1.00  0.00     0.021 C 
BRANCH   3   4
ATOM      4  C   UNL A   1      33.841  28.162  26.742  1.00  0.00     0.116 C 
BRANCH   4   5
ATOM      5  N   UNL A   1      34.107  28.464  25.351  1.00  0.00    -0.351 N 
ATOM      6  C   UNL A   1      33.614  27.854  24.240  1.00  0.00     0.278 C 
ATOM      7  O   UNL A   1      34.095  28.166  23.146  1.00  0.00    -0.268 OA
ATOM      8  H   UNL A   1      34.727  29.210  25.189  1.00  0.00     0.163 HD
BRANCH   6   9
ATOM      9  C   UNL A   1      32.440  26.846  24.341  1.00  0.00     0.275 C 
BRANCH   9  10
ATOM     10  C   UNL A   1      31.179  27.301  23.554  1.00  0.00     0.051 C 
ATOM     11  C   UNL A   1      31.209  26.908  22.072  1.00  0.00     0.014 C 
ATOM     12  C   UNL A   1      29.919  26.696  24.193  1.00  0.00     0.014 C 
ENDBRANCH   9  10
BRANCH   9  13
ATOM     13  N   UNL A   1      32.933  25.484  24.009  1.00  0.00    -0.333 N 
ATOM     14  H   UNL A   1      33.700  25.579  23.343  1.00  0.00     0.347 HD
ATOM     15  H   UNL A   1      32.135  24.973  23.632  1.00  0.00     0.347 HD
BRANCH  13  16
ATOM     16  C   UNL A   1      33.422  24.703  25.166  1.00  0.00     0.193 C 
ATOM     17  C   UNL A   1      34.960  24.556  25.122  1.00  0.00     0.134 C 
ATOM     18  C   UNL A   1      32.759  23.326  25.392  1.00  0.00     0.073 C 
ATOM     19  S   UNL A   1      35.556  23.385  23.857  1.00  0.00    -0.155 SA
ATOM     20  C   UNL A   1      33.054  22.201  24.365  1.00  0.00    -0.021 C 
ATOM     21  C   UNL A   1      34.568  21.924  24.327  1.00  0.00     0.076 C 
ATOM     22  C   UNL A   1      32.532  22.464  22.939  1.00  0.00     0.012 C 
ATOM     23  C   UNL A   1      32.311  20.940  24.859  1.00  0.00     0.012 C 
ENDBRANCH  13  16
ENDBRANCH   9  13
ENDBRANCH   6   9
ENDBRANCH   4   5
ENDBRANCH   3   4
ENDBRANCH   2   3
ENDBRANCH   1   2
BRANCH   1  24
ATOM     24  C   UNL A   1      31.633  32.682  26.624  1.00  0.00     0.021 C 
BRANCH  24  25
ATOM     25  C   UNL A   1      32.752  33.177  27.531  1.00  0.00     0.116 C 
BRANCH  25  26
ATOM     26  N   UNL A   1      32.553  34.567  27.909  1.00  0.00    -0.352 N 
ATOM     27  C   UNL A   1      33.098  35.257  28.962  1.00  0.00     0.251 C 
ATOM     28  H   UNL A   1      31.946  35.084  27.330  1.00  0.00     0.163 HD
ATOM     29  O   UNL A   1      32.646  36.347  29.288  1.00  0.00    -0.269 OA
BRANCH  27  30
ATOM     30  C   UNL A   1      34.225  34.657  29.705  1.00  0.00     0.039 A 
ATOM     31  C   UNL A   1      33.991  34.113  30.968  1.00  0.00     0.014 A 
ATOM     32  C   UNL A   1      35.505  34.624  29.143  1.00  0.00     0.014 A 
ATOM     33  C   UNL A   1      35.037  33.490  31.650  1.00  0.00     0.010 A 
ATOM     34  C   UNL A   1      36.525  33.935  29.789  1.00  0.00     0.010 A 
ATOM     35  C   UNL A   1      36.304  33.370  31.053  1.00  0.00    -0.014 A 
BRANCH  35  36
ATOM     36  C   UNL A   1      37.410  32.657  31.739  1.00  0.00     0.031 A 
ATOM     37  C   UNL A   1      37.934  33.166  33.054  1.00  0.00     0.074 A 
ATOM     38  C   UNL A   1      37.976  31.586  31.149  1.00  0.00     0.049 A 
ATOM     39  N   UNL A   1      38.925  32.712  33.778  1.00  0.00    -0.248 NA
ATOM     40  C   UNL A   1      37.276  34.357  33.617  1.00  0.00     0.031 C 
ATOM     41  C   UNL A   1      37.586  31.031  29.851  1.00  0.00     0.029 A 
ATOM     42  N   UNL A   1      39.007  30.777  31.557  1.00  0.00    -0.354 N 
ATOM     43  C   UNL A   1      39.014  33.564  34.873  1.00  0.00     0.074 A 
ATOM     44  C   UNL A   1      38.018  34.596  34.689  1.00  0.00     0.031 C 
ATOM     45  C   UNL A   1      38.348  29.959  29.582  1.00  0.00     0.029 A 
ATOM     46  C   UNL A   1      39.308  29.775  30.666  1.00  0.00     0.049 A 
ATOM     47  H   UNL A   1      39.485  30.903  32.408  1.00  0.00     0.167 HD
ATOM     48  C   UNL A   1      39.837  33.479  35.946  1.00  0.00     0.037 A 
ATOM     49  C   UNL A   1      40.257  28.819  30.712  1.00  0.00     0.037 A 
ATOM     50  C   UNL A   1      40.813  32.437  36.128  1.00  0.00     0.049 A 
ATOM     51  C   UNL A   1      41.166  28.752  31.910  1.00  0.00     0.074 A 
ATOM     52  C   UNL A   1      41.657  32.228  37.204  1.00  0.00     0.029 A 
ATOM     53  N   UNL A   1      41.080  31.431  35.210  1.00  0.00    -0.354 N 
ATOM     54  N   UNL A   1      41.193  29.526  32.970  1.00  0.00    -0.248 NA
ATOM     55  C   UNL A   1      42.168  27.678  31.924  1.00  0.00     0.031 C 
ATOM     56  C   UNL A   1      42.471  31.128  36.915  1.00  0.00     0.029 A 
ATOM     57  C   UNL A   1      42.094  30.613  35.685  1.00  0.00     0.049 A 
ATOM     58  H   UNL A   1      40.618  31.314  34.349  1.00  0.00     0.167 HD
ATOM     59  C   UNL A   1      42.193  29.015  33.788  1.00  0.00     0.074 A 
ATOM     60  C   UNL A   1      42.739  27.859  33.107  1.00  0.00     0.031 C 
ATOM     61  C   UNL A   1      42.621  29.461  34.996  1.00  0.00     0.037 A 
BRANCH  48  62
ATOM     62  C   UNL A   1      39.715  34.540  37.007  1.00  0.00     0.058 A 
ATOM     63  C   UNL A   1      40.330  35.795  36.870  1.00  0.00     0.135 A 
ATOM     64  C   UNL A   1      38.944  34.314  38.159  1.00  0.00     0.135 A 
ATOM     65  F   UNL A   1      41.093  36.062  35.798  1.00  0.00    -0.206 F 
ATOM     66  C   UNL A   1      40.210  36.776  37.849  1.00  0.00     0.059 A 
ATOM     67  C   UNL A   1      38.784  35.291  39.136  1.00  0.00     0.059 A 
ATOM     68  F   UNL A   1      38.334  33.132  38.344  1.00  0.00    -0.206 F 
ATOM     69  C   UNL A   1      39.433  36.515  38.979  1.00  0.00     0.060 A 
BRANCH  69  70
ATOM     70  S   UNL A   1      39.281  37.802  40.235  1.00  0.00     0.124 S 
ATOM     71  O   UNL A   1      38.909  37.019  41.410  1.00  0.00    -0.237 OA
ATOM     72  O   UNL A   1      40.623  38.377  40.256  1.00  0.00    -0.237 OA
ATOM     73  O   UNL A   1      38.237  38.674  39.707  1.00  0.00    -0.744 OA
ENDBRANCH  69  70
ENDBRANCH  48  62
BRANCH  49  74
ATOM     74  C   UNL A   1      40.382  27.840  29.600  1.00  0.00     0.058 A 
ATOM     75  C   UNL A   1      41.359  27.996  28.605  1.00  0.00     0.135 A 
ATOM     76  C   UNL A   1      39.538  26.721  29.515  1.00  0.00     0.135 A 
ATOM     77  F   UNL A   1      42.187  29.052  28.639  1.00  0.00    -0.206 F 
ATOM     78  C   UNL A   1      41.483  27.092  27.556  1.00  0.00     0.059 A 
ATOM     79  C   UNL A   1      39.661  25.787  28.491  1.00  0.00     0.059 A 
ATOM     80  F   UNL A   1      38.599  26.514  30.451  1.00  0.00    -0.206 F 
ATOM     81  C   UNL A   1      40.630  25.987  27.510  1.00  0.00     0.060 A 
BRANCH  81  82
ATOM     82  S   UNL A   1      40.831  24.796  26.168  1.00  0.00     0.124 S 
ATOM     83  O   UNL A   1      39.485  24.243  26.062  1.00  0.00    -0.237 OA
ATOM     84  O   UNL A   1      41.262  25.648  25.065  1.00  0.00    -0.237 OA
ATOM     85  O   UNL A   1      41.850  23.882  26.680  1.00  0.00    -0.744 OA
ENDBRANCH  81  82
ENDBRANCH  49  74
BRANCH  61  86
ATOM     86  C   UNL A   1      43.708  28.678  35.679  1.00  0.00     0.058 A 
ATOM     87  C   UNL A   1      43.422  27.616  36.551  1.00  0.00     0.135 A 
ATOM     88  C   UNL A   1      45.059  28.962  35.416  1.00  0.00     0.135 A 
ATOM     89  F   UNL A   1      42.148  27.307  36.843  1.00  0.00    -0.206 F 
ATOM     90  C   UNL A   1      44.435  26.879  37.156  1.00  0.00     0.059 A 
ATOM     91  C   UNL A   1      46.088  28.218  35.984  1.00  0.00     0.059 A 
ATOM     92  F   UNL A   1      45.390  29.961  34.581  1.00  0.00    -0.206 F 
ATOM     93  C   UNL A   1      45.765  27.186  36.863  1.00  0.00     0.060 A 
BRANCH  93  94
ATOM     94  S   UNL A   1      47.068  26.198  37.629  1.00  0.00     0.124 S 
ATOM     95  O   UNL A   1      48.263  26.747  36.999  1.00  0.00    -0.237 OA
ATOM     96  O   UNL A   1      46.899  26.504  39.047  1.00  0.00    -0.237 OA
ATOM     97  O   UNL A   1      46.727  24.831  37.245  1.00  0.00    -0.744 OA
ENDBRANCH  93  94
ENDBRANCH  61  86
ENDBRANCH  35  36
ENDBRANCH  27  30
ENDBRANCH  25  26
ENDBRANCH  24  25
ENDBRANCH   1  24
TORSDOF 19
ENDMDL
