MODEL 1
REMARK VINA RESULT:     -10.9      0.000      0.000
REMARK SMILES CC(C)C[C@@H](NC(=O)Cn1nc(O)ccc1=O)C(=O)NCCCCCCNC(=O)c1ccc(-c2c3nc(c(-c4c(F)cc(S(=O)(=O)[O-])cc4F)c4ccc([nH]4)c(-c4c(F)cc(S(=O)(=O)[O-])cc4F)c4nc(c(-c5c(F)cc(S(=O)(=O)[O-])cc5F)c5ccc2[nH]5)C=C4)C=C3)cc1
REMARK SMILES IDX 23 1 22 2 21 3 20 4 18 5 19 6 5 8 4 9 2 10 1 11 3 12 6 13
REMARK SMILES IDX 7 14 8 16 9 17 10 18 11 19 16 20 12 21 15 22 17 23 14 24
REMARK SMILES IDX 13 25 24 27 25 28 26 29 27 30 28 31 29 33 30 34 31 35 95 36
REMARK SMILES IDX 32 37 94 38 33 39 34 40 35 41 88 42 36 43 93 44 87 45 89 46
REMARK SMILES IDX 37 47 92 48 86 49 85 50 38 52 72 53 51 54 71 55 52 56 55 57
REMARK SMILES IDX 70 58 90 59 53 60 54 61 69 63 91 64 56 65 39 66 40 67 49 68
REMARK SMILES IDX 41 69 42 70 48 71 50 72 43 73 44 74 45 75 46 76 47 77 73 78
REMARK SMILES IDX 74 79 83 80 75 81 76 82 82 83 84 84 77 85 78 86 79 87 80 88
REMARK SMILES IDX 81 89 57 90 58 91 67 92 59 93 60 94 66 95 68 96 61 97 62 98
REMARK SMILES IDX 63 99 64 100 65 101
REMARK H PARENT 20 7 6 15 13 26 27 32 89 51 55 62
REMARK Flexibility Score: inf
ROOT
ATOM      1  C   UNL A   1      31.625  28.159  24.451  1.00  0.00     0.002 C 
ENDROOT
BRANCH   1   2
ATOM      2  C   UNL A   1      30.279  27.446  24.298  1.00  0.00     0.021 C 
BRANCH   2   3
ATOM      3  C   UNL A   1      30.391  25.926  24.234  1.00  0.00     0.116 C 
BRANCH   3   4
ATOM      4  N   UNL A   1      29.948  25.307  25.476  1.00  0.00    -0.354 N 
ATOM      5  C   UNL A   1      30.605  24.439  26.303  1.00  0.00     0.242 C 
ATOM      6  O   UNL A   1      29.963  23.925  27.229  1.00  0.00    -0.273 OA
ATOM      7  H   UNL A   1      29.038  25.550  25.763  1.00  0.00     0.163 HD
BRANCH   5   8
ATOM      8  C   UNL A   1      32.002  23.910  25.928  1.00  0.00     0.171 C 
BRANCH   8   9
ATOM      9  C   UNL A   1      32.842  25.214  25.987  1.00  0.00     0.038 C 
BRANCH   9  10
ATOM     10  C   UNL A   1      34.059  25.398  25.075  1.00  0.00    -0.015 C 
ATOM     11  C   UNL A   1      35.280  24.651  25.599  1.00  0.00     0.007 C 
ATOM     12  C   UNL A   1      33.681  24.860  23.684  1.00  0.00     0.007 C 
ENDBRANCH   9  10
ENDBRANCH   8   9
BRANCH   8  13
ATOM     13  N   UNL A   1      32.503  22.848  26.803  1.00  0.00    -0.343 N 
ATOM     14  C   UNL A   1      33.196  21.704  26.527  1.00  0.00     0.242 C 
ATOM     15  H   UNL A   1      32.306  22.983  27.759  1.00  0.00     0.164 HD
ATOM     16  O   UNL A   1      33.756  21.174  27.496  1.00  0.00    -0.273 OA
BRANCH  14  17
ATOM     17  C   UNL A   1      33.426  21.149  25.113  1.00  0.00     0.248 C 
BRANCH  17  18
ATOM     18  N   UNL A   1      33.623  19.709  24.988  1.00  0.00    -0.217 N 
ATOM     19  N   UNL A   1      32.485  18.925  24.979  1.00  0.00    -0.131 NA
ATOM     20  C   UNL A   1      34.901  19.199  24.772  1.00  0.00     0.267 A 
ATOM     21  C   UNL A   1      32.677  17.657  24.892  1.00  0.00     0.229 A 
ATOM     22  C   UNL A   1      35.007  17.721  24.651  1.00  0.00     0.079 A 
ATOM     23  O   UNL A   1      35.925  19.871  24.711  1.00  0.00    -0.268 OA
ATOM     24  C   UNL A   1      33.928  16.941  24.733  1.00  0.00     0.075 A 
BRANCH  21  25
ATOM     25  O   UNL A   1      31.640  16.824  25.012  1.00  0.00    -0.492 OA
ATOM     26  H   UNL A   1      30.788  17.162  25.203  1.00  0.00     0.295 HD
ENDBRANCH  21  25
ENDBRANCH  17  18
ENDBRANCH  14  17
ENDBRANCH   8  13
ENDBRANCH   5   8
ENDBRANCH   3   4
ENDBRANCH   2   3
ENDBRANCH   1   2
BRANCH   1  27
ATOM     27  C   UNL A   1      31.717  29.084  25.666  1.00  0.00     0.002 C 
BRANCH  27  28
ATOM     28  C   UNL A   1      32.301  28.458  26.927  1.00  0.00     0.021 C 
BRANCH  28  29
ATOM     29  C   UNL A   1      33.689  28.952  27.284  1.00  0.00     0.116 C 
BRANCH  29  30
ATOM     30  N   UNL A   1      33.707  30.239  27.972  1.00  0.00    -0.352 N 
ATOM     31  C   UNL A   1      34.786  30.804  28.620  1.00  0.00     0.251 C 
ATOM     32  H   UNL A   1      32.867  30.754  27.975  1.00  0.00     0.163 HD
ATOM     33  O   UNL A   1      34.701  31.867  29.221  1.00  0.00    -0.269 OA
BRANCH  31  34
ATOM     34  C   UNL A   1      36.044  30.034  28.588  1.00  0.00     0.039 A 
ATOM     35  C   UNL A   1      36.496  29.461  29.776  1.00  0.00     0.014 A 
ATOM     36  C   UNL A   1      36.871  30.131  27.467  1.00  0.00     0.014 A 
ATOM     37  C   UNL A   1      37.844  29.170  29.905  1.00  0.00     0.010 A 
ATOM     38  C   UNL A   1      38.204  29.729  27.572  1.00  0.00     0.010 A 
ATOM     39  C   UNL A   1      38.716  29.302  28.808  1.00  0.00    -0.014 A 
BRANCH  39  40
ATOM     40  C   UNL A   1      40.158  28.991  28.986  1.00  0.00     0.031 A 
ATOM     41  C   UNL A   1      40.727  27.657  28.572  1.00  0.00     0.074 A 
ATOM     42  C   UNL A   1      40.967  29.953  29.471  1.00  0.00     0.049 A 
ATOM     43  N   UNL A   1      41.947  27.204  28.720  1.00  0.00    -0.248 NA
ATOM     44  C   UNL A   1      39.817  26.709  27.911  1.00  0.00     0.031 C 
ATOM     45  C   UNL A   1      40.531  31.293  29.872  1.00  0.00     0.029 A 
ATOM     46  N   UNL A   1      42.320  29.971  29.678  1.00  0.00    -0.354 N 
ATOM     47  C   UNL A   1      41.941  25.910  28.210  1.00  0.00     0.074 A 
ATOM     48  C   UNL A   1      40.595  25.646  27.751  1.00  0.00     0.031 C 
ATOM     49  C   UNL A   1      41.601  32.025  30.206  1.00  0.00     0.029 A 
ATOM     50  C   UNL A   1      42.785  31.179  30.142  1.00  0.00     0.049 A 
ATOM     51  H   UNL A   1      42.903  29.196  29.510  1.00  0.00     0.167 HD
ATOM     52  C   UNL A   1      42.968  25.029  28.135  1.00  0.00     0.037 A 
ATOM     53  C   UNL A   1      44.022  31.557  30.513  1.00  0.00     0.037 A 
ATOM     54  C   UNL A   1      44.313  25.322  28.565  1.00  0.00     0.049 A 
ATOM     55  C   UNL A   1      45.131  30.552  30.456  1.00  0.00     0.074 A 
ATOM     56  C   UNL A   1      45.428  24.501  28.532  1.00  0.00     0.029 A 
ATOM     57  N   UNL A   1      44.729  26.535  29.095  1.00  0.00    -0.354 N 
ATOM     58  N   UNL A   1      45.093  29.312  30.029  1.00  0.00    -0.248 NA
ATOM     59  C   UNL A   1      46.441  30.985  30.955  1.00  0.00     0.031 C 
ATOM     60  C   UNL A   1      46.509  25.206  29.072  1.00  0.00     0.029 A 
ATOM     61  C   UNL A   1      46.079  26.481  29.405  1.00  0.00     0.049 A 
ATOM     62  H   UNL A   1      44.151  27.320  29.230  1.00  0.00     0.167 HD
ATOM     63  C   UNL A   1      46.374  28.810  30.216  1.00  0.00     0.074 A 
ATOM     64  C   UNL A   1      47.169  29.892  30.765  1.00  0.00     0.031 C 
ATOM     65  C   UNL A   1      46.846  27.565  29.967  1.00  0.00     0.037 A 
BRANCH  52  66
ATOM     66  C   UNL A   1      42.687  23.653  27.589  1.00  0.00     0.058 A 
ATOM     67  C   UNL A   1      42.781  23.363  26.220  1.00  0.00     0.135 A 
ATOM     68  C   UNL A   1      42.385  22.592  28.462  1.00  0.00     0.135 A 
ATOM     69  F   UNL A   1      43.052  24.341  25.341  1.00  0.00    -0.206 F 
ATOM     70  C   UNL A   1      42.574  22.076  25.732  1.00  0.00     0.059 A 
ATOM     71  C   UNL A   1      42.195  21.292  27.998  1.00  0.00     0.059 A 
ATOM     72  F   UNL A   1      42.282  22.812  29.782  1.00  0.00    -0.206 F 
ATOM     73  C   UNL A   1      42.284  21.046  26.630  1.00  0.00     0.060 A 
BRANCH  73  74
ATOM     74  S   UNL A   1      42.040  19.377  25.982  1.00  0.00     0.124 S 
ATOM     75  O   UNL A   1      42.546  18.562  27.081  1.00  0.00    -0.237 OA
ATOM     76  O   UNL A   1      40.596  19.332  25.772  1.00  0.00    -0.237 OA
ATOM     77  O   UNL A   1      42.847  19.361  24.767  1.00  0.00    -0.744 OA
ENDBRANCH  73  74
ENDBRANCH  52  66
BRANCH  53  78
ATOM     78  C   UNL A   1      44.245  32.942  31.000  1.00  0.00     0.058 A 
ATOM     79  C   UNL A   1      44.478  33.992  30.102  1.00  0.00     0.135 A 
ATOM     80  C   UNL A   1      44.157  33.253  32.367  1.00  0.00     0.135 A 
ATOM     81  F   UNL A   1      44.576  33.741  28.788  1.00  0.00    -0.206 F 
ATOM     82  C   UNL A   1      44.607  35.305  30.540  1.00  0.00     0.059 A 
ATOM     83  C   UNL A   1      44.255  34.562  32.826  1.00  0.00     0.059 A 
ATOM     84  F   UNL A   1      43.918  32.283  33.263  1.00  0.00    -0.206 F 
ATOM     85  C   UNL A   1      44.483  35.581  31.904  1.00  0.00     0.060 A 
BRANCH  85  86
ATOM     86  S   UNL A   1      44.562  37.299  32.451  1.00  0.00     0.124 S 
ATOM     87  O   UNL A   1      43.670  37.281  33.606  1.00  0.00    -0.237 OA
ATOM     88  O   UNL A   1      45.983  37.463  32.744  1.00  0.00    -0.237 OA
ATOM     89  O   UNL A   1      44.080  38.043  31.292  1.00  0.00    -0.744 OA
ENDBRANCH  85  86
ENDBRANCH  53  78
BRANCH  65  90
ATOM     90  C   UNL A   1      48.288  27.312  30.291  1.00  0.00     0.058 A 
ATOM     91  C   UNL A   1      48.676  26.800  31.538  1.00  0.00     0.135 A 
ATOM     92  C   UNL A   1      49.289  27.554  29.337  1.00  0.00     0.135 A 
ATOM     93  F   UNL A   1      47.755  26.563  32.487  1.00  0.00    -0.206 F 
ATOM     94  C   UNL A   1      50.012  26.559  31.840  1.00  0.00     0.059 A 
ATOM     95  C   UNL A   1      50.629  27.299  29.608  1.00  0.00     0.059 A 
ATOM     96  F   UNL A   1      48.967  28.037  28.126  1.00  0.00    -0.206 F 
ATOM     97  C   UNL A   1      50.981  26.813  30.867  1.00  0.00     0.060 A 
BRANCH  97  98
ATOM     98  S   UNL A   1      52.710  26.478  31.264  1.00  0.00     0.124 S 
ATOM     99  O   UNL A   1      53.324  26.501  29.941  1.00  0.00    -0.237 OA
ATOM    100  O   UNL A   1      53.050  27.596  32.140  1.00  0.00    -0.237 OA
ATOM    101  O   UNL A   1      52.663  25.173  31.914  1.00  0.00    -0.744 OA
ENDBRANCH  97  98
ENDBRANCH  65  90
ENDBRANCH  39  40
ENDBRANCH  31  34
ENDBRANCH  29  30
ENDBRANCH  28  29
ENDBRANCH  27  28
ENDBRANCH   1  27
TORSDOF 22
ENDMDL
MODEL 2
REMARK VINA RESULT:     -10.7      1.018      8.168
REMARK SMILES CC(C)C[C@@H](NC(=O)Cn1nc(O)ccc1=O)C(=O)NCCCCCCNC(=O)c1ccc(-c2c3nc(c(-c4c(F)cc(S(=O)(=O)[O-])cc4F)c4ccc([nH]4)c(-c4c(F)cc(S(=O)(=O)[O-])cc4F)c4nc(c(-c5c(F)cc(S(=O)(=O)[O-])cc5F)c5ccc2[nH]5)C=C4)C=C3)cc1
REMARK SMILES IDX 23 1 22 2 21 3 20 4 18 5 19 6 5 8 4 9 2 10 1 11 3 12 6 13
REMARK SMILES IDX 7 14 8 16 9 17 10 18 11 19 16 20 12 21 15 22 17 23 14 24
REMARK SMILES IDX 13 25 24 27 25 28 26 29 27 30 28 31 29 33 30 34 31 35 95 36
REMARK SMILES IDX 32 37 94 38 33 39 34 40 35 41 88 42 36 43 93 44 87 45 89 46
REMARK SMILES IDX 37 47 92 48 86 49 85 50 38 52 72 53 51 54 71 55 52 56 55 57
REMARK SMILES IDX 70 58 90 59 53 60 54 61 69 63 91 64 56 65 39 66 40 67 49 68
REMARK SMILES IDX 41 69 42 70 48 71 50 72 43 73 44 74 45 75 46 76 47 77 73 78
REMARK SMILES IDX 74 79 83 80 75 81 76 82 82 83 84 84 77 85 78 86 79 87 80 88
REMARK SMILES IDX 81 89 57 90 58 91 67 92 59 93 60 94 66 95 68 96 61 97 62 98
REMARK SMILES IDX 63 99 64 100 65 101
REMARK H PARENT 20 7 6 15 13 26 27 32 89 51 55 62
REMARK Flexibility Score: inf
ROOT
ATOM      1  C   UNL A   1      31.575  27.852  24.403  1.00  0.00     0.002 C 
ENDROOT
BRANCH   1   2
ATOM      2  C   UNL A   1      30.272  27.112  24.087  1.00  0.00     0.021 C 
BRANCH   2   3
ATOM      3  C   UNL A   1      30.396  25.593  24.147  1.00  0.00     0.116 C 
BRANCH   3   4
ATOM      4  N   UNL A   1      29.977  25.076  25.443  1.00  0.00    -0.354 N 
ATOM      5  C   UNL A   1      30.632  24.239  26.304  1.00  0.00     0.242 C 
ATOM      6  O   UNL A   1      30.006  23.814  27.284  1.00  0.00    -0.273 OA
ATOM      7  H   UNL A   1      29.088  25.373  25.744  1.00  0.00     0.163 HD
BRANCH   5   8
ATOM      8  C   UNL A   1      31.993  23.632  25.917  1.00  0.00     0.171 C 
BRANCH   8   9
ATOM      9  C   UNL A   1      32.936  24.846  26.132  1.00  0.00     0.038 C 
BRANCH   9  10
ATOM     10  C   UNL A   1      34.035  25.168  25.115  1.00  0.00    -0.015 C 
ATOM     11  C   UNL A   1      35.379  24.578  25.526  1.00  0.00     0.007 C 
ATOM     12  C   UNL A   1      33.603  24.577  23.762  1.00  0.00     0.007 C 
ENDBRANCH   9  10
ENDBRANCH   8   9
BRANCH   8  13
ATOM     13  N   UNL A   1      32.372  22.450  26.694  1.00  0.00    -0.343 N 
ATOM     14  C   UNL A   1      33.281  21.461  26.447  1.00  0.00     0.242 C 
ATOM     15  H   UNL A   1      31.886  22.350  27.545  1.00  0.00     0.164 HD
ATOM     16  O   UNL A   1      33.607  20.780  27.428  1.00  0.00    -0.273 OA
BRANCH  14  17
ATOM     17  C   UNL A   1      33.997  21.258  25.103  1.00  0.00     0.248 C 
BRANCH  17  18
ATOM     18  N   UNL A   1      33.329  20.418  24.114  1.00  0.00    -0.217 N 
ATOM     19  N   UNL A   1      32.661  21.070  23.096  1.00  0.00    -0.131 NA
ATOM     20  C   UNL A   1      33.480  19.034  24.163  1.00  0.00     0.267 A 
ATOM     21  C   UNL A   1      32.059  20.317  22.247  1.00  0.00     0.229 A 
ATOM     22  C   UNL A   1      32.769  18.258  23.112  1.00  0.00     0.079 A 
ATOM     23  O   UNL A   1      34.117  18.426  25.016  1.00  0.00    -0.268 OA
ATOM     24  C   UNL A   1      32.042  18.868  22.175  1.00  0.00     0.075 A 
BRANCH  21  25
ATOM     25  O   UNL A   1      31.280  20.869  21.312  1.00  0.00    -0.492 OA
ATOM     26  H   UNL A   1      31.666  21.312  20.583  1.00  0.00     0.295 HD
ENDBRANCH  21  25
ENDBRANCH  17  18
ENDBRANCH  14  17
ENDBRANCH   8  13
ENDBRANCH   5   8
ENDBRANCH   3   4
ENDBRANCH   2   3
ENDBRANCH   1   2
BRANCH   1  27
ATOM     27  C   UNL A   1      31.505  28.763  25.630  1.00  0.00     0.002 C 
BRANCH  27  28
ATOM     28  C   UNL A   1      32.108  28.191  26.908  1.00  0.00     0.021 C 
BRANCH  28  29
ATOM     29  C   UNL A   1      33.482  28.735  27.247  1.00  0.00     0.116 C 
BRANCH  29  30
ATOM     30  N   UNL A   1      33.467  30.074  27.829  1.00  0.00    -0.352 N 
ATOM     31  C   UNL A   1      34.538  30.725  28.406  1.00  0.00     0.251 C 
ATOM     32  H   UNL A   1      32.610  30.559  27.808  1.00  0.00     0.163 HD
ATOM     33  O   UNL A   1      34.427  31.829  28.922  1.00  0.00    -0.269 OA
BRANCH  31  34
ATOM     34  C   UNL A   1      35.821  29.996  28.411  1.00  0.00     0.039 A 
ATOM     35  C   UNL A   1      36.273  29.466  29.619  1.00  0.00     0.014 A 
ATOM     36  C   UNL A   1      36.661  30.094  27.300  1.00  0.00     0.014 A 
ATOM     37  C   UNL A   1      37.628  29.223  29.774  1.00  0.00     0.010 A 
ATOM     38  C   UNL A   1      38.005  29.739  27.434  1.00  0.00     0.010 A 
ATOM     39  C   UNL A   1      38.512  29.358  28.687  1.00  0.00    -0.014 A 
BRANCH  39  40
ATOM     40  C   UNL A   1      39.960  29.099  28.893  1.00  0.00     0.031 A 
ATOM     41  C   UNL A   1      40.849  30.117  29.562  1.00  0.00     0.074 A 
ATOM     42  C   UNL A   1      40.457  27.902  28.525  1.00  0.00     0.049 A 
ATOM     43  N   UNL A   1      42.143  30.075  29.757  1.00  0.00    -0.248 NA
ATOM     44  C   UNL A   1      40.210  31.340  30.074  1.00  0.00     0.031 C 
ATOM     45  C   UNL A   1      39.682  26.827  27.899  1.00  0.00     0.029 A 
ATOM     46  N   UNL A   1      41.714  27.372  28.649  1.00  0.00    -0.354 N 
ATOM     47  C   UNL A   1      42.479  31.274  30.377  1.00  0.00     0.074 A 
ATOM     48  C   UNL A   1      41.253  32.029  30.522  1.00  0.00     0.031 C 
ATOM     49  C   UNL A   1      40.457  25.745  27.763  1.00  0.00     0.029 A 
ATOM     50  C   UNL A   1      41.808  26.079  28.193  1.00  0.00     0.049 A 
ATOM     51  H   UNL A   1      42.474  27.868  29.027  1.00  0.00     0.167 HD
ATOM     52  C   UNL A   1      43.699  31.700  30.783  1.00  0.00     0.037 A 
ATOM     53  C   UNL A   1      42.871  25.260  28.095  1.00  0.00     0.037 A 
ATOM     54  C   UNL A   1      44.906  30.919  30.662  1.00  0.00     0.049 A 
ATOM     55  C   UNL A   1      44.215  25.770  28.517  1.00  0.00     0.074 A 
ATOM     56  C   UNL A   1      46.194  31.256  31.044  1.00  0.00     0.029 A 
ATOM     57  N   UNL A   1      44.972  29.639  30.131  1.00  0.00    -0.354 N 
ATOM     58  N   UNL A   1      44.524  26.932  29.042  1.00  0.00    -0.248 NA
ATOM     59  C   UNL A   1      45.357  24.873  28.308  1.00  0.00     0.031 C 
ATOM     60  C   UNL A   1      47.042  30.194  30.713  1.00  0.00     0.029 A 
ATOM     61  C   UNL A   1      46.278  29.177  30.162  1.00  0.00     0.049 A 
ATOM     62  H   UNL A   1      44.203  29.132  29.784  1.00  0.00     0.167 HD
ATOM     63  C   UNL A   1      45.900  26.910  29.220  1.00  0.00     0.074 A 
ATOM     64  C   UNL A   1      46.358  25.608  28.774  1.00  0.00     0.031 C 
ATOM     65  C   UNL A   1      46.713  27.884  29.697  1.00  0.00     0.037 A 
BRANCH  52  66
ATOM     66  C   UNL A   1      43.810  33.079  31.378  1.00  0.00     0.058 A 
ATOM     67  C   UNL A   1      43.810  33.293  32.765  1.00  0.00     0.135 A 
ATOM     68  C   UNL A   1      43.986  34.199  30.546  1.00  0.00     0.135 A 
ATOM     69  F   UNL A   1      43.631  32.262  33.606  1.00  0.00    -0.206 F 
ATOM     70  C   UNL A   1      43.969  34.566  33.306  1.00  0.00     0.059 A 
ATOM     71  C   UNL A   1      44.168  35.479  31.066  1.00  0.00     0.059 A 
ATOM     72  F   UNL A   1      43.993  34.054  29.211  1.00  0.00    -0.206 F 
ATOM     73  C   UNL A   1      44.150  35.652  32.448  1.00  0.00     0.060 A 
BRANCH  73  74
ATOM     74  S   UNL A   1      44.376  37.295  33.167  1.00  0.00     0.124 S 
ATOM     75  O   UNL A   1      42.996  37.694  33.419  1.00  0.00    -0.237 OA
ATOM     76  O   UNL A   1      45.179  37.009  34.351  1.00  0.00    -0.237 OA
ATOM     77  O   UNL A   1      45.060  38.037  32.114  1.00  0.00    -0.744 OA
ENDBRANCH  73  74
ENDBRANCH  52  66
BRANCH  53  78
ATOM     78  C   UNL A   1      42.690  23.895  27.542  1.00  0.00     0.058 A 
ATOM     79  C   UNL A   1      42.803  23.654  26.166  1.00  0.00     0.135 A 
ATOM     80  C   UNL A   1      42.474  22.793  28.385  1.00  0.00     0.135 A 
ATOM     81  F   UNL A   1      43.004  24.676  25.321  1.00  0.00    -0.206 F 
ATOM     82  C   UNL A   1      42.717  22.368  25.645  1.00  0.00     0.059 A 
ATOM     83  C   UNL A   1      42.411  21.495  27.891  1.00  0.00     0.059 A 
ATOM     84  F   UNL A   1      42.376  22.971  29.713  1.00  0.00    -0.206 F 
ATOM     85  C   UNL A   1      42.532  21.293  26.518  1.00  0.00     0.060 A 
BRANCH  85  86
ATOM     86  S   UNL A   1      42.513  19.620  25.841  1.00  0.00     0.124 S 
ATOM     87  O   UNL A   1      41.112  19.474  25.459  1.00  0.00    -0.237 OA
ATOM     88  O   UNL A   1      43.468  19.722  24.742  1.00  0.00    -0.237 OA
ATOM     89  O   UNL A   1      42.950  18.798  26.966  1.00  0.00    -0.744 OA
ENDBRANCH  85  86
ENDBRANCH  53  78
BRANCH  65  90
ATOM     90  C   UNL A   1      48.179  27.572  29.757  1.00  0.00     0.058 A 
ATOM     91  C   UNL A   1      48.722  26.819  30.809  1.00  0.00     0.135 A 
ATOM     92  C   UNL A   1      49.044  28.003  28.739  1.00  0.00     0.135 A 
ATOM     93  F   UNL A   1      47.935  26.394  31.811  1.00  0.00    -0.206 F 
ATOM     94  C   UNL A   1      50.079  26.524  30.864  1.00  0.00     0.059 A 
ATOM     95  C   UNL A   1      50.401  27.701  28.761  1.00  0.00     0.059 A 
ATOM     96  F   UNL A   1      48.570  28.720  27.707  1.00  0.00    -0.206 F 
ATOM     97  C   UNL A   1      50.911  26.970  29.835  1.00  0.00     0.060 A 
BRANCH  97  98
ATOM     98  S   UNL A   1      52.668  26.565  29.908  1.00  0.00     0.124 S 
ATOM     99  O   UNL A   1      52.705  25.622  31.021  1.00  0.00    -0.237 OA
ATOM    100  O   UNL A   1      52.912  25.995  28.586  1.00  0.00    -0.237 OA
ATOM    101  O   UNL A   1      53.304  27.855  30.155  1.00  0.00    -0.744 OA
ENDBRANCH  97  98
ENDBRANCH  65  90
ENDBRANCH  39  40
ENDBRANCH  31  34
ENDBRANCH  29  30
ENDBRANCH  28  29
ENDBRANCH  27  28
ENDBRANCH   1  27
TORSDOF 22
ENDMDL
MODEL 3
REMARK VINA RESULT:     -10.6      5.073     10.446
REMARK SMILES CC(C)C[C@@H](NC(=O)Cn1nc(O)ccc1=O)C(=O)NCCCCCCNC(=O)c1ccc(-c2c3nc(c(-c4c(F)cc(S(=O)(=O)[O-])cc4F)c4ccc([nH]4)c(-c4c(F)cc(S(=O)(=O)[O-])cc4F)c4nc(c(-c5c(F)cc(S(=O)(=O)[O-])cc5F)c5ccc2[nH]5)C=C4)C=C3)cc1
REMARK SMILES IDX 23 1 22 2 21 3 20 4 18 5 19 6 5 8 4 9 2 10 1 11 3 12 6 13
REMARK SMILES IDX 7 14 8 16 9 17 10 18 11 19 16 20 12 21 15 22 17 23 14 24
REMARK SMILES IDX 13 25 24 27 25 28 26 29 27 30 28 31 29 33 30 34 31 35 95 36
REMARK SMILES IDX 32 37 94 38 33 39 34 40 35 41 88 42 36 43 93 44 87 45 89 46
REMARK SMILES IDX 37 47 92 48 86 49 85 50 38 52 72 53 51 54 71 55 52 56 55 57
REMARK SMILES IDX 70 58 90 59 53 60 54 61 69 63 91 64 56 65 39 66 40 67 49 68
REMARK SMILES IDX 41 69 42 70 48 71 50 72 43 73 44 74 45 75 46 76 47 77 73 78
REMARK SMILES IDX 74 79 83 80 75 81 76 82 82 83 84 84 77 85 78 86 79 87 80 88
REMARK SMILES IDX 81 89 57 90 58 91 67 92 59 93 60 94 66 95 68 96 61 97 62 98
REMARK SMILES IDX 63 99 64 100 65 101
REMARK H PARENT 20 7 6 15 13 26 27 32 89 51 55 62
REMARK Flexibility Score: inf
ROOT
ATOM      1  C   UNL A   1      38.830  23.250  26.854  1.00  0.00     0.002 C 
ENDROOT
BRANCH   1   2
ATOM      2  C   UNL A   1      37.698  23.560  25.871  1.00  0.00     0.021 C 
BRANCH   2   3
ATOM      3  C   UNL A   1      36.919  22.328  25.421  1.00  0.00     0.116 C 
BRANCH   3   4
ATOM      4  N   UNL A   1      35.875  21.979  26.376  1.00  0.00    -0.354 N 
ATOM      5  C   UNL A   1      34.674  21.359  26.170  1.00  0.00     0.242 C 
ATOM      6  O   UNL A   1      33.881  21.306  27.120  1.00  0.00    -0.273 OA
ATOM      7  H   UNL A   1      36.064  22.227  27.310  1.00  0.00     0.163 HD
BRANCH   5   8
ATOM      8  C   UNL A   1      34.217  20.995  24.745  1.00  0.00     0.171 C 
BRANCH   8   9
ATOM      9  C   UNL A   1      34.085  19.452  24.857  1.00  0.00     0.038 C 
BRANCH   9  10
ATOM     10  C   UNL A   1      32.728  18.772  24.656  1.00  0.00    -0.015 C 
ATOM     11  C   UNL A   1      32.552  18.265  23.230  1.00  0.00     0.007 C 
ATOM     12  C   UNL A   1      32.652  17.589  25.638  1.00  0.00     0.007 C 
ENDBRANCH   9  10
ENDBRANCH   8   9
BRANCH   8  13
ATOM     13  N   UNL A   1      32.986  21.661  24.315  1.00  0.00    -0.343 N 
ATOM     14  C   UNL A   1      32.773  22.673  23.423  1.00  0.00     0.242 C 
ATOM     15  H   UNL A   1      32.168  21.319  24.743  1.00  0.00     0.164 HD
ATOM     16  O   UNL A   1      31.605  22.802  23.032  1.00  0.00    -0.273 OA
BRANCH  14  17
ATOM     17  C   UNL A   1      33.887  23.527  22.798  1.00  0.00     0.248 C 
BRANCH  17  18
ATOM     18  N   UNL A   1      33.879  24.955  23.100  1.00  0.00    -0.217 N 
ATOM     19  N   UNL A   1      33.704  25.814  22.033  1.00  0.00    -0.131 NA
ATOM     20  C   UNL A   1      33.930  25.385  24.424  1.00  0.00     0.267 A 
ATOM     21  C   UNL A   1      33.723  27.068  22.312  1.00  0.00     0.229 A 
ATOM     22  C   UNL A   1      33.911  26.856  24.638  1.00  0.00     0.079 A 
ATOM     23  O   UNL A   1      34.022  24.648  25.400  1.00  0.00    -0.268 OA
ATOM     24  C   UNL A   1      33.836  27.704  23.611  1.00  0.00     0.075 A 
BRANCH  21  25
ATOM     25  O   UNL A   1      33.696  27.965  21.322  1.00  0.00    -0.492 OA
ATOM     26  H   UNL A   1      33.308  27.742  20.499  1.00  0.00     0.295 HD
ENDBRANCH  21  25
ENDBRANCH  17  18
ENDBRANCH  14  17
ENDBRANCH   8  13
ENDBRANCH   5   8
ENDBRANCH   3   4
ENDBRANCH   2   3
ENDBRANCH   1   2
BRANCH   1  27
ATOM     27  C   UNL A   1      39.949  22.380  26.278  1.00  0.00     0.002 C 
BRANCH  27  28
ATOM     28  C   UNL A   1      41.150  22.164  27.192  1.00  0.00     0.021 C 
BRANCH  28  29
ATOM     29  C   UNL A   1      42.239  23.209  27.046  1.00  0.00     0.116 C 
BRANCH  29  30
ATOM     30  N   UNL A   1      42.027  24.144  25.946  1.00  0.00    -0.352 N 
ATOM     31  C   UNL A   1      41.845  25.508  26.055  1.00  0.00     0.251 C 
ATOM     32  H   UNL A   1      42.011  23.765  25.036  1.00  0.00     0.163 HD
ATOM     33  O   UNL A   1      41.619  26.215  25.082  1.00  0.00    -0.269 OA
BRANCH  31  34
ATOM     34  C   UNL A   1      41.894  26.066  27.420  1.00  0.00     0.039 A 
ATOM     35  C   UNL A   1      40.811  25.833  28.267  1.00  0.00     0.014 A 
ATOM     36  C   UNL A   1      42.866  27.020  27.729  1.00  0.00     0.014 A 
ATOM     37  C   UNL A   1      40.592  26.701  29.323  1.00  0.00     0.010 A 
ATOM     38  C   UNL A   1      42.695  27.818  28.862  1.00  0.00     0.010 A 
ATOM     39  C   UNL A   1      41.527  27.706  29.633  1.00  0.00    -0.014 A 
BRANCH  39  40
ATOM     40  C   UNL A   1      41.253  28.626  30.767  1.00  0.00     0.031 A 
ATOM     41  C   UNL A   1      40.116  29.615  30.715  1.00  0.00     0.074 A 
ATOM     42  C   UNL A   1      42.007  28.517  31.879  1.00  0.00     0.049 A 
ATOM     43  N   UNL A   1      39.785  30.532  31.589  1.00  0.00    -0.248 NA
ATOM     44  C   UNL A   1      39.241  29.577  29.533  1.00  0.00     0.031 C 
ATOM     45  C   UNL A   1      43.113  27.571  32.054  1.00  0.00     0.029 A 
ATOM     46  N   UNL A   1      41.943  29.175  33.078  1.00  0.00    -0.354 N 
ATOM     47  C   UNL A   1      38.692  31.202  31.049  1.00  0.00     0.074 A 
ATOM     48  C   UNL A   1      38.417  30.591  29.767  1.00  0.00     0.031 C 
ATOM     49  C   UNL A   1      43.573  27.658  33.308  1.00  0.00     0.029 A 
ATOM     50  C   UNL A   1      42.869  28.734  33.993  1.00  0.00     0.049 A 
ATOM     51  H   UNL A   1      41.298  29.894  33.266  1.00  0.00     0.167 HD
ATOM     52  C   UNL A   1      37.989  32.233  31.579  1.00  0.00     0.037 A 
ATOM     53  C   UNL A   1      43.149  29.168  35.235  1.00  0.00     0.037 A 
ATOM     54  C   UNL A   1      38.255  32.807  32.875  1.00  0.00     0.049 A 
ATOM     55  C   UNL A   1      42.382  30.333  35.782  1.00  0.00     0.074 A 
ATOM     56  C   UNL A   1      37.602  33.851  33.507  1.00  0.00     0.029 A 
ATOM     57  N   UNL A   1      39.248  32.375  33.744  1.00  0.00    -0.354 N 
ATOM     58  N   UNL A   1      41.393  30.995  35.230  1.00  0.00    -0.248 NA
ATOM     59  C   UNL A   1      42.784  30.827  37.103  1.00  0.00     0.031 C 
ATOM     60  C   UNL A   1      38.221  34.073  34.742  1.00  0.00     0.029 A 
ATOM     61  C   UNL A   1      39.234  33.141  34.899  1.00  0.00     0.049 A 
ATOM     62  H   UNL A   1      39.870  31.634  33.566  1.00  0.00     0.167 HD
ATOM     63  C   UNL A   1      41.058  31.994  36.134  1.00  0.00     0.074 A 
ATOM     64  C   UNL A   1      41.930  31.826  37.282  1.00  0.00     0.031 C 
ATOM     65  C   UNL A   1      40.123  32.967  36.021  1.00  0.00     0.037 A 
BRANCH  52  66
ATOM     66  C   UNL A   1      36.875  32.830  30.759  1.00  0.00     0.058 A 
ATOM     67  C   UNL A   1      37.111  33.819  29.793  1.00  0.00     0.135 A 
ATOM     68  C   UNL A   1      35.559  32.354  30.897  1.00  0.00     0.135 A 
ATOM     69  F   UNL A   1      38.346  34.320  29.629  1.00  0.00    -0.206 F 
ATOM     70  C   UNL A   1      36.084  34.324  29.001  1.00  0.00     0.059 A 
ATOM     71  C   UNL A   1      34.519  32.830  30.102  1.00  0.00     0.059 A 
ATOM     72  F   UNL A   1      35.275  31.408  31.806  1.00  0.00    -0.206 F 
ATOM     73  C   UNL A   1      34.791  33.822  29.162  1.00  0.00     0.060 A 
BRANCH  73  74
ATOM     74  S   UNL A   1      33.473  34.473  28.111  1.00  0.00     0.124 S 
ATOM     75  O   UNL A   1      34.237  35.193  27.098  1.00  0.00    -0.237 OA
ATOM     76  O   UNL A   1      32.806  33.257  27.657  1.00  0.00    -0.237 OA
ATOM     77  O   UNL A   1      32.694  35.308  29.020  1.00  0.00    -0.744 OA
ENDBRANCH  73  74
ENDBRANCH  52  66
BRANCH  53  78
ATOM     78  C   UNL A   1      44.229  28.509  36.011  1.00  0.00     0.058 A 
ATOM     79  C   UNL A   1      45.557  28.941  35.908  1.00  0.00     0.135 A 
ATOM     80  C   UNL A   1      43.942  27.481  36.925  1.00  0.00     0.135 A 
ATOM     81  F   UNL A   1      45.880  29.916  35.044  1.00  0.00    -0.206 F 
ATOM     82  C   UNL A   1      46.564  28.386  36.691  1.00  0.00     0.059 A 
ATOM     83  C   UNL A   1      44.926  26.930  37.738  1.00  0.00     0.059 A 
ATOM     84  F   UNL A   1      42.681  27.044  37.071  1.00  0.00    -0.206 F 
ATOM     85  C   UNL A   1      46.236  27.388  37.611  1.00  0.00     0.060 A 
BRANCH  85  86
ATOM     86  S   UNL A   1      47.533  26.738  38.684  1.00  0.00     0.124 S 
ATOM     87  O   UNL A   1      46.792  26.474  39.913  1.00  0.00    -0.237 OA
ATOM     88  O   UNL A   1      47.983  25.562  37.945  1.00  0.00    -0.237 OA
ATOM     89  O   UNL A   1      48.495  27.833  38.749  1.00  0.00    -0.744 OA
ENDBRANCH  85  86
ENDBRANCH  53  78
BRANCH  65  90
ATOM     90  C   UNL A   1      40.001  33.924  37.169  1.00  0.00     0.058 A 
ATOM     91  C   UNL A   1      39.204  33.627  38.285  1.00  0.00     0.135 A 
ATOM     92  C   UNL A   1      40.709  35.137  37.168  1.00  0.00     0.135 A 
ATOM     93  F   UNL A   1      38.499  32.485  38.326  1.00  0.00    -0.206 F 
ATOM     94  C   UNL A   1      39.093  34.510  39.353  1.00  0.00     0.059 A 
ATOM     95  C   UNL A   1      40.632  36.025  38.235  1.00  0.00     0.059 A 
ATOM     96  F   UNL A   1      41.490  35.462  36.126  1.00  0.00    -0.206 F 
ATOM     97  C   UNL A   1      39.811  35.707  39.318  1.00  0.00     0.060 A 
BRANCH  97  98
ATOM     98  S   UNL A   1      39.673  36.837  40.719  1.00  0.00     0.124 S 
ATOM     99  O   UNL A   1      38.547  36.264  41.448  1.00  0.00    -0.237 OA
ATOM    100  O   UNL A   1      40.979  36.700  41.359  1.00  0.00    -0.237 OA
ATOM    101  O   UNL A   1      39.423  38.129  40.089  1.00  0.00    -0.744 OA
ENDBRANCH  97  98
ENDBRANCH  65  90
ENDBRANCH  39  40
ENDBRANCH  31  34
ENDBRANCH  29  30
ENDBRANCH  28  29
ENDBRANCH  27  28
ENDBRANCH   1  27
TORSDOF 22
ENDMDL
