MODEL 1
REMARK VINA RESULT:     -11.2      0.000      0.000
REMARK SMILES CC(C)n1c([C@H](O)CC(=O)NCCCCCCNC(=O)c2ccc(-c3c4nc(c(-c5c(F)cc(S(=O)(=O)[O-])cc5F)c5ccc([nH]5)c(-c5c(F)cc(S(=O)(=O)[O-])cc5F)c5nc(c(-c6c(F)cc(S(=O)(=O)[O-])cc6F)c6ccc3[nH]6)C=C5)C=C4)cc2)nc2cc(Cl)ccc21
REMARK SMILES IDX 14 1 13 2 12 3 11 4 9 5 10 6 8 8 6 9 5 10 4 11 94 12 87 13
REMARK SMILES IDX 88 14 93 15 89 16 92 17 90 18 91 19 2 20 1 21 3 22 7 23
REMARK SMILES IDX 15 25 16 26 17 27 18 28 19 29 20 31 21 32 22 33 86 34 23 35
REMARK SMILES IDX 85 36 24 37 25 38 26 39 79 40 27 41 84 42 78 43 80 44 28 45
REMARK SMILES IDX 83 46 77 47 76 48 29 50 63 51 42 52 62 53 43 54 46 55 61 56
REMARK SMILES IDX 81 57 44 58 45 59 60 61 82 62 47 63 30 64 31 65 40 66 32 67
REMARK SMILES IDX 33 68 39 69 41 70 34 71 35 72 36 73 37 74 38 75 64 76 65 77
REMARK SMILES IDX 74 78 66 79 67 80 73 81 75 82 68 83 69 84 70 85 71 86 72 87
REMARK SMILES IDX 48 88 49 89 58 90 50 91 51 92 57 93 59 94 52 95 53 96 54 97
REMARK SMILES IDX 55 98 56 99
REMARK H PARENT 11 7 7 24 18 30 80 49 46 60
REMARK Flexibility Score: inf
ROOT
ATOM      1  C   UNL A   1      35.408  29.524  27.598  1.00  0.00     0.002 C 
ENDROOT
BRANCH   1   2
ATOM      2  C   UNL A   1      34.098  29.116  26.928  1.00  0.00     0.021 C 
BRANCH   2   3
ATOM      3  C   UNL A   1      34.242  28.770  25.448  1.00  0.00     0.116 C 
BRANCH   3   4
ATOM      4  N   UNL A   1      33.018  29.055  24.724  1.00  0.00    -0.356 N 
ATOM      5  C   UNL A   1      32.702  28.773  23.427  1.00  0.00     0.223 C 
ATOM      6  O   UNL A   1      31.650  29.210  22.962  1.00  0.00    -0.275 OA
ATOM      7  H   UNL A   1      32.316  29.516  25.239  1.00  0.00     0.163 HD
BRANCH   5   8
ATOM      8  C   UNL A   1      33.660  27.967  22.583  1.00  0.00     0.140 C 
BRANCH   8   9
ATOM      9  C   UNL A   1      33.011  26.685  22.084  1.00  0.00     0.190 C 
BRANCH   9  10
ATOM     10  C   UNL A   1      33.296  25.500  22.968  1.00  0.00     0.139 A 
ATOM     11  N   UNL A   1      32.717  25.121  24.177  1.00  0.00    -0.323 N 
ATOM     12  C   UNL A   1      33.394  23.976  24.608  1.00  0.00     0.069 A 
ATOM     13  N   UNL A   1      34.247  24.645  22.624  1.00  0.00    -0.230 NA
ATOM     14  C   UNL A   1      34.327  23.718  23.615  1.00  0.00     0.090 A 
ATOM     15  C   UNL A   1      33.277  23.156  25.742  1.00  0.00     0.030 A 
ATOM     16  C   UNL A   1      35.193  22.622  23.721  1.00  0.00     0.051 A 
ATOM     17  C   UNL A   1      34.150  22.067  25.844  1.00  0.00     0.023 A 
ATOM     18  C   UNL A   1      35.091  21.808  24.848  1.00  0.00     0.043 A 
ATOM     19  Cl  UNL A   1      36.149  20.458  25.014  1.00  0.00    -0.084 Cl
BRANCH  11  20
ATOM     20  C   UNL A   1      31.594  25.668  24.942  1.00  0.00     0.083 C 
ATOM     21  C   UNL A   1      30.265  24.921  24.874  1.00  0.00     0.031 C 
ATOM     22  C   UNL A   1      31.975  26.070  26.365  1.00  0.00     0.031 C 
ENDBRANCH  11  20
ENDBRANCH   9  10
BRANCH   9  23
ATOM     23  O   UNL A   1      33.338  26.339  20.753  1.00  0.00    -0.385 OA
ATOM     24  H   UNL A   1      32.543  26.022  20.297  1.00  0.00     0.211 HD
ENDBRANCH   9  23
ENDBRANCH   8   9
ENDBRANCH   5   8
ENDBRANCH   3   4
ENDBRANCH   2   3
ENDBRANCH   1   2
BRANCH   1  25
ATOM     25  C   UNL A   1      35.549  31.029  27.839  1.00  0.00     0.002 C 
BRANCH  25  26
ATOM     26  C   UNL A   1      34.226  31.804  27.906  1.00  0.00     0.021 C 
BRANCH  26  27
ATOM     27  C   UNL A   1      34.383  33.296  28.209  1.00  0.00     0.116 C 
BRANCH  27  28
ATOM     28  N   UNL A   1      33.961  33.672  29.540  1.00  0.00    -0.352 N 
ATOM     29  C   UNL A   1      34.548  33.633  30.774  1.00  0.00     0.251 C 
ATOM     30  H   UNL A   1      33.047  34.037  29.563  1.00  0.00     0.163 HD
ATOM     31  O   UNL A   1      33.905  34.132  31.700  1.00  0.00    -0.269 OA
BRANCH  29  32
ATOM     32  C   UNL A   1      35.844  32.967  31.066  1.00  0.00     0.039 A 
ATOM     33  C   UNL A   1      37.101  33.567  30.978  1.00  0.00     0.014 A 
ATOM     34  C   UNL A   1      35.770  31.597  31.374  1.00  0.00     0.014 A 
ATOM     35  C   UNL A   1      38.252  32.796  31.019  1.00  0.00     0.010 A 
ATOM     36  C   UNL A   1      36.921  30.829  31.465  1.00  0.00     0.010 A 
ATOM     37  C   UNL A   1      38.151  31.420  31.199  1.00  0.00    -0.014 A 
BRANCH  37  38
ATOM     38  C   UNL A   1      39.376  30.639  31.087  1.00  0.00     0.031 A 
ATOM     39  C   UNL A   1      40.145  30.441  32.352  1.00  0.00     0.074 A 
ATOM     40  C   UNL A   1      39.730  30.070  29.918  1.00  0.00     0.049 A 
ATOM     41  N   UNL A   1      41.373  30.759  32.614  1.00  0.00    -0.248 NA
ATOM     42  C   UNL A   1      39.407  29.915  33.512  1.00  0.00     0.031 C 
ATOM     43  C   UNL A   1      38.959  29.977  28.674  1.00  0.00     0.029 A 
ATOM     44  N   UNL A   1      40.843  29.349  29.634  1.00  0.00    -0.354 N 
ATOM     45  C   UNL A   1      41.621  30.319  33.916  1.00  0.00     0.074 A 
ATOM     46  C   UNL A   1      40.347  29.920  34.458  1.00  0.00     0.031 C 
ATOM     47  C   UNL A   1      39.511  29.036  27.878  1.00  0.00     0.029 A 
ATOM     48  C   UNL A   1      40.739  28.568  28.493  1.00  0.00     0.049 A 
ATOM     49  H   UNL A   1      41.655  29.377  30.190  1.00  0.00     0.167 HD
ATOM     50  C   UNL A   1      42.878  30.164  34.421  1.00  0.00     0.037 A 
ATOM     51  C   UNL A   1      41.559  27.543  28.151  1.00  0.00     0.037 A 
ATOM     52  C   UNL A   1      43.858  30.877  33.647  1.00  0.00     0.049 A 
ATOM     53  C   UNL A   1      42.831  27.733  28.902  1.00  0.00     0.074 A 
ATOM     54  C   UNL A   1      44.091  32.212  33.384  1.00  0.00     0.029 A 
ATOM     55  N   UNL A   1      44.589  30.183  32.714  1.00  0.00    -0.354 N 
ATOM     56  N   UNL A   1      43.651  28.730  28.696  1.00  0.00    -0.248 NA
ATOM     57  C   UNL A   1      42.953  27.089  30.203  1.00  0.00     0.031 C 
ATOM     58  C   UNL A   1      44.522  32.250  32.026  1.00  0.00     0.029 A 
ATOM     59  C   UNL A   1      44.573  30.934  31.563  1.00  0.00     0.049 A 
ATOM     60  H   UNL A   1      45.038  29.317  32.844  1.00  0.00     0.167 HD
ATOM     61  C   UNL A   1      44.101  29.097  29.958  1.00  0.00     0.074 A 
ATOM     62  C   UNL A   1      43.692  28.003  30.838  1.00  0.00     0.031 C 
ATOM     63  C   UNL A   1      44.511  30.372  30.231  1.00  0.00     0.037 A 
BRANCH  50  64
ATOM     64  C   UNL A   1      43.253  29.154  35.476  1.00  0.00     0.058 A 
ATOM     65  C   UNL A   1      43.942  29.558  36.638  1.00  0.00     0.135 A 
ATOM     66  C   UNL A   1      43.186  27.760  35.260  1.00  0.00     0.135 A 
ATOM     67  F   UNL A   1      44.076  30.860  36.936  1.00  0.00    -0.206 F 
ATOM     68  C   UNL A   1      44.568  28.644  37.490  1.00  0.00     0.059 A 
ATOM     69  C   UNL A   1      43.756  26.831  36.123  1.00  0.00     0.059 A 
ATOM     70  F   UNL A   1      42.644  27.242  34.149  1.00  0.00    -0.206 F 
ATOM     71  C   UNL A   1      44.482  27.282  37.213  1.00  0.00     0.060 A 
BRANCH  71  72
ATOM     72  S   UNL A   1      45.398  26.111  38.234  1.00  0.00     0.124 S 
ATOM     73  O   UNL A   1      44.765  24.849  37.868  1.00  0.00    -0.237 OA
ATOM     74  O   UNL A   1      46.765  26.301  37.761  1.00  0.00    -0.237 OA
ATOM     75  O   UNL A   1      45.140  26.575  39.593  1.00  0.00    -0.744 OA
ENDBRANCH  71  72
ENDBRANCH  50  64
BRANCH  51  76
ATOM     76  C   UNL A   1      41.136  26.240  27.568  1.00  0.00     0.058 A 
ATOM     77  C   UNL A   1      41.888  25.608  26.563  1.00  0.00     0.135 A 
ATOM     78  C   UNL A   1      40.121  25.461  28.165  1.00  0.00     0.135 A 
ATOM     79  F   UNL A   1      42.894  26.263  25.962  1.00  0.00    -0.206 F 
ATOM     80  C   UNL A   1      41.669  24.275  26.197  1.00  0.00     0.059 A 
ATOM     81  C   UNL A   1      39.875  24.138  27.807  1.00  0.00     0.059 A 
ATOM     82  F   UNL A   1      39.390  25.932  29.185  1.00  0.00    -0.206 F 
ATOM     83  C   UNL A   1      40.670  23.541  26.838  1.00  0.00     0.060 A 
BRANCH  83  84
ATOM     84  S   UNL A   1      40.490  21.777  26.489  1.00  0.00     0.124 S 
ATOM     85  O   UNL A   1      39.198  21.733  25.811  1.00  0.00    -0.237 OA
ATOM     86  O   UNL A   1      41.657  21.510  25.655  1.00  0.00    -0.237 OA
ATOM     87  O   UNL A   1      40.521  21.161  27.813  1.00  0.00    -0.744 OA
ENDBRANCH  83  84
ENDBRANCH  51  76
BRANCH  63  88
ATOM     88  C   UNL A   1      44.657  31.337  29.078  1.00  0.00     0.058 A 
ATOM     89  C   UNL A   1      45.755  31.338  28.198  1.00  0.00     0.135 A 
ATOM     90  C   UNL A   1      43.583  32.177  28.751  1.00  0.00     0.135 A 
ATOM     91  F   UNL A   1      46.768  30.478  28.361  1.00  0.00    -0.206 F 
ATOM     92  C   UNL A   1      45.809  32.170  27.079  1.00  0.00     0.059 A 
ATOM     93  C   UNL A   1      43.600  32.993  27.621  1.00  0.00     0.059 A 
ATOM     94  F   UNL A   1      42.471  32.170  29.504  1.00  0.00    -0.206 F 
ATOM     95  C   UNL A   1      44.724  32.996  26.797  1.00  0.00     0.060 A 
BRANCH  95  96
ATOM     96  S   UNL A   1      44.770  34.014  25.306  1.00  0.00     0.124 S 
ATOM     97  O   UNL A   1      46.156  34.468  25.285  1.00  0.00    -0.237 OA
ATOM     98  O   UNL A   1      44.396  33.066  24.262  1.00  0.00    -0.237 OA
ATOM     99  O   UNL A   1      43.777  35.054  25.573  1.00  0.00    -0.744 OA
ENDBRANCH  95  96
ENDBRANCH  63  88
ENDBRANCH  37  38
ENDBRANCH  29  32
ENDBRANCH  27  28
ENDBRANCH  26  27
ENDBRANCH  25  26
ENDBRANCH   1  25
TORSDOF 20
ENDMDL
MODEL 2
REMARK VINA RESULT:     -11.2      2.137      3.230
REMARK SMILES CC(C)n1c([C@H](O)CC(=O)NCCCCCCNC(=O)c2ccc(-c3c4nc(c(-c5c(F)cc(S(=O)(=O)[O-])cc5F)c5ccc([nH]5)c(-c5c(F)cc(S(=O)(=O)[O-])cc5F)c5nc(c(-c6c(F)cc(S(=O)(=O)[O-])cc6F)c6ccc3[nH]6)C=C5)C=C4)cc2)nc2cc(Cl)ccc21
REMARK SMILES IDX 14 1 13 2 12 3 11 4 9 5 10 6 8 8 6 9 5 10 4 11 94 12 87 13
REMARK SMILES IDX 88 14 93 15 89 16 92 17 90 18 91 19 2 20 1 21 3 22 7 23
REMARK SMILES IDX 15 25 16 26 17 27 18 28 19 29 20 31 21 32 22 33 86 34 23 35
REMARK SMILES IDX 85 36 24 37 25 38 26 39 79 40 27 41 84 42 78 43 80 44 28 45
REMARK SMILES IDX 83 46 77 47 76 48 29 50 63 51 42 52 62 53 43 54 46 55 61 56
REMARK SMILES IDX 81 57 44 58 45 59 60 61 82 62 47 63 30 64 31 65 40 66 32 67
REMARK SMILES IDX 33 68 39 69 41 70 34 71 35 72 36 73 37 74 38 75 64 76 65 77
REMARK SMILES IDX 74 78 66 79 67 80 73 81 75 82 68 83 69 84 70 85 71 86 72 87
REMARK SMILES IDX 48 88 49 89 58 90 50 91 51 92 57 93 59 94 52 95 53 96 54 97
REMARK SMILES IDX 55 98 56 99
REMARK H PARENT 11 7 7 24 18 30 80 49 46 60
REMARK Flexibility Score: inf
ROOT
ATOM      1  C   UNL A   1      31.170  27.355  26.003  1.00  0.00     0.002 C 
ENDROOT
BRANCH   1   2
ATOM      2  C   UNL A   1      30.831  27.887  24.612  1.00  0.00     0.021 C 
BRANCH   2   3
ATOM      3  C   UNL A   1      30.295  26.824  23.657  1.00  0.00     0.116 C 
BRANCH   3   4
ATOM      4  N   UNL A   1      31.375  26.176  22.937  1.00  0.00    -0.356 N 
ATOM      5  C   UNL A   1      31.673  24.849  22.848  1.00  0.00     0.223 C 
ATOM      6  O   UNL A   1      32.712  24.507  22.283  1.00  0.00    -0.275 OA
ATOM      7  H   UNL A   1      31.978  26.779  22.444  1.00  0.00     0.163 HD
BRANCH   5   8
ATOM      8  C   UNL A   1      30.746  23.832  23.469  1.00  0.00     0.140 C 
BRANCH   8   9
ATOM      9  C   UNL A   1      31.237  23.405  24.844  1.00  0.00     0.190 C 
BRANCH   9  10
ATOM     10  C   UNL A   1      32.141  22.202  24.799  1.00  0.00     0.139 A 
ATOM     11  N   UNL A   1      33.463  22.055  25.212  1.00  0.00    -0.323 N 
ATOM     12  C   UNL A   1      33.846  20.752  24.884  1.00  0.00     0.069 A 
ATOM     13  N   UNL A   1      31.691  21.069  24.280  1.00  0.00    -0.230 NA
ATOM     14  C   UNL A   1      32.718  20.180  24.314  1.00  0.00     0.090 A 
ATOM     15  C   UNL A   1      35.042  20.030  25.035  1.00  0.00     0.030 A 
ATOM     16  C   UNL A   1      32.744  18.854  23.862  1.00  0.00     0.051 A 
ATOM     17  C   UNL A   1      35.062  18.709  24.575  1.00  0.00     0.023 A 
ATOM     18  C   UNL A   1      33.930  18.134  23.999  1.00  0.00     0.043 A 
ATOM     19  Cl  UNL A   1      33.998  16.505  23.442  1.00  0.00    -0.084 Cl
BRANCH  11  20
ATOM     20  C   UNL A   1      34.380  22.961  25.907  1.00  0.00     0.083 C 
ATOM     21  C   UNL A   1      34.458  24.403  25.413  1.00  0.00     0.031 C 
ATOM     22  C   UNL A   1      34.285  22.860  27.428  1.00  0.00     0.031 C 
ENDBRANCH  11  20
ENDBRANCH   9  10
BRANCH   9  23
ATOM     23  O   UNL A   1      30.212  23.159  25.786  1.00  0.00    -0.385 OA
ATOM     24  H   UNL A   1      29.565  23.881  25.757  1.00  0.00     0.211 HD
ENDBRANCH   9  23
ENDBRANCH   8   9
ENDBRANCH   5   8
ENDBRANCH   3   4
ENDBRANCH   2   3
ENDBRANCH   1   2
BRANCH   1  25
ATOM     25  C   UNL A   1      32.023  28.304  26.848  1.00  0.00     0.002 C 
BRANCH  25  26
ATOM     26  C   UNL A   1      33.530  28.019  26.826  1.00  0.00     0.021 C 
BRANCH  26  27
ATOM     27  C   UNL A   1      34.374  29.130  26.197  1.00  0.00     0.116 C 
BRANCH  27  28
ATOM     28  N   UNL A   1      34.183  30.428  26.805  1.00  0.00    -0.352 N 
ATOM     29  C   UNL A   1      34.942  31.220  27.620  1.00  0.00     0.251 C 
ATOM     30  H   UNL A   1      33.312  30.830  26.584  1.00  0.00     0.163 HD
ATOM     31  O   UNL A   1      34.482  32.335  27.879  1.00  0.00    -0.269 OA
BRANCH  29  32
ATOM     32  C   UNL A   1      36.214  30.793  28.259  1.00  0.00     0.039 A 
ATOM     33  C   UNL A   1      37.236  31.646  28.677  1.00  0.00     0.014 A 
ATOM     34  C   UNL A   1      36.409  29.405  28.362  1.00  0.00     0.014 A 
ATOM     35  C   UNL A   1      38.479  31.138  29.020  1.00  0.00     0.010 A 
ATOM     36  C   UNL A   1      37.635  28.889  28.751  1.00  0.00     0.010 A 
ATOM     37  C   UNL A   1      38.690  29.763  28.994  1.00  0.00    -0.014 A 
BRANCH  37  38
ATOM     38  C   UNL A   1      40.050  29.290  29.218  1.00  0.00     0.031 A 
ATOM     39  C   UNL A   1      40.496  29.230  30.642  1.00  0.00     0.074 A 
ATOM     40  C   UNL A   1      40.812  28.861  28.193  1.00  0.00     0.049 A 
ATOM     41  N   UNL A   1      41.509  29.813  31.201  1.00  0.00    -0.248 NA
ATOM     42  C   UNL A   1      39.631  28.507  31.588  1.00  0.00     0.031 C 
ATOM     43  C   UNL A   1      40.425  28.636  26.795  1.00  0.00     0.029 A 
ATOM     44  N   UNL A   1      42.097  28.426  28.220  1.00  0.00    -0.354 N 
ATOM     45  C   UNL A   1      41.513  29.396  32.533  1.00  0.00     0.074 A 
ATOM     46  C   UNL A   1      40.272  28.695  32.741  1.00  0.00     0.031 C 
ATOM     47  C   UNL A   1      41.364  27.877  26.191  1.00  0.00     0.029 A 
ATOM     48  C   UNL A   1      42.470  27.684  27.111  1.00  0.00     0.049 A 
ATOM     49  H   UNL A   1      42.710  28.621  28.965  1.00  0.00     0.167 HD
ATOM     50  C   UNL A   1      42.601  29.518  33.346  1.00  0.00     0.037 A 
ATOM     51  C   UNL A   1      43.565  26.888  27.015  1.00  0.00     0.037 A 
ATOM     52  C   UNL A   1      43.552  30.464  32.831  1.00  0.00     0.049 A 
ATOM     53  C   UNL A   1      44.524  27.340  28.062  1.00  0.00     0.074 A 
ATOM     54  C   UNL A   1      43.528  31.826  32.603  1.00  0.00     0.029 A 
ATOM     55  N   UNL A   1      44.637  29.992  32.134  1.00  0.00    -0.354 N 
ATOM     56  N   UNL A   1      45.115  28.505  28.047  1.00  0.00    -0.248 NA
ATOM     57  C   UNL A   1      44.457  26.696  29.366  1.00  0.00     0.031 C 
ATOM     58  C   UNL A   1      44.269  32.011  31.399  1.00  0.00     0.029 A 
ATOM     59  C   UNL A   1      44.740  30.760  30.998  1.00  0.00     0.049 A 
ATOM     60  H   UNL A   1      45.226  29.249  32.396  1.00  0.00     0.167 HD
ATOM     61  C   UNL A   1      45.131  28.921  29.372  1.00  0.00     0.074 A 
ATOM     62  C   UNL A   1      44.777  27.732  30.146  1.00  0.00     0.031 C 
ATOM     63  C   UNL A   1      45.151  30.246  29.710  1.00  0.00     0.037 A 
BRANCH  50  64
ATOM     64  C   UNL A   1      42.919  28.585  34.488  1.00  0.00     0.058 A 
ATOM     65  C   UNL A   1      42.996  29.072  35.808  1.00  0.00     0.135 A 
ATOM     66  C   UNL A   1      43.407  27.273  34.292  1.00  0.00     0.135 A 
ATOM     67  F   UNL A   1      42.571  30.310  36.107  1.00  0.00    -0.206 F 
ATOM     68  C   UNL A   1      43.571  28.332  36.845  1.00  0.00     0.059 A 
ATOM     69  C   UNL A   1      43.934  26.499  35.319  1.00  0.00     0.059 A 
ATOM     70  F   UNL A   1      43.481  26.721  33.073  1.00  0.00    -0.206 F 
ATOM     71  C   UNL A   1      44.052  27.051  36.585  1.00  0.00     0.060 A 
BRANCH  71  72
ATOM     72  S   UNL A   1      44.911  26.145  37.886  1.00  0.00     0.124 S 
ATOM     73  O   UNL A   1      44.509  26.890  39.074  1.00  0.00    -0.237 OA
ATOM     74  O   UNL A   1      44.346  24.807  37.747  1.00  0.00    -0.237 OA
ATOM     75  O   UNL A   1      46.316  26.269  37.510  1.00  0.00    -0.744 OA
ENDBRANCH  71  72
ENDBRANCH  50  64
BRANCH  51  76
ATOM     76  C   UNL A   1      43.618  25.545  26.377  1.00  0.00     0.058 A 
ATOM     77  C   UNL A   1      44.494  25.274  25.311  1.00  0.00     0.135 A 
ATOM     78  C   UNL A   1      42.994  24.424  26.966  1.00  0.00     0.135 A 
ATOM     79  F   UNL A   1      45.155  26.276  24.712  1.00  0.00    -0.206 F 
ATOM     80  C   UNL A   1      44.759  23.969  24.880  1.00  0.00     0.059 A 
ATOM     81  C   UNL A   1      43.232  23.118  26.544  1.00  0.00     0.059 A 
ATOM     82  F   UNL A   1      42.198  24.552  28.037  1.00  0.00    -0.206 F 
ATOM     83  C   UNL A   1      44.137  22.894  25.516  1.00  0.00     0.060 A 
BRANCH  83  84
ATOM     84  S   UNL A   1      44.598  21.203  25.076  1.00  0.00     0.124 S 
ATOM     85  O   UNL A   1      44.514  21.235  23.619  1.00  0.00    -0.237 OA
ATOM     86  O   UNL A   1      45.942  21.098  25.635  1.00  0.00    -0.237 OA
ATOM     87  O   UNL A   1      43.584  20.389  25.740  1.00  0.00    -0.744 OA
ENDBRANCH  83  84
ENDBRANCH  51  76
BRANCH  63  88
ATOM     88  C   UNL A   1      45.357  31.259  28.608  1.00  0.00     0.058 A 
ATOM     89  C   UNL A   1      44.313  31.763  27.809  1.00  0.00     0.135 A 
ATOM     90  C   UNL A   1      46.614  31.862  28.460  1.00  0.00     0.135 A 
ATOM     91  F   UNL A   1      43.056  31.336  27.971  1.00  0.00    -0.206 F 
ATOM     92  C   UNL A   1      44.519  32.776  26.871  1.00  0.00     0.059 A 
ATOM     93  C   UNL A   1      46.836  32.898  27.555  1.00  0.00     0.059 A 
ATOM     94  F   UNL A   1      47.637  31.484  29.245  1.00  0.00    -0.206 F 
ATOM     95  C   UNL A   1      45.786  33.340  26.751  1.00  0.00     0.060 A 
BRANCH  95  96
ATOM     96  S   UNL A   1      46.026  34.702  25.590  1.00  0.00     0.124 S 
ATOM     97  O   UNL A   1      45.118  34.347  24.506  1.00  0.00    -0.237 OA
ATOM     98  O   UNL A   1      45.644  35.867  26.383  1.00  0.00    -0.237 OA
ATOM     99  O   UNL A   1      47.450  34.624  25.263  1.00  0.00    -0.744 OA
ENDBRANCH  95  96
ENDBRANCH  63  88
ENDBRANCH  37  38
ENDBRANCH  29  32
ENDBRANCH  27  28
ENDBRANCH  26  27
ENDBRANCH  25  26
ENDBRANCH   1  25
TORSDOF 20
ENDMDL
MODEL 3
REMARK VINA RESULT:     -11.1      3.090      8.923
REMARK SMILES CC(C)n1c([C@H](O)CC(=O)NCCCCCCNC(=O)c2ccc(-c3c4nc(c(-c5c(F)cc(S(=O)(=O)[O-])cc5F)c5ccc([nH]5)c(-c5c(F)cc(S(=O)(=O)[O-])cc5F)c5nc(c(-c6c(F)cc(S(=O)(=O)[O-])cc6F)c6ccc3[nH]6)C=C5)C=C4)cc2)nc2cc(Cl)ccc21
REMARK SMILES IDX 14 1 13 2 12 3 11 4 9 5 10 6 8 8 6 9 5 10 4 11 94 12 87 13
REMARK SMILES IDX 88 14 93 15 89 16 92 17 90 18 91 19 2 20 1 21 3 22 7 23
REMARK SMILES IDX 15 25 16 26 17 27 18 28 19 29 20 31 21 32 22 33 86 34 23 35
REMARK SMILES IDX 85 36 24 37 25 38 26 39 79 40 27 41 84 42 78 43 80 44 28 45
REMARK SMILES IDX 83 46 77 47 76 48 29 50 63 51 42 52 62 53 43 54 46 55 61 56
REMARK SMILES IDX 81 57 44 58 45 59 60 61 82 62 47 63 30 64 31 65 40 66 32 67
REMARK SMILES IDX 33 68 39 69 41 70 34 71 35 72 36 73 37 74 38 75 64 76 65 77
REMARK SMILES IDX 74 78 66 79 67 80 73 81 75 82 68 83 69 84 70 85 71 86 72 87
REMARK SMILES IDX 48 88 49 89 58 90 50 91 51 92 57 93 59 94 52 95 53 96 54 97
REMARK SMILES IDX 55 98 56 99
REMARK H PARENT 11 7 7 24 18 30 80 49 46 60
REMARK Flexibility Score: inf
ROOT
ATOM      1  C   UNL A   1      37.725  23.457  25.751  1.00  0.00     0.002 C 
ENDROOT
BRANCH   1   2
ATOM      2  C   UNL A   1      36.214  23.597  25.930  1.00  0.00     0.021 C 
BRANCH   2   3
ATOM      3  C   UNL A   1      35.494  22.270  26.154  1.00  0.00     0.116 C 
BRANCH   3   4
ATOM      4  N   UNL A   1      34.641  22.330  27.326  1.00  0.00    -0.356 N 
ATOM      5  C   UNL A   1      33.283  22.227  27.406  1.00  0.00     0.223 C 
ATOM      6  O   UNL A   1      32.733  22.429  28.488  1.00  0.00    -0.275 OA
ATOM      7  H   UNL A   1      35.106  22.465  28.184  1.00  0.00     0.163 HD
BRANCH   5   8
ATOM      8  C   UNL A   1      32.484  21.904  26.166  1.00  0.00     0.140 C 
BRANCH   8   9
ATOM      9  C   UNL A   1      31.211  22.733  26.099  1.00  0.00     0.190 C 
BRANCH   9  10
ATOM     10  C   UNL A   1      31.473  24.194  25.846  1.00  0.00     0.139 A 
ATOM     11  N   UNL A   1      31.996  24.832  24.723  1.00  0.00    -0.323 N 
ATOM     12  C   UNL A   1      32.089  26.190  25.037  1.00  0.00     0.069 A 
ATOM     13  N   UNL A   1      31.212  25.077  26.798  1.00  0.00    -0.230 NA
ATOM     14  C   UNL A   1      31.592  26.294  26.327  1.00  0.00     0.090 A 
ATOM     15  C   UNL A   1      32.546  27.315  24.330  1.00  0.00     0.030 A 
ATOM     16  C   UNL A   1      31.534  27.538  26.969  1.00  0.00     0.051 A 
ATOM     17  C   UNL A   1      32.492  28.552  24.980  1.00  0.00     0.023 A 
ATOM     18  C   UNL A   1      31.994  28.658  26.278  1.00  0.00     0.043 A 
ATOM     19  Cl  UNL A   1      31.948  30.201  27.044  1.00  0.00    -0.084 Cl
BRANCH  11  20
ATOM     20  C   UNL A   1      32.368  24.334  23.397  1.00  0.00     0.083 C 
ATOM     21  C   UNL A   1      31.746  25.022  22.185  1.00  0.00     0.031 C 
ATOM     22  C   UNL A   1      33.871  24.106  23.242  1.00  0.00     0.031 C 
ENDBRANCH  11  20
ENDBRANCH   9  10
BRANCH   9  23
ATOM     23  O   UNL A   1      30.374  22.619  27.233  1.00  0.00    -0.385 OA
ATOM     24  H   UNL A   1      29.551  22.169  26.984  1.00  0.00     0.211 HD
ENDBRANCH   9  23
ENDBRANCH   8   9
ENDBRANCH   5   8
ENDBRANCH   3   4
ENDBRANCH   2   3
ENDBRANCH   1   2
BRANCH   1  25
ATOM     25  C   UNL A   1      38.553  24.347  26.681  1.00  0.00     0.002 C 
BRANCH  25  26
ATOM     26  C   UNL A   1      39.744  23.654  27.355  1.00  0.00     0.021 C 
BRANCH  26  27
ATOM     27  C   UNL A   1      40.076  22.273  26.787  1.00  0.00     0.116 C 
BRANCH  27  28
ATOM     28  N   UNL A   1      41.165  22.276  25.835  1.00  0.00    -0.352 N 
ATOM     29  C   UNL A   1      42.243  23.087  25.622  1.00  0.00     0.251 C 
ATOM     30  H   UNL A   1      41.118  21.526  25.198  1.00  0.00     0.163 HD
ATOM     31  O   UNL A   1      43.034  22.725  24.748  1.00  0.00    -0.269 OA
BRANCH  29  32
ATOM     32  C   UNL A   1      42.464  24.387  26.308  1.00  0.00     0.039 A 
ATOM     33  C   UNL A   1      43.138  24.559  27.518  1.00  0.00     0.014 A 
ATOM     34  C   UNL A   1      41.863  25.505  25.705  1.00  0.00     0.014 A 
ATOM     35  C   UNL A   1      43.065  25.765  28.197  1.00  0.00     0.010 A 
ATOM     36  C   UNL A   1      41.829  26.728  26.357  1.00  0.00     0.010 A 
ATOM     37  C   UNL A   1      42.356  26.825  27.641  1.00  0.00    -0.014 A 
BRANCH  37  38
ATOM     38  C   UNL A   1      42.186  28.019  28.458  1.00  0.00     0.031 A 
ATOM     39  C   UNL A   1      43.299  29.014  28.405  1.00  0.00     0.074 A 
ATOM     40  C   UNL A   1      41.048  28.229  29.148  1.00  0.00     0.049 A 
ATOM     41  N   UNL A   1      44.019  29.479  29.376  1.00  0.00    -0.248 NA
ATOM     42  C   UNL A   1      43.733  29.466  27.073  1.00  0.00     0.031 C 
ATOM     43  C   UNL A   1      39.794  27.469  29.101  1.00  0.00     0.029 A 
ATOM     44  N   UNL A   1      40.742  29.259  29.977  1.00  0.00    -0.354 N 
ATOM     45  C   UNL A   1      44.886  30.414  28.805  1.00  0.00     0.074 A 
ATOM     46  C   UNL A   1      44.748  30.274  27.378  1.00  0.00     0.031 C 
ATOM     47  C   UNL A   1      38.807  28.205  29.656  1.00  0.00     0.029 A 
ATOM     48  C   UNL A   1      39.385  29.413  30.215  1.00  0.00     0.049 A 
ATOM     49  H   UNL A   1      41.425  29.845  30.375  1.00  0.00     0.167 HD
ATOM     50  C   UNL A   1      45.553  31.351  29.537  1.00  0.00     0.037 A 
ATOM     51  C   UNL A   1      38.788  30.512  30.740  1.00  0.00     0.037 A 
ATOM     52  C   UNL A   1      45.594  31.013  30.933  1.00  0.00     0.049 A 
ATOM     53  C   UNL A   1      39.841  31.274  31.468  1.00  0.00     0.074 A 
ATOM     54  C   UNL A   1      46.169  29.988  31.659  1.00  0.00     0.029 A 
ATOM     55  N   UNL A   1      44.681  31.596  31.777  1.00  0.00    -0.354 N 
ATOM     56  N   UNL A   1      40.442  30.833  32.542  1.00  0.00    -0.248 NA
ATOM     57  C   UNL A   1      40.562  32.304  30.733  1.00  0.00     0.031 C 
ATOM     58  C   UNL A   1      45.229  29.694  32.689  1.00  0.00     0.029 A 
ATOM     59  C   UNL A   1      44.166  30.588  32.557  1.00  0.00     0.049 A 
ATOM     60  H   UNL A   1      44.442  32.549  31.817  1.00  0.00     0.167 HD
ATOM     61  C   UNL A   1      41.768  31.221  32.401  1.00  0.00     0.074 A 
ATOM     62  C   UNL A   1      41.765  32.186  31.303  1.00  0.00     0.031 C 
ATOM     63  C   UNL A   1      42.787  30.525  32.990  1.00  0.00     0.037 A 
BRANCH  50  64
ATOM     64  C   UNL A   1      45.952  32.710  29.018  1.00  0.00     0.058 A 
ATOM     65  C   UNL A   1      47.306  33.102  29.010  1.00  0.00     0.135 A 
ATOM     66  C   UNL A   1      45.017  33.740  28.769  1.00  0.00     0.135 A 
ATOM     67  F   UNL A   1      48.279  32.208  29.246  1.00  0.00    -0.206 F 
ATOM     68  C   UNL A   1      47.697  34.431  28.827  1.00  0.00     0.059 A 
ATOM     69  C   UNL A   1      45.387  35.058  28.531  1.00  0.00     0.059 A 
ATOM     70  F   UNL A   1      43.696  33.527  28.839  1.00  0.00    -0.206 F 
ATOM     71  C   UNL A   1      46.727  35.405  28.604  1.00  0.00     0.060 A 
BRANCH  71  72
ATOM     72  S   UNL A   1      47.217  37.137  28.500  1.00  0.00     0.124 S 
ATOM     73  O   UNL A   1      48.608  37.073  28.934  1.00  0.00    -0.237 OA
ATOM     74  O   UNL A   1      47.001  37.428  27.086  1.00  0.00    -0.237 OA
ATOM     75  O   UNL A   1      46.299  37.803  29.418  1.00  0.00    -0.744 OA
ENDBRANCH  71  72
ENDBRANCH  50  64
BRANCH  51  76
ATOM     76  C   UNL A   1      37.504  31.114  30.285  1.00  0.00     0.058 A 
ATOM     77  C   UNL A   1      36.616  31.718  31.191  1.00  0.00     0.135 A 
ATOM     78  C   UNL A   1      37.240  31.337  28.916  1.00  0.00     0.135 A 
ATOM     79  F   UNL A   1      36.808  31.585  32.512  1.00  0.00    -0.206 F 
ATOM     80  C   UNL A   1      35.551  32.522  30.765  1.00  0.00     0.059 A 
ATOM     81  C   UNL A   1      36.179  32.120  28.469  1.00  0.00     0.059 A 
ATOM     82  F   UNL A   1      38.062  30.874  27.964  1.00  0.00    -0.206 F 
ATOM     83  C   UNL A   1      35.352  32.732  29.401  1.00  0.00     0.060 A 
BRANCH  83  84
ATOM     84  S   UNL A   1      34.085  33.897  28.850  1.00  0.00     0.124 S 
ATOM     85  O   UNL A   1      34.888  34.960  28.254  1.00  0.00    -0.237 OA
ATOM     86  O   UNL A   1      33.310  33.085  27.917  1.00  0.00    -0.237 OA
ATOM     87  O   UNL A   1      33.391  34.256  30.083  1.00  0.00    -0.744 OA
ENDBRANCH  83  84
ENDBRANCH  51  76
BRANCH  63  88
ATOM     88  C   UNL A   1      42.430  29.431  33.968  1.00  0.00     0.058 A 
ATOM     89  C   UNL A   1      42.145  28.107  33.585  1.00  0.00     0.135 A 
ATOM     90  C   UNL A   1      42.538  29.681  35.343  1.00  0.00     0.135 A 
ATOM     91  F   UNL A   1      42.147  27.748  32.295  1.00  0.00    -0.206 F 
ATOM     92  C   UNL A   1      41.923  27.094  34.520  1.00  0.00     0.059 A 
ATOM     93  C   UNL A   1      42.354  28.680  36.295  1.00  0.00     0.059 A 
ATOM     94  F   UNL A   1      42.883  30.905  35.778  1.00  0.00    -0.206 F 
ATOM     95  C   UNL A   1      42.031  27.390  35.876  1.00  0.00     0.060 A 
BRANCH  95  96
ATOM     96  S   UNL A   1      41.818  26.059  37.077  1.00  0.00     0.124 S 
ATOM     97  O   UNL A   1      42.054  24.871  36.265  1.00  0.00    -0.237 OA
ATOM     98  O   UNL A   1      42.842  26.361  38.072  1.00  0.00    -0.237 OA
ATOM     99  O   UNL A   1      40.442  26.235  37.541  1.00  0.00    -0.744 OA
ENDBRANCH  95  96
ENDBRANCH  63  88
ENDBRANCH  37  38
ENDBRANCH  29  32
ENDBRANCH  27  28
ENDBRANCH  26  27
ENDBRANCH  25  26
ENDBRANCH   1  25
TORSDOF 20
ENDMDL
