MODEL 1
REMARK VINA RESULT:     -12.8      0.000      0.000
REMARK SMILES CCn1c(N2CCC(C(=O)NCCCCCCNC(=O)c3ccc(-c4c5nc(c(-c6c(F)cc(S(=O)(=O)[O-])cc6F)c6ccc([nH]6)c(-c6c(F)cc(S(=O)(=O)[O-])cc6F)c6nc(c(-c7c(F)cc(S(=O)(=O)[O-])cc7F)c7ccc4[nH]7)C=C6)C=C5)cc3)CC2)nc2cc(C)ccc21
REMARK SMILES IDX 15 1 14 2 13 3 12 4 11 5 9 6 10 7 8 9 5 10 6 11 88 12 7 13
REMARK SMILES IDX 87 14 4 15 3 16 96 17 89 18 90 19 95 20 91 21 94 22 92 23
REMARK SMILES IDX 93 24 2 25 1 26 16 27 17 28 18 29 19 30 20 32 21 33 22 34
REMARK SMILES IDX 86 35 23 36 85 37 24 38 25 39 26 40 79 41 27 42 84 43 78 44
REMARK SMILES IDX 80 45 28 46 83 47 77 48 76 49 29 51 63 52 42 53 62 54 43 55
REMARK SMILES IDX 46 56 61 57 81 58 44 59 45 60 60 62 82 63 47 64 30 65 31 66
REMARK SMILES IDX 40 67 32 68 33 69 39 70 41 71 34 72 35 73 36 74 37 75 38 76
REMARK SMILES IDX 64 77 65 78 74 79 66 80 67 81 73 82 75 83 68 84 69 85 70 86
REMARK SMILES IDX 71 87 72 88 48 89 49 90 58 91 50 92 51 93 57 94 59 95 52 96
REMARK SMILES IDX 53 97 54 98 55 99 56 100
REMARK H PARENT 11 8 18 31 80 50 46 61
REMARK Flexibility Score: inf
ROOT
ATOM      1  C   UNL A   1      35.979  20.776  25.302  1.00  0.00     0.002 C 
ENDROOT
BRANCH   1   2
ATOM      2  C   UNL A   1      36.120  19.328  24.824  1.00  0.00     0.002 C 
BRANCH   2   3
ATOM      3  C   UNL A   1      34.795  18.591  24.612  1.00  0.00     0.021 C 
BRANCH   3   4
ATOM      4  C   UNL A   1      33.569  19.403  25.020  1.00  0.00     0.116 C 
BRANCH   4   5
ATOM      5  N   UNL A   1      32.828  19.845  23.848  1.00  0.00    -0.356 N 
ATOM      6  C   UNL A   1      32.520  21.097  23.415  1.00  0.00     0.223 C 
ATOM      7  O   UNL A   1      31.793  21.213  22.426  1.00  0.00    -0.275 OA
ATOM      8  H   UNL A   1      32.494  19.118  23.275  1.00  0.00     0.163 HD
BRANCH   6   9
ATOM      9  C   UNL A   1      33.070  22.334  24.111  1.00  0.00     0.082 C 
ATOM     10  N   UNL A   1      32.781  25.124  24.674  1.00  0.00    -0.342 N 
ATOM     11  C   UNL A   1      33.839  24.735  23.757  1.00  0.00     0.120 C 
ATOM     12  C   UNL A   1      32.447  24.190  25.739  1.00  0.00     0.120 C 
ATOM     13  C   UNL A   1      33.545  23.391  23.107  1.00  0.00     0.035 C 
ATOM     14  C   UNL A   1      32.086  22.826  25.179  1.00  0.00     0.035 C 
BRANCH  10  15
ATOM     15  C   UNL A   1      31.979  26.179  24.373  1.00  0.00     0.206 A 
ATOM     16  N   UNL A   1      32.220  27.451  24.886  1.00  0.00    -0.310 N 
ATOM     17  C   UNL A   1      31.262  28.300  24.373  1.00  0.00     0.070 A 
ATOM     18  N   UNL A   1      30.993  26.201  23.506  1.00  0.00    -0.213 NA
ATOM     19  C   UNL A   1      30.511  27.488  23.521  1.00  0.00     0.091 A 
ATOM     20  C   UNL A   1      30.964  29.662  24.529  1.00  0.00     0.029 A 
ATOM     21  C   UNL A   1      29.430  28.041  22.806  1.00  0.00     0.034 A 
ATOM     22  C   UNL A   1      29.889  30.194  23.808  1.00  0.00     0.006 A 
ATOM     23  C   UNL A   1      29.121  29.405  22.950  1.00  0.00    -0.049 A 
ATOM     24  C   UNL A   1      27.962  30.000  22.203  1.00  0.00     0.044 C 
BRANCH  16  25
ATOM     25  C   UNL A   1      33.402  27.762  25.671  1.00  0.00     0.122 C 
ATOM     26  C   UNL A   1      33.253  28.249  27.100  1.00  0.00     0.028 C 
ENDBRANCH  16  25
ENDBRANCH  10  15
ENDBRANCH   6   9
ENDBRANCH   4   5
ENDBRANCH   3   4
ENDBRANCH   2   3
ENDBRANCH   1   2
BRANCH   1  27
ATOM     27  C   UNL A   1      37.003  21.755  24.721  1.00  0.00     0.021 C 
BRANCH  27  28
ATOM     28  C   UNL A   1      37.909  22.416  25.762  1.00  0.00     0.116 C 
BRANCH  28  29
ATOM     29  N   UNL A   1      39.238  21.846  25.838  1.00  0.00    -0.352 N 
ATOM     30  C   UNL A   1      40.421  22.252  26.394  1.00  0.00     0.251 C 
ATOM     31  H   UNL A   1      39.306  20.972  25.390  1.00  0.00     0.163 HD
ATOM     32  O   UNL A   1      41.336  21.424  26.392  1.00  0.00    -0.269 OA
BRANCH  30  33
ATOM     33  C   UNL A   1      40.687  23.620  26.919  1.00  0.00     0.039 A 
ATOM     34  C   UNL A   1      41.693  23.954  27.823  1.00  0.00     0.014 A 
ATOM     35  C   UNL A   1      39.790  24.627  26.514  1.00  0.00     0.014 A 
ATOM     36  C   UNL A   1      41.718  25.209  28.415  1.00  0.00     0.010 A 
ATOM     37  C   UNL A   1      39.837  25.902  27.072  1.00  0.00     0.010 A 
ATOM     38  C   UNL A   1      40.768  26.172  28.069  1.00  0.00    -0.014 A 
BRANCH  38  39
ATOM     39  C   UNL A   1      40.867  27.465  28.737  1.00  0.00     0.031 A 
ATOM     40  C   UNL A   1      41.975  28.336  28.248  1.00  0.00     0.074 A 
ATOM     41  C   UNL A   1      40.015  27.892  29.692  1.00  0.00     0.049 A 
ATOM     42  N   UNL A   1      43.034  28.723  28.884  1.00  0.00    -0.248 NA
ATOM     43  C   UNL A   1      41.965  28.706  26.825  1.00  0.00     0.031 C 
ATOM     44  C   UNL A   1      38.745  27.300  30.114  1.00  0.00     0.029 A 
ATOM     45  N   UNL A   1      40.092  29.024  30.446  1.00  0.00    -0.354 N 
ATOM     46  C   UNL A   1      43.734  29.545  28.003  1.00  0.00     0.074 A 
ATOM     47  C   UNL A   1      43.108  29.384  26.716  1.00  0.00     0.031 C 
ATOM     48  C   UNL A   1      38.074  28.186  30.885  1.00  0.00     0.029 A 
ATOM     49  C   UNL A   1      38.925  29.339  31.130  1.00  0.00     0.049 A 
ATOM     50  H   UNL A   1      40.907  29.573  30.503  1.00  0.00     0.167 HD
ATOM     51  C   UNL A   1      44.661  30.445  28.436  1.00  0.00     0.037 A 
ATOM     52  C   UNL A   1      38.665  30.487  31.804  1.00  0.00     0.037 A 
ATOM     53  C   UNL A   1      45.124  30.133  29.761  1.00  0.00     0.049 A 
ATOM     54  C   UNL A   1      39.973  31.111  32.132  1.00  0.00     0.074 A 
ATOM     55  C   UNL A   1      45.795  29.068  30.331  1.00  0.00     0.029 A 
ATOM     56  N   UNL A   1      44.612  30.854  30.812  1.00  0.00    -0.354 N 
ATOM     57  N   UNL A   1      40.833  30.606  32.974  1.00  0.00    -0.248 NA
ATOM     58  C   UNL A   1      40.515  32.083  31.196  1.00  0.00     0.031 C 
ATOM     59  C   UNL A   1      45.243  28.940  31.638  1.00  0.00     0.029 A 
ATOM     60  C   UNL A   1      44.302  29.957  31.801  1.00  0.00     0.049 A 
ATOM     61  H   UNL A   1      44.490  31.831  30.847  1.00  0.00     0.167 HD
ATOM     62  C   UNL A   1      42.076  30.875  32.419  1.00  0.00     0.074 A 
ATOM     63  C   UNL A   1      41.820  31.863  31.375  1.00  0.00     0.031 C 
ATOM     64  C   UNL A   1      43.155  30.079  32.675  1.00  0.00     0.037 A 
BRANCH  51  65
ATOM     65  C   UNL A   1      44.899  31.793  27.795  1.00  0.00     0.058 A 
ATOM     66  C   UNL A   1      46.100  32.030  27.093  1.00  0.00     0.135 A 
ATOM     67  C   UNL A   1      44.134  32.942  28.094  1.00  0.00     0.135 A 
ATOM     68  F   UNL A   1      46.908  31.011  26.756  1.00  0.00    -0.206 F 
ATOM     69  C   UNL A   1      46.548  33.316  26.790  1.00  0.00     0.059 A 
ATOM     70  C   UNL A   1      44.536  34.229  27.753  1.00  0.00     0.059 A 
ATOM     71  F   UNL A   1      43.009  32.886  28.818  1.00  0.00    -0.206 F 
ATOM     72  C   UNL A   1      45.765  34.411  27.145  1.00  0.00     0.060 A 
BRANCH  72  73
ATOM     73  S   UNL A   1      46.400  36.077  26.884  1.00  0.00     0.124 S 
ATOM     74  O   UNL A   1      47.206  35.895  25.682  1.00  0.00    -0.237 OA
ATOM     75  O   UNL A   1      45.171  36.846  26.720  1.00  0.00    -0.237 OA
ATOM     76  O   UNL A   1      47.144  36.349  28.110  1.00  0.00    -0.744 OA
ENDBRANCH  72  73
ENDBRANCH  51  65
BRANCH  52  77
ATOM     77  C   UNL A   1      37.379  31.226  31.900  1.00  0.00     0.058 A 
ATOM     78  C   UNL A   1      36.871  31.657  33.139  1.00  0.00     0.135 A 
ATOM     79  C   UNL A   1      36.765  31.771  30.754  1.00  0.00     0.135 A 
ATOM     80  F   UNL A   1      37.413  31.211  34.282  1.00  0.00    -0.206 F 
ATOM     81  C   UNL A   1      35.844  32.602  33.236  1.00  0.00     0.059 A 
ATOM     82  C   UNL A   1      35.734  32.707  30.825  1.00  0.00     0.059 A 
ATOM     83  F   UNL A   1      37.215  31.478  29.525  1.00  0.00    -0.206 F 
ATOM     84  C   UNL A   1      35.294  33.137  32.071  1.00  0.00     0.060 A 
BRANCH  84  85
ATOM     85  S   UNL A   1      34.080  34.473  32.191  1.00  0.00     0.124 S 
ATOM     86  O   UNL A   1      33.091  33.902  33.098  1.00  0.00    -0.237 OA
ATOM     87  O   UNL A   1      34.882  35.568  32.730  1.00  0.00    -0.237 OA
ATOM     88  O   UNL A   1      33.633  34.652  30.812  1.00  0.00    -0.744 OA
ENDBRANCH  84  85
ENDBRANCH  52  77
BRANCH  64  89
ATOM     89  C   UNL A   1      43.055  29.071  33.791  1.00  0.00     0.058 A 
ATOM     90  C   UNL A   1      43.298  29.367  35.143  1.00  0.00     0.135 A 
ATOM     91  C   UNL A   1      42.509  27.811  33.498  1.00  0.00     0.135 A 
ATOM     92  F   UNL A   1      43.729  30.581  35.516  1.00  0.00    -0.206 F 
ATOM     93  C   UNL A   1      43.029  28.444  36.157  1.00  0.00     0.059 A 
ATOM     94  C   UNL A   1      42.205  26.888  34.495  1.00  0.00     0.059 A 
ATOM     95  F   UNL A   1      42.201  27.491  32.230  1.00  0.00    -0.206 F 
ATOM     96  C   UNL A   1      42.471  27.211  35.824  1.00  0.00     0.060 A 
BRANCH  96  97
ATOM     97  S   UNL A   1      42.011  26.069  37.147  1.00  0.00     0.124 S 
ATOM     98  O   UNL A   1      42.219  24.770  36.522  1.00  0.00    -0.237 OA
ATOM     99  O   UNL A   1      42.948  26.422  38.209  1.00  0.00    -0.237 OA
ATOM    100  O   UNL A   1      40.616  26.412  37.425  1.00  0.00    -0.744 OA
ENDBRANCH  96  97
ENDBRANCH  64  89
ENDBRANCH  38  39
ENDBRANCH  30  33
ENDBRANCH  28  29
ENDBRANCH  27  28
ENDBRANCH   1  27
TORSDOF 18
ENDMDL
MODEL 2
REMARK VINA RESULT:     -12.8      2.795      9.830
REMARK SMILES CCn1c(N2CCC(C(=O)NCCCCCCNC(=O)c3ccc(-c4c5nc(c(-c6c(F)cc(S(=O)(=O)[O-])cc6F)c6ccc([nH]6)c(-c6c(F)cc(S(=O)(=O)[O-])cc6F)c6nc(c(-c7c(F)cc(S(=O)(=O)[O-])cc7F)c7ccc4[nH]7)C=C6)C=C5)cc3)CC2)nc2cc(C)ccc21
REMARK SMILES IDX 15 1 14 2 13 3 12 4 11 5 9 6 10 7 8 9 5 10 6 11 88 12 7 13
REMARK SMILES IDX 87 14 4 15 3 16 96 17 89 18 90 19 95 20 91 21 94 22 92 23
REMARK SMILES IDX 93 24 2 25 1 26 16 27 17 28 18 29 19 30 20 32 21 33 22 34
REMARK SMILES IDX 86 35 23 36 85 37 24 38 25 39 26 40 79 41 27 42 84 43 78 44
REMARK SMILES IDX 80 45 28 46 83 47 77 48 76 49 29 51 63 52 42 53 62 54 43 55
REMARK SMILES IDX 46 56 61 57 81 58 44 59 45 60 60 62 82 63 47 64 30 65 31 66
REMARK SMILES IDX 40 67 32 68 33 69 39 70 41 71 34 72 35 73 36 74 37 75 38 76
REMARK SMILES IDX 64 77 65 78 74 79 66 80 67 81 73 82 75 83 68 84 69 85 70 86
REMARK SMILES IDX 71 87 72 88 48 89 49 90 58 91 50 92 51 93 57 94 59 95 52 96
REMARK SMILES IDX 53 97 54 98 55 99 56 100
REMARK H PARENT 11 8 18 31 80 50 46 61
REMARK Flexibility Score: inf
ROOT
ATOM      1  C   UNL A   1      31.360  29.846  25.726  1.00  0.00     0.002 C 
ENDROOT
BRANCH   1   2
ATOM      2  C   UNL A   1      30.710  30.502  24.504  1.00  0.00     0.002 C 
BRANCH   2   3
ATOM      3  C   UNL A   1      29.882  29.556  23.632  1.00  0.00     0.021 C 
BRANCH   3   4
ATOM      4  C   UNL A   1      30.459  29.345  22.235  1.00  0.00     0.116 C 
BRANCH   4   5
ATOM      5  N   UNL A   1      31.913  29.404  22.262  1.00  0.00    -0.356 N 
ATOM      6  C   UNL A   1      32.832  28.443  22.545  1.00  0.00     0.223 C 
ATOM      7  O   UNL A   1      34.022  28.765  22.590  1.00  0.00    -0.275 OA
ATOM      8  H   UNL A   1      32.293  30.284  22.039  1.00  0.00     0.163 HD
BRANCH   6   9
ATOM      9  C   UNL A   1      32.421  26.997  22.781  1.00  0.00     0.082 C 
ATOM     10  N   UNL A   1      33.165  24.384  23.681  1.00  0.00    -0.342 N 
ATOM     11  C   UNL A   1      32.991  24.573  22.250  1.00  0.00     0.120 C 
ATOM     12  C   UNL A   1      32.325  25.180  24.563  1.00  0.00     0.120 C 
ATOM     13  C   UNL A   1      33.171  26.030  21.855  1.00  0.00     0.035 C 
ATOM     14  C   UNL A   1      32.479  26.664  24.276  1.00  0.00     0.035 C 
BRANCH  10  15
ATOM     15  C   UNL A   1      34.243  23.702  24.147  1.00  0.00     0.206 A 
ATOM     16  N   UNL A   1      34.261  22.310  24.199  1.00  0.00    -0.310 N 
ATOM     17  C   UNL A   1      35.494  21.923  24.682  1.00  0.00     0.070 A 
ATOM     18  N   UNL A   1      35.413  24.199  24.476  1.00  0.00    -0.213 NA
ATOM     19  C   UNL A   1      36.185  23.124  24.848  1.00  0.00     0.091 A 
ATOM     20  C   UNL A   1      36.095  20.691  24.979  1.00  0.00     0.029 A 
ATOM     21  C   UNL A   1      37.509  23.105  25.327  1.00  0.00     0.034 A 
ATOM     22  C   UNL A   1      37.413  20.691  25.450  1.00  0.00     0.006 A 
ATOM     23  C   UNL A   1      38.127  21.877  25.626  1.00  0.00    -0.049 A 
ATOM     24  C   UNL A   1      39.534  21.847  26.150  1.00  0.00     0.044 C 
BRANCH  16  25
ATOM     25  C   UNL A   1      33.188  21.497  23.653  1.00  0.00     0.122 C 
ATOM     26  C   UNL A   1      32.148  20.898  24.579  1.00  0.00     0.028 C 
ENDBRANCH  16  25
ENDBRANCH  10  15
ENDBRANCH   6   9
ENDBRANCH   4   5
ENDBRANCH   3   4
ENDBRANCH   2   3
ENDBRANCH   1   2
BRANCH   1  27
ATOM     27  C   UNL A   1      32.876  30.027  25.832  1.00  0.00     0.021 C 
BRANCH  27  28
ATOM     28  C   UNL A   1      33.452  29.747  27.222  1.00  0.00     0.116 C 
BRANCH  28  29
ATOM     29  N   UNL A   1      33.733  30.937  27.997  1.00  0.00    -0.352 N 
ATOM     30  C   UNL A   1      34.878  31.528  28.459  1.00  0.00     0.251 C 
ATOM     31  H   UNL A   1      32.920  31.431  28.249  1.00  0.00     0.163 HD
ATOM     32  O   UNL A   1      34.746  32.642  28.974  1.00  0.00    -0.269 OA
BRANCH  30  33
ATOM     33  C   UNL A   1      36.226  30.894  28.446  1.00  0.00     0.039 A 
ATOM     34  C   UNL A   1      36.500  29.593  28.033  1.00  0.00     0.014 A 
ATOM     35  C   UNL A   1      37.281  31.667  28.968  1.00  0.00     0.014 A 
ATOM     36  C   UNL A   1      37.747  29.030  28.265  1.00  0.00     0.010 A 
ATOM     37  C   UNL A   1      38.547  31.121  29.163  1.00  0.00     0.010 A 
ATOM     38  C   UNL A   1      38.761  29.780  28.865  1.00  0.00    -0.014 A 
BRANCH  38  39
ATOM     39  C   UNL A   1      40.042  29.113  29.071  1.00  0.00     0.031 A 
ATOM     40  C   UNL A   1      40.465  29.004  30.497  1.00  0.00     0.074 A 
ATOM     41  C   UNL A   1      40.788  28.584  28.080  1.00  0.00     0.049 A 
ATOM     42  N   UNL A   1      41.470  29.570  31.083  1.00  0.00    -0.248 NA
ATOM     43  C   UNL A   1      39.571  28.279  31.413  1.00  0.00     0.031 C 
ATOM     44  C   UNL A   1      40.426  28.371  26.677  1.00  0.00     0.029 A 
ATOM     45  N   UNL A   1      42.038  28.047  28.160  1.00  0.00    -0.354 N 
ATOM     46  C   UNL A   1      41.450  29.123  32.403  1.00  0.00     0.074 A 
ATOM     47  C   UNL A   1      40.189  28.451  32.582  1.00  0.00     0.031 C 
ATOM     48  C   UNL A   1      41.342  27.561  26.099  1.00  0.00     0.029 A 
ATOM     49  C   UNL A   1      42.423  27.322  27.041  1.00  0.00     0.049 A 
ATOM     50  H   UNL A   1      42.620  28.165  28.945  1.00  0.00     0.167 HD
ATOM     51  C   UNL A   1      42.554  29.173  33.200  1.00  0.00     0.037 A 
ATOM     52  C   UNL A   1      43.527  26.542  26.921  1.00  0.00     0.037 A 
ATOM     53  C   UNL A   1      43.531  30.101  32.696  1.00  0.00     0.049 A 
ATOM     54  C   UNL A   1      44.498  26.992  27.952  1.00  0.00     0.074 A 
ATOM     55  C   UNL A   1      43.551  31.464  32.471  1.00  0.00     0.029 A 
ATOM     56  N   UNL A   1      44.613  29.596  32.017  1.00  0.00    -0.354 N 
ATOM     57  N   UNL A   1      45.100  28.150  27.933  1.00  0.00    -0.248 NA
ATOM     58  C   UNL A   1      44.477  26.322  29.243  1.00  0.00     0.031 C 
ATOM     59  C   UNL A   1      44.337  31.632  31.294  1.00  0.00     0.029 A 
ATOM     60  C   UNL A   1      44.782  30.370  30.899  1.00  0.00     0.049 A 
ATOM     61  H   UNL A   1      45.163  28.824  32.285  1.00  0.00     0.167 HD
ATOM     62  C   UNL A   1      45.168  28.539  29.263  1.00  0.00     0.074 A 
ATOM     63  C   UNL A   1      44.851  27.335  30.027  1.00  0.00     0.031 C 
ATOM     64  C   UNL A   1      45.211  29.857  29.616  1.00  0.00     0.037 A 
BRANCH  51  65
ATOM     65  C   UNL A   1      42.891  28.138  34.248  1.00  0.00     0.058 A 
ATOM     66  C   UNL A   1      42.995  28.523  35.602  1.00  0.00     0.135 A 
ATOM     67  C   UNL A   1      43.403  26.857  33.940  1.00  0.00     0.135 A 
ATOM     68  F   UNL A   1      42.542  29.719  36.009  1.00  0.00    -0.206 F 
ATOM     69  C   UNL A   1      43.637  27.733  36.557  1.00  0.00     0.059 A 
ATOM     70  C   UNL A   1      43.999  26.032  34.888  1.00  0.00     0.059 A 
ATOM     71  F   UNL A   1      43.443  26.384  32.689  1.00  0.00    -0.206 F 
ATOM     72  C   UNL A   1      44.155  26.497  36.182  1.00  0.00     0.060 A 
BRANCH  72  73
ATOM     73  S   UNL A   1      45.106  25.536  37.373  1.00  0.00     0.124 S 
ATOM     74  O   UNL A   1      44.562  26.020  38.636  1.00  0.00    -0.237 OA
ATOM     75  O   UNL A   1      44.754  24.167  37.006  1.00  0.00    -0.237 OA
ATOM     76  O   UNL A   1      46.485  25.919  37.089  1.00  0.00    -0.744 OA
ENDBRANCH  72  73
ENDBRANCH  51  65
BRANCH  52  77
ATOM     77  C   UNL A   1      43.667  25.250  26.199  1.00  0.00     0.058 A 
ATOM     78  C   UNL A   1      44.720  25.025  25.294  1.00  0.00     0.135 A 
ATOM     79  C   UNL A   1      42.935  24.112  26.595  1.00  0.00     0.135 A 
ATOM     80  F   UNL A   1      45.487  26.046  24.884  1.00  0.00    -0.206 F 
ATOM     81  C   UNL A   1      45.052  23.743  24.841  1.00  0.00     0.059 A 
ATOM     82  C   UNL A   1      43.241  22.827  26.150  1.00  0.00     0.059 A 
ATOM     83  F   UNL A   1      41.953  24.205  27.504  1.00  0.00    -0.206 F 
ATOM     84  C   UNL A   1      44.318  22.646  25.291  1.00  0.00     0.060 A 
BRANCH  84  85
ATOM     85  S   UNL A   1      44.844  20.976  24.835  1.00  0.00     0.124 S 
ATOM     86  O   UNL A   1      46.241  20.975  25.253  1.00  0.00    -0.237 OA
ATOM     87  O   UNL A   1      43.941  20.144  25.624  1.00  0.00    -0.237 OA
ATOM     88  O   UNL A   1      44.625  20.933  23.392  1.00  0.00    -0.744 OA
ENDBRANCH  84  85
ENDBRANCH  52  77
BRANCH  64  89
ATOM     89  C   UNL A   1      45.473  30.880  28.541  1.00  0.00     0.058 A 
ATOM     90  C   UNL A   1      44.475  31.428  27.715  1.00  0.00     0.135 A 
ATOM     91  C   UNL A   1      46.748  31.461  28.476  1.00  0.00     0.135 A 
ATOM     92  F   UNL A   1      43.208  30.993  27.784  1.00  0.00    -0.206 F 
ATOM     93  C   UNL A   1      44.740  32.492  26.850  1.00  0.00     0.059 A 
ATOM     94  C   UNL A   1      47.027  32.542  27.644  1.00  0.00     0.059 A 
ATOM     95  F   UNL A   1      47.728  31.020  29.282  1.00  0.00    -0.206 F 
ATOM     96  C   UNL A   1      46.017  33.051  26.830  1.00  0.00     0.060 A 
BRANCH  96  97
ATOM     97  S   UNL A   1      46.324  34.505  25.802  1.00  0.00     0.124 S 
ATOM     98  O   UNL A   1      45.390  34.307  24.700  1.00  0.00    -0.237 OA
ATOM     99  O   UNL A   1      46.014  35.605  26.710  1.00  0.00    -0.237 OA
ATOM    100  O   UNL A   1      47.739  34.382  25.450  1.00  0.00    -0.744 OA
ENDBRANCH  96  97
ENDBRANCH  64  89
ENDBRANCH  38  39
ENDBRANCH  30  33
ENDBRANCH  28  29
ENDBRANCH  27  28
ENDBRANCH   1  27
TORSDOF 18
ENDMDL
MODEL 3
REMARK VINA RESULT:     -12.7      1.628      2.620
REMARK SMILES CCn1c(N2CCC(C(=O)NCCCCCCNC(=O)c3ccc(-c4c5nc(c(-c6c(F)cc(S(=O)(=O)[O-])cc6F)c6ccc([nH]6)c(-c6c(F)cc(S(=O)(=O)[O-])cc6F)c6nc(c(-c7c(F)cc(S(=O)(=O)[O-])cc7F)c7ccc4[nH]7)C=C6)C=C5)cc3)CC2)nc2cc(C)ccc21
REMARK SMILES IDX 15 1 14 2 13 3 12 4 11 5 9 6 10 7 8 9 5 10 6 11 88 12 7 13
REMARK SMILES IDX 87 14 4 15 3 16 96 17 89 18 90 19 95 20 91 21 94 22 92 23
REMARK SMILES IDX 93 24 2 25 1 26 16 27 17 28 18 29 19 30 20 32 21 33 22 34
REMARK SMILES IDX 86 35 23 36 85 37 24 38 25 39 26 40 79 41 27 42 84 43 78 44
REMARK SMILES IDX 80 45 28 46 83 47 77 48 76 49 29 51 63 52 42 53 62 54 43 55
REMARK SMILES IDX 46 56 61 57 81 58 44 59 45 60 60 62 82 63 47 64 30 65 31 66
REMARK SMILES IDX 40 67 32 68 33 69 39 70 41 71 34 72 35 73 36 74 37 75 38 76
REMARK SMILES IDX 64 77 65 78 74 79 66 80 67 81 73 82 75 83 68 84 69 85 70 86
REMARK SMILES IDX 71 87 72 88 48 89 49 90 58 91 50 92 51 93 57 94 59 95 52 96
REMARK SMILES IDX 53 97 54 98 55 99 56 100
REMARK H PARENT 11 8 18 31 80 50 46 61
REMARK Flexibility Score: inf
ROOT
ATOM      1  C   UNL A   1      37.955  23.327  26.122  1.00  0.00     0.002 C 
ENDROOT
BRANCH   1   2
ATOM      2  C   UNL A   1      37.760  22.108  25.215  1.00  0.00     0.002 C 
BRANCH   2   3
ATOM      3  C   UNL A   1      36.403  22.045  24.510  1.00  0.00     0.021 C 
BRANCH   3   4
ATOM      4  C   UNL A   1      35.263  21.581  25.414  1.00  0.00     0.116 C 
BRANCH   4   5
ATOM      5  N   UNL A   1      34.753  20.289  24.981  1.00  0.00    -0.356 N 
ATOM      6  C   UNL A   1      33.507  19.916  24.585  1.00  0.00     0.223 C 
ATOM      7  O   UNL A   1      33.299  18.724  24.349  1.00  0.00    -0.275 OA
ATOM      8  H   UNL A   1      35.420  19.565  24.974  1.00  0.00     0.163 HD
BRANCH   6   9
ATOM      9  C   UNL A   1      32.392  20.937  24.412  1.00  0.00     0.082 C 
ATOM     10  N   UNL A   1      31.539  23.657  24.664  1.00  0.00    -0.342 N 
ATOM     11  C   UNL A   1      30.998  22.697  25.612  1.00  0.00     0.120 C 
ATOM     12  C   UNL A   1      31.838  23.173  23.325  1.00  0.00     0.120 C 
ATOM     13  C   UNL A   1      31.907  21.487  25.760  1.00  0.00     0.035 C 
ATOM     14  C   UNL A   1      32.788  21.989  23.370  1.00  0.00     0.035 C 
BRANCH  10  15
ATOM     15  C   UNL A   1      31.988  24.862  25.104  1.00  0.00     0.206 A 
ATOM     16  N   UNL A   1      31.125  25.939  25.294  1.00  0.00    -0.310 N 
ATOM     17  C   UNL A   1      31.870  26.996  25.773  1.00  0.00     0.070 A 
ATOM     18  N   UNL A   1      33.199  25.152  25.519  1.00  0.00    -0.213 NA
ATOM     19  C   UNL A   1      33.159  26.473  25.897  1.00  0.00     0.091 A 
ATOM     20  C   UNL A   1      31.588  28.324  26.124  1.00  0.00     0.029 A 
ATOM     21  C   UNL A   1      34.199  27.291  26.378  1.00  0.00     0.034 A 
ATOM     22  C   UNL A   1      32.633  29.121  26.604  1.00  0.00     0.006 A 
ATOM     23  C   UNL A   1      33.931  28.624  26.737  1.00  0.00    -0.049 A 
ATOM     24  C   UNL A   1      35.036  29.509  27.238  1.00  0.00     0.044 C 
BRANCH  16  25
ATOM     25  C   UNL A   1      29.684  25.815  25.155  1.00  0.00     0.122 C 
ATOM     26  C   UNL A   1      28.990  26.403  23.942  1.00  0.00     0.028 C 
ENDBRANCH  16  25
ENDBRANCH  10  15
ENDBRANCH   6   9
ENDBRANCH   4   5
ENDBRANCH   3   4
ENDBRANCH   2   3
ENDBRANCH   1   2
BRANCH   1  27
ATOM     27  C   UNL A   1      39.277  23.358  26.893  1.00  0.00     0.021 C 
BRANCH  27  28
ATOM     28  C   UNL A   1      40.146  22.111  26.712  1.00  0.00     0.116 C 
BRANCH  28  29
ATOM     29  N   UNL A   1      41.243  22.284  25.783  1.00  0.00    -0.352 N 
ATOM     30  C   UNL A   1      42.204  23.242  25.607  1.00  0.00     0.251 C 
ATOM     31  H   UNL A   1      41.314  21.549  25.132  1.00  0.00     0.163 HD
ATOM     32  O   UNL A   1      43.089  22.982  24.787  1.00  0.00    -0.269 OA
BRANCH  30  33
ATOM     33  C   UNL A   1      42.207  24.574  26.273  1.00  0.00     0.039 A 
ATOM     34  C   UNL A   1      42.700  24.836  27.549  1.00  0.00     0.014 A 
ATOM     35  C   UNL A   1      41.588  25.624  25.567  1.00  0.00     0.014 A 
ATOM     36  C   UNL A   1      42.458  26.058  28.159  1.00  0.00     0.010 A 
ATOM     37  C   UNL A   1      41.380  26.867  26.158  1.00  0.00     0.010 A 
ATOM     38  C   UNL A   1      41.764  27.062  27.480  1.00  0.00    -0.014 A 
BRANCH  38  39
ATOM     39  C   UNL A   1      41.554  28.317  28.193  1.00  0.00     0.031 A 
ATOM     40  C   UNL A   1      42.684  29.287  28.095  1.00  0.00     0.074 A 
ATOM     41  C   UNL A   1      40.424  28.630  28.860  1.00  0.00     0.049 A 
ATOM     42  N   UNL A   1      43.468  29.704  29.035  1.00  0.00    -0.248 NA
ATOM     43  C   UNL A   1      43.069  29.739  26.750  1.00  0.00     0.031 C 
ATOM     44  C   UNL A   1      39.137  27.930  28.855  1.00  0.00     0.029 A 
ATOM     45  N   UNL A   1      40.179  29.717  29.643  1.00  0.00    -0.354 N 
ATOM     46  C   UNL A   1      44.331  30.622  28.439  1.00  0.00     0.074 A 
ATOM     47  C   UNL A   1      44.134  30.497  27.018  1.00  0.00     0.031 C 
ATOM     48  C   UNL A   1      38.197  28.723  29.418  1.00  0.00     0.029 A 
ATOM     49  C   UNL A   1      38.840  29.913  29.951  1.00  0.00     0.049 A 
ATOM     50  H   UNL A   1      40.893  30.315  29.964  1.00  0.00     0.167 HD
ATOM     51  C   UNL A   1      45.009  31.554  29.165  1.00  0.00     0.037 A 
ATOM     52  C   UNL A   1      38.298  30.999  30.557  1.00  0.00     0.037 A 
ATOM     53  C   UNL A   1      45.078  31.195  30.556  1.00  0.00     0.049 A 
ATOM     54  C   UNL A   1      39.393  31.688  31.288  1.00  0.00     0.074 A 
ATOM     55  C   UNL A   1      45.632  30.146  31.263  1.00  0.00     0.029 A 
ATOM     56  N   UNL A   1      44.218  31.817  31.428  1.00  0.00    -0.354 N 
ATOM     57  N   UNL A   1      39.999  31.192  32.332  1.00  0.00    -0.248 NA
ATOM     58  C   UNL A   1      40.109  32.748  30.596  1.00  0.00     0.031 C 
ATOM     59  C   UNL A   1      44.726  29.903  32.335  1.00  0.00     0.029 A 
ATOM     60  C   UNL A   1      43.700  30.844  32.243  1.00  0.00     0.049 A 
ATOM     61  H   UNL A   1      44.013  32.780  31.460  1.00  0.00     0.167 HD
ATOM     62  C   UNL A   1      41.325  31.575  32.191  1.00  0.00     0.074 A 
ATOM     63  C   UNL A   1      41.314  32.604  31.155  1.00  0.00     0.031 C 
ATOM     64  C   UNL A   1      42.339  30.838  32.732  1.00  0.00     0.037 A 
BRANCH  51  65
ATOM     65  C   UNL A   1      45.319  32.950  28.676  1.00  0.00     0.058 A 
ATOM     66  C   UNL A   1      46.651  33.415  28.687  1.00  0.00     0.135 A 
ATOM     67  C   UNL A   1      44.332  33.942  28.480  1.00  0.00     0.135 A 
ATOM     68  F   UNL A   1      47.672  32.561  28.866  1.00  0.00    -0.206 F 
ATOM     69  C   UNL A   1      46.971  34.770  28.598  1.00  0.00     0.059 A 
ATOM     70  C   UNL A   1      44.633  35.292  28.335  1.00  0.00     0.059 A 
ATOM     71  F   UNL A   1      43.022  33.667  28.519  1.00  0.00    -0.206 F 
ATOM     72  C   UNL A   1      45.950  35.703  28.444  1.00  0.00     0.060 A 
BRANCH  72  73
ATOM     73  S   UNL A   1      46.342  37.461  28.470  1.00  0.00     0.124 S 
ATOM     74  O   UNL A   1      45.800  37.898  27.188  1.00  0.00    -0.237 OA
ATOM     75  O   UNL A   1      45.624  37.913  29.657  1.00  0.00    -0.237 OA
ATOM     76  O   UNL A   1      47.797  37.479  28.580  1.00  0.00    -0.744 OA
ENDBRANCH  72  73
ENDBRANCH  51  65
BRANCH  52  77
ATOM     77  C   UNL A   1      36.987  31.645  30.286  1.00  0.00     0.058 A 
ATOM     78  C   UNL A   1      36.131  32.038  31.331  1.00  0.00     0.135 A 
ATOM     79  C   UNL A   1      36.672  32.145  29.006  1.00  0.00     0.135 A 
ATOM     80  F   UNL A   1      36.371  31.632  32.587  1.00  0.00    -0.206 F 
ATOM     81  C   UNL A   1      35.054  32.908  31.127  1.00  0.00     0.059 A 
ATOM     82  C   UNL A   1      35.599  33.005  28.776  1.00  0.00     0.059 A 
ATOM     83  F   UNL A   1      37.458  31.885  27.951  1.00  0.00    -0.206 F 
ATOM     84  C   UNL A   1      34.807  33.402  29.846  1.00  0.00     0.060 A 
BRANCH  84  85
ATOM     85  S   UNL A   1      33.518  34.649  29.607  1.00  0.00     0.124 S 
ATOM     86  O   UNL A   1      32.568  33.941  28.757  1.00  0.00    -0.237 OA
ATOM     87  O   UNL A   1      33.081  34.905  30.976  1.00  0.00    -0.237 OA
ATOM     88  O   UNL A   1      34.227  35.752  28.965  1.00  0.00    -0.744 OA
ENDBRANCH  84  85
ENDBRANCH  52  77
BRANCH  64  89
ATOM     89  C   UNL A   1      41.991  29.761  33.727  1.00  0.00     0.058 A 
ATOM     90  C   UNL A   1      41.668  28.439  33.375  1.00  0.00     0.135 A 
ATOM     91  C   UNL A   1      42.178  30.035  35.091  1.00  0.00     0.135 A 
ATOM     92  F   UNL A   1      41.566  28.073  32.089  1.00  0.00    -0.206 F 
ATOM     93  C   UNL A   1      41.519  27.438  34.339  1.00  0.00     0.059 A 
ATOM     94  C   UNL A   1      42.063  29.047  36.065  1.00  0.00     0.059 A 
ATOM     95  F   UNL A   1      42.544  31.266  35.485  1.00  0.00    -0.206 F 
ATOM     96  C   UNL A   1      41.730  27.750  35.681  1.00  0.00     0.060 A 
BRANCH  96  97
ATOM     97  S   UNL A   1      41.656  26.428  36.911  1.00  0.00     0.124 S 
ATOM     98  O   UNL A   1      41.638  25.231  36.080  1.00  0.00    -0.237 OA
ATOM     99  O   UNL A   1      42.873  26.648  37.685  1.00  0.00    -0.237 OA
ATOM    100  O   UNL A   1      40.414  26.704  37.635  1.00  0.00    -0.744 OA
ENDBRANCH  96  97
ENDBRANCH  64  89
ENDBRANCH  38  39
ENDBRANCH  30  33
ENDBRANCH  28  29
ENDBRANCH  27  28
ENDBRANCH   1  27
TORSDOF 18
ENDMDL
