MODEL 1
REMARK VINA RESULT:      -8.8      0.000      0.000
REMARK SMILES COc1ccc(CCN2/C(=[NH+]/C(=O)CCC(=O)NCCCCCCNC(=O)c3ccc(-c4c5nc(c(-c6c(F)cc(S(=O)(=O)[O-])cc6F)c6ccc([nH]6)c(-c6c(F)cc(S(=O)(=O)[O-])cc6F)c6nc(c(-c7c(F)cc(S(=O)(=O)[O-])cc7F)c7ccc4[nH]7)C=C6)C=C5)cc3)S[C@@H]3CS(=O)(=O)C[C@@H]32)cc1
REMARK SMILES IDX 20 1 19 2 18 3 16 4 17 5 15 7 14 8 12 9 9 10 10 11 101 12
REMARK SMILES IDX 11 13 94 14 95 15 100 16 96 18 97 19 13 20 98 21 99 22 8 23
REMARK SMILES IDX 7 24 6 25 3 26 4 27 103 28 5 29 102 30 2 31 1 32 21 33 22 34
REMARK SMILES IDX 23 35 24 36 25 37 26 38 27 40 28 41 29 42 93 43 30 44 92 45
REMARK SMILES IDX 31 46 32 47 33 48 86 49 34 50 91 51 85 52 87 53 35 54 90 55
REMARK SMILES IDX 84 56 83 57 36 59 70 60 49 61 69 62 50 63 53 64 68 65 88 66
REMARK SMILES IDX 51 67 52 68 67 70 89 71 54 72 37 73 38 74 47 75 39 76 40 77
REMARK SMILES IDX 46 78 48 79 41 80 42 81 43 82 44 83 45 84 71 85 72 86 81 87
REMARK SMILES IDX 73 88 74 89 80 90 82 91 75 92 76 93 77 94 78 95 79 96 55 97
REMARK SMILES IDX 56 98 65 99 57 100 58 101 64 102 66 103 59 104 60 105 61 106
REMARK SMILES IDX 62 107 63 108
REMARK H PARENT 18 6 11 17 25 39 87 58 53 69
REMARK Flexibility Score: inf
ROOT
ATOM      1  C   UNL A   1      47.513  24.740  27.830  1.00  0.00     0.021 C 
ENDROOT
BRANCH   1   2
ATOM      2  C   UNL A   1      46.610  24.889  26.628  1.00  0.00     0.116 C 
BRANCH   2   3
ATOM      3  N   UNL A   1      46.802  23.744  25.760  1.00  0.00    -0.356 N 
ATOM      4  C   UNL A   1      46.044  22.603  25.721  1.00  0.00     0.220 C 
ATOM      5  O   UNL A   1      46.500  21.612  25.151  1.00  0.00    -0.275 OA
ATOM      6  H   UNL A   1      47.558  23.791  25.130  1.00  0.00     0.163 HD
BRANCH   4   7
ATOM      7  C   UNL A   1      44.656  22.589  26.354  1.00  0.00     0.112 C 
BRANCH   7   8
ATOM      8  C   UNL A   1      43.515  22.786  25.342  1.00  0.00     0.138 C 
BRANCH   8   9
ATOM      9  C   UNL A   1      43.233  24.253  25.014  1.00  0.00     0.308 C 
ATOM     10  N   UNL A   1      40.678  26.549  26.391  1.00  0.00    -0.251 N 
ATOM     11  C   UNL A   1      41.776  26.026  25.640  1.00  0.00     0.314 C 
ATOM     12  C   UNL A   1      40.670  27.988  26.756  1.00  0.00     0.206 C 
ATOM     13  N   UNL A   1      42.019  24.750  25.491  1.00  0.00    -0.205 N 
ATOM     14  S   UNL A   1      42.951  27.292  25.051  1.00  0.00    -0.030 SA
ATOM     15  C   UNL A   1      42.328  28.701  25.999  1.00  0.00     0.120 C 
ATOM     16  C   UNL A   1      40.457  28.429  28.718  1.00  0.00     0.187 C 
ATOM     17  H   UNL A   1      41.310  24.109  25.727  1.00  0.00     0.316 HD
ATOM     18  C   UNL A   1      43.314  29.863  27.266  1.00  0.00     0.156 C 
ATOM     19  S   UNL A   1      42.230  29.838  29.338  1.00  0.00     0.155 S 
ATOM     20  O   UNL A   1      44.129  24.869  24.438  1.00  0.00    -0.247 OA
ATOM     21  O   UNL A   1      43.111  29.283  30.350  1.00  0.00    -0.229 OA
ATOM     22  O   UNL A   1      41.707  31.154  29.672  1.00  0.00    -0.229 OA
BRANCH  10  23
ATOM     23  C   UNL A   1      39.574  25.757  26.958  1.00  0.00     0.242 C 
BRANCH  23  24
ATOM     24  C   UNL A   1      39.988  24.895  28.171  1.00  0.00     0.081 C 
BRANCH  24  25
ATOM     25  C   UNL A   1      39.976  23.452  27.765  1.00  0.00    -0.044 A 
ATOM     26  C   UNL A   1      40.401  20.980  26.597  1.00  0.00     0.118 A 
ATOM     27  C   UNL A   1      39.378  21.790  26.121  1.00  0.00     0.046 A 
ATOM     28  C   UNL A   1      41.181  21.368  27.686  1.00  0.00     0.046 A 
ATOM     29  C   UNL A   1      39.143  23.015  26.727  1.00  0.00     0.007 A 
ATOM     30  C   UNL A   1      40.961  22.603  28.280  1.00  0.00     0.007 A 
BRANCH  26  31
ATOM     31  O   UNL A   1      40.658  19.828  25.910  1.00  0.00    -0.497 OA
ATOM     32  C   UNL A   1      42.032  19.481  26.034  1.00  0.00     0.278 C 
ENDBRANCH  26  31
ENDBRANCH  24  25
ENDBRANCH  23  24
ENDBRANCH  10  23
ENDBRANCH   8   9
ENDBRANCH   7   8
ENDBRANCH   4   7
ENDBRANCH   2   3
ENDBRANCH   1   2
BRANCH   1  33
ATOM     33  C   UNL A   1      49.004  24.866  27.543  1.00  0.00     0.002 C 
BRANCH  33  34
ATOM     34  C   UNL A   1      49.797  25.155  28.824  1.00  0.00     0.002 C 
BRANCH  34  35
ATOM     35  C   UNL A   1      51.141  26.308  28.646  1.00  0.00     0.021 C 
BRANCH  35  36
ATOM     36  C   UNL A   1      52.462  27.024  27.102  1.00  0.00     0.116 C 
BRANCH  36  37
ATOM     37  N   UNL A   1      52.185  27.746  25.722  1.00  0.00    -0.352 N 
ATOM     38  C   UNL A   1      51.047  28.337  25.238  1.00  0.00     0.251 C 
ATOM     39  H   UNL A   1      52.957  27.777  25.112  1.00  0.00     0.163 HD
ATOM     40  O   UNL A   1      50.974  28.665  24.060  1.00  0.00    -0.269 OA
BRANCH  38  41
ATOM     41  C   UNL A   1      50.009  28.694  26.188  1.00  0.00     0.039 A 
ATOM     42  C   UNL A   1      48.741  28.137  26.080  1.00  0.00     0.014 A 
ATOM     43  C   UNL A   1      50.358  29.585  27.209  1.00  0.00     0.014 A 
ATOM     44  C   UNL A   1      47.807  28.459  27.050  1.00  0.00     0.010 A 
ATOM     45  C   UNL A   1      49.461  29.817  28.228  1.00  0.00     0.010 A 
ATOM     46  C   UNL A   1      48.173  29.274  28.137  1.00  0.00    -0.014 A 
BRANCH  46  47
ATOM     47  C   UNL A   1      47.194  29.597  29.185  1.00  0.00     0.031 A 
ATOM     48  C   UNL A   1      46.546  30.947  29.187  1.00  0.00     0.074 A 
ATOM     49  C   UNL A   1      46.938  28.672  30.127  1.00  0.00     0.049 A 
ATOM     50  N   UNL A   1      45.675  31.436  30.026  1.00  0.00    -0.248 NA
ATOM     51  C   UNL A   1      46.950  31.889  28.125  1.00  0.00     0.031 C 
ATOM     52  C   UNL A   1      47.577  27.355  30.216  1.00  0.00     0.029 A 
ATOM     53  N   UNL A   1      46.069  28.693  31.181  1.00  0.00    -0.354 N 
ATOM     54  C   UNL A   1      45.430  32.732  29.595  1.00  0.00     0.074 A 
ATOM     55  C   UNL A   1      46.301  32.987  28.472  1.00  0.00     0.031 C 
ATOM     56  C   UNL A   1      47.044  26.678  31.244  1.00  0.00     0.029 A 
ATOM     57  C   UNL A   1      46.068  27.529  31.912  1.00  0.00     0.049 A 
ATOM     58  H   UNL A   1      45.500  29.467  31.397  1.00  0.00     0.167 HD
ATOM     59  C   UNL A   1      44.525  33.612  30.076  1.00  0.00     0.037 A 
ATOM     60  C   UNL A   1      45.353  27.199  33.002  1.00  0.00     0.037 A 
ATOM     61  C   UNL A   1      43.659  33.317  31.184  1.00  0.00     0.049 A 
ATOM     62  C   UNL A   1      44.365  28.205  33.526  1.00  0.00     0.074 A 
ATOM     63  C   UNL A   1      42.675  34.109  31.743  1.00  0.00     0.029 A 
ATOM     64  N   UNL A   1      43.677  32.127  31.902  1.00  0.00    -0.354 N 
ATOM     65  N   UNL A   1      44.094  29.407  33.072  1.00  0.00    -0.248 NA
ATOM     66  C   UNL A   1      43.579  27.811  34.700  1.00  0.00     0.031 C 
ATOM     67  C   UNL A   1      42.142  33.423  32.838  1.00  0.00     0.029 A 
ATOM     68  C   UNL A   1      42.739  32.174  32.917  1.00  0.00     0.049 A 
ATOM     69  H   UNL A   1      44.271  31.364  31.716  1.00  0.00     0.167 HD
ATOM     70  C   UNL A   1      43.085  29.904  33.886  1.00  0.00     0.074 A 
ATOM     71  C   UNL A   1      42.784  28.861  34.848  1.00  0.00     0.031 C 
ATOM     72  C   UNL A   1      42.463  31.108  33.851  1.00  0.00     0.037 A 
BRANCH  59  73
ATOM     73  C   UNL A   1      44.429  34.957  29.409  1.00  0.00     0.058 A 
ATOM     74  C   UNL A   1      43.711  35.140  28.215  1.00  0.00     0.135 A 
ATOM     75  C   UNL A   1      45.036  36.083  29.985  1.00  0.00     0.135 A 
ATOM     76  F   UNL A   1      43.133  34.094  27.604  1.00  0.00    -0.206 F 
ATOM     77  C   UNL A   1      43.614  36.387  27.608  1.00  0.00     0.059 A 
ATOM     78  C   UNL A   1      44.924  37.346  29.413  1.00  0.00     0.059 A 
ATOM     79  F   UNL A   1      45.747  35.964  31.117  1.00  0.00    -0.206 F 
ATOM     80  C   UNL A   1      44.217  37.487  28.219  1.00  0.00     0.060 A 
BRANCH  80  81
ATOM     81  S   UNL A   1      44.050  39.103  27.434  1.00  0.00     0.124 S 
ATOM     82  O   UNL A   1      45.044  39.015  26.369  1.00  0.00    -0.237 OA
ATOM     83  O   UNL A   1      42.656  39.093  27.003  1.00  0.00    -0.237 OA
ATOM     84  O   UNL A   1      44.365  40.038  28.510  1.00  0.00    -0.744 OA
ENDBRANCH  80  81
ENDBRANCH  59  73
BRANCH  60  85
ATOM     85  C   UNL A   1      45.544  25.874  33.647  1.00  0.00     0.058 A 
ATOM     86  C   UNL A   1      44.894  24.728  33.167  1.00  0.00     0.135 A 
ATOM     87  C   UNL A   1      46.393  25.726  34.756  1.00  0.00     0.135 A 
ATOM     88  F   UNL A   1      44.078  24.815  32.105  1.00  0.00    -0.206 F 
ATOM     89  C   UNL A   1      45.051  23.490  33.782  1.00  0.00     0.059 A 
ATOM     90  C   UNL A   1      46.591  24.493  35.368  1.00  0.00     0.059 A 
ATOM     91  F   UNL A   1      47.060  26.785  35.239  1.00  0.00    -0.206 F 
ATOM     92  C   UNL A   1      45.902  23.384  34.884  1.00  0.00     0.060 A 
BRANCH  92  93
ATOM     93  S   UNL A   1      46.108  21.770  35.665  1.00  0.00     0.124 S 
ATOM     94  O   UNL A   1      45.762  22.069  37.050  1.00  0.00    -0.237 OA
ATOM     95  O   UNL A   1      45.151  20.950  34.929  1.00  0.00    -0.237 OA
ATOM     96  O   UNL A   1      47.513  21.457  35.420  1.00  0.00    -0.744 OA
ENDBRANCH  92  93
ENDBRANCH  60  85
BRANCH  72  97
ATOM     97  C   UNL A   1      41.370  31.345  34.854  1.00  0.00     0.058 A 
ATOM     98  C   UNL A   1      41.577  32.123  36.004  1.00  0.00     0.135 A 
ATOM     99  C   UNL A   1      40.082  30.834  34.627  1.00  0.00     0.135 A 
ATOM    100  F   UNL A   1      42.792  32.629  36.268  1.00  0.00    -0.206 F 
ATOM    101  C   UNL A   1      40.551  32.361  36.909  1.00  0.00     0.059 A 
ATOM    102  C   UNL A   1      39.032  31.092  35.499  1.00  0.00     0.059 A 
ATOM    103  F   UNL A   1      39.830  30.095  33.534  1.00  0.00    -0.206 F 
ATOM    104  C   UNL A   1      39.281  31.845  36.644  1.00  0.00     0.060 A 
BRANCH 104 105
ATOM    105  S   UNL A   1      37.950  32.195  37.811  1.00  0.00     0.124 S 
ATOM    106  O   UNL A   1      37.319  33.357  37.196  1.00  0.00    -0.237 OA
ATOM    107  O   UNL A   1      37.176  30.959  37.778  1.00  0.00    -0.237 OA
ATOM    108  O   UNL A   1      38.655  32.453  39.064  1.00  0.00    -0.744 OA
ENDBRANCH 104 105
ENDBRANCH  72  97
ENDBRANCH  46  47
ENDBRANCH  38  41
ENDBRANCH  36  37
ENDBRANCH  35  36
ENDBRANCH  34  35
ENDBRANCH  33  34
ENDBRANCH   1  33
TORSDOF 22
ENDMDL
MODEL 2
REMARK VINA RESULT:      -8.6      4.503     12.756
REMARK SMILES COc1ccc(CCN2/C(=[NH+]/C(=O)CCC(=O)NCCCCCCNC(=O)c3ccc(-c4c5nc(c(-c6c(F)cc(S(=O)(=O)[O-])cc6F)c6ccc([nH]6)c(-c6c(F)cc(S(=O)(=O)[O-])cc6F)c6nc(c(-c7c(F)cc(S(=O)(=O)[O-])cc7F)c7ccc4[nH]7)C=C6)C=C5)cc3)S[C@@H]3CS(=O)(=O)C[C@@H]32)cc1
REMARK SMILES IDX 20 1 19 2 18 3 16 4 17 5 15 7 14 8 12 9 9 10 10 11 101 12
REMARK SMILES IDX 11 13 94 14 95 15 100 16 96 18 97 19 13 20 98 21 99 22 8 23
REMARK SMILES IDX 7 24 6 25 3 26 4 27 103 28 5 29 102 30 2 31 1 32 21 33 22 34
REMARK SMILES IDX 23 35 24 36 25 37 26 38 27 40 28 41 29 42 93 43 30 44 92 45
REMARK SMILES IDX 31 46 32 47 33 48 86 49 34 50 91 51 85 52 87 53 35 54 90 55
REMARK SMILES IDX 84 56 83 57 36 59 70 60 49 61 69 62 50 63 53 64 68 65 88 66
REMARK SMILES IDX 51 67 52 68 67 70 89 71 54 72 37 73 38 74 47 75 39 76 40 77
REMARK SMILES IDX 46 78 48 79 41 80 42 81 43 82 44 83 45 84 71 85 72 86 81 87
REMARK SMILES IDX 73 88 74 89 80 90 82 91 75 92 76 93 77 94 78 95 79 96 55 97
REMARK SMILES IDX 56 98 65 99 57 100 58 101 64 102 66 103 59 104 60 105 61 106
REMARK SMILES IDX 62 107 63 108
REMARK H PARENT 18 6 11 17 25 39 87 58 53 69
REMARK Flexibility Score: inf
ROOT
ATOM      1  C   UNL A   1      39.550  34.540  30.744  1.00  0.00     0.021 C 
ENDROOT
BRANCH   1   2
ATOM      2  C   UNL A   1      41.042  34.511  30.511  1.00  0.00     0.116 C 
BRANCH   2   3
ATOM      3  N   UNL A   1      41.292  34.652  29.090  1.00  0.00    -0.356 N 
ATOM      4  C   UNL A   1      42.010  35.644  28.475  1.00  0.00     0.220 C 
ATOM      5  O   UNL A   1      41.886  35.794  27.259  1.00  0.00    -0.275 OA
ATOM      6  H   UNL A   1      40.906  33.961  28.504  1.00  0.00     0.163 HD
BRANCH   4   7
ATOM      7  C   UNL A   1      42.956  36.518  29.292  1.00  0.00     0.112 C 
BRANCH   7   8
ATOM      8  C   UNL A   1      43.450  37.764  28.538  1.00  0.00     0.138 C 
BRANCH   8   9
ATOM      9  C   UNL A   1      44.460  38.598  29.327  1.00  0.00     0.308 C 
ATOM     10  N   UNL A   1      45.034  42.254  29.341  1.00  0.00    -0.251 N 
ATOM     11  C   UNL A   1      45.129  40.859  29.639  1.00  0.00     0.314 C 
ATOM     12  C   UNL A   1      45.366  43.244  30.396  1.00  0.00     0.206 C 
ATOM     13  N   UNL A   1      44.619  39.915  28.892  1.00  0.00    -0.205 N 
ATOM     14  S   UNL A   1      45.860  40.491  31.270  1.00  0.00    -0.030 SA
ATOM     15  C   UNL A   1      45.857  42.166  31.953  1.00  0.00     0.120 C 
ATOM     16  C   UNL A   1      43.954  44.629  30.822  1.00  0.00     0.187 C 
ATOM     17  H   UNL A   1      44.334  40.144  27.978  1.00  0.00     0.316 HD
ATOM     18  C   UNL A   1      45.017  42.808  33.630  1.00  0.00     0.156 C 
ATOM     19  S   UNL A   1      43.552  44.562  33.134  1.00  0.00     0.155 S 
ATOM     20  O   UNL A   1      44.971  38.058  30.308  1.00  0.00    -0.247 OA
ATOM     21  O   UNL A   1      42.196  44.190  33.496  1.00  0.00    -0.229 OA
ATOM     22  O   UNL A   1      44.000  45.807  33.739  1.00  0.00    -0.229 OA
BRANCH  10  23
ATOM     23  C   UNL A   1      44.511  42.828  28.090  1.00  0.00     0.242 C 
BRANCH  23  24
ATOM     24  C   UNL A   1      45.573  43.591  27.266  1.00  0.00     0.081 C 
BRANCH  24  25
ATOM     25  C   UNL A   1      44.980  43.959  25.939  1.00  0.00    -0.044 A 
ATOM     26  C   UNL A   1      44.379  44.298  23.261  1.00  0.00     0.118 A 
ATOM     27  C   UNL A   1      45.141  45.259  23.913  1.00  0.00     0.046 A 
ATOM     28  C   UNL A   1      43.868  43.196  23.944  1.00  0.00     0.046 A 
ATOM     29  C   UNL A   1      45.415  45.107  25.263  1.00  0.00     0.007 A 
ATOM     30  C   UNL A   1      44.160  43.031  25.291  1.00  0.00     0.007 A 
BRANCH  26  31
ATOM     31  O   UNL A   1      44.215  44.439  21.912  1.00  0.00    -0.497 OA
ATOM     32  C   UNL A   1      45.422  44.900  21.317  1.00  0.00     0.278 C 
ENDBRANCH  26  31
ENDBRANCH  24  25
ENDBRANCH  23  24
ENDBRANCH  10  23
ENDBRANCH   8   9
ENDBRANCH   7   8
ENDBRANCH   4   7
ENDBRANCH   2   3
ENDBRANCH   1   2
BRANCH   1  33
ATOM     33  C   UNL A   1      38.696  34.557  29.482  1.00  0.00     0.002 C 
BRANCH  33  34
ATOM     34  C   UNL A   1      38.007  33.205  29.256  1.00  0.00     0.002 C 
BRANCH  34  35
ATOM     35  C   UNL A   1      36.228  33.235  29.311  1.00  0.00     0.021 C 
BRANCH  35  36
ATOM     36  C   UNL A   1      34.565  32.765  28.026  1.00  0.00     0.116 C 
BRANCH  36  37
ATOM     37  N   UNL A   1      34.017  31.393  27.460  1.00  0.00    -0.352 N 
ATOM     38  C   UNL A   1      34.643  30.184  27.293  1.00  0.00     0.251 C 
ATOM     39  H   UNL A   1      33.073  31.410  27.182  1.00  0.00     0.163 HD
ATOM     40  O   UNL A   1      34.105  29.293  26.648  1.00  0.00    -0.269 OA
BRANCH  38  41
ATOM     41  C   UNL A   1      35.874  29.949  28.026  1.00  0.00     0.039 A 
ATOM     42  C   UNL A   1      35.831  29.557  29.358  1.00  0.00     0.014 A 
ATOM     43  C   UNL A   1      37.074  30.106  27.324  1.00  0.00     0.014 A 
ATOM     44  C   UNL A   1      37.030  29.281  29.992  1.00  0.00     0.010 A 
ATOM     45  C   UNL A   1      38.254  29.729  27.926  1.00  0.00     0.010 A 
ATOM     46  C   UNL A   1      38.237  29.339  29.271  1.00  0.00    -0.014 A 
BRANCH  46  47
ATOM     47  C   UNL A   1      39.511  29.020  29.931  1.00  0.00     0.031 A 
ATOM     48  C   UNL A   1      39.924  29.806  31.138  1.00  0.00     0.074 A 
ATOM     49  C   UNL A   1      40.278  28.049  29.406  1.00  0.00     0.049 A 
ATOM     50  N   UNL A   1      41.010  29.698  31.852  1.00  0.00    -0.248 NA
ATOM     51  C   UNL A   1      39.015  30.879  31.585  1.00  0.00     0.031 C 
ATOM     52  C   UNL A   1      39.960  27.280  28.197  1.00  0.00     0.029 A 
ATOM     53  N   UNL A   1      41.474  27.535  29.822  1.00  0.00    -0.354 N 
ATOM     54  C   UNL A   1      40.913  30.681  32.827  1.00  0.00     0.074 A 
ATOM     55  C   UNL A   1      39.708  31.432  32.567  1.00  0.00     0.031 C 
ATOM     56  C   UNL A   1      40.918  26.363  27.997  1.00  0.00     0.029 A 
ATOM     57  C   UNL A   1      41.936  26.513  29.029  1.00  0.00     0.049 A 
ATOM     58  H   UNL A   1      41.957  27.867  30.612  1.00  0.00     0.167 HD
ATOM     59  C   UNL A   1      41.743  30.905  33.869  1.00  0.00     0.037 A 
ATOM     60  C   UNL A   1      43.062  25.786  29.133  1.00  0.00     0.037 A 
ATOM     61  C   UNL A   1      42.925  30.124  34.109  1.00  0.00     0.049 A 
ATOM     62  C   UNL A   1      43.976  26.067  30.294  1.00  0.00     0.074 A 
ATOM     63  C   UNL A   1      43.829  30.227  35.149  1.00  0.00     0.029 A 
ATOM     64  N   UNL A   1      43.367  29.091  33.291  1.00  0.00    -0.354 N 
ATOM     65  N   UNL A   1      43.843  26.960  31.249  1.00  0.00    -0.248 NA
ATOM     66  C   UNL A   1      45.184  25.243  30.400  1.00  0.00     0.031 C 
ATOM     67  C   UNL A   1      44.849  29.298  34.925  1.00  0.00     0.029 A 
ATOM     68  C   UNL A   1      44.544  28.565  33.788  1.00  0.00     0.049 A 
ATOM     69  H   UNL A   1      42.907  28.780  32.477  1.00  0.00     0.167 HD
ATOM     70  C   UNL A   1      44.936  26.785  32.087  1.00  0.00     0.074 A 
ATOM     71  C   UNL A   1      45.708  25.689  31.534  1.00  0.00     0.031 C 
ATOM     72  C   UNL A   1      45.279  27.465  33.210  1.00  0.00     0.037 A 
BRANCH  59  73
ATOM     73  C   UNL A   1      41.399  32.023  34.814  1.00  0.00     0.058 A 
ATOM     74  C   UNL A   1      41.852  33.337  34.602  1.00  0.00     0.135 A 
ATOM     75  C   UNL A   1      40.582  31.787  35.929  1.00  0.00     0.135 A 
ATOM     76  F   UNL A   1      42.660  33.617  33.566  1.00  0.00    -0.206 F 
ATOM     77  C   UNL A   1      41.522  34.370  35.471  1.00  0.00     0.059 A 
ATOM     78  C   UNL A   1      40.211  32.813  36.794  1.00  0.00     0.059 A 
ATOM     79  F   UNL A   1      40.133  30.550  36.189  1.00  0.00    -0.206 F 
ATOM     80  C   UNL A   1      40.693  34.100  36.561  1.00  0.00     0.060 A 
BRANCH  80  81
ATOM     81  S   UNL A   1      40.247  35.462  37.657  1.00  0.00     0.124 S 
ATOM     82  O   UNL A   1      41.413  35.526  38.533  1.00  0.00    -0.237 OA
ATOM     83  O   UNL A   1      40.094  36.572  36.723  1.00  0.00    -0.237 OA
ATOM     84  O   UNL A   1      39.014  35.001  38.288  1.00  0.00    -0.744 OA
ENDBRANCH  80  81
ENDBRANCH  59  73
BRANCH  60  85
ATOM     85  C   UNL A   1      43.369  24.736  28.127  1.00  0.00     0.058 A 
ATOM     86  C   UNL A   1      43.061  23.388  28.361  1.00  0.00     0.135 A 
ATOM     87  C   UNL A   1      43.971  25.064  26.901  1.00  0.00     0.135 A 
ATOM     88  F   UNL A   1      42.479  23.023  29.514  1.00  0.00    -0.206 F 
ATOM     89  C   UNL A   1      43.368  22.398  27.433  1.00  0.00     0.059 A 
ATOM     90  C   UNL A   1      44.257  24.098  25.943  1.00  0.00     0.059 A 
ATOM     91  F   UNL A   1      44.261  26.343  26.614  1.00  0.00    -0.206 F 
ATOM     92  C   UNL A   1      43.968  22.765  26.226  1.00  0.00     0.060 A 
BRANCH  92  93
ATOM     93  S   UNL A   1      44.349  21.474  25.023  1.00  0.00     0.124 S 
ATOM     94  O   UNL A   1      44.347  22.229  23.775  1.00  0.00    -0.237 OA
ATOM     95  O   UNL A   1      45.652  21.004  25.483  1.00  0.00    -0.237 OA
ATOM     96  O   UNL A   1      43.251  20.527  25.189  1.00  0.00    -0.744 OA
ENDBRANCH  92  93
ENDBRANCH  60  85
BRANCH  72  97
ATOM     97  C   UNL A   1      46.517  27.015  33.933  1.00  0.00     0.058 A 
ATOM     98  C   UNL A   1      46.479  26.008  34.909  1.00  0.00     0.135 A 
ATOM     99  C   UNL A   1      47.766  27.562  33.598  1.00  0.00     0.135 A 
ATOM    100  F   UNL A   1      45.308  25.458  35.269  1.00  0.00    -0.206 F 
ATOM    101  C   UNL A   1      47.634  25.579  35.549  1.00  0.00     0.059 A 
ATOM    102  C   UNL A   1      48.939  27.121  34.197  1.00  0.00     0.059 A 
ATOM    103  F   UNL A   1      47.857  28.519  32.660  1.00  0.00    -0.206 F 
ATOM    104  C   UNL A   1      48.860  26.137  35.182  1.00  0.00     0.060 A 
BRANCH 104 105
ATOM    105  S   UNL A   1      50.355  25.542  35.996  1.00  0.00     0.124 S 
ATOM    106  O   UNL A   1      50.072  24.117  36.123  1.00  0.00    -0.237 OA
ATOM    107  O   UNL A   1      51.394  25.900  35.036  1.00  0.00    -0.237 OA
ATOM    108  O   UNL A   1      50.382  26.291  37.249  1.00  0.00    -0.744 OA
ENDBRANCH 104 105
ENDBRANCH  72  97
ENDBRANCH  46  47
ENDBRANCH  38  41
ENDBRANCH  36  37
ENDBRANCH  35  36
ENDBRANCH  34  35
ENDBRANCH  33  34
ENDBRANCH   1  33
TORSDOF 22
ENDMDL
MODEL 3
REMARK VINA RESULT:      -8.5      0.959      7.918
REMARK SMILES COc1ccc(CCN2/C(=[NH+]/C(=O)CCC(=O)NCCCCCCNC(=O)c3ccc(-c4c5nc(c(-c6c(F)cc(S(=O)(=O)[O-])cc6F)c6ccc([nH]6)c(-c6c(F)cc(S(=O)(=O)[O-])cc6F)c6nc(c(-c7c(F)cc(S(=O)(=O)[O-])cc7F)c7ccc4[nH]7)C=C6)C=C5)cc3)S[C@@H]3CS(=O)(=O)C[C@@H]32)cc1
REMARK SMILES IDX 20 1 19 2 18 3 16 4 17 5 15 7 14 8 12 9 9 10 10 11 101 12
REMARK SMILES IDX 11 13 94 14 95 15 100 16 96 18 97 19 13 20 98 21 99 22 8 23
REMARK SMILES IDX 7 24 6 25 3 26 4 27 103 28 5 29 102 30 2 31 1 32 21 33 22 34
REMARK SMILES IDX 23 35 24 36 25 37 26 38 27 40 28 41 29 42 93 43 30 44 92 45
REMARK SMILES IDX 31 46 32 47 33 48 86 49 34 50 91 51 85 52 87 53 35 54 90 55
REMARK SMILES IDX 84 56 83 57 36 59 70 60 49 61 69 62 50 63 53 64 68 65 88 66
REMARK SMILES IDX 51 67 52 68 67 70 89 71 54 72 37 73 38 74 47 75 39 76 40 77
REMARK SMILES IDX 46 78 48 79 41 80 42 81 43 82 44 83 45 84 71 85 72 86 81 87
REMARK SMILES IDX 73 88 74 89 80 90 82 91 75 92 76 93 77 94 78 95 79 96 55 97
REMARK SMILES IDX 56 98 65 99 57 100 58 101 64 102 66 103 59 104 60 105 61 106
REMARK SMILES IDX 62 107 63 108
REMARK H PARENT 18 6 11 17 25 39 87 58 53 69
REMARK Flexibility Score: inf
ROOT
ATOM      1  C   UNL A   1      47.540  25.152  27.698  1.00  0.00     0.021 C 
ENDROOT
BRANCH   1   2
ATOM      2  C   UNL A   1      46.905  25.258  26.331  1.00  0.00     0.116 C 
BRANCH   2   3
ATOM      3  N   UNL A   1      46.993  23.966  25.678  1.00  0.00    -0.356 N 
ATOM      4  C   UNL A   1      46.063  22.960  25.715  1.00  0.00     0.220 C 
ATOM      5  O   UNL A   1      46.404  21.830  25.365  1.00  0.00    -0.275 OA
ATOM      6  H   UNL A   1      47.806  23.794  25.151  1.00  0.00     0.163 HD
BRANCH   4   7
ATOM      7  C   UNL A   1      44.635  23.259  26.160  1.00  0.00     0.112 C 
BRANCH   7   8
ATOM      8  C   UNL A   1      43.674  23.549  24.995  1.00  0.00     0.138 C 
BRANCH   8   9
ATOM      9  C   UNL A   1      43.110  24.970  25.006  1.00  0.00     0.308 C 
ATOM     10  N   UNL A   1      40.054  26.302  26.613  1.00  0.00    -0.251 N 
ATOM     11  C   UNL A   1      41.279  26.210  25.882  1.00  0.00     0.314 C 
ATOM     12  C   UNL A   1      39.723  27.569  27.315  1.00  0.00     0.206 C 
ATOM     13  N   UNL A   1      41.792  25.087  25.454  1.00  0.00    -0.205 N 
ATOM     14  S   UNL A   1      42.193  27.785  25.752  1.00  0.00    -0.030 SA
ATOM     15  C   UNL A   1      41.234  28.753  26.941  1.00  0.00     0.120 C 
ATOM     16  C   UNL A   1      39.311  27.433  29.291  1.00  0.00     0.187 C 
ATOM     17  H   UNL A   1      41.222  24.285  25.447  1.00  0.00     0.316 HD
ATOM     18  C   UNL A   1      41.880  29.709  28.553  1.00  0.00     0.156 C 
ATOM     19  S   UNL A   1      40.709  28.940  30.425  1.00  0.00     0.155 S 
ATOM     20  O   UNL A   1      43.887  25.873  24.698  1.00  0.00    -0.247 OA
ATOM     21  O   UNL A   1      41.627  28.316  31.361  1.00  0.00    -0.229 OA
ATOM     22  O   UNL A   1      39.903  30.000  31.011  1.00  0.00    -0.229 OA
BRANCH  10  23
ATOM     23  C   UNL A   1      39.111  25.197  26.847  1.00  0.00     0.242 C 
BRANCH  23  24
ATOM     24  C   UNL A   1      39.502  24.286  28.033  1.00  0.00     0.081 C 
BRANCH  24  25
ATOM     25  C   UNL A   1      40.270  23.111  27.507  1.00  0.00    -0.044 A 
ATOM     26  C   UNL A   1      41.325  20.616  26.949  1.00  0.00     0.118 A 
ATOM     27  C   UNL A   1      41.950  21.423  27.891  1.00  0.00     0.046 A 
ATOM     28  C   UNL A   1      40.209  21.062  26.243  1.00  0.00     0.046 A 
ATOM     29  C   UNL A   1      41.442  22.687  28.147  1.00  0.00     0.007 A 
ATOM     30  C   UNL A   1      39.686  22.319  26.514  1.00  0.00     0.007 A 
BRANCH  26  31
ATOM     31  O   UNL A   1      41.802  19.345  26.799  1.00  0.00    -0.497 OA
ATOM     32  C   UNL A   1      42.761  19.302  25.750  1.00  0.00     0.278 C 
ENDBRANCH  26  31
ENDBRANCH  24  25
ENDBRANCH  23  24
ENDBRANCH  10  23
ENDBRANCH   8   9
ENDBRANCH   7   8
ENDBRANCH   4   7
ENDBRANCH   2   3
ENDBRANCH   1   2
BRANCH   1  33
ATOM     33  C   UNL A   1      49.064  25.163  27.709  1.00  0.00     0.002 C 
BRANCH  33  34
ATOM     34  C   UNL A   1      49.611  25.367  29.127  1.00  0.00     0.002 C 
BRANCH  34  35
ATOM     35  C   UNL A   1      50.845  26.639  29.295  1.00  0.00     0.021 C 
BRANCH  35  36
ATOM     36  C   UNL A   1      52.308  27.640  28.071  1.00  0.00     0.116 C 
BRANCH  36  37
ATOM     37  N   UNL A   1      52.186  28.431  26.706  1.00  0.00    -0.352 N 
ATOM     38  C   UNL A   1      51.099  29.017  26.110  1.00  0.00     0.251 C 
ATOM     39  H   UNL A   1      53.028  28.516  26.203  1.00  0.00     0.163 HD
ATOM     40  O   UNL A   1      51.166  29.408  24.951  1.00  0.00    -0.269 OA
BRANCH  38  41
ATOM     41  C   UNL A   1      49.937  29.293  26.935  1.00  0.00     0.039 A 
ATOM     42  C   UNL A   1      48.713  28.708  26.637  1.00  0.00     0.014 A 
ATOM     43  C   UNL A   1      50.123  30.135  28.037  1.00  0.00     0.014 A 
ATOM     44  C   UNL A   1      47.652  28.950  27.493  1.00  0.00     0.010 A 
ATOM     45  C   UNL A   1      49.095  30.287  28.942  1.00  0.00     0.010 A 
ATOM     46  C   UNL A   1      47.849  29.714  28.659  1.00  0.00    -0.014 A 
BRANCH  46  47
ATOM     47  C   UNL A   1      46.734  29.952  29.586  1.00  0.00     0.031 A 
ATOM     48  C   UNL A   1      46.364  28.885  30.571  1.00  0.00     0.074 A 
ATOM     49  C   UNL A   1      46.063  31.113  29.495  1.00  0.00     0.049 A 
ATOM     50  N   UNL A   1      45.408  28.887  31.458  1.00  0.00    -0.248 NA
ATOM     51  C   UNL A   1      47.149  27.636  30.536  1.00  0.00     0.031 C 
ATOM     52  C   UNL A   1      46.337  32.174  28.519  1.00  0.00     0.029 A 
ATOM     53  N   UNL A   1      45.023  31.602  30.234  1.00  0.00    -0.354 N 
ATOM     54  C   UNL A   1      45.478  27.650  32.083  1.00  0.00     0.074 A 
ATOM     55  C   UNL A   1      46.511  26.889  31.422  1.00  0.00     0.031 C 
ATOM     56  C   UNL A   1      45.512  33.206  28.751  1.00  0.00     0.029 A 
ATOM     57  C   UNL A   1      44.624  32.860  29.853  1.00  0.00     0.049 A 
ATOM     58  H   UNL A   1      44.600  31.099  30.967  1.00  0.00     0.167 HD
ATOM     59  C   UNL A   1      44.764  27.210  33.142  1.00  0.00     0.037 A 
ATOM     60  C   UNL A   1      43.645  33.638  30.347  1.00  0.00     0.037 A 
ATOM     61  C   UNL A   1      43.755  28.004  33.789  1.00  0.00     0.049 A 
ATOM     62  C   UNL A   1      42.855  33.116  31.516  1.00  0.00     0.074 A 
ATOM     63  C   UNL A   1      42.987  27.687  34.892  1.00  0.00     0.029 A 
ATOM     64  N   UNL A   1      43.375  29.277  33.384  1.00  0.00    -0.354 N 
ATOM     65  N   UNL A   1      42.971  31.967  32.142  1.00  0.00    -0.248 NA
ATOM     66  C   UNL A   1      41.810  33.994  32.053  1.00  0.00     0.031 C 
ATOM     67  C   UNL A   1      42.101  28.744  35.117  1.00  0.00     0.029 A 
ATOM     68  C   UNL A   1      42.365  29.751  34.200  1.00  0.00     0.049 A 
ATOM     69  H   UNL A   1      43.768  29.770  32.627  1.00  0.00     0.167 HD
ATOM     70  C   UNL A   1      42.034  31.995  33.166  1.00  0.00     0.074 A 
ATOM     71  C   UNL A   1      41.375  33.283  33.085  1.00  0.00     0.031 C 
ATOM     72  C   UNL A   1      41.739  31.047  34.090  1.00  0.00     0.037 A 
BRANCH  59  73
ATOM     73  C   UNL A   1      45.052  25.828  33.658  1.00  0.00     0.058 A 
ATOM     74  C   UNL A   1      45.809  25.616  34.823  1.00  0.00     0.135 A 
ATOM     75  C   UNL A   1      44.539  24.700  33.000  1.00  0.00     0.135 A 
ATOM     76  F   UNL A   1      46.348  26.656  35.479  1.00  0.00    -0.206 F 
ATOM     77  C   UNL A   1      46.063  24.337  35.305  1.00  0.00     0.059 A 
ATOM     78  C   UNL A   1      44.752  23.412  33.482  1.00  0.00     0.059 A 
ATOM     79  F   UNL A   1      43.822  24.841  31.875  1.00  0.00    -0.206 F 
ATOM     80  C   UNL A   1      45.523  23.240  34.632  1.00  0.00     0.060 A 
BRANCH  80  81
ATOM     81  S   UNL A   1      45.833  21.590  35.292  1.00  0.00     0.124 S 
ATOM     82  O   UNL A   1      44.531  20.955  35.117  1.00  0.00    -0.237 OA
ATOM     83  O   UNL A   1      46.898  21.104  34.420  1.00  0.00    -0.237 OA
ATOM     84  O   UNL A   1      46.225  21.845  36.675  1.00  0.00    -0.744 OA
ENDBRANCH  80  81
ENDBRANCH  59  73
BRANCH  60  85
ATOM     85  C   UNL A   1      43.375  34.970  29.747  1.00  0.00     0.058 A 
ATOM     86  C   UNL A   1      44.122  36.099  30.111  1.00  0.00     0.135 A 
ATOM     87  C   UNL A   1      42.365  35.138  28.786  1.00  0.00     0.135 A 
ATOM     88  F   UNL A   1      45.104  35.990  31.020  1.00  0.00    -0.206 F 
ATOM     89  C   UNL A   1      43.858  37.354  29.570  1.00  0.00     0.059 A 
ATOM     90  C   UNL A   1      42.104  36.375  28.206  1.00  0.00     0.059 A 
ATOM     91  F   UNL A   1      41.638  34.085  28.382  1.00  0.00    -0.206 F 
ATOM     92  C   UNL A   1      42.845  37.481  28.618  1.00  0.00     0.060 A 
BRANCH  92  93
ATOM     93  S   UNL A   1      42.519  39.110  27.912  1.00  0.00     0.124 S 
ATOM     94  O   UNL A   1      43.871  39.587  27.643  1.00  0.00    -0.237 OA
ATOM     95  O   UNL A   1      41.712  38.779  26.742  1.00  0.00    -0.237 OA
ATOM     96  O   UNL A   1      41.808  39.802  28.983  1.00  0.00    -0.744 OA
ENDBRANCH  92  93
ENDBRANCH  60  85
BRANCH  72  97
ATOM     97  C   UNL A   1      40.687  31.386  35.108  1.00  0.00     0.058 A 
ATOM     98  C   UNL A   1      40.957  32.226  36.199  1.00  0.00     0.135 A 
ATOM     99  C   UNL A   1      39.376  30.908  34.952  1.00  0.00     0.135 A 
ATOM    100  F   UNL A   1      42.196  32.704  36.395  1.00  0.00    -0.206 F 
ATOM    101  C   UNL A   1      39.968  32.557  37.117  1.00  0.00     0.059 A 
ATOM    102  C   UNL A   1      38.363  31.257  35.836  1.00  0.00     0.059 A 
ATOM    103  F   UNL A   1      39.064  30.111  33.917  1.00  0.00    -0.206 F 
ATOM    104  C   UNL A   1      38.673  32.072  36.923  1.00  0.00     0.060 A 
BRANCH 104 105
ATOM    105  S   UNL A   1      37.393  32.543  38.103  1.00  0.00     0.124 S 
ATOM    106  O   UNL A   1      38.171  33.249  39.114  1.00  0.00    -0.237 OA
ATOM    107  O   UNL A   1      36.509  33.370  37.288  1.00  0.00    -0.237 OA
ATOM    108  O   UNL A   1      36.831  31.263  38.525  1.00  0.00    -0.744 OA
ENDBRANCH 104 105
ENDBRANCH  72  97
ENDBRANCH  46  47
ENDBRANCH  38  41
ENDBRANCH  36  37
ENDBRANCH  35  36
ENDBRANCH  34  35
ENDBRANCH  33  34
ENDBRANCH   1  33
TORSDOF 22
ENDMDL
