MODEL 1
REMARK VINA RESULT:     -12.4      0.000      0.000
REMARK SMILES Cc1oc2cc(OCC(=O)NCCCCCCNC(=O)c3ccc(-c4c5nc(c(-c6c(F)cc(S(=O)(=O)[O-])cc6F)c6ccc([nH]6)c(-c6c(F)cc(S(=O)(=O)[O-])cc6F)c6nc(c(-c7c(F)cc(S(=O)(=O)[O-])cc7F)c7ccc4[nH]7)C=C6)C=C5)cc3)ccc2c(=O)c1Oc1ccc(Cl)cc1Cl
REMARK SMILES IDX 14 1 13 2 12 3 11 4 9 5 10 6 8 8 7 9 6 10 1 11 2 12 3 13
REMARK SMILES IDX 92 14 4 15 90 16 5 17 89 18 91 19 88 20 87 21 93 22 94 23
REMARK SMILES IDX 95 24 100 25 96 26 99 27 101 28 97 29 98 30 15 31 16 32
REMARK SMILES IDX 17 33 18 34 19 35 20 37 21 38 22 39 86 40 23 41 85 42 24 43
REMARK SMILES IDX 25 44 26 45 79 46 27 47 84 48 78 49 80 50 28 51 83 52 77 53
REMARK SMILES IDX 76 54 29 56 63 57 42 58 62 59 43 60 46 61 61 62 81 63 44 64
REMARK SMILES IDX 45 65 60 67 82 68 47 69 30 70 31 71 40 72 32 73 33 74 39 75
REMARK SMILES IDX 41 76 34 77 35 78 36 79 37 80 38 81 64 82 65 83 74 84 66 85
REMARK SMILES IDX 67 86 73 87 75 88 68 89 69 90 70 91 71 92 72 93 48 94 49 95
REMARK SMILES IDX 58 96 50 97 51 98 57 99 59 100 52 101 53 102 54 103 55 104
REMARK SMILES IDX 56 105
REMARK H PARENT 11 7 18 36 80 55 46 66
REMARK Flexibility Score: inf
ROOT
ATOM      1  C   UNL A   1      32.968  28.211  26.880  1.00  0.00     0.002 C 
ENDROOT
BRANCH   1   2
ATOM      2  C   UNL A   1      31.724  28.921  26.328  1.00  0.00     0.021 C 
BRANCH   2   3
ATOM      3  C   UNL A   1      31.963  29.699  25.036  1.00  0.00     0.116 C 
BRANCH   3   4
ATOM      4  N   UNL A   1      30.765  30.384  24.593  1.00  0.00    -0.353 N 
ATOM      5  C   UNL A   1      29.913  30.017  23.594  1.00  0.00     0.257 C 
ATOM      6  O   UNL A   1      28.925  30.717  23.363  1.00  0.00    -0.271 OA
ATOM      7  H   UNL A   1      30.539  31.214  25.071  1.00  0.00     0.163 HD
BRANCH   5   8
ATOM      8  C   UNL A   1      30.189  28.727  22.808  1.00  0.00     0.329 C 
BRANCH   8   9
ATOM      9  O   UNL A   1      29.502  27.556  23.235  1.00  0.00    -0.484 OA
BRANCH   9  10
ATOM     10  C   UNL A   1      30.233  26.584  23.858  1.00  0.00     0.123 A 
ATOM     11  C   UNL A   1      35.006  23.140  23.176  1.00  0.00     0.092 C 
ATOM     12  C   UNL A   1      33.906  23.542  24.115  1.00  0.00     0.148 A 
ATOM     13  O   UNL A   1      33.255  24.630  23.562  1.00  0.00    -0.457 OA
ATOM     14  C   UNL A   1      33.547  22.977  25.298  1.00  0.00     0.213 A 
ATOM     15  C   UNL A   1      32.096  25.076  24.110  1.00  0.00     0.142 A 
ATOM     16  C   UNL A   1      32.327  23.529  25.985  1.00  0.00     0.235 A 
ATOM     17  C   UNL A   1      31.431  26.061  23.388  1.00  0.00     0.094 A 
ATOM     18  C   UNL A   1      31.583  24.593  25.298  1.00  0.00     0.069 A 
ATOM     19  O   UNL A   1      31.931  23.090  27.060  1.00  0.00    -0.285 OA
ATOM     20  C   UNL A   1      30.378  25.106  25.786  1.00  0.00     0.020 A 
ATOM     21  C   UNL A   1      29.708  26.100  25.062  1.00  0.00     0.047 A 
BRANCH  14  22
ATOM     22  O   UNL A   1      34.129  21.914  25.986  1.00  0.00    -0.448 OA
BRANCH  22  23
ATOM     23  C   UNL A   1      34.089  20.641  25.487  1.00  0.00     0.146 A 
ATOM     24  C   UNL A   1      32.837  20.020  25.454  1.00  0.00     0.050 A 
ATOM     25  C   UNL A   1      35.226  19.963  25.030  1.00  0.00     0.085 A 
ATOM     26  C   UNL A   1      32.701  18.768  24.856  1.00  0.00     0.024 A 
ATOM     27  C   UNL A   1      35.087  18.715  24.422  1.00  0.00     0.045 A 
ATOM     28  Cl  UNL A   1      36.804  20.649  25.147  1.00  0.00    -0.080 Cl
ATOM     29  C   UNL A   1      33.822  18.134  24.320  1.00  0.00     0.042 A 
ATOM     30  Cl  UNL A   1      33.639  16.627  23.510  1.00  0.00    -0.084 Cl
ENDBRANCH  22  23
ENDBRANCH  14  22
ENDBRANCH   9  10
ENDBRANCH   8   9
ENDBRANCH   5   8
ENDBRANCH   3   4
ENDBRANCH   2   3
ENDBRANCH   1   2
BRANCH   1  31
ATOM     31  C   UNL A   1      34.309  28.833  26.478  1.00  0.00     0.002 C 
BRANCH  31  32
ATOM     32  C   UNL A   1      35.304  29.032  27.624  1.00  0.00     0.021 C 
BRANCH  32  33
ATOM     33  C   UNL A   1      35.493  30.481  28.058  1.00  0.00     0.116 C 
BRANCH  33  34
ATOM     34  N   UNL A   1      35.384  30.638  29.500  1.00  0.00    -0.352 N 
ATOM     35  C   UNL A   1      36.323  30.405  30.472  1.00  0.00     0.251 C 
ATOM     36  H   UNL A   1      34.511  30.959  29.824  1.00  0.00     0.163 HD
ATOM     37  O   UNL A   1      35.990  30.402  31.656  1.00  0.00    -0.269 OA
BRANCH  35  38
ATOM     38  C   UNL A   1      37.728  30.137  30.096  1.00  0.00     0.039 A 
ATOM     39  C   UNL A   1      38.583  29.560  31.039  1.00  0.00     0.014 A 
ATOM     40  C   UNL A   1      38.203  30.453  28.820  1.00  0.00     0.014 A 
ATOM     41  C   UNL A   1      39.895  29.245  30.681  1.00  0.00     0.010 A 
ATOM     42  C   UNL A   1      39.488  30.068  28.442  1.00  0.00     0.010 A 
ATOM     43  C   UNL A   1      40.349  29.462  29.369  1.00  0.00    -0.014 A 
BRANCH  43  44
ATOM     44  C   UNL A   1      41.715  29.052  28.950  1.00  0.00     0.031 A 
ATOM     45  C   UNL A   1      42.826  30.067  28.879  1.00  0.00     0.074 A 
ATOM     46  C   UNL A   1      41.941  27.776  28.573  1.00  0.00     0.049 A 
ATOM     47  N   UNL A   1      44.062  29.909  28.482  1.00  0.00    -0.248 NA
ATOM     48  C   UNL A   1      42.497  31.444  29.280  1.00  0.00     0.031 C 
ATOM     49  C   UNL A   1      40.933  26.714  28.546  1.00  0.00     0.029 A 
ATOM     50  N   UNL A   1      43.083  27.159  28.127  1.00  0.00    -0.354 N 
ATOM     51  C   UNL A   1      44.653  31.165  28.569  1.00  0.00     0.074 A 
ATOM     52  C   UNL A   1      43.627  32.084  29.010  1.00  0.00     0.031 C 
ATOM     53  C   UNL A   1      41.505  25.574  28.125  1.00  0.00     0.029 A 
ATOM     54  C   UNL A   1      42.907  25.832  27.811  1.00  0.00     0.049 A 
ATOM     55  H   UNL A   1      43.947  27.623  28.042  1.00  0.00     0.167 HD
ATOM     56  C   UNL A   1      45.937  31.517  28.318  1.00  0.00     0.037 A 
ATOM     57  C   UNL A   1      43.770  24.927  27.310  1.00  0.00     0.037 A 
ATOM     58  C   UNL A   1      46.959  30.589  27.906  1.00  0.00     0.049 A 
ATOM     59  C   UNL A   1      45.194  25.342  27.047  1.00  0.00     0.074 A 
ATOM     60  C   UNL A   1      48.307  30.831  27.707  1.00  0.00     0.029 A 
ATOM     61  N   UNL A   1      46.749  29.248  27.622  1.00  0.00    -0.354 N 
ATOM     62  N   UNL A   1      45.755  26.515  27.217  1.00  0.00    -0.248 NA
ATOM     63  C   UNL A   1      46.105  24.309  26.533  1.00  0.00     0.031 C 
ATOM     64  C   UNL A   1      48.899  29.652  27.243  1.00  0.00     0.029 A 
ATOM     65  C   UNL A   1      47.935  28.658  27.217  1.00  0.00     0.049 A 
ATOM     66  H   UNL A   1      45.884  28.783  27.698  1.00  0.00     0.167 HD
ATOM     67  C   UNL A   1      47.090  26.354  26.859  1.00  0.00     0.074 A 
ATOM     68  C   UNL A   1      47.255  24.968  26.477  1.00  0.00     0.031 C 
ATOM     69  C   UNL A   1      48.088  27.272  26.846  1.00  0.00     0.037 A 
BRANCH  56  70
ATOM     70  C   UNL A   1      46.318  32.963  28.480  1.00  0.00     0.058 A 
ATOM     71  C   UNL A   1      46.704  33.496  29.720  1.00  0.00     0.135 A 
ATOM     72  C   UNL A   1      46.360  33.814  27.363  1.00  0.00     0.135 A 
ATOM     73  F   UNL A   1      46.669  32.733  30.824  1.00  0.00    -0.206 F 
ATOM     74  C   UNL A   1      47.096  34.824  29.851  1.00  0.00     0.059 A 
ATOM     75  C   UNL A   1      46.778  35.138  27.465  1.00  0.00     0.059 A 
ATOM     76  F   UNL A   1      46.002  33.359  26.152  1.00  0.00    -0.206 F 
ATOM     77  C   UNL A   1      47.135  35.637  28.716  1.00  0.00     0.060 A 
BRANCH  77  78
ATOM     78  S   UNL A   1      47.672  37.350  28.901  1.00  0.00     0.124 S 
ATOM     79  O   UNL A   1      46.535  37.937  29.604  1.00  0.00    -0.237 OA
ATOM     80  O   UNL A   1      48.896  37.209  29.684  1.00  0.00    -0.237 OA
ATOM     81  O   UNL A   1      47.859  37.800  27.525  1.00  0.00    -0.744 OA
ENDBRANCH  77  78
ENDBRANCH  56  70
BRANCH  57  82
ATOM     82  C   UNL A   1      43.315  23.539  27.024  1.00  0.00     0.058 A 
ATOM     83  C   UNL A   1      43.148  22.602  28.056  1.00  0.00     0.135 A 
ATOM     84  C   UNL A   1      43.041  23.119  25.713  1.00  0.00     0.135 A 
ATOM     85  F   UNL A   1      43.402  22.951  29.326  1.00  0.00    -0.206 F 
ATOM     86  C   UNL A   1      42.748  21.295  27.796  1.00  0.00     0.059 A 
ATOM     87  C   UNL A   1      42.611  21.828  25.432  1.00  0.00     0.059 A 
ATOM     88  F   UNL A   1      43.167  23.980  24.691  1.00  0.00    -0.206 F 
ATOM     89  C   UNL A   1      42.481  20.917  26.479  1.00  0.00     0.060 A 
BRANCH  89  90
ATOM     90  S   UNL A   1      41.930  19.227  26.156  1.00  0.00     0.124 S 
ATOM     91  O   UNL A   1      42.759  18.861  25.014  1.00  0.00    -0.237 OA
ATOM     92  O   UNL A   1      42.242  18.558  27.415  1.00  0.00    -0.237 OA
ATOM     93  O   UNL A   1      40.506  19.387  25.876  1.00  0.00    -0.744 OA
ENDBRANCH  89  90
ENDBRANCH  57  82
BRANCH  69  94
ATOM     94  C   UNL A   1      49.461  26.803  26.445  1.00  0.00     0.058 A 
ATOM     95  C   UNL A   1      50.318  26.158  27.349  1.00  0.00     0.135 A 
ATOM     96  C   UNL A   1      49.902  26.957  25.119  1.00  0.00     0.135 A 
ATOM     97  F   UNL A   1      49.948  25.990  28.628  1.00  0.00    -0.206 F 
ATOM     98  C   UNL A   1      51.574  25.703  26.960  1.00  0.00     0.059 A 
ATOM     99  C   UNL A   1      51.141  26.481  24.701  1.00  0.00     0.059 A 
ATOM    100  F   UNL A   1      49.118  27.558  24.210  1.00  0.00    -0.206 F 
ATOM    101  C   UNL A   1      51.975  25.866  25.633  1.00  0.00     0.060 A 
BRANCH 101 102
ATOM    102  S   UNL A   1      53.594  25.241  25.136  1.00  0.00     0.124 S 
ATOM    103  O   UNL A   1      53.431  23.805  25.344  1.00  0.00    -0.237 OA
ATOM    104  O   UNL A   1      53.681  25.675  23.745  1.00  0.00    -0.237 OA
ATOM    105  O   UNL A   1      54.513  25.908  26.054  1.00  0.00    -0.744 OA
ENDBRANCH 101 102
ENDBRANCH  69  94
ENDBRANCH  43  44
ENDBRANCH  35  38
ENDBRANCH  33  34
ENDBRANCH  32  33
ENDBRANCH  31  32
ENDBRANCH   1  31
TORSDOF 20
ENDMDL
MODEL 2
REMARK VINA RESULT:     -11.9      0.709      7.868
REMARK SMILES Cc1oc2cc(OCC(=O)NCCCCCCNC(=O)c3ccc(-c4c5nc(c(-c6c(F)cc(S(=O)(=O)[O-])cc6F)c6ccc([nH]6)c(-c6c(F)cc(S(=O)(=O)[O-])cc6F)c6nc(c(-c7c(F)cc(S(=O)(=O)[O-])cc7F)c7ccc4[nH]7)C=C6)C=C5)cc3)ccc2c(=O)c1Oc1ccc(Cl)cc1Cl
REMARK SMILES IDX 14 1 13 2 12 3 11 4 9 5 10 6 8 8 7 9 6 10 1 11 2 12 3 13
REMARK SMILES IDX 92 14 4 15 90 16 5 17 89 18 91 19 88 20 87 21 93 22 94 23
REMARK SMILES IDX 95 24 100 25 96 26 99 27 101 28 97 29 98 30 15 31 16 32
REMARK SMILES IDX 17 33 18 34 19 35 20 37 21 38 22 39 86 40 23 41 85 42 24 43
REMARK SMILES IDX 25 44 26 45 79 46 27 47 84 48 78 49 80 50 28 51 83 52 77 53
REMARK SMILES IDX 76 54 29 56 63 57 42 58 62 59 43 60 46 61 61 62 81 63 44 64
REMARK SMILES IDX 45 65 60 67 82 68 47 69 30 70 31 71 40 72 32 73 33 74 39 75
REMARK SMILES IDX 41 76 34 77 35 78 36 79 37 80 38 81 64 82 65 83 74 84 66 85
REMARK SMILES IDX 67 86 73 87 75 88 68 89 69 90 70 91 71 92 72 93 48 94 49 95
REMARK SMILES IDX 58 96 50 97 51 98 57 99 59 100 52 101 53 102 54 103 55 104
REMARK SMILES IDX 56 105
REMARK H PARENT 11 7 18 36 80 55 46 66
REMARK Flexibility Score: inf
ROOT
ATOM      1  C   UNL A   1      31.797  28.803  27.011  1.00  0.00     0.002 C 
ENDROOT
BRANCH   1   2
ATOM      2  C   UNL A   1      31.548  29.974  26.050  1.00  0.00     0.021 C 
BRANCH   2   3
ATOM      3  C   UNL A   1      31.334  29.562  24.595  1.00  0.00     0.116 C 
BRANCH   3   4
ATOM      4  N   UNL A   1      30.410  30.450  23.917  1.00  0.00    -0.353 N 
ATOM      5  C   UNL A   1      29.324  30.110  23.166  1.00  0.00     0.257 C 
ATOM      6  O   UNL A   1      28.634  31.005  22.673  1.00  0.00    -0.271 OA
ATOM      7  H   UNL A   1      30.588  31.413  24.009  1.00  0.00     0.163 HD
BRANCH   5   8
ATOM      8  C   UNL A   1      28.971  28.627  22.983  1.00  0.00     0.329 C 
BRANCH   8   9
ATOM      9  O   UNL A   1      29.944  27.811  22.342  1.00  0.00    -0.484 OA
BRANCH   9  10
ATOM     10  C   UNL A   1      30.534  26.825  23.083  1.00  0.00     0.123 A 
ATOM     11  C   UNL A   1      35.191  23.163  23.162  1.00  0.00     0.092 C 
ATOM     12  C   UNL A   1      33.988  23.638  23.926  1.00  0.00     0.148 A 
ATOM     13  O   UNL A   1      33.474  24.737  23.263  1.00  0.00    -0.457 OA
ATOM     14  C   UNL A   1      33.440  23.122  25.057  1.00  0.00     0.213 A 
ATOM     15  C   UNL A   1      32.271  25.247  23.630  1.00  0.00     0.142 A 
ATOM     16  C   UNL A   1      32.162  23.744  25.551  1.00  0.00     0.235 A 
ATOM     17  C   UNL A   1      31.761  26.239  22.800  1.00  0.00     0.094 A 
ATOM     18  C   UNL A   1      31.573  24.819  24.743  1.00  0.00     0.069 A 
ATOM     19  O   UNL A   1      31.597  23.351  26.567  1.00  0.00    -0.285 OA
ATOM     20  C   UNL A   1      30.336  25.396  25.043  1.00  0.00     0.020 A 
ATOM     21  C   UNL A   1      29.821  26.398  24.209  1.00  0.00     0.047 A 
BRANCH  14  22
ATOM     22  O   UNL A   1      33.868  22.053  25.843  1.00  0.00    -0.448 OA
BRANCH  22  23
ATOM     23  C   UNL A   1      33.880  20.775  25.356  1.00  0.00     0.146 A 
ATOM     24  C   UNL A   1      32.636  20.171  25.153  1.00  0.00     0.050 A 
ATOM     25  C   UNL A   1      35.060  20.077  25.072  1.00  0.00     0.085 A 
ATOM     26  C   UNL A   1      32.567  18.914  24.553  1.00  0.00     0.024 A 
ATOM     27  C   UNL A   1      34.989  18.823  24.463  1.00  0.00     0.045 A 
ATOM     28  Cl  UNL A   1      36.616  20.742  25.405  1.00  0.00    -0.080 Cl
ATOM     29  C   UNL A   1      33.743  18.258  24.188  1.00  0.00     0.042 A 
ATOM     30  Cl  UNL A   1      33.653  16.745  23.376  1.00  0.00    -0.084 Cl
ENDBRANCH  22  23
ENDBRANCH  14  22
ENDBRANCH   9  10
ENDBRANCH   8   9
ENDBRANCH   5   8
ENDBRANCH   3   4
ENDBRANCH   2   3
ENDBRANCH   1   2
BRANCH   1  31
ATOM     31  C   UNL A   1      33.263  28.569  27.390  1.00  0.00     0.002 C 
BRANCH  31  32
ATOM     32  C   UNL A   1      34.182  29.781  27.215  1.00  0.00     0.021 C 
BRANCH  32  33
ATOM     33  C   UNL A   1      35.561  29.630  27.847  1.00  0.00     0.116 C 
BRANCH  33  34
ATOM     34  N   UNL A   1      35.521  29.792  29.292  1.00  0.00    -0.352 N 
ATOM     35  C   UNL A   1      36.533  29.658  30.208  1.00  0.00     0.251 C 
ATOM     36  H   UNL A   1      34.642  30.032  29.664  1.00  0.00     0.163 HD
ATOM     37  O   UNL A   1      36.270  29.636  31.410  1.00  0.00    -0.269 OA
BRANCH  35  38
ATOM     38  C   UNL A   1      37.933  29.519  29.752  1.00  0.00     0.039 A 
ATOM     39  C   UNL A   1      38.916  29.173  30.682  1.00  0.00     0.014 A 
ATOM     40  C   UNL A   1      38.276  29.731  28.414  1.00  0.00     0.014 A 
ATOM     41  C   UNL A   1      40.232  28.979  30.257  1.00  0.00     0.010 A 
ATOM     42  C   UNL A   1      39.572  29.462  27.979  1.00  0.00     0.010 A 
ATOM     43  C   UNL A   1      40.566  29.086  28.896  1.00  0.00    -0.014 A 
BRANCH  43  44
ATOM     44  C   UNL A   1      41.943  28.797  28.417  1.00  0.00     0.031 A 
ATOM     45  C   UNL A   1      42.322  27.404  27.986  1.00  0.00     0.074 A 
ATOM     46  C   UNL A   1      42.870  29.776  28.429  1.00  0.00     0.049 A 
ATOM     47  N   UNL A   1      43.485  26.950  27.595  1.00  0.00    -0.248 NA
ATOM     48  C   UNL A   1      41.263  26.383  28.026  1.00  0.00     0.031 C 
ATOM     49  C   UNL A   1      42.640  31.152  28.876  1.00  0.00     0.029 A 
ATOM     50  N   UNL A   1      44.196  29.764  28.071  1.00  0.00    -0.354 N 
ATOM     51  C   UNL A   1      43.303  25.592  27.360  1.00  0.00     0.074 A 
ATOM     52  C   UNL A   1      41.931  25.285  27.697  1.00  0.00     0.031 C 
ATOM     53  C   UNL A   1      43.778  31.854  28.747  1.00  0.00     0.029 A 
ATOM     54  C   UNL A   1      44.829  30.972  28.252  1.00  0.00     0.049 A 
ATOM     55  H   UNL A   1      44.650  28.966  27.716  1.00  0.00     0.167 HD
ATOM     56  C   UNL A   1      44.195  24.687  26.890  1.00  0.00     0.037 A 
ATOM     57  C   UNL A   1      46.114  31.327  28.056  1.00  0.00     0.037 A 
ATOM     58  C   UNL A   1      45.552  25.008  26.530  1.00  0.00     0.049 A 
ATOM     59  C   UNL A   1      47.083  30.304  27.526  1.00  0.00     0.074 A 
ATOM     60  C   UNL A   1      46.509  24.180  25.968  1.00  0.00     0.029 A 
ATOM     61  N   UNL A   1      46.150  26.248  26.702  1.00  0.00    -0.354 N 
ATOM     62  N   UNL A   1      46.871  29.045  27.228  1.00  0.00    -0.248 NA
ATOM     63  C   UNL A   1      48.465  30.751  27.297  1.00  0.00     0.031 C 
ATOM     64  C   UNL A   1      47.702  24.902  25.858  1.00  0.00     0.029 A 
ATOM     65  C   UNL A   1      47.471  26.198  26.289  1.00  0.00     0.049 A 
ATOM     66  H   UNL A   1      45.700  27.045  27.064  1.00  0.00     0.167 HD
ATOM     67  C   UNL A   1      48.083  28.556  26.750  1.00  0.00     0.074 A 
ATOM     68  C   UNL A   1      49.019  29.660  26.785  1.00  0.00     0.031 C 
ATOM     69  C   UNL A   1      48.392  27.308  26.322  1.00  0.00     0.037 A 
BRANCH  56  70
ATOM     70  C   UNL A   1      43.741  23.261  26.736  1.00  0.00     0.058 A 
ATOM     71  C   UNL A   1      43.477  22.441  27.845  1.00  0.00     0.135 A 
ATOM     72  C   UNL A   1      43.503  22.726  25.459  1.00  0.00     0.135 A 
ATOM     73  F   UNL A   1      43.700  22.894  29.089  1.00  0.00    -0.206 F 
ATOM     74  C   UNL A   1      43.017  21.137  27.693  1.00  0.00     0.059 A 
ATOM     75  C   UNL A   1      43.013  21.435  25.284  1.00  0.00     0.059 A 
ATOM     76  F   UNL A   1      43.737  23.465  24.363  1.00  0.00    -0.206 F 
ATOM     77  C   UNL A   1      42.782  20.645  26.408  1.00  0.00     0.060 A 
BRANCH  77  78
ATOM     78  S   UNL A   1      42.160  18.960  26.231  1.00  0.00     0.124 S 
ATOM     79  O   UNL A   1      42.346  18.437  27.581  1.00  0.00    -0.237 OA
ATOM     80  O   UNL A   1      40.775  19.181  25.824  1.00  0.00    -0.237 OA
ATOM     81  O   UNL A   1      43.026  18.381  25.209  1.00  0.00    -0.744 OA
ENDBRANCH  77  78
ENDBRANCH  56  70
BRANCH  57  82
ATOM     82  C   UNL A   1      46.560  32.715  28.360  1.00  0.00     0.058 A 
ATOM     83  C   UNL A   1      46.458  33.737  27.405  1.00  0.00     0.135 A 
ATOM     84  C   UNL A   1      47.099  33.046  29.613  1.00  0.00     0.135 A 
ATOM     85  F   UNL A   1      45.954  33.472  26.190  1.00  0.00    -0.206 F 
ATOM     86  C   UNL A   1      46.896  35.030  27.671  1.00  0.00     0.059 A 
ATOM     87  C   UNL A   1      47.515  34.338  29.913  1.00  0.00     0.059 A 
ATOM     88  F   UNL A   1      47.203  32.110  30.570  1.00  0.00    -0.206 F 
ATOM     89  C   UNL A   1      47.423  35.322  28.930  1.00  0.00     0.060 A 
BRANCH  89  90
ATOM     90  S   UNL A   1      47.958  37.011  29.277  1.00  0.00     0.124 S 
ATOM     91  O   UNL A   1      48.762  37.313  28.100  1.00  0.00    -0.237 OA
ATOM     92  O   UNL A   1      46.686  37.719  29.382  1.00  0.00    -0.237 OA
ATOM     93  O   UNL A   1      48.698  36.878  30.529  1.00  0.00    -0.744 OA
ENDBRANCH  89  90
ENDBRANCH  57  82
BRANCH  69  94
ATOM     94  C   UNL A   1      49.791  27.071  25.817  1.00  0.00     0.058 A 
ATOM     95  C   UNL A   1      50.810  26.593  26.654  1.00  0.00     0.135 A 
ATOM     96  C   UNL A   1      50.098  27.275  24.461  1.00  0.00     0.135 A 
ATOM     97  F   UNL A   1      50.572  26.387  27.959  1.00  0.00    -0.206 F 
ATOM     98  C   UNL A   1      52.092  26.351  26.172  1.00  0.00     0.059 A 
ATOM     99  C   UNL A   1      51.365  27.008  23.951  1.00  0.00     0.059 A 
ATOM    100  F   UNL A   1      49.158  27.721  23.613  1.00  0.00    -0.206 F 
ATOM    101  C   UNL A   1      52.359  26.558  24.817  1.00  0.00     0.060 A 
BRANCH 101 102
ATOM    102  S   UNL A   1      54.018  26.207  24.198  1.00  0.00     0.124 S 
ATOM    103  O   UNL A   1      54.319  24.943  24.864  1.00  0.00    -0.237 OA
ATOM    104  O   UNL A   1      53.803  26.129  22.757  1.00  0.00    -0.237 OA
ATOM    105  O   UNL A   1      54.799  27.355  24.649  1.00  0.00    -0.744 OA
ENDBRANCH 101 102
ENDBRANCH  69  94
ENDBRANCH  43  44
ENDBRANCH  35  38
ENDBRANCH  33  34
ENDBRANCH  32  33
ENDBRANCH  31  32
ENDBRANCH   1  31
TORSDOF 20
ENDMDL
MODEL 3
REMARK VINA RESULT:     -11.8      0.637      2.028
REMARK SMILES Cc1oc2cc(OCC(=O)NCCCCCCNC(=O)c3ccc(-c4c5nc(c(-c6c(F)cc(S(=O)(=O)[O-])cc6F)c6ccc([nH]6)c(-c6c(F)cc(S(=O)(=O)[O-])cc6F)c6nc(c(-c7c(F)cc(S(=O)(=O)[O-])cc7F)c7ccc4[nH]7)C=C6)C=C5)cc3)ccc2c(=O)c1Oc1ccc(Cl)cc1Cl
REMARK SMILES IDX 14 1 13 2 12 3 11 4 9 5 10 6 8 8 7 9 6 10 1 11 2 12 3 13
REMARK SMILES IDX 92 14 4 15 90 16 5 17 89 18 91 19 88 20 87 21 93 22 94 23
REMARK SMILES IDX 95 24 100 25 96 26 99 27 101 28 97 29 98 30 15 31 16 32
REMARK SMILES IDX 17 33 18 34 19 35 20 37 21 38 22 39 86 40 23 41 85 42 24 43
REMARK SMILES IDX 25 44 26 45 79 46 27 47 84 48 78 49 80 50 28 51 83 52 77 53
REMARK SMILES IDX 76 54 29 56 63 57 42 58 62 59 43 60 46 61 61 62 81 63 44 64
REMARK SMILES IDX 45 65 60 67 82 68 47 69 30 70 31 71 40 72 32 73 33 74 39 75
REMARK SMILES IDX 41 76 34 77 35 78 36 79 37 80 38 81 64 82 65 83 74 84 66 85
REMARK SMILES IDX 67 86 73 87 75 88 68 89 69 90 70 91 71 92 72 93 48 94 49 95
REMARK SMILES IDX 58 96 50 97 51 98 57 99 59 100 52 101 53 102 54 103 55 104
REMARK SMILES IDX 56 105
REMARK H PARENT 11 7 18 36 80 55 46 66
REMARK Flexibility Score: inf
ROOT
ATOM      1  C   UNL A   1      32.909  28.364  26.820  1.00  0.00     0.002 C 
ENDROOT
BRANCH   1   2
ATOM      2  C   UNL A   1      31.750  29.286  26.420  1.00  0.00     0.021 C 
BRANCH   2   3
ATOM      3  C   UNL A   1      31.737  29.682  24.945  1.00  0.00     0.116 C 
BRANCH   3   4
ATOM      4  N   UNL A   1      30.499  30.340  24.577  1.00  0.00    -0.353 N 
ATOM      5  C   UNL A   1      29.842  30.277  23.384  1.00  0.00     0.257 C 
ATOM      6  O   UNL A   1      28.783  30.894  23.251  1.00  0.00    -0.271 OA
ATOM      7  H   UNL A   1      30.083  30.899  25.271  1.00  0.00     0.163 HD
BRANCH   5   8
ATOM      8  C   UNL A   1      30.421  29.415  22.252  1.00  0.00     0.329 C 
BRANCH   8   9
ATOM      9  O   UNL A   1      29.921  28.088  22.136  1.00  0.00    -0.484 OA
BRANCH   9  10
ATOM     10  C   UNL A   1      30.654  27.083  22.701  1.00  0.00     0.123 A 
ATOM     11  C   UNL A   1      30.408  22.847  26.836  1.00  0.00     0.092 C 
ATOM     12  C   UNL A   1      31.241  23.446  25.740  1.00  0.00     0.148 A 
ATOM     13  O   UNL A   1      30.453  24.358  25.062  1.00  0.00    -0.457 OA
ATOM     14  C   UNL A   1      32.539  23.198  25.425  1.00  0.00     0.213 A 
ATOM     15  C   UNL A   1      31.014  25.187  24.145  1.00  0.00     0.142 A 
ATOM     16  C   UNL A   1      33.155  24.029  24.331  1.00  0.00     0.235 A 
ATOM     17  C   UNL A   1      30.178  26.179  23.642  1.00  0.00     0.094 A 
ATOM     18  C   UNL A   1      32.327  25.081  23.729  1.00  0.00     0.069 A 
ATOM     19  O   UNL A   1      34.317  23.872  23.972  1.00  0.00    -0.285 OA
ATOM     20  C   UNL A   1      32.823  25.983  22.784  1.00  0.00     0.020 A 
ATOM     21  C   UNL A   1      31.983  26.981  22.274  1.00  0.00     0.047 A 
BRANCH  14  22
ATOM     22  O   UNL A   1      33.432  22.290  25.992  1.00  0.00    -0.448 OA
BRANCH  22  23
ATOM     23  C   UNL A   1      33.604  21.041  25.462  1.00  0.00     0.146 A 
ATOM     24  C   UNL A   1      32.442  20.335  25.135  1.00  0.00     0.050 A 
ATOM     25  C   UNL A   1      34.863  20.467  25.251  1.00  0.00     0.085 A 
ATOM     26  C   UNL A   1      32.541  19.104  24.487  1.00  0.00     0.024 A 
ATOM     27  C   UNL A   1      34.960  19.240  24.594  1.00  0.00     0.045 A 
ATOM     28  Cl  UNL A   1      36.318  21.258  25.735  1.00  0.00    -0.080 Cl
ATOM     29  C   UNL A   1      33.799  18.576  24.197  1.00  0.00     0.042 A 
ATOM     30  Cl  UNL A   1      33.918  17.097  23.326  1.00  0.00    -0.084 Cl
ENDBRANCH  22  23
ENDBRANCH  14  22
ENDBRANCH   9  10
ENDBRANCH   8   9
ENDBRANCH   5   8
ENDBRANCH   3   4
ENDBRANCH   2   3
ENDBRANCH   1   2
BRANCH   1  31
ATOM     31  C   UNL A   1      34.310  28.962  26.648  1.00  0.00     0.002 C 
BRANCH  31  32
ATOM     32  C   UNL A   1      35.042  29.290  27.952  1.00  0.00     0.021 C 
BRANCH  32  33
ATOM     33  C   UNL A   1      35.460  30.748  28.098  1.00  0.00     0.116 C 
BRANCH  33  34
ATOM     34  N   UNL A   1      35.490  31.171  29.489  1.00  0.00    -0.352 N 
ATOM     35  C   UNL A   1      36.457  30.962  30.439  1.00  0.00     0.251 C 
ATOM     36  H   UNL A   1      34.704  31.681  29.791  1.00  0.00     0.163 HD
ATOM     37  O   UNL A   1      36.221  31.221  31.619  1.00  0.00    -0.269 OA
BRANCH  35  38
ATOM     38  C   UNL A   1      37.771  30.407  30.049  1.00  0.00     0.039 A 
ATOM     39  C   UNL A   1      38.147  30.439  28.704  1.00  0.00     0.014 A 
ATOM     40  C   UNL A   1      38.629  29.854  31.004  1.00  0.00     0.014 A 
ATOM     41  C   UNL A   1      39.408  29.973  28.327  1.00  0.00     0.010 A 
ATOM     42  C   UNL A   1      39.915  29.462  30.638  1.00  0.00     0.010 A 
ATOM     43  C   UNL A   1      40.318  29.514  29.295  1.00  0.00    -0.014 A 
BRANCH  43  44
ATOM     44  C   UNL A   1      41.694  29.097  28.920  1.00  0.00     0.031 A 
ATOM     45  C   UNL A   1      42.810  30.108  28.878  1.00  0.00     0.074 A 
ATOM     46  C   UNL A   1      41.926  27.819  28.555  1.00  0.00     0.049 A 
ATOM     47  N   UNL A   1      44.058  29.944  28.520  1.00  0.00    -0.248 NA
ATOM     48  C   UNL A   1      42.475  31.488  29.263  1.00  0.00     0.031 C 
ATOM     49  C   UNL A   1      40.916  26.760  28.502  1.00  0.00     0.029 A 
ATOM     50  N   UNL A   1      43.079  27.195  28.146  1.00  0.00    -0.354 N 
ATOM     51  C   UNL A   1      44.650  31.198  28.619  1.00  0.00     0.074 A 
ATOM     52  C   UNL A   1      43.615  32.122  29.025  1.00  0.00     0.031 C 
ATOM     53  C   UNL A   1      41.497  25.617  28.103  1.00  0.00     0.029 A 
ATOM     54  C   UNL A   1      42.908  25.868  27.830  1.00  0.00     0.049 A 
ATOM     55  H   UNL A   1      43.948  27.656  28.086  1.00  0.00     0.167 HD
ATOM     56  C   UNL A   1      45.942  31.544  28.406  1.00  0.00     0.037 A 
ATOM     57  C   UNL A   1      43.783  24.958  27.360  1.00  0.00     0.037 A 
ATOM     58  C   UNL A   1      46.973  30.611  28.029  1.00  0.00     0.049 A 
ATOM     59  C   UNL A   1      45.216  25.366  27.139  1.00  0.00     0.074 A 
ATOM     60  C   UNL A   1      48.328  30.846  27.870  1.00  0.00     0.029 A 
ATOM     61  N   UNL A   1      46.767  29.269  27.745  1.00  0.00    -0.354 N 
ATOM     62  N   UNL A   1      45.776  26.538  27.321  1.00  0.00    -0.248 NA
ATOM     63  C   UNL A   1      46.138  24.327  26.658  1.00  0.00     0.031 C 
ATOM     64  C   UNL A   1      48.929  29.664  27.429  1.00  0.00     0.029 A 
ATOM     65  C   UNL A   1      47.963  28.673  27.378  1.00  0.00     0.049 A 
ATOM     66  H   UNL A   1      45.898  28.808  27.796  1.00  0.00     0.167 HD
ATOM     67  C   UNL A   1      47.120  26.371  27.004  1.00  0.00     0.074 A 
ATOM     68  C   UNL A   1      47.291  24.982  26.634  1.00  0.00     0.031 C 
ATOM     69  C   UNL A   1      48.121  27.285  27.018  1.00  0.00     0.037 A 
BRANCH  56  70
ATOM     70  C   UNL A   1      46.324  32.989  28.573  1.00  0.00     0.058 A 
ATOM     71  C   UNL A   1      46.267  33.901  27.507  1.00  0.00     0.135 A 
ATOM     72  C   UNL A   1      46.691  33.485  29.835  1.00  0.00     0.135 A 
ATOM     73  F   UNL A   1      45.936  33.481  26.275  1.00  0.00    -0.206 F 
ATOM     74  C   UNL A   1      46.580  35.245  27.681  1.00  0.00     0.059 A 
ATOM     75  C   UNL A   1      46.980  34.831  30.039  1.00  0.00     0.059 A 
ATOM     76  F   UNL A   1      46.763  32.659  30.891  1.00  0.00    -0.206 F 
ATOM     77  C   UNL A   1      46.931  35.702  28.953  1.00  0.00     0.060 A 
BRANCH  77  78
ATOM     78  S   UNL A   1      47.310  37.454  29.164  1.00  0.00     0.124 S 
ATOM     79  O   UNL A   1      48.600  37.394  29.843  1.00  0.00    -0.237 OA
ATOM     80  O   UNL A   1      47.342  37.934  27.785  1.00  0.00    -0.237 OA
ATOM     81  O   UNL A   1      46.199  37.949  29.971  1.00  0.00    -0.744 OA
ENDBRANCH  77  78
ENDBRANCH  56  70
BRANCH  57  82
ATOM     82  C   UNL A   1      43.331  23.570  27.067  1.00  0.00     0.058 A 
ATOM     83  C   UNL A   1      43.014  23.170  25.760  1.00  0.00     0.135 A 
ATOM     84  C   UNL A   1      43.206  22.616  28.089  1.00  0.00     0.135 A 
ATOM     85  F   UNL A   1      43.112  24.045  24.747  1.00  0.00    -0.206 F 
ATOM     86  C   UNL A   1      42.565  21.882  25.480  1.00  0.00     0.059 A 
ATOM     87  C   UNL A   1      42.789  21.315  27.829  1.00  0.00     0.059 A 
ATOM     88  F   UNL A   1      43.514  22.941  29.354  1.00  0.00    -0.206 F 
ATOM     89  C   UNL A   1      42.457  20.961  26.523  1.00  0.00     0.060 A 
BRANCH  89  90
ATOM     90  S   UNL A   1      41.906  19.283  26.144  1.00  0.00     0.124 S 
ATOM     91  O   UNL A   1      42.218  18.584  27.385  1.00  0.00    -0.237 OA
ATOM     92  O   UNL A   1      40.489  19.483  25.860  1.00  0.00    -0.237 OA
ATOM     93  O   UNL A   1      42.723  18.915  24.991  1.00  0.00    -0.744 OA
ENDBRANCH  89  90
ENDBRANCH  57  82
BRANCH  69  94
ATOM     94  C   UNL A   1      49.504  26.809  26.661  1.00  0.00     0.058 A 
ATOM     95  C   UNL A   1      49.984  26.849  25.343  1.00  0.00     0.135 A 
ATOM     96  C   UNL A   1      50.378  26.357  27.663  1.00  0.00     0.135 A 
ATOM     97  F   UNL A   1      49.188  27.267  24.346  1.00  0.00    -0.206 F 
ATOM     98  C   UNL A   1      51.273  26.433  25.027  1.00  0.00     0.059 A 
ATOM     99  C   UNL A   1      51.683  25.968  27.374  1.00  0.00     0.059 A 
ATOM    100  F   UNL A   1      49.975  26.309  28.943  1.00  0.00    -0.206 F 
ATOM    101  C   UNL A   1      52.117  25.997  26.050  1.00  0.00     0.060 A 
BRANCH 101 102
ATOM    102  S   UNL A   1      53.798  25.493  25.630  1.00  0.00     0.124 S 
ATOM    103  O   UNL A   1      54.305  26.687  24.960  1.00  0.00    -0.237 OA
ATOM    104  O   UNL A   1      54.375  25.207  26.940  1.00  0.00    -0.237 OA
ATOM    105  O   UNL A   1      53.600  24.329  24.770  1.00  0.00    -0.744 OA
ENDBRANCH 101 102
ENDBRANCH  69  94
ENDBRANCH  43  44
ENDBRANCH  35  38
ENDBRANCH  33  34
ENDBRANCH  32  33
ENDBRANCH  31  32
ENDBRANCH   1  31
TORSDOF 20
ENDMDL
