MODEL 1
REMARK VINA RESULT:     -11.8      0.000      0.000
REMARK SMILES CC(C)=CCc1cccc2c(C(=O)NCCCCCCNC(=O)c3ccc(-c4c5nc(c(-c6c(F)cc(S(=O)(=O)[O-])cc6F)c6ccc([nH]6)c(-c6c(F)cc(S(=O)(=O)[O-])cc6F)c6nc(c(-c7c(F)cc(S(=O)(=O)[O-])cc7F)c7ccc4[nH]7)C=C6)C=C5)cc3)c[nH]c12
REMARK SMILES IDX 18 1 17 2 16 3 15 4 14 5 12 6 13 7 11 9 6 10 7 11 92 12 8 13
REMARK SMILES IDX 10 14 91 15 9 16 90 17 5 19 4 20 1 21 2 22 3 23 19 24 20 25
REMARK SMILES IDX 21 26 22 27 23 29 24 30 25 31 89 32 26 33 88 34 27 35 28 36
REMARK SMILES IDX 29 37 82 38 30 39 87 40 81 41 83 42 31 43 86 44 80 45 79 46
REMARK SMILES IDX 32 48 66 49 45 50 65 51 46 52 49 53 64 54 84 55 47 56 48 57
REMARK SMILES IDX 63 59 85 60 50 61 33 62 34 63 43 64 35 65 36 66 42 67 44 68
REMARK SMILES IDX 37 69 38 70 39 71 40 72 41 73 67 74 68 75 77 76 69 77 70 78
REMARK SMILES IDX 76 79 78 80 71 81 72 82 73 83 74 84 75 85 51 86 52 87 61 88
REMARK SMILES IDX 53 89 54 90 60 91 62 92 55 93 56 94 57 95 58 96 59 97
REMARK H PARENT 14 8 91 18 21 28 83 47 49 58
REMARK Flexibility Score: inf
ROOT
ATOM      1  C   UNL A   1      33.860  28.889  27.169  1.00  0.00     0.002 C 
ENDROOT
BRANCH   1   2
ATOM      2  C   UNL A   1      33.584  28.449  25.728  1.00  0.00     0.002 C 
BRANCH   2   3
ATOM      3  C   UNL A   1      32.885  29.460  24.817  1.00  0.00     0.021 C 
BRANCH   3   4
ATOM      4  C   UNL A   1      31.388  29.634  25.023  1.00  0.00     0.116 C 
BRANCH   4   5
ATOM      5  N   UNL A   1      30.602  29.760  23.820  1.00  0.00    -0.352 N 
ATOM      6  C   UNL A   1      30.067  28.778  23.017  1.00  0.00     0.253 C 
ATOM      7  O   UNL A   1      29.427  29.156  22.032  1.00  0.00    -0.269 OA
ATOM      8  H   UNL A   1      30.422  30.683  23.532  1.00  0.00     0.163 HD
BRANCH   6   9
ATOM      9  C   UNL A   1      30.324  27.351  23.250  1.00  0.00     0.065 A 
ATOM     10  C   UNL A   1      31.845  24.029  23.026  1.00  0.00    -0.020 A 
ATOM     11  C   UNL A   1      33.089  24.271  22.411  1.00  0.00     0.006 A 
ATOM     12  C   UNL A   1      31.049  25.166  23.287  1.00  0.00     0.050 A 
ATOM     13  C   UNL A   1      33.550  25.556  22.170  1.00  0.00     0.001 A 
ATOM     14  C   UNL A   1      31.444  26.477  22.984  1.00  0.00     0.012 A 
ATOM     15  N   UNL A   1      29.813  25.260  23.882  1.00  0.00    -0.360 N 
ATOM     16  C   UNL A   1      32.762  26.655  22.507  1.00  0.00     0.011 A 
ATOM     17  C   UNL A   1      29.374  26.551  23.870  1.00  0.00     0.097 A 
ATOM     18  H   UNL A   1      29.315  24.502  24.264  1.00  0.00     0.166 HD
BRANCH  10  19
ATOM     19  C   UNL A   1      31.470  22.615  23.413  1.00  0.00     0.065 C 
BRANCH  19  20
ATOM     20  C   UNL A   1      32.660  21.724  23.648  1.00  0.00    -0.024 C 
ATOM     21  C   UNL A   1      32.929  22.243  26.091  1.00  0.00     0.039 C 
ATOM     22  C   UNL A   1      33.313  21.544  24.816  1.00  0.00    -0.080 C 
ATOM     23  C   UNL A   1      34.516  20.643  24.870  1.00  0.00     0.039 C 
ENDBRANCH  19  20
ENDBRANCH  10  19
ENDBRANCH   6   9
ENDBRANCH   4   5
ENDBRANCH   3   4
ENDBRANCH   2   3
ENDBRANCH   1   2
BRANCH   1  24
ATOM     24  C   UNL A   1      34.156  30.375  27.395  1.00  0.00     0.021 C 
BRANCH  24  25
ATOM     25  C   UNL A   1      35.478  30.700  28.081  1.00  0.00     0.116 C 
BRANCH  25  26
ATOM     26  N   UNL A   1      35.386  30.677  29.530  1.00  0.00    -0.352 N 
ATOM     27  C   UNL A   1      36.336  30.353  30.466  1.00  0.00     0.251 C 
ATOM     28  H   UNL A   1      34.508  30.931  29.897  1.00  0.00     0.163 HD
ATOM     29  O   UNL A   1      36.014  30.252  31.650  1.00  0.00    -0.269 OA
BRANCH  27  30
ATOM     30  C   UNL A   1      37.735  30.100  30.057  1.00  0.00     0.039 A 
ATOM     31  C   UNL A   1      38.681  29.806  31.043  1.00  0.00     0.014 A 
ATOM     32  C   UNL A   1      38.121  30.160  28.715  1.00  0.00     0.014 A 
ATOM     33  C   UNL A   1      39.997  29.509  30.677  1.00  0.00     0.010 A 
ATOM     34  C   UNL A   1      39.414  29.793  28.346  1.00  0.00     0.010 A 
ATOM     35  C   UNL A   1      40.365  29.461  29.322  1.00  0.00    -0.014 A 
BRANCH  35  36
ATOM     36  C   UNL A   1      41.734  29.050  28.911  1.00  0.00     0.031 A 
ATOM     37  C   UNL A   1      42.849  30.059  28.856  1.00  0.00     0.074 A 
ATOM     38  C   UNL A   1      41.956  27.777  28.525  1.00  0.00     0.049 A 
ATOM     39  N   UNL A   1      44.087  29.901  28.461  1.00  0.00    -0.248 NA
ATOM     40  C   UNL A   1      42.525  31.431  29.276  1.00  0.00     0.031 C 
ATOM     41  C   UNL A   1      40.946  26.716  28.491  1.00  0.00     0.029 A 
ATOM     42  N   UNL A   1      43.098  27.159  28.077  1.00  0.00    -0.354 N 
ATOM     43  C   UNL A   1      44.685  31.152  28.575  1.00  0.00     0.074 A 
ATOM     44  C   UNL A   1      43.659  32.069  29.023  1.00  0.00     0.031 C 
ATOM     45  C   UNL A   1      41.517  25.578  28.069  1.00  0.00     0.029 A 
ATOM     46  C   UNL A   1      42.920  25.833  27.760  1.00  0.00     0.049 A 
ATOM     47  H   UNL A   1      43.962  27.623  27.992  1.00  0.00     0.167 HD
ATOM     48  C   UNL A   1      45.974  31.498  28.347  1.00  0.00     0.037 A 
ATOM     49  C   UNL A   1      43.785  24.927  27.264  1.00  0.00     0.037 A 
ATOM     50  C   UNL A   1      46.992  30.575  27.914  1.00  0.00     0.049 A 
ATOM     51  C   UNL A   1      45.209  25.339  27.004  1.00  0.00     0.074 A 
ATOM     52  C   UNL A   1      48.339  30.816  27.707  1.00  0.00     0.029 A 
ATOM     53  N   UNL A   1      46.776  29.237  27.615  1.00  0.00    -0.354 N 
ATOM     54  N   UNL A   1      45.773  26.511  27.178  1.00  0.00    -0.248 NA
ATOM     55  C   UNL A   1      46.116  24.306  26.486  1.00  0.00     0.031 C 
ATOM     56  C   UNL A   1      48.926  29.640  27.230  1.00  0.00     0.029 A 
ATOM     57  C   UNL A   1      47.959  28.647  27.199  1.00  0.00     0.049 A 
ATOM     58  H   UNL A   1      45.910  28.775  27.687  1.00  0.00     0.167 HD
ATOM     59  C   UNL A   1      47.106  26.348  26.820  1.00  0.00     0.074 A 
ATOM     60  C   UNL A   1      47.267  24.963  26.431  1.00  0.00     0.031 C 
ATOM     61  C   UNL A   1      48.108  27.263  26.818  1.00  0.00     0.037 A 
BRANCH  48  62
ATOM     62  C   UNL A   1      46.361  32.938  28.558  1.00  0.00     0.058 A 
ATOM     63  C   UNL A   1      46.289  33.883  27.522  1.00  0.00     0.135 A 
ATOM     64  C   UNL A   1      46.771  33.390  29.824  1.00  0.00     0.135 A 
ATOM     65  F   UNL A   1      45.915  33.507  26.288  1.00  0.00    -0.206 F 
ATOM     66  C   UNL A   1      46.642  35.215  27.722  1.00  0.00     0.059 A 
ATOM     67  C   UNL A   1      47.097  34.724  30.055  1.00  0.00     0.059 A 
ATOM     68  F   UNL A   1      46.858  32.533  30.853  1.00  0.00    -0.206 F 
ATOM     69  C   UNL A   1      47.044  35.625  28.994  1.00  0.00     0.060 A 
BRANCH  69  70
ATOM     70  S   UNL A   1      47.494  37.357  29.235  1.00  0.00     0.124 S 
ATOM     71  O   UNL A   1      47.959  37.726  27.902  1.00  0.00    -0.237 OA
ATOM     72  O   UNL A   1      46.230  37.952  29.655  1.00  0.00    -0.237 OA
ATOM     73  O   UNL A   1      48.529  37.299  30.265  1.00  0.00    -0.744 OA
ENDBRANCH  69  70
ENDBRANCH  48  62
BRANCH  49  74
ATOM     74  C   UNL A   1      43.331  23.534  26.997  1.00  0.00     0.058 A 
ATOM     75  C   UNL A   1      43.096  23.088  25.688  1.00  0.00     0.135 A 
ATOM     76  C   UNL A   1      43.138  22.617  28.043  1.00  0.00     0.135 A 
ATOM     77  F   UNL A   1      43.260  23.929  24.655  1.00  0.00    -0.206 F 
ATOM     78  C   UNL A   1      42.672  21.790  25.424  1.00  0.00     0.059 A 
ATOM     79  C   UNL A   1      42.741  21.305  27.802  1.00  0.00     0.059 A 
ATOM     80  F   UNL A   1      43.364  22.987  29.313  1.00  0.00    -0.206 F 
ATOM     81  C   UNL A   1      42.502  20.904  26.489  1.00  0.00     0.060 A 
BRANCH  81  82
ATOM     82  S   UNL A   1      41.998  19.207  26.131  1.00  0.00     0.124 S 
ATOM     83  O   UNL A   1      40.562  19.363  25.931  1.00  0.00    -0.237 OA
ATOM     84  O   UNL A   1      42.782  18.903  24.937  1.00  0.00    -0.237 OA
ATOM     85  O   UNL A   1      42.393  18.479  27.333  1.00  0.00    -0.744 OA
ENDBRANCH  81  82
ENDBRANCH  49  74
BRANCH  61  86
ATOM     86  C   UNL A   1      49.480  26.791  26.419  1.00  0.00     0.058 A 
ATOM     87  C   UNL A   1      50.319  26.108  27.314  1.00  0.00     0.135 A 
ATOM     88  C   UNL A   1      49.939  26.978  25.105  1.00  0.00     0.135 A 
ATOM     89  F   UNL A   1      49.932  25.907  28.584  1.00  0.00    -0.206 F 
ATOM     90  C   UNL A   1      51.574  25.649  26.927  1.00  0.00     0.059 A 
ATOM     91  C   UNL A   1      51.177  26.501  24.688  1.00  0.00     0.059 A 
ATOM     92  F   UNL A   1      49.173  27.616  24.205  1.00  0.00    -0.206 F 
ATOM     93  C   UNL A   1      51.994  25.848  25.610  1.00  0.00     0.060 A 
BRANCH  93  94
ATOM     94  S   UNL A   1      53.610  25.217  25.113  1.00  0.00     0.124 S 
ATOM     95  O   UNL A   1      53.654  25.596  23.705  1.00  0.00    -0.237 OA
ATOM     96  O   UNL A   1      54.515  25.949  25.995  1.00  0.00    -0.237 OA
ATOM     97  O   UNL A   1      53.512  23.784  25.376  1.00  0.00    -0.744 OA
ENDBRANCH  93  94
ENDBRANCH  61  86
ENDBRANCH  35  36
ENDBRANCH  27  30
ENDBRANCH  25  26
ENDBRANCH  24  25
ENDBRANCH   1  24
TORSDOF 18
ENDMDL
MODEL 2
REMARK VINA RESULT:     -11.7      2.826      4.576
REMARK SMILES CC(C)=CCc1cccc2c(C(=O)NCCCCCCNC(=O)c3ccc(-c4c5nc(c(-c6c(F)cc(S(=O)(=O)[O-])cc6F)c6ccc([nH]6)c(-c6c(F)cc(S(=O)(=O)[O-])cc6F)c6nc(c(-c7c(F)cc(S(=O)(=O)[O-])cc7F)c7ccc4[nH]7)C=C6)C=C5)cc3)c[nH]c12
REMARK SMILES IDX 18 1 17 2 16 3 15 4 14 5 12 6 13 7 11 9 6 10 7 11 92 12 8 13
REMARK SMILES IDX 10 14 91 15 9 16 90 17 5 19 4 20 1 21 2 22 3 23 19 24 20 25
REMARK SMILES IDX 21 26 22 27 23 29 24 30 25 31 89 32 26 33 88 34 27 35 28 36
REMARK SMILES IDX 29 37 82 38 30 39 87 40 81 41 83 42 31 43 86 44 80 45 79 46
REMARK SMILES IDX 32 48 66 49 45 50 65 51 46 52 49 53 64 54 84 55 47 56 48 57
REMARK SMILES IDX 63 59 85 60 50 61 33 62 34 63 43 64 35 65 36 66 42 67 44 68
REMARK SMILES IDX 37 69 38 70 39 71 40 72 41 73 67 74 68 75 77 76 69 77 70 78
REMARK SMILES IDX 76 79 78 80 71 81 72 82 73 83 74 84 75 85 51 86 52 87 61 88
REMARK SMILES IDX 53 89 54 90 60 91 62 92 55 93 56 94 57 95 58 96 59 97
REMARK H PARENT 14 8 91 18 21 28 83 47 49 58
REMARK Flexibility Score: inf
ROOT
ATOM      1  C   UNL A   1      33.471  26.159  26.076  1.00  0.00     0.002 C 
ENDROOT
BRANCH   1   2
ATOM      2  C   UNL A   1      32.556  24.999  26.478  1.00  0.00     0.002 C 
BRANCH   2   3
ATOM      3  C   UNL A   1      33.075  23.584  26.214  1.00  0.00     0.021 C 
BRANCH   3   4
ATOM      4  C   UNL A   1      32.164  22.669  25.409  1.00  0.00     0.116 C 
BRANCH   4   5
ATOM      5  N   UNL A   1      32.550  22.455  24.035  1.00  0.00    -0.352 N 
ATOM      6  C   UNL A   1      32.474  23.313  22.961  1.00  0.00     0.253 C 
ATOM      7  O   UNL A   1      32.875  22.880  21.878  1.00  0.00    -0.269 OA
ATOM      8  H   UNL A   1      32.921  21.566  23.838  1.00  0.00     0.163 HD
BRANCH   6   9
ATOM      9  C   UNL A   1      31.854  24.640  23.062  1.00  0.00     0.065 A 
ATOM     10  C   UNL A   1      31.474  28.274  23.279  1.00  0.00    -0.020 A 
ATOM     11  C   UNL A   1      32.732  28.766  22.876  1.00  0.00     0.006 A 
ATOM     12  C   UNL A   1      31.316  26.872  23.244  1.00  0.00     0.050 A 
ATOM     13  C   UNL A   1      33.719  27.932  22.375  1.00  0.00     0.001 A 
ATOM     14  C   UNL A   1      32.318  25.986  22.821  1.00  0.00     0.012 A 
ATOM     15  N   UNL A   1      30.222  26.099  23.555  1.00  0.00    -0.360 N 
ATOM     16  C   UNL A   1      33.497  26.560  22.291  1.00  0.00     0.011 A 
ATOM     17  C   UNL A   1      30.526  24.774  23.448  1.00  0.00     0.097 A 
ATOM     18  H   UNL A   1      29.342  26.452  23.818  1.00  0.00     0.166 HD
BRANCH  10  19
ATOM     19  C   UNL A   1      30.382  29.250  23.660  1.00  0.00     0.065 C 
BRANCH  19  20
ATOM     20  C   UNL A   1      29.767  29.950  22.477  1.00  0.00    -0.024 C 
ATOM     21  C   UNL A   1      27.393  29.280  22.948  1.00  0.00     0.039 C 
ATOM     22  C   UNL A   1      28.459  29.980  22.149  1.00  0.00    -0.080 C 
ATOM     23  C   UNL A   1      28.015  30.696  20.904  1.00  0.00     0.039 C 
ENDBRANCH  19  20
ENDBRANCH  10  19
ENDBRANCH   6   9
ENDBRANCH   4   5
ENDBRANCH   3   4
ENDBRANCH   2   3
ENDBRANCH   1   2
BRANCH   1  24
ATOM     24  C   UNL A   1      33.094  27.551  26.595  1.00  0.00     0.021 C 
BRANCH  24  25
ATOM     25  C   UNL A   1      34.074  28.674  26.276  1.00  0.00     0.116 C 
BRANCH  25  26
ATOM     26  N   UNL A   1      33.834  29.874  27.059  1.00  0.00    -0.352 N 
ATOM     27  C   UNL A   1      34.619  30.473  28.012  1.00  0.00     0.251 C 
ATOM     28  H   UNL A   1      32.977  30.327  26.879  1.00  0.00     0.163 HD
ATOM     29  O   UNL A   1      34.168  31.410  28.671  1.00  0.00    -0.269 OA
BRANCH  27  30
ATOM     30  C   UNL A   1      35.991  29.983  28.269  1.00  0.00     0.039 A 
ATOM     31  C   UNL A   1      36.951  30.111  27.260  1.00  0.00     0.014 A 
ATOM     32  C   UNL A   1      36.334  29.393  29.488  1.00  0.00     0.014 A 
ATOM     33  C   UNL A   1      38.267  29.708  27.498  1.00  0.00     0.010 A 
ATOM     34  C   UNL A   1      37.662  29.058  29.749  1.00  0.00     0.010 A 
ATOM     35  C   UNL A   1      38.643  29.214  28.759  1.00  0.00    -0.014 A 
BRANCH  35  36
ATOM     36  C   UNL A   1      40.059  28.873  29.060  1.00  0.00     0.031 A 
ATOM     37  C   UNL A   1      40.977  29.898  29.667  1.00  0.00     0.074 A 
ATOM     38  C   UNL A   1      40.534  27.655  28.726  1.00  0.00     0.049 A 
ATOM     39  N   UNL A   1      42.254  29.805  29.939  1.00  0.00    -0.248 NA
ATOM     40  C   UNL A   1      40.391  31.209  29.988  1.00  0.00     0.031 C 
ATOM     41  C   UNL A   1      39.754  26.590  28.091  1.00  0.00     0.029 A 
ATOM     42  N   UNL A   1      41.786  27.110  28.863  1.00  0.00    -0.354 N 
ATOM     43  C   UNL A   1      42.625  31.044  30.451  1.00  0.00     0.074 A 
ATOM     44  C   UNL A   1      41.452  31.888  30.401  1.00  0.00     0.031 C 
ATOM     45  C   UNL A   1      40.537  25.515  27.915  1.00  0.00     0.029 A 
ATOM     46  C   UNL A   1      41.885  25.825  28.381  1.00  0.00     0.049 A 
ATOM     47  H   UNL A   1      42.542  27.594  29.268  1.00  0.00     0.167 HD
ATOM     48  C   UNL A   1      43.828  31.434  30.938  1.00  0.00     0.037 A 
ATOM     49  C   UNL A   1      42.943  24.994  28.311  1.00  0.00     0.037 A 
ATOM     50  C   UNL A   1      44.988  30.582  30.997  1.00  0.00     0.049 A 
ATOM     51  C   UNL A   1      44.273  25.455  28.844  1.00  0.00     0.074 A 
ATOM     52  C   UNL A   1      46.237  30.865  31.521  1.00  0.00     0.029 A 
ATOM     53  N   UNL A   1      45.046  29.283  30.511  1.00  0.00    -0.354 N 
ATOM     54  N   UNL A   1      44.590  26.609  29.384  1.00  0.00    -0.248 NA
ATOM     55  C   UNL A   1      45.389  24.502  28.764  1.00  0.00     0.031 C 
ATOM     56  C   UNL A   1      47.065  29.759  31.303  1.00  0.00     0.029 A 
ATOM     57  C   UNL A   1      46.316  28.762  30.698  1.00  0.00     0.049 A 
ATOM     58  H   UNL A   1      44.294  28.802  30.094  1.00  0.00     0.167 HD
ATOM     59  C   UNL A   1      45.932  26.508  29.736  1.00  0.00     0.074 A 
ATOM     60  C   UNL A   1      46.363  25.178  29.358  1.00  0.00     0.031 C 
ATOM     61  C   UNL A   1      46.732  27.432  30.322  1.00  0.00     0.037 A 
BRANCH  48  62
ATOM     62  C   UNL A   1      43.954  32.846  31.444  1.00  0.00     0.058 A 
ATOM     63  C   UNL A   1      43.801  33.162  32.804  1.00  0.00     0.135 A 
ATOM     64  C   UNL A   1      44.271  33.895  30.565  1.00  0.00     0.135 A 
ATOM     65  F   UNL A   1      43.485  32.202  33.690  1.00  0.00    -0.206 F 
ATOM     66  C   UNL A   1      43.924  34.468  33.269  1.00  0.00     0.059 A 
ATOM     67  C   UNL A   1      44.431  35.204  31.013  1.00  0.00     0.059 A 
ATOM     68  F   UNL A   1      44.431  33.654  29.254  1.00  0.00    -0.206 F 
ATOM     69  C   UNL A   1      44.241  35.482  32.365  1.00  0.00     0.060 A 
BRANCH  69  70
ATOM     70  S   UNL A   1      44.400  37.170  32.987  1.00  0.00     0.124 S 
ATOM     71  O   UNL A   1      43.101  37.369  33.624  1.00  0.00    -0.237 OA
ATOM     72  O   UNL A   1      45.541  37.062  33.891  1.00  0.00    -0.237 OA
ATOM     73  O   UNL A   1      44.632  37.957  31.779  1.00  0.00    -0.744 OA
ENDBRANCH  69  70
ENDBRANCH  48  62
BRANCH  49  74
ATOM     74  C   UNL A   1      42.783  23.634  27.727  1.00  0.00     0.058 A 
ATOM     75  C   UNL A   1      42.511  22.525  28.541  1.00  0.00     0.135 A 
ATOM     76  C   UNL A   1      42.882  23.419  26.343  1.00  0.00     0.135 A 
ATOM     77  F   UNL A   1      42.413  22.679  29.871  1.00  0.00    -0.206 F 
ATOM     78  C   UNL A   1      42.357  21.249  28.010  1.00  0.00     0.059 A 
ATOM     79  C   UNL A   1      42.705  22.157  25.784  1.00  0.00     0.059 A 
ATOM     80  F   UNL A   1      43.124  24.448  25.517  1.00  0.00    -0.206 F 
ATOM     81  C   UNL A   1      42.452  21.076  26.628  1.00  0.00     0.060 A 
BRANCH  81  82
ATOM     82  S   UNL A   1      42.204  19.423  25.944  1.00  0.00     0.124 S 
ATOM     83  O   UNL A   1      42.699  18.580  27.025  1.00  0.00    -0.237 OA
ATOM     84  O   UNL A   1      40.761  19.399  25.723  1.00  0.00    -0.237 OA
ATOM     85  O   UNL A   1      43.016  19.437  24.731  1.00  0.00    -0.744 OA
ENDBRANCH  81  82
ENDBRANCH  49  74
BRANCH  61  86
ATOM     86  C   UNL A   1      48.150  27.030  30.630  1.00  0.00     0.058 A 
ATOM     87  C   UNL A   1      49.216  27.362  29.780  1.00  0.00     0.135 A 
ATOM     88  C   UNL A   1      48.449  26.347  31.821  1.00  0.00     0.135 A 
ATOM     89  F   UNL A   1      48.985  28.008  28.626  1.00  0.00    -0.206 F 
ATOM     90  C   UNL A   1      50.527  27.011  30.088  1.00  0.00     0.059 A 
ATOM     91  C   UNL A   1      49.755  26.014  32.164  1.00  0.00     0.059 A 
ATOM     92  F   UNL A   1      47.468  26.014  32.675  1.00  0.00    -0.206 F 
ATOM     93  C   UNL A   1      50.787  26.339  31.284  1.00  0.00     0.060 A 
BRANCH  93  94
ATOM     94  S   UNL A   1      52.496  25.921  31.687  1.00  0.00     0.124 S 
ATOM     95  O   UNL A   1      53.132  25.987  30.375  1.00  0.00    -0.237 OA
ATOM     96  O   UNL A   1      52.863  26.979  32.623  1.00  0.00    -0.237 OA
ATOM     97  O   UNL A   1      52.392  24.586  32.268  1.00  0.00    -0.744 OA
ENDBRANCH  93  94
ENDBRANCH  61  86
ENDBRANCH  35  36
ENDBRANCH  27  30
ENDBRANCH  25  26
ENDBRANCH  24  25
ENDBRANCH   1  24
TORSDOF 18
ENDMDL
MODEL 3
REMARK VINA RESULT:     -11.6      4.970      6.863
REMARK SMILES CC(C)=CCc1cccc2c(C(=O)NCCCCCCNC(=O)c3ccc(-c4c5nc(c(-c6c(F)cc(S(=O)(=O)[O-])cc6F)c6ccc([nH]6)c(-c6c(F)cc(S(=O)(=O)[O-])cc6F)c6nc(c(-c7c(F)cc(S(=O)(=O)[O-])cc7F)c7ccc4[nH]7)C=C6)C=C5)cc3)c[nH]c12
REMARK SMILES IDX 18 1 17 2 16 3 15 4 14 5 12 6 13 7 11 9 6 10 7 11 92 12 8 13
REMARK SMILES IDX 10 14 91 15 9 16 90 17 5 19 4 20 1 21 2 22 3 23 19 24 20 25
REMARK SMILES IDX 21 26 22 27 23 29 24 30 25 31 89 32 26 33 88 34 27 35 28 36
REMARK SMILES IDX 29 37 82 38 30 39 87 40 81 41 83 42 31 43 86 44 80 45 79 46
REMARK SMILES IDX 32 48 66 49 45 50 65 51 46 52 49 53 64 54 84 55 47 56 48 57
REMARK SMILES IDX 63 59 85 60 50 61 33 62 34 63 43 64 35 65 36 66 42 67 44 68
REMARK SMILES IDX 37 69 38 70 39 71 40 72 41 73 67 74 68 75 77 76 69 77 70 78
REMARK SMILES IDX 76 79 78 80 71 81 72 82 73 83 74 84 75 85 51 86 52 87 61 88
REMARK SMILES IDX 53 89 54 90 60 91 62 92 55 93 56 94 57 95 58 96 59 97
REMARK H PARENT 14 8 91 18 21 28 83 47 49 58
REMARK Flexibility Score: inf
ROOT
ATOM      1  C   UNL A   1      34.021  25.972  25.634  1.00  0.00     0.002 C 
ENDROOT
BRANCH   1   2
ATOM      2  C   UNL A   1      33.136  24.821  26.119  1.00  0.00     0.002 C 
BRANCH   2   3
ATOM      3  C   UNL A   1      33.432  23.432  25.551  1.00  0.00     0.021 C 
BRANCH   3   4
ATOM      4  C   UNL A   1      32.422  22.878  24.557  1.00  0.00     0.116 C 
BRANCH   4   5
ATOM      5  N   UNL A   1      32.906  22.695  23.211  1.00  0.00    -0.352 N 
ATOM      6  C   UNL A   1      33.045  23.616  22.197  1.00  0.00     0.253 C 
ATOM      7  O   UNL A   1      33.488  23.197  21.125  1.00  0.00    -0.269 OA
ATOM      8  H   UNL A   1      33.177  21.777  22.984  1.00  0.00     0.163 HD
BRANCH   6   9
ATOM      9  C   UNL A   1      32.593  25.006  22.337  1.00  0.00     0.065 A 
ATOM     10  C   UNL A   1      30.417  27.899  22.882  1.00  0.00    -0.020 A 
ATOM     11  C   UNL A   1      29.266  27.344  23.476  1.00  0.00     0.006 A 
ATOM     12  C   UNL A   1      31.467  26.998  22.602  1.00  0.00     0.050 A 
ATOM     13  C   UNL A   1      29.207  26.013  23.859  1.00  0.00     0.001 A 
ATOM     14  C   UNL A   1      31.416  25.627  22.899  1.00  0.00     0.012 A 
ATOM     15  N   UNL A   1      32.704  27.229  22.049  1.00  0.00    -0.360 N 
ATOM     16  C   UNL A   1      30.293  25.172  23.627  1.00  0.00     0.011 A 
ATOM     17  C   UNL A   1      33.384  26.057  21.890  1.00  0.00     0.097 A 
ATOM     18  H   UNL A   1      33.052  28.116  21.802  1.00  0.00     0.166 HD
BRANCH  10  19
ATOM     19  C   UNL A   1      30.482  29.391  22.639  1.00  0.00     0.065 C 
BRANCH  19  20
ATOM     20  C   UNL A   1      29.418  30.164  23.373  1.00  0.00    -0.024 C 
ATOM     21  C   UNL A   1      28.249  31.050  21.334  1.00  0.00     0.039 C 
ATOM     22  C   UNL A   1      28.428  30.894  22.820  1.00  0.00    -0.080 C 
ATOM     23  C   UNL A   1      27.466  31.642  23.702  1.00  0.00     0.039 C 
ENDBRANCH  19  20
ENDBRANCH  10  19
ENDBRANCH   6   9
ENDBRANCH   4   5
ENDBRANCH   3   4
ENDBRANCH   2   3
ENDBRANCH   1   2
BRANCH   1  24
ATOM     24  C   UNL A   1      33.478  27.392  25.825  1.00  0.00     0.021 C 
BRANCH  24  25
ATOM     25  C   UNL A   1      34.520  28.499  25.940  1.00  0.00     0.116 C 
BRANCH  25  26
ATOM     26  N   UNL A   1      33.951  29.772  26.350  1.00  0.00    -0.352 N 
ATOM     27  C   UNL A   1      34.341  30.626  27.350  1.00  0.00     0.251 C 
ATOM     28  H   UNL A   1      33.166  30.066  25.831  1.00  0.00     0.163 HD
ATOM     29  O   UNL A   1      33.633  31.592  27.636  1.00  0.00    -0.269 OA
BRANCH  27  30
ATOM     30  C   UNL A   1      35.591  30.380  28.102  1.00  0.00     0.039 A 
ATOM     31  C   UNL A   1      35.530  29.630  29.280  1.00  0.00     0.014 A 
ATOM     32  C   UNL A   1      36.815  30.889  27.661  1.00  0.00     0.014 A 
ATOM     33  C   UNL A   1      36.704  29.336  29.978  1.00  0.00     0.010 A 
ATOM     34  C   UNL A   1      37.993  30.535  28.317  1.00  0.00     0.010 A 
ATOM     35  C   UNL A   1      37.951  29.753  29.482  1.00  0.00    -0.014 A 
BRANCH  35  36
ATOM     36  C   UNL A   1      39.217  29.365  30.158  1.00  0.00     0.031 A 
ATOM     37  C   UNL A   1      39.686  30.105  31.381  1.00  0.00     0.074 A 
ATOM     38  C   UNL A   1      39.978  28.385  29.629  1.00  0.00     0.049 A 
ATOM     39  N   UNL A   1      40.792  29.953  32.065  1.00  0.00    -0.248 NA
ATOM     40  C   UNL A   1      38.811  31.174  31.888  1.00  0.00     0.031 C 
ATOM     41  C   UNL A   1      39.653  27.622  28.421  1.00  0.00     0.029 A 
ATOM     42  N   UNL A   1      41.184  27.866  30.031  1.00  0.00    -0.354 N 
ATOM     43  C   UNL A   1      40.750  30.910  33.073  1.00  0.00     0.074 A 
ATOM     44  C   UNL A   1      39.536  31.673  32.878  1.00  0.00     0.031 C 
ATOM     45  C   UNL A   1      40.622  26.722  28.194  1.00  0.00     0.029 A 
ATOM     46  C   UNL A   1      41.658  26.869  29.211  1.00  0.00     0.049 A 
ATOM     47  H   UNL A   1      41.663  28.180  30.832  1.00  0.00     0.167 HD
ATOM     48  C   UNL A   1      41.631  31.118  34.081  1.00  0.00     0.037 A 
ATOM     49  C   UNL A   1      42.803  26.162  29.263  1.00  0.00     0.037 A 
ATOM     50  C   UNL A   1      42.830  30.344  34.275  1.00  0.00     0.049 A 
ATOM     51  C   UNL A   1      43.775  26.422  30.383  1.00  0.00     0.074 A 
ATOM     52  C   UNL A   1      43.760  30.441  35.295  1.00  0.00     0.029 A 
ATOM     53  N   UNL A   1      43.270  29.335  33.430  1.00  0.00    -0.354 N 
ATOM     54  N   UNL A   1      43.688  27.288  31.365  1.00  0.00    -0.248 NA
ATOM     55  C   UNL A   1      44.997  25.606  30.407  1.00  0.00     0.031 C 
ATOM     56  C   UNL A   1      44.790  29.531  35.038  1.00  0.00     0.029 A 
ATOM     57  C   UNL A   1      44.471  28.820  33.891  1.00  0.00     0.049 A 
ATOM     58  H   UNL A   1      42.799  29.029  32.622  1.00  0.00     0.167 HD
ATOM     59  C   UNL A   1      44.827  27.100  32.140  1.00  0.00     0.074 A 
ATOM     60  C   UNL A   1      45.582  26.031  31.519  1.00  0.00     0.031 C 
ATOM     61  C   UNL A   1      45.212  27.751  33.266  1.00  0.00     0.037 A 
BRANCH  48  62
ATOM     62  C   UNL A   1      41.335  32.231  35.052  1.00  0.00     0.058 A 
ATOM     63  C   UNL A   1      41.918  33.502  34.922  1.00  0.00     0.135 A 
ATOM     64  C   UNL A   1      40.425  32.037  36.105  1.00  0.00     0.135 A 
ATOM     65  F   UNL A   1      42.805  33.741  33.941  1.00  0.00    -0.206 F 
ATOM     66  C   UNL A   1      41.638  34.529  35.817  1.00  0.00     0.059 A 
ATOM     67  C   UNL A   1      40.105  33.060  36.994  1.00  0.00     0.059 A 
ATOM     68  F   UNL A   1      39.835  30.844  36.279  1.00  0.00    -0.206 F 
ATOM     69  C   UNL A   1      40.728  34.298  36.850  1.00  0.00     0.060 A 
BRANCH  69  70
ATOM     70  S   UNL A   1      40.375  35.644  38.001  1.00  0.00     0.124 S 
ATOM     71  O   UNL A   1      39.853  36.667  37.100  1.00  0.00    -0.237 OA
ATOM     72  O   UNL A   1      39.402  35.035  38.902  1.00  0.00    -0.237 OA
ATOM     73  O   UNL A   1      41.677  35.936  38.594  1.00  0.00    -0.744 OA
ENDBRANCH  69  70
ENDBRANCH  48  62
BRANCH  49  74
ATOM     74  C   UNL A   1      43.085  25.127  28.231  1.00  0.00     0.058 A 
ATOM     75  C   UNL A   1      43.775  25.449  27.053  1.00  0.00     0.135 A 
ATOM     76  C   UNL A   1      42.686  23.793  28.408  1.00  0.00     0.135 A 
ATOM     77  F   UNL A   1      44.172  26.713  26.834  1.00  0.00    -0.206 F 
ATOM     78  C   UNL A   1      44.046  24.493  26.080  1.00  0.00     0.059 A 
ATOM     79  C   UNL A   1      42.970  22.812  27.463  1.00  0.00     0.059 A 
ATOM     80  F   UNL A   1      42.037  23.427  29.525  1.00  0.00    -0.206 F 
ATOM     81  C   UNL A   1      43.642  23.174  26.297  1.00  0.00     0.060 A 
BRANCH  81  82
ATOM     82  S   UNL A   1      44.042  21.931  25.050  1.00  0.00     0.124 S 
ATOM     83  O   UNL A   1      45.440  21.650  25.352  1.00  0.00    -0.237 OA
ATOM     84  O   UNL A   1      43.093  20.867  25.365  1.00  0.00    -0.237 OA
ATOM     85  O   UNL A   1      43.796  22.628  23.791  1.00  0.00    -0.744 OA
ENDBRANCH  81  82
ENDBRANCH  49  74
BRANCH  61  86
ATOM     86  C   UNL A   1      46.488  27.303  33.927  1.00  0.00     0.058 A 
ATOM     87  C   UNL A   1      47.725  27.898  33.629  1.00  0.00     0.135 A 
ATOM     88  C   UNL A   1      46.462  26.301  34.910  1.00  0.00     0.135 A 
ATOM     89  F   UNL A   1      47.807  28.856  32.693  1.00  0.00    -0.206 F 
ATOM     90  C   UNL A   1      48.894  27.497  34.267  1.00  0.00     0.059 A 
ATOM     91  C   UNL A   1      47.614  25.907  35.583  1.00  0.00     0.059 A 
ATOM     92  F   UNL A   1      45.305  25.707  35.241  1.00  0.00    -0.206 F 
ATOM     93  C   UNL A   1      48.829  26.503  35.245  1.00  0.00     0.060 A 
BRANCH  93  94
ATOM     94  S   UNL A   1      50.350  26.017  36.089  1.00  0.00     0.124 S 
ATOM     95  O   UNL A   1      49.828  25.358  37.281  1.00  0.00    -0.237 OA
ATOM     96  O   UNL A   1      50.984  25.143  35.107  1.00  0.00    -0.237 OA
ATOM     97  O   UNL A   1      51.031  27.288  36.320  1.00  0.00    -0.744 OA
ENDBRANCH  93  94
ENDBRANCH  61  86
ENDBRANCH  35  36
ENDBRANCH  27  30
ENDBRANCH  25  26
ENDBRANCH  24  25
ENDBRANCH   1  24
TORSDOF 18
ENDMDL
