MODEL 1
REMARK VINA RESULT:     -10.7      0.000      0.000
REMARK SMILES COc1cc(C[N@@H+]2CCO[C@@H](CC(=O)NCCCCCCNC(=O)c3ccc(-c4c5nc(c(-c6c(F)cc(S(=O)(=O)[O-])cc6F)c6ccc([nH]6)c(-c6c(F)cc(S(=O)(=O)[O-])cc6F)c6nc(c(-c7c(F)cc(S(=O)(=O)[O-])cc7F)c7ccc4[nH]7)C=C6)C=C5)cc3)C2)ccc1O
REMARK SMILES IDX 18 1 17 2 16 3 15 4 13 5 14 6 12 8 11 9 7 10 8 11 91 12 9 14
REMARK SMILES IDX 10 15 6 16 5 17 3 18 4 19 94 20 93 21 92 22 2 23 1 24 95 25
REMARK SMILES IDX 19 27 20 28 21 29 22 30 23 31 24 33 25 34 26 35 90 36 27 37
REMARK SMILES IDX 89 38 28 39 29 40 30 41 83 42 31 43 88 44 82 45 84 46 32 47
REMARK SMILES IDX 87 48 81 49 80 50 33 52 67 53 46 54 66 55 47 56 50 57 65 58
REMARK SMILES IDX 85 59 48 60 49 61 64 63 86 64 51 65 34 66 35 67 44 68 36 69
REMARK SMILES IDX 37 70 43 71 45 72 38 73 39 74 40 75 41 76 42 77 68 78 69 79
REMARK SMILES IDX 78 80 70 81 71 82 77 83 79 84 72 85 73 86 74 87 75 88 76 89
REMARK SMILES IDX 52 90 53 91 62 92 54 93 55 94 61 95 63 96 56 97 57 98 58 99
REMARK SMILES IDX 59 100 60 101
REMARK H PARENT 15 7 7 13 95 26 22 32 84 51 50 62
REMARK Flexibility Score: inf
ROOT
ATOM      1  C   UNL A   1      42.997  20.486  25.813  1.00  0.00     0.002 C 
ENDROOT
BRANCH   1   2
ATOM      2  C   UNL A   1      41.946  20.347  26.911  1.00  0.00     0.021 C 
BRANCH   2   3
ATOM      3  C   UNL A   1      40.501  20.510  26.430  1.00  0.00     0.116 C 
BRANCH   3   4
ATOM      4  N   UNL A   1      40.010  21.851  26.714  1.00  0.00    -0.356 N 
ATOM      5  C   UNL A   1      38.910  22.501  26.235  1.00  0.00     0.222 C 
ATOM      6  O   UNL A   1      38.758  23.687  26.532  1.00  0.00    -0.275 OA
ATOM      7  H   UNL A   1      40.556  22.368  27.349  1.00  0.00     0.163 HD
BRANCH   5   8
ATOM      8  C   UNL A   1      37.915  21.779  25.351  1.00  0.00     0.138 C 
BRANCH   8   9
ATOM      9  C   UNL A   1      36.460  22.106  25.696  1.00  0.00     0.182 C 
ATOM     10  N   UNL A   1      34.447  23.494  24.940  1.00  0.00    -0.327 N 
ATOM     11  C   UNL A   1      33.675  22.254  25.045  1.00  0.00     0.291 C 
ATOM     12  C   UNL A   1      35.878  23.217  24.796  1.00  0.00     0.295 C 
ATOM     13  H   UNL A   1      34.137  23.922  24.068  1.00  0.00     0.348 HD
ATOM     14  C   UNL A   1      34.318  21.137  25.887  1.00  0.00     0.222 C 
ATOM     15  O   UNL A   1      35.688  20.902  25.529  1.00  0.00    -0.366 OA
BRANCH  10  16
ATOM     16  C   UNL A   1      34.102  24.579  25.861  1.00  0.00     0.299 C 
BRANCH  16  17
ATOM     17  C   UNL A   1      33.843  25.924  25.226  1.00  0.00     0.010 A 
ATOM     18  C   UNL A   1      33.718  28.329  25.410  1.00  0.00     0.160 A 
ATOM     19  C   UNL A   1      33.770  27.078  26.017  1.00  0.00     0.060 A 
ATOM     20  C   UNL A   1      33.657  28.436  24.020  1.00  0.00     0.157 A 
ATOM     21  C   UNL A   1      33.677  27.302  23.223  1.00  0.00     0.051 A 
ATOM     22  C   UNL A   1      33.760  26.046  23.825  1.00  0.00     0.013 A 
BRANCH  18  23
ATOM     23  O   UNL A   1      33.708  29.446  26.200  1.00  0.00    -0.493 OA
ATOM     24  C   UNL A   1      32.382  29.746  26.649  1.00  0.00     0.278 C 
ENDBRANCH  18  23
BRANCH  20  25
ATOM     25  O   UNL A   1      33.573  29.655  23.411  1.00  0.00    -0.504 OA
ATOM     26  H   UNL A   1      33.918  29.773  22.548  1.00  0.00     0.293 HD
ENDBRANCH  20  25
ENDBRANCH  16  17
ENDBRANCH  10  16
ENDBRANCH   8   9
ENDBRANCH   5   8
ENDBRANCH   3   4
ENDBRANCH   2   3
ENDBRANCH   1   2
BRANCH   1  27
ATOM     27  C   UNL A   1      43.860  21.746  25.908  1.00  0.00     0.002 C 
BRANCH  27  28
ATOM     28  C   UNL A   1      43.761  22.515  27.230  1.00  0.00     0.021 C 
BRANCH  28  29
ATOM     29  C   UNL A   1      43.890  24.034  27.114  1.00  0.00     0.116 C 
BRANCH  29  30
ATOM     30  N   UNL A   1      43.130  24.556  25.991  1.00  0.00    -0.352 N 
ATOM     31  C   UNL A   1      42.133  25.494  25.970  1.00  0.00     0.251 C 
ATOM     32  H   UNL A   1      43.367  24.180  25.113  1.00  0.00     0.163 HD
ATOM     33  O   UNL A   1      41.446  25.625  24.952  1.00  0.00    -0.269 OA
BRANCH  31  34
ATOM     34  C   UNL A   1      41.869  26.344  27.149  1.00  0.00     0.039 A 
ATOM     35  C   UNL A   1      42.607  27.519  27.311  1.00  0.00     0.014 A 
ATOM     36  C   UNL A   1      40.935  25.965  28.119  1.00  0.00     0.014 A 
ATOM     37  C   UNL A   1      42.383  28.332  28.425  1.00  0.00     0.010 A 
ATOM     38  C   UNL A   1      40.668  26.808  29.197  1.00  0.00     0.010 A 
ATOM     39  C   UNL A   1      41.398  27.994  29.368  1.00  0.00    -0.014 A 
BRANCH  39  40
ATOM     40  C   UNL A   1      41.135  28.871  30.537  1.00  0.00     0.031 A 
ATOM     41  C   UNL A   1      41.977  28.757  31.780  1.00  0.00     0.074 A 
ATOM     42  C   UNL A   1      40.113  29.749  30.490  1.00  0.00     0.049 A 
ATOM     43  N   UNL A   1      41.893  29.431  32.898  1.00  0.00    -0.248 NA
ATOM     44  C   UNL A   1      43.035  27.736  31.777  1.00  0.00     0.031 C 
ATOM     45  C   UNL A   1      39.191  29.912  29.364  1.00  0.00     0.029 A 
ATOM     46  N   UNL A   1      39.676  30.666  31.412  1.00  0.00    -0.354 N 
ATOM     47  C   UNL A   1      42.876  28.912  33.732  1.00  0.00     0.074 A 
ATOM     48  C   UNL A   1      43.512  27.831  33.009  1.00  0.00     0.031 C 
ATOM     49  C   UNL A   1      38.314  30.888  29.651  1.00  0.00     0.029 A 
ATOM     50  C   UNL A   1      38.593  31.401  30.989  1.00  0.00     0.049 A 
ATOM     51  H   UNL A   1      40.098  30.787  32.294  1.00  0.00     0.167 HD
ATOM     52  C   UNL A   1      43.232  29.314  34.976  1.00  0.00     0.037 A 
ATOM     53  C   UNL A   1      37.905  32.379  31.608  1.00  0.00     0.037 A 
ATOM     54  C   UNL A   1      42.614  30.408  35.679  1.00  0.00     0.049 A 
ATOM     55  C   UNL A   1      38.338  32.827  32.977  1.00  0.00     0.074 A 
ATOM     56  C   UNL A   1      42.943  30.933  36.916  1.00  0.00     0.029 A 
ATOM     57  N   UNL A   1      41.539  31.147  35.206  1.00  0.00    -0.354 N 
ATOM     58  N   UNL A   1      39.316  32.370  33.723  1.00  0.00    -0.248 NA
ATOM     59  C   UNL A   1      37.582  33.930  33.585  1.00  0.00     0.031 C 
ATOM     60  C   UNL A   1      42.044  31.966  37.209  1.00  0.00     0.029 A 
ATOM     61  C   UNL A   1      41.182  32.112  36.133  1.00  0.00     0.049 A 
ATOM     62  H   UNL A   1      41.095  31.006  34.338  1.00  0.00     0.167 HD
ATOM     63  C   UNL A   1      39.309  33.145  34.877  1.00  0.00     0.074 A 
ATOM     64  C   UNL A   1      38.239  34.109  34.722  1.00  0.00     0.031 C 
ATOM     65  C   UNL A   1      40.114  33.065  35.965  1.00  0.00     0.037 A 
BRANCH  52  66
ATOM     66  C   UNL A   1      44.351  28.571  35.655  1.00  0.00     0.058 A 
ATOM     67  C   UNL A   1      44.102  27.472  36.493  1.00  0.00     0.135 A 
ATOM     68  C   UNL A   1      45.689  28.937  35.438  1.00  0.00     0.135 A 
ATOM     69  F   UNL A   1      42.841  27.088  36.747  1.00  0.00    -0.206 F 
ATOM     70  C   UNL A   1      45.137  26.781  37.115  1.00  0.00     0.059 A 
ATOM     71  C   UNL A   1      46.742  28.244  36.029  1.00  0.00     0.059 A 
ATOM     72  F   UNL A   1      45.986  29.979  34.645  1.00  0.00    -0.206 F 
ATOM     73  C   UNL A   1      46.455  27.175  36.878  1.00  0.00     0.060 A 
BRANCH  73  74
ATOM     74  S   UNL A   1      47.788  26.266  37.688  1.00  0.00     0.124 S 
ATOM     75  O   UNL A   1      47.672  26.744  39.062  1.00  0.00    -0.237 OA
ATOM     76  O   UNL A   1      47.398  24.876  37.467  1.00  0.00    -0.237 OA
ATOM     77  O   UNL A   1      48.981  26.701  36.970  1.00  0.00    -0.744 OA
ENDBRANCH  73  74
ENDBRANCH  52  66
BRANCH  53  78
ATOM     78  C   UNL A   1      36.756  33.025  30.921  1.00  0.00     0.058 A 
ATOM     79  C   UNL A   1      35.438  32.786  31.338  1.00  0.00     0.135 A 
ATOM     80  C   UNL A   1      36.953  33.907  29.847  1.00  0.00     0.135 A 
ATOM     81  F   UNL A   1      35.200  31.947  32.357  1.00  0.00    -0.206 F 
ATOM     82  C   UNL A   1      34.353  33.384  30.706  1.00  0.00     0.059 A 
ATOM     83  C   UNL A   1      35.885  34.536  29.214  1.00  0.00     0.059 A 
ATOM     84  F   UNL A   1      38.195  34.183  29.423  1.00  0.00    -0.206 F 
ATOM     85  C   UNL A   1      34.588  34.260  29.644  1.00  0.00     0.060 A 
BRANCH  85  86
ATOM     86  S   UNL A   1      33.178  35.073  28.861  1.00  0.00     0.124 S 
ATOM     87  O   UNL A   1      32.762  34.066  27.891  1.00  0.00    -0.237 OA
ATOM     88  O   UNL A   1      32.278  35.283  29.990  1.00  0.00    -0.237 OA
ATOM     89  O   UNL A   1      33.761  36.287  28.300  1.00  0.00    -0.744 OA
ENDBRANCH  85  86
ENDBRANCH  53  78
BRANCH  65  90
ATOM     90  C   UNL A   1      39.884  34.065  37.063  1.00  0.00     0.058 A 
ATOM     91  C   UNL A   1      40.385  35.375  36.984  1.00  0.00     0.135 A 
ATOM     92  C   UNL A   1      39.128  33.720  38.195  1.00  0.00     0.135 A 
ATOM     93  F   UNL A   1      41.118  35.754  35.926  1.00  0.00    -0.206 F 
ATOM     94  C   UNL A   1      40.172  36.296  38.004  1.00  0.00     0.059 A 
ATOM     95  C   UNL A   1      38.880  34.634  39.214  1.00  0.00     0.059 A 
ATOM     96  F   UNL A   1      38.616  32.484  38.314  1.00  0.00    -0.206 F 
ATOM     97  C   UNL A   1      39.421  35.914  39.117  1.00  0.00     0.060 A 
BRANCH  97  98
ATOM     98  S   UNL A   1      39.138  37.123  40.428  1.00  0.00     0.124 S 
ATOM     99  O   UNL A   1      38.612  38.255  39.674  1.00  0.00    -0.237 OA
ATOM    100  O   UNL A   1      38.181  36.435  41.289  1.00  0.00    -0.237 OA
ATOM    101  O   UNL A   1      40.466  37.314  41.005  1.00  0.00    -0.744 OA
ENDBRANCH  97  98
ENDBRANCH  65  90
ENDBRANCH  39  40
ENDBRANCH  31  34
ENDBRANCH  29  30
ENDBRANCH  28  29
ENDBRANCH  27  28
ENDBRANCH   1  27
TORSDOF 21
ENDMDL
MODEL 2
REMARK VINA RESULT:      -9.9      6.117     11.954
REMARK SMILES COc1cc(C[N@@H+]2CCO[C@@H](CC(=O)NCCCCCCNC(=O)c3ccc(-c4c5nc(c(-c6c(F)cc(S(=O)(=O)[O-])cc6F)c6ccc([nH]6)c(-c6c(F)cc(S(=O)(=O)[O-])cc6F)c6nc(c(-c7c(F)cc(S(=O)(=O)[O-])cc7F)c7ccc4[nH]7)C=C6)C=C5)cc3)C2)ccc1O
REMARK SMILES IDX 18 1 17 2 16 3 15 4 13 5 14 6 12 8 11 9 7 10 8 11 91 12 9 14
REMARK SMILES IDX 10 15 6 16 5 17 3 18 4 19 94 20 93 21 92 22 2 23 1 24 95 25
REMARK SMILES IDX 19 27 20 28 21 29 22 30 23 31 24 33 25 34 26 35 90 36 27 37
REMARK SMILES IDX 89 38 28 39 29 40 30 41 83 42 31 43 88 44 82 45 84 46 32 47
REMARK SMILES IDX 87 48 81 49 80 50 33 52 67 53 46 54 66 55 47 56 50 57 65 58
REMARK SMILES IDX 85 59 48 60 49 61 64 63 86 64 51 65 34 66 35 67 44 68 36 69
REMARK SMILES IDX 37 70 43 71 45 72 38 73 39 74 40 75 41 76 42 77 68 78 69 79
REMARK SMILES IDX 78 80 70 81 71 82 77 83 79 84 72 85 73 86 74 87 75 88 76 89
REMARK SMILES IDX 52 90 53 91 62 92 54 93 55 94 61 95 63 96 56 97 57 98 58 99
REMARK SMILES IDX 59 100 60 101
REMARK H PARENT 15 7 7 13 95 26 22 32 84 51 50 62
REMARK Flexibility Score: inf
ROOT
ATOM      1  C   UNL A   1      36.530  29.853  27.597  1.00  0.00     0.002 C 
ENDROOT
BRANCH   1   2
ATOM      2  C   UNL A   1      35.165  29.276  27.233  1.00  0.00     0.021 C 
BRANCH   2   3
ATOM      3  C   UNL A   1      34.041  30.314  27.143  1.00  0.00     0.116 C 
BRANCH   3   4
ATOM      4  N   UNL A   1      33.305  30.171  25.896  1.00  0.00    -0.356 N 
ATOM      5  C   UNL A   1      32.345  29.267  25.543  1.00  0.00     0.222 C 
ATOM      6  O   UNL A   1      31.943  29.268  24.378  1.00  0.00    -0.275 OA
ATOM      7  H   UNL A   1      33.534  30.828  25.199  1.00  0.00     0.163 HD
BRANCH   5   8
ATOM      8  C   UNL A   1      31.807  28.281  26.559  1.00  0.00     0.138 C 
BRANCH   8   9
ATOM      9  C   UNL A   1      31.727  26.851  26.021  1.00  0.00     0.182 C 
ATOM     10  N   UNL A   1      32.836  24.549  26.170  1.00  0.00    -0.327 N 
ATOM     11  C   UNL A   1      31.488  24.019  26.381  1.00  0.00     0.291 C 
ATOM     12  C   UNL A   1      32.903  25.975  26.500  1.00  0.00     0.295 C 
ATOM     13  H   UNL A   1      33.419  24.059  26.848  1.00  0.00     0.348 HD
ATOM     14  C   UNL A   1      30.333  24.949  25.963  1.00  0.00     0.222 C 
ATOM     15  O   UNL A   1      30.487  26.278  26.480  1.00  0.00    -0.366 OA
BRANCH  10  16
ATOM     16  C   UNL A   1      33.531  24.151  24.943  1.00  0.00     0.299 C 
BRANCH  16  17
ATOM     17  C   UNL A   1      34.488  22.992  25.076  1.00  0.00     0.010 A 
ATOM     18  C   UNL A   1      34.950  20.631  24.859  1.00  0.00     0.160 A 
ATOM     19  C   UNL A   1      34.033  21.676  24.920  1.00  0.00     0.060 A 
ATOM     20  C   UNL A   1      36.312  20.877  25.032  1.00  0.00     0.157 A 
ATOM     21  C   UNL A   1      36.776  22.167  25.237  1.00  0.00     0.051 A 
ATOM     22  C   UNL A   1      35.864  23.224  25.269  1.00  0.00     0.013 A 
BRANCH  18  23
ATOM     23  O   UNL A   1      34.488  19.360  24.645  1.00  0.00    -0.493 OA
ATOM     24  C   UNL A   1      33.240  19.148  25.315  1.00  0.00     0.278 C 
ENDBRANCH  18  23
BRANCH  20  25
ATOM     25  O   UNL A   1      37.220  19.858  25.006  1.00  0.00    -0.504 OA
ATOM     26  H   UNL A   1      37.970  19.912  24.445  1.00  0.00     0.293 HD
ENDBRANCH  20  25
ENDBRANCH  16  17
ENDBRANCH  10  16
ENDBRANCH   8   9
ENDBRANCH   5   8
ENDBRANCH   3   4
ENDBRANCH   2   3
ENDBRANCH   1   2
BRANCH   1  27
ATOM     27  C   UNL A   1      36.927  29.684  29.065  1.00  0.00     0.002 C 
BRANCH  27  28
ATOM     28  C   UNL A   1      36.010  30.376  30.079  1.00  0.00     0.021 C 
BRANCH  28  29
ATOM     29  C   UNL A   1      36.417  30.217  31.543  1.00  0.00     0.116 C 
BRANCH  29  30
ATOM     30  N   UNL A   1      36.743  31.494  32.156  1.00  0.00    -0.352 N 
ATOM     31  C   UNL A   1      37.964  32.053  32.416  1.00  0.00     0.251 C 
ATOM     32  H   UNL A   1      35.968  32.039  32.424  1.00  0.00     0.163 HD
ATOM     33  O   UNL A   1      38.035  33.036  33.160  1.00  0.00    -0.269 OA
BRANCH  31  34
ATOM     34  C   UNL A   1      39.195  31.493  31.820  1.00  0.00     0.039 A 
ATOM     35  C   UNL A   1      39.500  31.798  30.491  1.00  0.00     0.014 A 
ATOM     36  C   UNL A   1      40.022  30.630  32.547  1.00  0.00     0.014 A 
ATOM     37  C   UNL A   1      40.652  31.270  29.904  1.00  0.00     0.010 A 
ATOM     38  C   UNL A   1      41.204  30.154  31.980  1.00  0.00     0.010 A 
ATOM     39  C   UNL A   1      41.524  30.459  30.649  1.00  0.00    -0.014 A 
BRANCH  39  40
ATOM     40  C   UNL A   1      42.766  29.920  30.037  1.00  0.00     0.031 A 
ATOM     41  C   UNL A   1      44.009  30.766  29.966  1.00  0.00     0.074 A 
ATOM     42  C   UNL A   1      42.762  28.678  29.513  1.00  0.00     0.049 A 
ATOM     43  N   UNL A   1      45.181  30.470  29.466  1.00  0.00    -0.248 NA
ATOM     44  C   UNL A   1      43.918  32.131  30.507  1.00  0.00     0.031 C 
ATOM     45  C   UNL A   1      41.603  27.784  29.469  1.00  0.00     0.029 A 
ATOM     46  N   UNL A   1      43.762  27.954  28.915  1.00  0.00    -0.354 N 
ATOM     47  C   UNL A   1      45.961  31.609  29.621  1.00  0.00     0.074 A 
ATOM     48  C   UNL A   1      45.114  32.620  30.216  1.00  0.00     0.031 C 
ATOM     49  C   UNL A   1      41.964  26.623  28.900  1.00  0.00     0.029 A 
ATOM     50  C   UNL A   1      43.370  26.699  28.514  1.00  0.00     0.049 A 
ATOM     51  H   UNL A   1      44.674  28.301  28.785  1.00  0.00     0.167 HD
ATOM     52  C   UNL A   1      47.269  31.790  29.316  1.00  0.00     0.037 A 
ATOM     53  C   UNL A   1      44.065  25.718  27.906  1.00  0.00     0.037 A 
ATOM     54  C   UNL A   1      48.114  30.771  28.748  1.00  0.00     0.049 A 
ATOM     55  C   UNL A   1      45.524  25.933  27.604  1.00  0.00     0.074 A 
ATOM     56  C   UNL A   1      49.466  30.834  28.462  1.00  0.00     0.029 A 
ATOM     57  N   UNL A   1      47.689  29.503  28.382  1.00  0.00    -0.354 N 
ATOM     58  N   UNL A   1      46.263  26.994  27.822  1.00  0.00    -0.248 NA
ATOM     59  C   UNL A   1      46.245  24.812  26.986  1.00  0.00     0.031 C 
ATOM     60  C   UNL A   1      49.851  29.617  27.888  1.00  0.00     0.029 A 
ATOM     61  C   UNL A   1      48.747  28.780  27.857  1.00  0.00     0.049 A 
ATOM     62  H   UNL A   1      46.768  29.165  28.481  1.00  0.00     0.167 HD
ATOM     63  C   UNL A   1      47.542  26.662  27.389  1.00  0.00     0.074 A 
ATOM     64  C   UNL A   1      47.477  25.296  26.912  1.00  0.00     0.031 C 
ATOM     65  C   UNL A   1      48.666  27.419  27.386  1.00  0.00     0.037 A 
BRANCH  52  66
ATOM     66  C   UNL A   1      47.872  33.139  29.600  1.00  0.00     0.058 A 
ATOM     67  C   UNL A   1      48.471  33.433  30.835  1.00  0.00     0.135 A 
ATOM     68  C   UNL A   1      47.883  34.140  28.614  1.00  0.00     0.135 A 
ATOM     69  F   UNL A   1      48.475  32.519  31.818  1.00  0.00    -0.206 F 
ATOM     70  C   UNL A   1      49.034  34.679  31.094  1.00  0.00     0.059 A 
ATOM     71  C   UNL A   1      48.464  35.384  28.842  1.00  0.00     0.059 A 
ATOM     72  F   UNL A   1      47.325  33.914  27.414  1.00  0.00    -0.206 F 
ATOM     73  C   UNL A   1      49.025  35.649  30.091  1.00  0.00     0.060 A 
BRANCH  73  74
ATOM     74  S   UNL A   1      49.763  37.259  30.440  1.00  0.00     0.124 S 
ATOM     75  O   UNL A   1      49.326  38.036  29.284  1.00  0.00    -0.237 OA
ATOM     76  O   UNL A   1      49.145  37.618  31.714  1.00  0.00    -0.237 OA
ATOM     77  O   UNL A   1      51.193  36.972  30.499  1.00  0.00    -0.744 OA
ENDBRANCH  73  74
ENDBRANCH  52  66
BRANCH  53  78
ATOM     78  C   UNL A   1      43.398  24.431  27.576  1.00  0.00     0.058 A 
ATOM     79  C   UNL A   1      42.898  24.188  26.288  1.00  0.00     0.135 A 
ATOM     80  C   UNL A   1      43.263  23.415  28.533  1.00  0.00     0.135 A 
ATOM     81  F   UNL A   1      43.000  25.131  25.340  1.00  0.00    -0.206 F 
ATOM     82  C   UNL A   1      42.272  22.989  25.964  1.00  0.00     0.059 A 
ATOM     83  C   UNL A   1      42.662  22.199  28.227  1.00  0.00     0.059 A 
ATOM     84  F   UNL A   1      43.742  23.593  29.775  1.00  0.00    -0.206 F 
ATOM     85  C   UNL A   1      42.160  21.999  26.942  1.00  0.00     0.060 A 
BRANCH  85  86
ATOM     86  S   UNL A   1      41.393  20.425  26.500  1.00  0.00     0.124 S 
ATOM     87  O   UNL A   1      40.046  20.848  26.133  1.00  0.00    -0.237 OA
ATOM     88  O   UNL A   1      42.240  19.966  25.403  1.00  0.00    -0.237 OA
ATOM     89  O   UNL A   1      41.497  19.645  27.729  1.00  0.00    -0.744 OA
ENDBRANCH  85  86
ENDBRANCH  53  78
BRANCH  65  90
ATOM     90  C   UNL A   1      49.925  26.777  26.875  1.00  0.00     0.058 A 
ATOM     91  C   UNL A   1      50.846  26.167  27.742  1.00  0.00     0.135 A 
ATOM     92  C   UNL A   1      50.199  26.744  25.498  1.00  0.00     0.135 A 
ATOM     93  F   UNL A   1      50.633  26.176  29.067  1.00  0.00    -0.206 F 
ATOM     94  C   UNL A   1      52.011  25.576  27.264  1.00  0.00     0.059 A 
ATOM     95  C   UNL A   1      51.345  26.134  24.996  1.00  0.00     0.059 A 
ATOM     96  F   UNL A   1      49.344  27.302  24.625  1.00  0.00    -0.206 F 
ATOM     97  C   UNL A   1      52.253  25.567  25.889  1.00  0.00     0.060 A 
BRANCH  97  98
ATOM     98  S   UNL A   1      53.760  24.785  25.278  1.00  0.00     0.124 S 
ATOM     99  O   UNL A   1      54.651  24.932  26.425  1.00  0.00    -0.237 OA
ATOM    100  O   UNL A   1      53.315  23.424  24.993  1.00  0.00    -0.237 OA
ATOM    101  O   UNL A   1      54.107  25.584  24.106  1.00  0.00    -0.744 OA
ENDBRANCH  97  98
ENDBRANCH  65  90
ENDBRANCH  39  40
ENDBRANCH  31  34
ENDBRANCH  29  30
ENDBRANCH  28  29
ENDBRANCH  27  28
ENDBRANCH   1  27
TORSDOF 21
ENDMDL
MODEL 3
REMARK VINA RESULT:      -9.8      6.074     12.263
REMARK SMILES COc1cc(C[N@@H+]2CCO[C@@H](CC(=O)NCCCCCCNC(=O)c3ccc(-c4c5nc(c(-c6c(F)cc(S(=O)(=O)[O-])cc6F)c6ccc([nH]6)c(-c6c(F)cc(S(=O)(=O)[O-])cc6F)c6nc(c(-c7c(F)cc(S(=O)(=O)[O-])cc7F)c7ccc4[nH]7)C=C6)C=C5)cc3)C2)ccc1O
REMARK SMILES IDX 18 1 17 2 16 3 15 4 13 5 14 6 12 8 11 9 7 10 8 11 91 12 9 14
REMARK SMILES IDX 10 15 6 16 5 17 3 18 4 19 94 20 93 21 92 22 2 23 1 24 95 25
REMARK SMILES IDX 19 27 20 28 21 29 22 30 23 31 24 33 25 34 26 35 90 36 27 37
REMARK SMILES IDX 89 38 28 39 29 40 30 41 83 42 31 43 88 44 82 45 84 46 32 47
REMARK SMILES IDX 87 48 81 49 80 50 33 52 67 53 46 54 66 55 47 56 50 57 65 58
REMARK SMILES IDX 85 59 48 60 49 61 64 63 86 64 51 65 34 66 35 67 44 68 36 69
REMARK SMILES IDX 37 70 43 71 45 72 38 73 39 74 40 75 41 76 42 77 68 78 69 79
REMARK SMILES IDX 78 80 70 81 71 82 77 83 79 84 72 85 73 86 74 87 75 88 76 89
REMARK SMILES IDX 52 90 53 91 62 92 54 93 55 94 61 95 63 96 56 97 57 98 58 99
REMARK SMILES IDX 59 100 60 101
REMARK H PARENT 15 7 7 13 95 26 22 32 84 51 50 62
REMARK Flexibility Score: inf
ROOT
ATOM      1  C   UNL A   1      39.045  33.622  31.777  1.00  0.00     0.002 C 
ENDROOT
BRANCH   1   2
ATOM      2  C   UNL A   1      38.624  34.502  30.602  1.00  0.00     0.021 C 
BRANCH   2   3
ATOM      3  C   UNL A   1      37.330  34.061  29.911  1.00  0.00     0.116 C 
BRANCH   3   4
ATOM      4  N   UNL A   1      36.406  33.475  30.870  1.00  0.00    -0.356 N 
ATOM      5  C   UNL A   1      35.129  33.025  30.696  1.00  0.00     0.222 C 
ATOM      6  O   UNL A   1      34.494  32.671  31.690  1.00  0.00    -0.275 OA
ATOM      7  H   UNL A   1      36.756  33.389  31.787  1.00  0.00     0.163 HD
BRANCH   5   8
ATOM      8  C   UNL A   1      34.513  32.980  29.313  1.00  0.00     0.138 C 
BRANCH   8   9
ATOM      9  C   UNL A   1      34.408  31.561  28.751  1.00  0.00     0.182 C 
ATOM     10  N   UNL A   1      34.068  30.245  26.582  1.00  0.00    -0.327 N 
ATOM     11  C   UNL A   1      35.244  29.470  26.980  1.00  0.00     0.291 C 
ATOM     12  C   UNL A   1      34.039  31.547  27.252  1.00  0.00     0.295 C 
ATOM     13  H   UNL A   1      34.199  30.425  25.586  1.00  0.00     0.348 HD
ATOM     14  C   UNL A   1      35.633  29.565  28.467  1.00  0.00     0.222 C 
ATOM     15  O   UNL A   1      35.686  30.921  28.933  1.00  0.00    -0.366 OA
BRANCH  10  16
ATOM     16  C   UNL A   1      32.787  29.537  26.518  1.00  0.00     0.299 C 
BRANCH  16  17
ATOM     17  C   UNL A   1      32.495  28.819  25.223  1.00  0.00     0.010 A 
ATOM     18  C   UNL A   1      31.264  27.138  24.001  1.00  0.00     0.160 A 
ATOM     19  C   UNL A   1      31.678  27.681  25.214  1.00  0.00     0.060 A 
ATOM     20  C   UNL A   1      31.724  27.672  22.796  1.00  0.00     0.157 A 
ATOM     21  C   UNL A   1      32.574  28.767  22.788  1.00  0.00     0.051 A 
ATOM     22  C   UNL A   1      32.968  29.335  24.001  1.00  0.00     0.013 A 
BRANCH  18  23
ATOM     23  O   UNL A   1      30.417  26.064  24.014  1.00  0.00    -0.493 OA
ATOM     24  C   UNL A   1      29.055  26.486  24.149  1.00  0.00     0.278 C 
ENDBRANCH  18  23
BRANCH  20  25
ATOM     25  O   UNL A   1      31.352  27.130  21.600  1.00  0.00    -0.504 OA
ATOM     26  H   UNL A   1      31.351  27.659  20.825  1.00  0.00     0.293 HD
ENDBRANCH  20  25
ENDBRANCH  16  17
ENDBRANCH  10  16
ENDBRANCH   8   9
ENDBRANCH   5   8
ENDBRANCH   3   4
ENDBRANCH   2   3
ENDBRANCH   1   2
BRANCH   1  27
ATOM     27  C   UNL A   1      38.837  34.252  33.156  1.00  0.00     0.002 C 
BRANCH  27  28
ATOM     28  C   UNL A   1      38.022  33.414  34.146  1.00  0.00     0.021 C 
BRANCH  28  29
ATOM     29  C   UNL A   1      38.361  31.924  34.176  1.00  0.00     0.116 C 
BRANCH  29  30
ATOM     30  N   UNL A   1      37.307  31.118  33.583  1.00  0.00    -0.352 N 
ATOM     31  C   UNL A   1      37.329  30.344  32.455  1.00  0.00     0.251 C 
ATOM     32  H   UNL A   1      36.449  31.130  34.065  1.00  0.00     0.163 HD
ATOM     33  O   UNL A   1      36.265  29.931  31.983  1.00  0.00    -0.269 OA
BRANCH  31  34
ATOM     34  C   UNL A   1      38.606  30.002  31.796  1.00  0.00     0.039 A 
ATOM     35  C   UNL A   1      38.829  30.442  30.488  1.00  0.00     0.014 A 
ATOM     36  C   UNL A   1      39.562  29.209  32.439  1.00  0.00     0.014 A 
ATOM     37  C   UNL A   1      40.024  30.119  29.841  1.00  0.00     0.010 A 
ATOM     38  C   UNL A   1      40.780  28.941  31.816  1.00  0.00     0.010 A 
ATOM     39  C   UNL A   1      41.019  29.382  30.506  1.00  0.00    -0.014 A 
BRANCH  39  40
ATOM     40  C   UNL A   1      42.304  29.064  29.832  1.00  0.00     0.031 A 
ATOM     41  C   UNL A   1      42.508  27.726  29.174  1.00  0.00     0.074 A 
ATOM     42  C   UNL A   1      43.301  29.972  29.844  1.00  0.00     0.049 A 
ATOM     43  N   UNL A   1      43.560  27.268  28.545  1.00  0.00    -0.248 NA
ATOM     44  C   UNL A   1      41.395  26.768  29.254  1.00  0.00     0.031 C 
ATOM     45  C   UNL A   1      43.243  31.280  30.499  1.00  0.00     0.029 A 
ATOM     46  N   UNL A   1      44.556  29.932  29.294  1.00  0.00    -0.354 N 
ATOM     47  C   UNL A   1      43.241  25.971  28.163  1.00  0.00     0.074 A 
ATOM     48  C   UNL A   1      41.916  25.695  28.676  1.00  0.00     0.031 C 
ATOM     49  C   UNL A   1      44.401  31.928  30.291  1.00  0.00     0.029 A 
ATOM     50  C   UNL A   1      45.292  31.072  29.513  1.00  0.00     0.049 A 
ATOM     51  H   UNL A   1      44.899  29.158  28.789  1.00  0.00     0.167 HD
ATOM     52  C   UNL A   1      43.975  25.097  27.433  1.00  0.00     0.037 A 
ATOM     53  C   UNL A   1      46.541  31.395  29.127  1.00  0.00     0.037 A 
ATOM     54  C   UNL A   1      45.283  25.386  26.902  1.00  0.00     0.049 A 
ATOM     55  C   UNL A   1      47.326  30.418  28.293  1.00  0.00     0.074 A 
ATOM     56  C   UNL A   1      46.081  24.592  26.099  1.00  0.00     0.029 A 
ATOM     57  N   UNL A   1      45.983  26.563  27.121  1.00  0.00    -0.354 N 
ATOM     58  N   UNL A   1      46.980  29.221  27.882  1.00  0.00    -0.248 NA
ATOM     59  C   UNL A   1      48.664  30.841  27.859  1.00  0.00     0.031 C 
ATOM     60  C   UNL A   1      47.281  25.274  25.861  1.00  0.00     0.029 A 
ATOM     61  C   UNL A   1      47.210  26.511  26.482  1.00  0.00     0.049 A 
ATOM     62  H   UNL A   1      45.655  27.325  27.653  1.00  0.00     0.167 HD
ATOM     63  C   UNL A   1      48.048  28.757  27.123  1.00  0.00     0.074 A 
ATOM     64  C   UNL A   1      49.043  29.809  27.118  1.00  0.00     0.031 C 
ATOM     65  C   UNL A   1      48.191  27.568  26.487  1.00  0.00     0.037 A 
BRANCH  52  66
ATOM     66  C   UNL A   1      43.377  23.744  27.156  1.00  0.00     0.058 A 
ATOM     67  C   UNL A   1      42.808  23.431  25.911  1.00  0.00     0.135 A 
ATOM     68  C   UNL A   1      43.403  22.736  28.134  1.00  0.00     0.135 A 
ATOM     69  F   UNL A   1      42.743  24.362  24.946  1.00  0.00    -0.206 F 
ATOM     70  C   UNL A   1      42.262  22.178  25.654  1.00  0.00     0.059 A 
ATOM     71  C   UNL A   1      42.886  21.466  27.889  1.00  0.00     0.059 A 
ATOM     72  F   UNL A   1      43.935  22.978  29.342  1.00  0.00    -0.206 F 
ATOM     73  C   UNL A   1      42.304  21.202  26.650  1.00  0.00     0.060 A 
BRANCH  73  74
ATOM     74  S   UNL A   1      41.595  19.578  26.300  1.00  0.00     0.124 S 
ATOM     75  O   UNL A   1      41.880  18.863  27.540  1.00  0.00    -0.237 OA
ATOM     76  O   UNL A   1      40.190  19.896  26.060  1.00  0.00    -0.237 OA
ATOM     77  O   UNL A   1      42.341  19.128  25.129  1.00  0.00    -0.744 OA
ENDBRANCH  73  74
ENDBRANCH  52  66
BRANCH  53  78
ATOM     78  C   UNL A   1      47.114  32.716  29.497  1.00  0.00     0.058 A 
ATOM     79  C   UNL A   1      47.729  32.912  30.743  1.00  0.00     0.135 A 
ATOM     80  C   UNL A   1      47.075  33.800  28.608  1.00  0.00     0.135 A 
ATOM     81  F   UNL A   1      47.786  31.906  31.628  1.00  0.00    -0.206 F 
ATOM     82  C   UNL A   1      48.269  34.142  31.103  1.00  0.00     0.059 A 
ATOM     83  C   UNL A   1      47.630  35.033  28.936  1.00  0.00     0.059 A 
ATOM     84  F   UNL A   1      46.514  33.657  27.397  1.00  0.00    -0.206 F 
ATOM     85  C   UNL A   1      48.216  35.197  30.190  1.00  0.00     0.060 A 
BRANCH  85  86
ATOM     86  S   UNL A   1      48.966  36.776  30.644  1.00  0.00     0.124 S 
ATOM     87  O   UNL A   1      48.177  37.150  31.813  1.00  0.00    -0.237 OA
ATOM     88  O   UNL A   1      50.351  36.396  30.902  1.00  0.00    -0.237 OA
ATOM     89  O   UNL A   1      48.761  37.598  29.455  1.00  0.00    -0.744 OA
ENDBRANCH  85  86
ENDBRANCH  53  78
BRANCH  65  90
ATOM     90  C   UNL A   1      49.461  27.353  25.712  1.00  0.00     0.058 A 
ATOM     91  C   UNL A   1      50.670  27.036  26.352  1.00  0.00     0.135 A 
ATOM     92  C   UNL A   1      49.462  27.436  24.311  1.00  0.00     0.135 A 
ATOM     93  F   UNL A   1      50.723  26.950  27.690  1.00  0.00    -0.206 F 
ATOM     94  C   UNL A   1      51.843  26.841  25.631  1.00  0.00     0.059 A 
ATOM     95  C   UNL A   1      50.618  27.218  23.567  1.00  0.00     0.059 A 
ATOM     96  F   UNL A   1      48.329  27.725  23.649  1.00  0.00    -0.206 F 
ATOM     97  C   UNL A   1      51.807  26.937  24.238  1.00  0.00     0.060 A 
BRANCH  97  98
ATOM     98  S   UNL A   1      53.333  26.667  23.311  1.00  0.00     0.124 S 
ATOM     99  O   UNL A   1      54.012  27.946  23.488  1.00  0.00    -0.237 OA
ATOM    100  O   UNL A   1      53.928  25.532  24.008  1.00  0.00    -0.237 OA
ATOM    101  O   UNL A   1      52.862  26.388  21.957  1.00  0.00    -0.744 OA
ENDBRANCH  97  98
ENDBRANCH  65  90
ENDBRANCH  39  40
ENDBRANCH  31  34
ENDBRANCH  29  30
ENDBRANCH  28  29
ENDBRANCH  27  28
ENDBRANCH   1  27
TORSDOF 21
ENDMDL
