MODEL 1
REMARK VINA RESULT:     -12.3      0.000      0.000
REMARK SMILES Cc1ccc(C)c(/C=C2\SC(=S)N(CC(=O)NCCCCCCNC(=O)c3ccc(-c4c5nc(c(-c6c(F)cc(S(=O)(=O)[O-])cc6F)c6ccc([nH]6)c(-c6c(F)cc(S(=O)(=O)[O-])cc6F)c6nc(c(-c7c(F)cc(S(=O)(=O)[O-])cc7F)c7ccc4[nH]7)C=C6)C=C5)cc3)C2=O)c1
REMARK SMILES IDX 21 1 20 2 19 3 18 4 17 5 15 6 16 7 14 9 13 10 8 11 9 12
REMARK SMILES IDX 10 13 93 14 11 15 94 16 12 17 7 18 1 19 2 20 3 21 95 22 4 23
REMARK SMILES IDX 5 24 6 25 22 26 23 27 24 28 25 29 26 31 27 32 28 33 92 34
REMARK SMILES IDX 29 35 91 36 30 37 31 38 32 39 85 40 33 41 90 42 84 43 86 44
REMARK SMILES IDX 34 45 89 46 83 47 82 48 35 50 69 51 48 52 68 53 49 54 52 55
REMARK SMILES IDX 67 56 87 57 50 58 51 59 66 61 88 62 53 63 36 64 37 65 46 66
REMARK SMILES IDX 38 67 39 68 45 69 47 70 40 71 41 72 42 73 43 74 44 75 70 76
REMARK SMILES IDX 71 77 80 78 72 79 73 80 79 81 81 82 74 83 75 84 76 85 77 86
REMARK SMILES IDX 78 87 54 88 55 89 64 90 56 91 57 92 63 93 65 94 58 95 59 96
REMARK SMILES IDX 60 97 61 98 62 99
REMARK H PARENT 17 8 24 30 86 49 52 60
REMARK Flexibility Score: inf
ROOT
ATOM      1  C   UNL A   1      36.315  23.283  23.526  1.00  0.00     0.002 C 
ENDROOT
BRANCH   1   2
ATOM      2  C   UNL A   1      34.804  23.482  23.728  1.00  0.00     0.002 C 
BRANCH   2   3
ATOM      3  C   UNL A   1      33.885  23.016  22.597  1.00  0.00     0.021 C 
BRANCH   3   4
ATOM      4  C   UNL A   1      32.399  23.110  22.925  1.00  0.00     0.116 C 
BRANCH   4   5
ATOM      5  N   UNL A   1      32.148  23.153  24.351  1.00  0.00    -0.355 N 
ATOM      6  C   UNL A   1      31.497  24.063  25.127  1.00  0.00     0.240 C 
ATOM      7  O   UNL A   1      31.139  23.672  26.244  1.00  0.00    -0.273 OA
ATOM      8  H   UNL A   1      32.515  22.387  24.849  1.00  0.00     0.163 HD
BRANCH   6   9
ATOM      9  C   UNL A   1      31.019  25.426  24.604  1.00  0.00     0.227 C 
BRANCH   9  10
ATOM     10  N   UNL A   1      31.921  26.549  24.828  1.00  0.00    -0.283 N 
ATOM     11  C   UNL A   1      33.097  28.915  27.274  1.00  0.00     0.029 C 
ATOM     12  C   UNL A   1      32.873  28.249  26.139  1.00  0.00     0.081 C 
ATOM     13  S   UNL A   1      33.724  28.373  24.653  1.00  0.00    -0.054 SA
ATOM     14  C   UNL A   1      31.849  27.177  26.064  1.00  0.00     0.266 C 
ATOM     15  C   UNL A   1      32.764  27.113  23.898  1.00  0.00     0.148 C 
ATOM     16  O   UNL A   1      31.099  26.866  26.968  1.00  0.00    -0.268 OA
ATOM     17  S   UNL A   1      32.944  26.710  22.285  1.00  0.00    -0.052 S 
BRANCH  11  18
ATOM     18  C   UNL A   1      34.212  29.841  27.494  1.00  0.00    -0.021 A 
ATOM     19  C   UNL A   1      37.997  29.717  27.835  1.00  0.00     0.044 C 
ATOM     20  C   UNL A   1      36.596  30.241  27.722  1.00  0.00    -0.051 A 
ATOM     21  C   UNL A   1      36.355  31.618  27.740  1.00  0.00     0.004 A 
ATOM     22  C   UNL A   1      35.522  29.361  27.556  1.00  0.00     0.011 A 
ATOM     23  C   UNL A   1      35.049  32.103  27.697  1.00  0.00     0.004 A 
ATOM     24  C   UNL A   1      33.965  31.218  27.626  1.00  0.00    -0.044 A 
ATOM     25  C   UNL A   1      32.564  31.751  27.663  1.00  0.00     0.045 C 
ENDBRANCH  11  18
ENDBRANCH   9  10
ENDBRANCH   6   9
ENDBRANCH   4   5
ENDBRANCH   3   4
ENDBRANCH   2   3
ENDBRANCH   1   2
BRANCH   1  26
ATOM     26  C   UNL A   1      37.071  22.269  24.405  1.00  0.00     0.021 C 
BRANCH  26  27
ATOM     27  C   UNL A   1      37.539  22.710  25.795  1.00  0.00     0.116 C 
BRANCH  27  28
ATOM     28  N   UNL A   1      38.756  22.027  26.243  1.00  0.00    -0.352 N 
ATOM     29  C   UNL A   1      39.966  22.497  26.721  1.00  0.00     0.251 C 
ATOM     30  H   UNL A   1      38.701  21.045  26.196  1.00  0.00     0.163 HD
ATOM     31  O   UNL A   1      40.947  21.757  26.678  1.00  0.00    -0.269 OA
BRANCH  29  32
ATOM     32  C   UNL A   1      40.094  23.854  27.300  1.00  0.00     0.039 A 
ATOM     33  C   UNL A   1      39.127  24.847  27.111  1.00  0.00     0.014 A 
ATOM     34  C   UNL A   1      41.243  24.166  28.006  1.00  0.00     0.014 A 
ATOM     35  C   UNL A   1      39.334  26.118  27.661  1.00  0.00     0.010 A 
ATOM     36  C   UNL A   1      41.374  25.338  28.694  1.00  0.00     0.010 A 
ATOM     37  C   UNL A   1      40.470  26.353  28.449  1.00  0.00    -0.014 A 
BRANCH  37  38
ATOM     38  C   UNL A   1      40.718  27.605  29.149  1.00  0.00     0.031 A 
ATOM     39  C   UNL A   1      41.780  28.424  28.528  1.00  0.00     0.074 A 
ATOM     40  C   UNL A   1      39.895  28.083  30.111  1.00  0.00     0.049 A 
ATOM     41  N   UNL A   1      42.965  28.622  28.993  1.00  0.00    -0.248 NA
ATOM     42  C   UNL A   1      41.580  28.921  27.159  1.00  0.00     0.031 C 
ATOM     43  C   UNL A   1      38.681  27.457  30.643  1.00  0.00     0.029 A 
ATOM     44  N   UNL A   1      39.919  29.283  30.760  1.00  0.00    -0.354 N 
ATOM     45  C   UNL A   1      43.571  29.490  28.097  1.00  0.00     0.074 A 
ATOM     46  C   UNL A   1      42.784  29.433  26.893  1.00  0.00     0.031 C 
ATOM     47  C   UNL A   1      38.008  28.345  31.408  1.00  0.00     0.029 A 
ATOM     48  C   UNL A   1      38.774  29.572  31.518  1.00  0.00     0.049 A 
ATOM     49  H   UNL A   1      40.683  29.901  30.700  1.00  0.00     0.167 HD
ATOM     50  C   UNL A   1      44.488  30.400  28.527  1.00  0.00     0.037 A 
ATOM     51  C   UNL A   1      38.504  30.743  32.162  1.00  0.00     0.037 A 
ATOM     52  C   UNL A   1      44.921  30.094  29.873  1.00  0.00     0.049 A 
ATOM     53  C   UNL A   1      39.841  31.344  32.425  1.00  0.00     0.074 A 
ATOM     54  C   UNL A   1      45.549  29.023  30.478  1.00  0.00     0.029 A 
ATOM     55  N   UNL A   1      44.337  30.821  30.885  1.00  0.00    -0.354 N 
ATOM     56  N   UNL A   1      40.702  30.827  33.261  1.00  0.00    -0.248 NA
ATOM     57  C   UNL A   1      40.403  32.309  31.488  1.00  0.00     0.031 C 
ATOM     58  C   UNL A   1      44.977  28.934  31.782  1.00  0.00     0.029 A 
ATOM     59  C   UNL A   1      44.068  29.980  31.936  1.00  0.00     0.049 A 
ATOM     60  H   UNL A   1      44.143  31.785  30.859  1.00  0.00     0.167 HD
ATOM     61  C   UNL A   1      41.939  31.052  32.680  1.00  0.00     0.074 A 
ATOM     62  C   UNL A   1      41.706  32.104  31.697  1.00  0.00     0.031 C 
ATOM     63  C   UNL A   1      42.960  30.162  32.852  1.00  0.00     0.037 A 
BRANCH  50  64
ATOM     64  C   UNL A   1      44.679  31.771  27.918  1.00  0.00     0.058 A 
ATOM     65  C   UNL A   1      45.861  32.038  27.198  1.00  0.00     0.135 A 
ATOM     66  C   UNL A   1      43.896  32.904  28.237  1.00  0.00     0.135 A 
ATOM     67  F   UNL A   1      46.687  31.040  26.843  1.00  0.00    -0.206 F 
ATOM     68  C   UNL A   1      46.274  33.336  26.893  1.00  0.00     0.059 A 
ATOM     69  C   UNL A   1      44.256  34.199  27.889  1.00  0.00     0.059 A 
ATOM     70  F   UNL A   1      42.795  32.832  28.995  1.00  0.00    -0.206 F 
ATOM     71  C   UNL A   1      45.471  34.411  27.261  1.00  0.00     0.060 A 
BRANCH  71  72
ATOM     72  S   UNL A   1      46.052  36.092  26.989  1.00  0.00     0.124 S 
ATOM     73  O   UNL A   1      46.750  36.360  28.242  1.00  0.00    -0.237 OA
ATOM     74  O   UNL A   1      46.891  35.935  25.806  1.00  0.00    -0.237 OA
ATOM     75  O   UNL A   1      44.817  36.843  26.781  1.00  0.00    -0.744 OA
ENDBRANCH  71  72
ENDBRANCH  50  64
BRANCH  51  76
ATOM     76  C   UNL A   1      37.221  31.483  32.428  1.00  0.00     0.058 A 
ATOM     77  C   UNL A   1      37.194  32.497  33.413  1.00  0.00     0.135 A 
ATOM     78  C   UNL A   1      36.083  31.443  31.602  1.00  0.00     0.135 A 
ATOM     79  F   UNL A   1      38.171  32.585  34.329  1.00  0.00    -0.206 F 
ATOM     80  C   UNL A   1      36.218  33.499  33.456  1.00  0.00     0.059 A 
ATOM     81  C   UNL A   1      35.089  32.432  31.629  1.00  0.00     0.059 A 
ATOM     82  F   UNL A   1      35.906  30.472  30.701  1.00  0.00    -0.206 F 
ATOM     83  C   UNL A   1      35.195  33.491  32.519  1.00  0.00     0.060 A 
BRANCH  83  84
ATOM     84  S   UNL A   1      34.102  34.924  32.357  1.00  0.00     0.124 S 
ATOM     85  O   UNL A   1      34.804  35.932  33.144  1.00  0.00    -0.237 OA
ATOM     86  O   UNL A   1      34.075  35.153  30.915  1.00  0.00    -0.237 OA
ATOM     87  O   UNL A   1      32.841  34.453  32.925  1.00  0.00    -0.744 OA
ENDBRANCH  83  84
ENDBRANCH  51  76
BRANCH  63  88
ATOM     88  C   UNL A   1      42.808  29.159  33.967  1.00  0.00     0.058 A 
ATOM     89  C   UNL A   1      43.034  29.439  35.328  1.00  0.00     0.135 A 
ATOM     90  C   UNL A   1      42.329  27.881  33.651  1.00  0.00     0.135 A 
ATOM     91  F   UNL A   1      43.391  30.664  35.730  1.00  0.00    -0.206 F 
ATOM     92  C   UNL A   1      42.849  28.476  36.321  1.00  0.00     0.059 A 
ATOM     93  C   UNL A   1      42.105  26.914  34.629  1.00  0.00     0.059 A 
ATOM     94  F   UNL A   1      42.035  27.570  32.379  1.00  0.00    -0.206 F 
ATOM     95  C   UNL A   1      42.388  27.212  35.960  1.00  0.00     0.060 A 
BRANCH  95  96
ATOM     96  S   UNL A   1      42.098  25.983  37.251  1.00  0.00     0.124 S 
ATOM     97  O   UNL A   1      40.699  26.219  37.589  1.00  0.00    -0.237 OA
ATOM     98  O   UNL A   1      42.382  24.726  36.565  1.00  0.00    -0.237 OA
ATOM     99  O   UNL A   1      43.061  26.347  38.288  1.00  0.00    -0.744 OA
ENDBRANCH  95  96
ENDBRANCH  63  88
ENDBRANCH  37  38
ENDBRANCH  29  32
ENDBRANCH  27  28
ENDBRANCH  26  27
ENDBRANCH   1  26
TORSDOF 18
ENDMDL
MODEL 2
REMARK VINA RESULT:     -11.9      2.965      9.648
REMARK SMILES Cc1ccc(C)c(/C=C2\SC(=S)N(CC(=O)NCCCCCCNC(=O)c3ccc(-c4c5nc(c(-c6c(F)cc(S(=O)(=O)[O-])cc6F)c6ccc([nH]6)c(-c6c(F)cc(S(=O)(=O)[O-])cc6F)c6nc(c(-c7c(F)cc(S(=O)(=O)[O-])cc7F)c7ccc4[nH]7)C=C6)C=C5)cc3)C2=O)c1
REMARK SMILES IDX 21 1 20 2 19 3 18 4 17 5 15 6 16 7 14 9 13 10 8 11 9 12
REMARK SMILES IDX 10 13 93 14 11 15 94 16 12 17 7 18 1 19 2 20 3 21 95 22 4 23
REMARK SMILES IDX 5 24 6 25 22 26 23 27 24 28 25 29 26 31 27 32 28 33 92 34
REMARK SMILES IDX 29 35 91 36 30 37 31 38 32 39 85 40 33 41 90 42 84 43 86 44
REMARK SMILES IDX 34 45 89 46 83 47 82 48 35 50 69 51 48 52 68 53 49 54 52 55
REMARK SMILES IDX 67 56 87 57 50 58 51 59 66 61 88 62 53 63 36 64 37 65 46 66
REMARK SMILES IDX 38 67 39 68 45 69 47 70 40 71 41 72 42 73 43 74 44 75 70 76
REMARK SMILES IDX 71 77 80 78 72 79 73 80 79 81 81 82 74 83 75 84 76 85 77 86
REMARK SMILES IDX 78 87 54 88 55 89 64 90 56 91 57 92 63 93 65 94 58 95 59 96
REMARK SMILES IDX 60 97 61 98 62 99
REMARK H PARENT 17 8 24 30 86 49 52 60
REMARK Flexibility Score: inf
ROOT
ATOM      1  C   UNL A   1      33.793  29.088  27.251  1.00  0.00     0.002 C 
ENDROOT
BRANCH   1   2
ATOM      2  C   UNL A   1      33.030  28.155  26.296  1.00  0.00     0.002 C 
BRANCH   2   3
ATOM      3  C   UNL A   1      33.765  27.701  25.035  1.00  0.00     0.021 C 
BRANCH   3   4
ATOM      4  C   UNL A   1      33.634  28.662  23.858  1.00  0.00     0.116 C 
BRANCH   4   5
ATOM      5  N   UNL A   1      32.337  29.307  23.813  1.00  0.00    -0.355 N 
ATOM      6  C   UNL A   1      31.177  28.959  23.189  1.00  0.00     0.240 C 
ATOM      7  O   UNL A   1      30.148  29.505  23.606  1.00  0.00    -0.273 OA
ATOM      8  H   UNL A   1      32.285  30.147  24.323  1.00  0.00     0.163 HD
BRANCH   6   9
ATOM      9  C   UNL A   1      31.076  27.803  22.183  1.00  0.00     0.227 C 
BRANCH   9  10
ATOM     10  N   UNL A   1      31.248  26.463  22.730  1.00  0.00    -0.283 N 
ATOM     11  C   UNL A   1      33.419  23.592  22.811  1.00  0.00     0.029 C 
ATOM     12  C   UNL A   1      32.390  24.426  22.976  1.00  0.00     0.081 C 
ATOM     13  S   UNL A   1      31.056  24.261  24.044  1.00  0.00    -0.054 SA
ATOM     14  C   UNL A   1      32.336  25.731  22.273  1.00  0.00     0.266 C 
ATOM     15  C   UNL A   1      30.380  25.812  23.577  1.00  0.00     0.148 C 
ATOM     16  O   UNL A   1      33.151  26.118  21.458  1.00  0.00    -0.268 OA
ATOM     17  S   UNL A   1      28.905  26.345  24.157  1.00  0.00    -0.052 S 
BRANCH  11  18
ATOM     18  C   UNL A   1      33.653  22.384  23.607  1.00  0.00    -0.021 A 
ATOM     19  C   UNL A   1      32.298  18.841  23.877  1.00  0.00     0.044 C 
ATOM     20  C   UNL A   1      33.142  20.061  24.099  1.00  0.00    -0.051 A 
ATOM     21  C   UNL A   1      34.209  20.027  25.002  1.00  0.00     0.004 A 
ATOM     22  C   UNL A   1      32.898  21.233  23.374  1.00  0.00     0.011 A 
ATOM     23  C   UNL A   1      34.954  21.177  25.253  1.00  0.00     0.004 A 
ATOM     24  C   UNL A   1      34.650  22.377  24.598  1.00  0.00    -0.044 A 
ATOM     25  C   UNL A   1      35.408  23.625  24.938  1.00  0.00     0.045 C 
ENDBRANCH  11  18
ENDBRANCH   9  10
ENDBRANCH   6   9
ENDBRANCH   4   5
ENDBRANCH   3   4
ENDBRANCH   2   3
ENDBRANCH   1   2
BRANCH   1  26
ATOM     26  C   UNL A   1      33.397  30.574  27.339  1.00  0.00     0.021 C 
BRANCH  26  27
ATOM     27  C   UNL A   1      34.493  31.610  27.605  1.00  0.00     0.116 C 
BRANCH  27  28
ATOM     28  N   UNL A   1      34.407  32.220  28.935  1.00  0.00    -0.352 N 
ATOM     29  C   UNL A   1      35.026  31.927  30.137  1.00  0.00     0.251 C 
ATOM     30  H   UNL A   1      33.790  32.986  28.981  1.00  0.00     0.163 HD
ATOM     31  O   UNL A   1      34.519  32.336  31.180  1.00  0.00    -0.269 OA
BRANCH  29  32
ATOM     32  C   UNL A   1      36.290  31.157  30.188  1.00  0.00     0.039 A 
ATOM     33  C   UNL A   1      36.317  29.759  30.238  1.00  0.00     0.014 A 
ATOM     34  C   UNL A   1      37.485  31.851  30.247  1.00  0.00     0.014 A 
ATOM     35  C   UNL A   1      37.551  29.101  30.320  1.00  0.00     0.010 A 
ATOM     36  C   UNL A   1      38.693  31.223  30.147  1.00  0.00     0.010 A 
ATOM     37  C   UNL A   1      38.736  29.849  30.280  1.00  0.00    -0.014 A 
BRANCH  37  38
ATOM     38  C   UNL A   1      40.063  29.251  30.251  1.00  0.00     0.031 A 
ATOM     39  C   UNL A   1      40.625  29.005  31.595  1.00  0.00     0.074 A 
ATOM     40  C   UNL A   1      40.615  28.743  29.125  1.00  0.00     0.049 A 
ATOM     41  N   UNL A   1      41.584  29.657  32.157  1.00  0.00    -0.248 NA
ATOM     42  C   UNL A   1      39.931  28.067  32.491  1.00  0.00     0.031 C 
ATOM     43  C   UNL A   1      40.044  28.728  27.775  1.00  0.00     0.029 A 
ATOM     44  N   UNL A   1      41.776  28.045  28.963  1.00  0.00    -0.354 N 
ATOM     45  C   UNL A   1      41.789  29.032  33.378  1.00  0.00     0.074 A 
ATOM     46  C   UNL A   1      40.606  28.251  33.628  1.00  0.00     0.031 C 
ATOM     47  C   UNL A   1      40.779  27.924  26.976  1.00  0.00     0.029 A 
ATOM     48  C   UNL A   1      41.935  27.439  27.707  1.00  0.00     0.049 A 
ATOM     49  H   UNL A   1      42.453  27.972  29.674  1.00  0.00     0.167 HD
ATOM     50  C   UNL A   1      43.033  28.978  33.928  1.00  0.00     0.037 A 
ATOM     51  C   UNL A   1      42.943  26.599  27.334  1.00  0.00     0.037 A 
ATOM     52  C   UNL A   1      43.931  29.889  33.254  1.00  0.00     0.049 A 
ATOM     53  C   UNL A   1      44.080  26.960  28.226  1.00  0.00     0.074 A 
ATOM     54  C   UNL A   1      43.969  31.255  33.053  1.00  0.00     0.029 A 
ATOM     55  N   UNL A   1      44.773  29.338  32.316  1.00  0.00    -0.354 N 
ATOM     56  N   UNL A   1      44.708  28.103  28.152  1.00  0.00    -0.248 NA
ATOM     57  C   UNL A   1      44.296  26.223  29.466  1.00  0.00     0.031 C 
ATOM     58  C   UNL A   1      44.517  31.433  31.748  1.00  0.00     0.029 A 
ATOM     59  C   UNL A   1      44.840  30.178  31.232  1.00  0.00     0.049 A 
ATOM     60  H   UNL A   1      45.249  28.482  32.406  1.00  0.00     0.167 HD
ATOM     61  C   UNL A   1      45.017  28.423  29.465  1.00  0.00     0.074 A 
ATOM     62  C   UNL A   1      44.897  27.166  30.196  1.00  0.00     0.031 C 
ATOM     63  C   UNL A   1      45.055  29.725  29.873  1.00  0.00     0.037 A 
BRANCH  50  64
ATOM     64  C   UNL A   1      43.542  27.831  34.773  1.00  0.00     0.058 A 
ATOM     65  C   UNL A   1      44.059  28.106  36.056  1.00  0.00     0.135 A 
ATOM     66  C   UNL A   1      43.800  26.531  34.283  1.00  0.00     0.135 A 
ATOM     67  F   UNL A   1      43.879  29.311  36.621  1.00  0.00    -0.206 F 
ATOM     68  C   UNL A   1      44.841  27.190  36.759  1.00  0.00     0.059 A 
ATOM     69  C   UNL A   1      44.523  25.581  34.993  1.00  0.00     0.059 A 
ATOM     70  F   UNL A   1      43.460  26.142  33.049  1.00  0.00    -0.206 F 
ATOM     71  C   UNL A   1      45.082  25.935  36.208  1.00  0.00     0.060 A 
BRANCH  71  72
ATOM     72  S   UNL A   1      46.193  24.793  37.044  1.00  0.00     0.124 S 
ATOM     73  O   UNL A   1      45.283  23.706  37.386  1.00  0.00    -0.237 OA
ATOM     74  O   UNL A   1      47.173  24.507  36.002  1.00  0.00    -0.237 OA
ATOM     75  O   UNL A   1      46.692  25.576  38.170  1.00  0.00    -0.744 OA
ENDBRANCH  71  72
ENDBRANCH  50  64
BRANCH  51  76
ATOM     76  C   UNL A   1      42.986  25.411  26.414  1.00  0.00     0.058 A 
ATOM     77  C   UNL A   1      43.960  25.358  25.390  1.00  0.00     0.135 A 
ATOM     78  C   UNL A   1      42.303  24.200  26.630  1.00  0.00     0.135 A 
ATOM     79  F   UNL A   1      44.617  26.467  25.015  1.00  0.00    -0.206 F 
ATOM     80  C   UNL A   1      44.355  24.168  24.767  1.00  0.00     0.059 A 
ATOM     81  C   UNL A   1      42.675  22.996  26.014  1.00  0.00     0.059 A 
ATOM     82  F   UNL A   1      41.275  24.118  27.481  1.00  0.00    -0.206 F 
ATOM     83  C   UNL A   1      43.743  22.977  25.129  1.00  0.00     0.060 A 
BRANCH  83  84
ATOM     84  S   UNL A   1      44.431  21.398  24.572  1.00  0.00     0.124 S 
ATOM     85  O   UNL A   1      44.527  21.601  23.131  1.00  0.00    -0.237 OA
ATOM     86  O   UNL A   1      45.702  21.325  25.287  1.00  0.00    -0.237 OA
ATOM     87  O   UNL A   1      43.430  20.424  25.001  1.00  0.00    -0.744 OA
ENDBRANCH  83  84
ENDBRANCH  51  76
BRANCH  63  88
ATOM     88  C   UNL A   1      45.118  30.776  28.792  1.00  0.00     0.058 A 
ATOM     89  C   UNL A   1      46.293  31.153  28.115  1.00  0.00     0.135 A 
ATOM     90  C   UNL A   1      43.920  31.363  28.365  1.00  0.00     0.135 A 
ATOM     91  F   UNL A   1      47.463  30.566  28.386  1.00  0.00    -0.206 F 
ATOM     92  C   UNL A   1      46.286  32.113  27.102  1.00  0.00     0.059 A 
ATOM     93  C   UNL A   1      43.884  32.299  27.333  1.00  0.00     0.059 A 
ATOM     94  F   UNL A   1      42.756  31.001  28.928  1.00  0.00    -0.206 F 
ATOM     95  C   UNL A   1      45.074  32.684  26.721  1.00  0.00     0.060 A 
BRANCH  95  96
ATOM     96  S   UNL A   1      45.057  33.887  25.374  1.00  0.00     0.124 S 
ATOM     97  O   UNL A   1      46.465  34.258  25.276  1.00  0.00    -0.237 OA
ATOM     98  O   UNL A   1      44.528  33.110  24.258  1.00  0.00    -0.237 OA
ATOM     99  O   UNL A   1      44.168  34.936  25.867  1.00  0.00    -0.744 OA
ENDBRANCH  95  96
ENDBRANCH  63  88
ENDBRANCH  37  38
ENDBRANCH  29  32
ENDBRANCH  27  28
ENDBRANCH  26  27
ENDBRANCH   1  26
TORSDOF 18
ENDMDL
MODEL 3
REMARK VINA RESULT:     -11.8      2.921      9.504
REMARK SMILES Cc1ccc(C)c(/C=C2\SC(=S)N(CC(=O)NCCCCCCNC(=O)c3ccc(-c4c5nc(c(-c6c(F)cc(S(=O)(=O)[O-])cc6F)c6ccc([nH]6)c(-c6c(F)cc(S(=O)(=O)[O-])cc6F)c6nc(c(-c7c(F)cc(S(=O)(=O)[O-])cc7F)c7ccc4[nH]7)C=C6)C=C5)cc3)C2=O)c1
REMARK SMILES IDX 21 1 20 2 19 3 18 4 17 5 15 6 16 7 14 9 13 10 8 11 9 12
REMARK SMILES IDX 10 13 93 14 11 15 94 16 12 17 7 18 1 19 2 20 3 21 95 22 4 23
REMARK SMILES IDX 5 24 6 25 22 26 23 27 24 28 25 29 26 31 27 32 28 33 92 34
REMARK SMILES IDX 29 35 91 36 30 37 31 38 32 39 85 40 33 41 90 42 84 43 86 44
REMARK SMILES IDX 34 45 89 46 83 47 82 48 35 50 69 51 48 52 68 53 49 54 52 55
REMARK SMILES IDX 67 56 87 57 50 58 51 59 66 61 88 62 53 63 36 64 37 65 46 66
REMARK SMILES IDX 38 67 39 68 45 69 47 70 40 71 41 72 42 73 43 74 44 75 70 76
REMARK SMILES IDX 71 77 80 78 72 79 73 80 79 81 81 82 74 83 75 84 76 85 77 86
REMARK SMILES IDX 78 87 54 88 55 89 64 90 56 91 57 92 63 93 65 94 58 95 59 96
REMARK SMILES IDX 60 97 61 98 62 99
REMARK H PARENT 17 8 24 30 86 49 52 60
REMARK Flexibility Score: inf
ROOT
ATOM      1  C   UNL A   1      32.564  28.431  24.941  1.00  0.00     0.002 C 
ENDROOT
BRANCH   1   2
ATOM      2  C   UNL A   1      31.378  27.453  24.899  1.00  0.00     0.002 C 
BRANCH   2   3
ATOM      3  C   UNL A   1      30.942  26.949  23.523  1.00  0.00     0.021 C 
BRANCH   3   4
ATOM      4  C   UNL A   1      30.638  25.455  23.475  1.00  0.00     0.116 C 
BRANCH   4   5
ATOM      5  N   UNL A   1      31.664  24.704  22.783  1.00  0.00    -0.355 N 
ATOM      6  C   UNL A   1      32.590  23.812  23.233  1.00  0.00     0.240 C 
ATOM      7  O   UNL A   1      33.098  23.074  22.380  1.00  0.00    -0.273 OA
ATOM      8  H   UNL A   1      31.699  24.867  21.813  1.00  0.00     0.163 HD
BRANCH   6   9
ATOM      9  C   UNL A   1      32.854  23.552  24.724  1.00  0.00     0.227 C 
BRANCH   9  10
ATOM     10  N   UNL A   1      34.170  23.022  25.057  1.00  0.00    -0.283 N 
ATOM     11  C   UNL A   1      37.558  23.911  25.891  1.00  0.00     0.029 C 
ATOM     12  C   UNL A   1      36.450  23.235  25.579  1.00  0.00     0.081 C 
ATOM     13  S   UNL A   1      36.180  21.542  25.675  1.00  0.00    -0.054 SA
ATOM     14  C   UNL A   1      35.205  23.939  25.179  1.00  0.00     0.266 C 
ATOM     15  C   UNL A   1      34.509  21.692  25.159  1.00  0.00     0.148 C 
ATOM     16  O   UNL A   1      35.101  25.141  25.033  1.00  0.00    -0.268 OA
ATOM     17  S   UNL A   1      33.544  20.354  24.887  1.00  0.00    -0.052 S 
BRANCH  11  18
ATOM     18  C   UNL A   1      38.760  23.317  26.482  1.00  0.00    -0.021 A 
ATOM     19  C   UNL A   1      40.666  20.029  26.369  1.00  0.00     0.044 C 
ATOM     20  C   UNL A   1      40.299  21.448  26.683  1.00  0.00    -0.051 A 
ATOM     21  C   UNL A   1      41.143  22.238  27.469  1.00  0.00     0.004 A 
ATOM     22  C   UNL A   1      39.129  22.010  26.158  1.00  0.00     0.011 A 
ATOM     23  C   UNL A   1      40.772  23.538  27.811  1.00  0.00     0.004 A 
ATOM     24  C   UNL A   1      39.555  24.069  27.364  1.00  0.00    -0.044 A 
ATOM     25  C   UNL A   1      39.132  25.438  27.807  1.00  0.00     0.045 C 
ENDBRANCH  11  18
ENDBRANCH   9  10
ENDBRANCH   6   9
ENDBRANCH   4   5
ENDBRANCH   3   4
ENDBRANCH   2   3
ENDBRANCH   1   2
BRANCH   1  26
ATOM     26  C   UNL A   1      33.771  28.122  25.846  1.00  0.00     0.021 C 
BRANCH  26  27
ATOM     27  C   UNL A   1      33.766  28.653  27.282  1.00  0.00     0.116 C 
BRANCH  27  28
ATOM     28  N   UNL A   1      33.736  30.117  27.361  1.00  0.00    -0.352 N 
ATOM     29  C   UNL A   1      34.588  31.035  27.948  1.00  0.00     0.251 C 
ATOM     30  H   UNL A   1      32.962  30.524  26.910  1.00  0.00     0.163 HD
ATOM     31  O   UNL A   1      34.163  32.161  28.198  1.00  0.00    -0.269 OA
BRANCH  29  32
ATOM     32  C   UNL A   1      35.997  30.698  28.254  1.00  0.00     0.039 A 
ATOM     33  C   UNL A   1      36.818  31.525  29.029  1.00  0.00     0.014 A 
ATOM     34  C   UNL A   1      36.537  29.548  27.704  1.00  0.00     0.014 A 
ATOM     35  C   UNL A   1      38.151  31.157  29.248  1.00  0.00     0.010 A 
ATOM     36  C   UNL A   1      37.774  29.090  28.055  1.00  0.00     0.010 A 
ATOM     37  C   UNL A   1      38.620  29.934  28.747  1.00  0.00    -0.014 A 
BRANCH  37  38
ATOM     38  C   UNL A   1      39.955  29.416  29.013  1.00  0.00     0.031 A 
ATOM     39  C   UNL A   1      40.209  29.158  30.445  1.00  0.00     0.074 A 
ATOM     40  C   UNL A   1      40.781  28.980  28.034  1.00  0.00     0.049 A 
ATOM     41  N   UNL A   1      40.971  29.846  31.225  1.00  0.00    -0.248 NA
ATOM     42  C   UNL A   1      39.391  28.151  31.138  1.00  0.00     0.031 C 
ATOM     43  C   UNL A   1      40.535  28.977  26.589  1.00  0.00     0.029 A 
ATOM     44  N   UNL A   1      41.991  28.357  28.129  1.00  0.00    -0.354 N 
ATOM     45  C   UNL A   1      40.931  29.193  32.448  1.00  0.00     0.074 A 
ATOM     46  C   UNL A   1      39.775  28.336  32.404  1.00  0.00     0.031 C 
ATOM     47  C   UNL A   1      41.484  28.245  25.965  1.00  0.00     0.029 A 
ATOM     48  C   UNL A   1      42.471  27.804  26.933  1.00  0.00     0.049 A 
ATOM     49  H   UNL A   1      42.491  28.300  28.975  1.00  0.00     0.167 HD
ATOM     50  C   UNL A   1      42.017  29.193  33.268  1.00  0.00     0.037 A 
ATOM     51  C   UNL A   1      43.590  27.039  26.785  1.00  0.00     0.037 A 
ATOM     52  C   UNL A   1      42.985  30.178  32.837  1.00  0.00     0.049 A 
ATOM     53  C   UNL A   1      44.467  27.435  27.921  1.00  0.00     0.074 A 
ATOM     54  C   UNL A   1      42.978  31.550  32.677  1.00  0.00     0.029 A 
ATOM     55  N   UNL A   1      44.052  29.709  32.106  1.00  0.00    -0.354 N 
ATOM     56  N   UNL A   1      45.020  28.615  28.016  1.00  0.00    -0.248 NA
ATOM     57  C   UNL A   1      44.442  26.670  29.163  1.00  0.00     0.031 C 
ATOM     58  C   UNL A   1      43.798  31.804  31.537  1.00  0.00     0.029 A 
ATOM     59  C   UNL A   1      44.310  30.588  31.084  1.00  0.00     0.049 A 
ATOM     60  H   UNL A   1      44.550  28.880  32.288  1.00  0.00     0.167 HD
ATOM     61  C   UNL A   1      45.000  28.907  29.371  1.00  0.00     0.074 A 
ATOM     62  C   UNL A   1      44.798  27.622  30.030  1.00  0.00     0.031 C 
ATOM     63  C   UNL A   1      44.859  30.195  29.802  1.00  0.00     0.037 A 
BRANCH  50  64
ATOM     64  C   UNL A   1      42.394  28.050  34.185  1.00  0.00     0.058 A 
ATOM     65  C   UNL A   1      42.410  28.271  35.577  1.00  0.00     0.135 A 
ATOM     66  C   UNL A   1      42.999  26.847  33.755  1.00  0.00     0.135 A 
ATOM     67  F   UNL A   1      41.869  29.382  36.100  1.00  0.00    -0.206 F 
ATOM     68  C   UNL A   1      43.051  27.404  36.464  1.00  0.00     0.059 A 
ATOM     69  C   UNL A   1      43.588  25.940  34.626  1.00  0.00     0.059 A 
ATOM     70  F   UNL A   1      43.148  26.534  32.463  1.00  0.00    -0.206 F 
ATOM     71  C   UNL A   1      43.653  26.250  35.973  1.00  0.00     0.060 A 
BRANCH  71  72
ATOM     72  S   UNL A   1      44.592  25.192  37.085  1.00  0.00     0.124 S 
ATOM     73  O   UNL A   1      43.738  25.189  38.267  1.00  0.00    -0.237 OA
ATOM     74  O   UNL A   1      44.656  23.943  36.334  1.00  0.00    -0.237 OA
ATOM     75  O   UNL A   1      45.862  25.898  37.225  1.00  0.00    -0.744 OA
ENDBRANCH  71  72
ENDBRANCH  50  64
BRANCH  51  76
ATOM     76  C   UNL A   1      43.919  25.886  25.876  1.00  0.00     0.058 A 
ATOM     77  C   UNL A   1      45.265  25.475  25.735  1.00  0.00     0.135 A 
ATOM     78  C   UNL A   1      42.977  24.993  25.335  1.00  0.00     0.135 A 
ATOM     79  F   UNL A   1      46.269  26.277  26.119  1.00  0.00    -0.206 F 
ATOM     80  C   UNL A   1      45.634  24.207  25.270  1.00  0.00     0.059 A 
ATOM     81  C   UNL A   1      43.322  23.720  24.859  1.00  0.00     0.059 A 
ATOM     82  F   UNL A   1      41.675  25.294  25.286  1.00  0.00    -0.206 F 
ATOM     83  C   UNL A   1      44.647  23.311  24.886  1.00  0.00     0.060 A 
BRANCH  83  84
ATOM     84  S   UNL A   1      45.067  21.578  24.573  1.00  0.00     0.124 S 
ATOM     85  O   UNL A   1      44.271  20.886  25.581  1.00  0.00    -0.237 OA
ATOM     86  O   UNL A   1      44.642  21.384  23.189  1.00  0.00    -0.237 OA
ATOM     87  O   UNL A   1      46.512  21.538  24.781  1.00  0.00    -0.744 OA
ENDBRANCH  83  84
ENDBRANCH  51  76
BRANCH  63  88
ATOM     88  C   UNL A   1      45.099  31.284  28.785  1.00  0.00     0.058 A 
ATOM     89  C   UNL A   1      46.365  31.802  28.457  1.00  0.00     0.135 A 
ATOM     90  C   UNL A   1      44.005  31.760  28.051  1.00  0.00     0.135 A 
ATOM     91  F   UNL A   1      47.475  31.328  29.034  1.00  0.00    -0.206 F 
ATOM     92  C   UNL A   1      46.529  32.791  27.486  1.00  0.00     0.059 A 
ATOM     93  C   UNL A   1      44.149  32.723  27.054  1.00  0.00     0.059 A 
ATOM     94  F   UNL A   1      42.778  31.262  28.274  1.00  0.00    -0.206 F 
ATOM     95  C   UNL A   1      45.412  33.249  26.792  1.00  0.00     0.060 A 
BRANCH  95  96
ATOM     96  S   UNL A   1      45.631  34.490  25.498  1.00  0.00     0.124 S 
ATOM     97  O   UNL A   1      44.687  34.041  24.480  1.00  0.00    -0.237 OA
ATOM     98  O   UNL A   1      45.283  35.731  26.183  1.00  0.00    -0.237 OA
ATOM     99  O   UNL A   1      47.042  34.362  25.141  1.00  0.00    -0.744 OA
ENDBRANCH  95  96
ENDBRANCH  63  88
ENDBRANCH  37  38
ENDBRANCH  29  32
ENDBRANCH  27  28
ENDBRANCH  26  27
ENDBRANCH   1  26
TORSDOF 18
ENDMDL
