MODEL 1
REMARK VINA RESULT:     -11.6      0.000      0.000
REMARK SMILES CCc1ccc(N2C(=O)C[C@@H](SC[C@@H](NC(C)=O)C(=O)NCCCCCCNC(=O)c3ccc(-c4c5nc(c(-c6c(F)cc(S(=O)(=O)[O-])cc6F)c6ccc([nH]6)c(-c6c(F)cc(S(=O)(=O)[O-])cc6F)c6nc(c(-c7c(F)cc(S(=O)(=O)[O-])cc7F)c7ccc4[nH]7)C=C6)C=C5)cc3)C2=O)cc1
REMARK SMILES IDX 23 1 22 2 21 3 19 4 20 5 14 7 13 8 12 9 11 10 7 11 8 12
REMARK SMILES IDX 97 13 9 14 10 15 98 16 6 17 3 18 4 19 100 20 5 21 99 22 2 23
REMARK SMILES IDX 1 24 15 25 16 26 17 28 18 29 24 30 25 31 26 32 27 33 28 34
REMARK SMILES IDX 29 35 30 37 31 38 32 39 96 40 33 41 95 42 34 43 35 44 36 45
REMARK SMILES IDX 89 46 37 47 94 48 88 49 90 50 38 51 93 52 87 53 86 54 39 56
REMARK SMILES IDX 73 57 52 58 72 59 53 60 56 61 71 62 91 63 54 64 55 65 70 67
REMARK SMILES IDX 92 68 57 69 40 70 41 71 50 72 42 73 43 74 49 75 51 76 44 77
REMARK SMILES IDX 45 78 46 79 47 80 48 81 74 82 75 83 84 84 76 85 77 86 83 87
REMARK SMILES IDX 85 88 78 89 79 90 80 91 81 92 82 93 58 94 59 95 68 96 60 97
REMARK SMILES IDX 61 98 67 99 69 100 62 101 63 102 64 103 65 104 66 105
REMARK H PARENT 21 6 15 27 28 36 90 55 56 66
REMARK Flexibility Score: inf
ROOT
ATOM      1  C   UNL A   1      36.645  20.844  25.179  1.00  0.00     0.021 C 
ENDROOT
BRANCH   1   2
ATOM      2  C   UNL A   1      35.253  21.161  25.702  1.00  0.00     0.116 C 
BRANCH   2   3
ATOM      3  N   UNL A   1      34.253  20.695  24.763  1.00  0.00    -0.354 N 
ATOM      4  C   UNL A   1      33.004  21.184  24.515  1.00  0.00     0.243 C 
ATOM      5  O   UNL A   1      32.243  20.501  23.822  1.00  0.00    -0.273 OA
ATOM      6  H   UNL A   1      34.511  19.911  24.227  1.00  0.00     0.163 HD
BRANCH   4   7
ATOM      7  C   UNL A   1      32.498  22.440  25.253  1.00  0.00     0.181 C 
BRANCH   7   8
ATOM      8  C   UNL A   1      32.352  23.547  24.166  1.00  0.00     0.105 C 
BRANCH   8   9
ATOM      9  S   UNL A   1      30.775  23.801  23.230  1.00  0.00    -0.145 SA
BRANCH   9  10
ATOM     10  C   UNL A   1      30.989  25.489  22.559  1.00  0.00     0.146 C 
ATOM     11  N   UNL A   1      32.328  26.967  23.804  1.00  0.00    -0.250 N 
ATOM     12  C   UNL A   1      33.039  26.745  22.660  1.00  0.00     0.235 C 
ATOM     13  C   UNL A   1      31.088  26.413  23.738  1.00  0.00     0.247 C 
ATOM     14  O   UNL A   1      34.106  27.244  22.323  1.00  0.00    -0.274 OA
ATOM     15  C   UNL A   1      32.291  25.745  21.813  1.00  0.00     0.125 C 
ATOM     16  O   UNL A   1      30.138  26.661  24.471  1.00  0.00    -0.273 OA
BRANCH  11  17
ATOM     17  C   UNL A   1      32.675  27.805  24.880  1.00  0.00     0.052 A 
ATOM     18  C   UNL A   1      33.591  29.596  26.857  1.00  0.00    -0.048 A 
ATOM     19  C   UNL A   1      32.891  30.069  25.740  1.00  0.00     0.006 A 
ATOM     20  C   UNL A   1      33.782  28.212  26.990  1.00  0.00     0.006 A 
ATOM     21  C   UNL A   1      32.458  29.186  24.755  1.00  0.00     0.027 A 
ATOM     22  C   UNL A   1      33.310  27.317  26.019  1.00  0.00     0.027 A 
BRANCH  18  23
ATOM     23  C   UNL A   1      34.041  30.603  27.888  1.00  0.00     0.032 C 
ATOM     24  C   UNL A   1      35.259  31.436  27.517  1.00  0.00     0.009 C 
ENDBRANCH  18  23
ENDBRANCH  11  17
ENDBRANCH   9  10
ENDBRANCH   8   9
ENDBRANCH   7   8
BRANCH   7  25
ATOM     25  N   UNL A   1      31.257  22.167  25.993  1.00  0.00    -0.344 N 
ATOM     26  C   UNL A   1      30.666  23.062  26.859  1.00  0.00     0.217 C 
ATOM     27  H   UNL A   1      30.823  21.292  25.863  1.00  0.00     0.164 HD
ATOM     28  C   UNL A   1      29.304  22.613  27.334  1.00  0.00     0.114 C 
ATOM     29  O   UNL A   1      31.202  24.080  27.278  1.00  0.00    -0.275 OA
ENDBRANCH   7  25
ENDBRANCH   4   7
ENDBRANCH   2   3
ENDBRANCH   1   2
BRANCH   1  30
ATOM     30  C   UNL A   1      37.401  22.091  24.714  1.00  0.00     0.002 C 
BRANCH  30  31
ATOM     31  C   UNL A   1      38.055  22.885  25.850  1.00  0.00     0.002 C 
BRANCH  31  32
ATOM     32  C   UNL A   1      39.333  22.256  26.410  1.00  0.00     0.021 C 
BRANCH  32  33
ATOM     33  C   UNL A   1      40.282  23.257  27.055  1.00  0.00     0.116 C 
BRANCH  33  34
ATOM     34  N   UNL A   1      41.183  23.846  26.079  1.00  0.00    -0.352 N 
ATOM     35  C   UNL A   1      41.673  25.124  26.023  1.00  0.00     0.251 C 
ATOM     36  H   UNL A   1      41.483  23.244  25.360  1.00  0.00     0.163 HD
ATOM     37  O   UNL A   1      42.243  25.523  25.013  1.00  0.00    -0.269 OA
BRANCH  35  38
ATOM     38  C   UNL A   1      41.495  26.015  27.187  1.00  0.00     0.039 A 
ATOM     39  C   UNL A   1      42.396  27.062  27.380  1.00  0.00     0.014 A 
ATOM     40  C   UNL A   1      40.439  25.811  28.082  1.00  0.00     0.014 A 
ATOM     41  C   UNL A   1      42.217  27.929  28.458  1.00  0.00     0.010 A 
ATOM     42  C   UNL A   1      40.215  26.726  29.104  1.00  0.00     0.010 A 
ATOM     43  C   UNL A   1      41.114  27.781  29.315  1.00  0.00    -0.014 A 
BRANCH  43  44
ATOM     44  C   UNL A   1      40.905  28.704  30.458  1.00  0.00     0.031 A 
ATOM     45  C   UNL A   1      41.754  28.573  31.695  1.00  0.00     0.074 A 
ATOM     46  C   UNL A   1      39.924  29.625  30.401  1.00  0.00     0.049 A 
ATOM     47  N   UNL A   1      41.701  29.257  32.809  1.00  0.00    -0.248 NA
ATOM     48  C   UNL A   1      42.775  27.512  31.691  1.00  0.00     0.031 C 
ATOM     49  C   UNL A   1      39.005  29.812  29.277  1.00  0.00     0.029 A 
ATOM     50  N   UNL A   1      39.534  30.574  31.310  1.00  0.00    -0.354 N 
ATOM     51  C   UNL A   1      42.669  28.702  33.639  1.00  0.00     0.074 A 
ATOM     52  C   UNL A   1      43.247  27.585  32.927  1.00  0.00     0.031 C 
ATOM     53  C   UNL A   1      38.176  30.830  29.551  1.00  0.00     0.029 A 
ATOM     54  C   UNL A   1      38.478  31.344  30.884  1.00  0.00     0.049 A 
ATOM     55  H   UNL A   1      39.967  30.692  32.186  1.00  0.00     0.167 HD
ATOM     56  C   UNL A   1      43.058  29.105  34.872  1.00  0.00     0.037 A 
ATOM     57  C   UNL A   1      37.825  32.349  31.499  1.00  0.00     0.037 A 
ATOM     58  C   UNL A   1      42.489  30.232  35.563  1.00  0.00     0.049 A 
ATOM     59  C   UNL A   1      38.276  32.784  32.867  1.00  0.00     0.074 A 
ATOM     60  C   UNL A   1      42.850  30.762  36.789  1.00  0.00     0.029 A 
ATOM     61  N   UNL A   1      41.434  31.002  35.090  1.00  0.00    -0.354 N 
ATOM     62  N   UNL A   1      39.239  32.293  33.611  1.00  0.00    -0.248 NA
ATOM     63  C   UNL A   1      37.563  33.915  33.473  1.00  0.00     0.031 C 
ATOM     64  C   UNL A   1      41.978  31.814  37.083  1.00  0.00     0.029 A 
ATOM     65  C   UNL A   1      41.114  31.985  36.012  1.00  0.00     0.049 A 
ATOM     66  H   UNL A   1      40.980  30.867  34.227  1.00  0.00     0.167 HD
ATOM     67  C   UNL A   1      39.268  33.075  34.761  1.00  0.00     0.074 A 
ATOM     68  C   UNL A   1      38.232  34.077  34.606  1.00  0.00     0.031 C 
ATOM     69  C   UNL A   1      40.081  32.977  35.842  1.00  0.00     0.037 A 
BRANCH  56  70
ATOM     70  C   UNL A   1      44.145  28.314  35.552  1.00  0.00     0.058 A 
ATOM     71  C   UNL A   1      43.859  27.185  36.339  1.00  0.00     0.135 A 
ATOM     72  C   UNL A   1      45.493  28.680  35.405  1.00  0.00     0.135 A 
ATOM     73  F   UNL A   1      42.588  26.795  36.528  1.00  0.00    -0.206 F 
ATOM     74  C   UNL A   1      44.865  26.476  36.990  1.00  0.00     0.059 A 
ATOM     75  C   UNL A   1      46.517  27.965  36.018  1.00  0.00     0.059 A 
ATOM     76  F   UNL A   1      45.826  29.749  34.665  1.00  0.00    -0.206 F 
ATOM     77  C   UNL A   1      46.192  26.876  36.825  1.00  0.00     0.060 A 
BRANCH  77  78
ATOM     78  S   UNL A   1      47.482  25.954  37.685  1.00  0.00     0.124 S 
ATOM     79  O   UNL A   1      48.690  26.538  37.108  1.00  0.00    -0.237 OA
ATOM     80  O   UNL A   1      47.224  26.288  39.083  1.00  0.00    -0.237 OA
ATOM     81  O   UNL A   1      47.216  24.568  37.314  1.00  0.00    -0.744 OA
ENDBRANCH  77  78
ENDBRANCH  56  70
BRANCH  57  82
ATOM     82  C   UNL A   1      36.695  33.026  30.808  1.00  0.00     0.058 A 
ATOM     83  C   UNL A   1      35.365  32.779  31.182  1.00  0.00     0.135 A 
ATOM     84  C   UNL A   1      36.922  33.961  29.786  1.00  0.00     0.135 A 
ATOM     85  F   UNL A   1      35.095  31.891  32.150  1.00  0.00    -0.206 F 
ATOM     86  C   UNL A   1      34.301  33.424  30.560  1.00  0.00     0.059 A 
ATOM     87  C   UNL A   1      35.877  34.639  29.168  1.00  0.00     0.059 A 
ATOM     88  F   UNL A   1      38.177  34.248  29.404  1.00  0.00    -0.206 F 
ATOM     89  C   UNL A   1      34.569  34.358  29.558  1.00  0.00     0.060 A 
BRANCH  89  90
ATOM     90  S   UNL A   1      33.184  35.238  28.803  1.00  0.00     0.124 S 
ATOM     91  O   UNL A   1      32.406  35.623  29.975  1.00  0.00    -0.237 OA
ATOM     92  O   UNL A   1      33.859  36.323  28.099  1.00  0.00    -0.237 OA
ATOM     93  O   UNL A   1      32.573  34.227  27.944  1.00  0.00    -0.744 OA
ENDBRANCH  89  90
ENDBRANCH  57  82
BRANCH  69  94
ATOM     94  C   UNL A   1      39.913  34.003  36.931  1.00  0.00     0.058 A 
ATOM     95  C   UNL A   1      40.543  35.256  36.876  1.00  0.00     0.135 A 
ATOM     96  C   UNL A   1      39.070  33.741  38.025  1.00  0.00     0.135 A 
ATOM     97  F   UNL A   1      41.362  35.558  35.856  1.00  0.00    -0.206 F 
ATOM     98  C   UNL A   1      40.368  36.201  37.883  1.00  0.00     0.059 A 
ATOM     99  C   UNL A   1      38.855  34.684  39.025  1.00  0.00     0.059 A 
ATOM    100  F   UNL A   1      38.433  32.564  38.121  1.00  0.00    -0.206 F 
ATOM    101  C   UNL A   1      39.521  35.907  38.952  1.00  0.00     0.060 A 
BRANCH 101 102
ATOM    102  S   UNL A   1      39.285  37.150  40.238  1.00  0.00     0.124 S 
ATOM    103  O   UNL A   1      38.559  36.392  41.251  1.00  0.00    -0.237 OA
ATOM    104  O   UNL A   1      40.660  37.509  40.579  1.00  0.00    -0.237 OA
ATOM    105  O   UNL A   1      38.520  38.195  39.566  1.00  0.00    -0.744 OA
ENDBRANCH 101 102
ENDBRANCH  69  94
ENDBRANCH  43  44
ENDBRANCH  35  38
ENDBRANCH  33  34
ENDBRANCH  32  33
ENDBRANCH  31  32
ENDBRANCH  30  31
ENDBRANCH   1  30
TORSDOF 22
ENDMDL
MODEL 2
REMARK VINA RESULT:     -11.2      1.010      8.082
REMARK SMILES CCc1ccc(N2C(=O)C[C@@H](SC[C@@H](NC(C)=O)C(=O)NCCCCCCNC(=O)c3ccc(-c4c5nc(c(-c6c(F)cc(S(=O)(=O)[O-])cc6F)c6ccc([nH]6)c(-c6c(F)cc(S(=O)(=O)[O-])cc6F)c6nc(c(-c7c(F)cc(S(=O)(=O)[O-])cc7F)c7ccc4[nH]7)C=C6)C=C5)cc3)C2=O)cc1
REMARK SMILES IDX 23 1 22 2 21 3 19 4 20 5 14 7 13 8 12 9 11 10 7 11 8 12
REMARK SMILES IDX 97 13 9 14 10 15 98 16 6 17 3 18 4 19 100 20 5 21 99 22 2 23
REMARK SMILES IDX 1 24 15 25 16 26 17 28 18 29 24 30 25 31 26 32 27 33 28 34
REMARK SMILES IDX 29 35 30 37 31 38 32 39 96 40 33 41 95 42 34 43 35 44 36 45
REMARK SMILES IDX 89 46 37 47 94 48 88 49 90 50 38 51 93 52 87 53 86 54 39 56
REMARK SMILES IDX 73 57 52 58 72 59 53 60 56 61 71 62 91 63 54 64 55 65 70 67
REMARK SMILES IDX 92 68 57 69 40 70 41 71 50 72 42 73 43 74 49 75 51 76 44 77
REMARK SMILES IDX 45 78 46 79 47 80 48 81 74 82 75 83 84 84 76 85 77 86 83 87
REMARK SMILES IDX 85 88 78 89 79 90 80 91 81 92 82 93 58 94 59 95 68 96 60 97
REMARK SMILES IDX 61 98 67 99 69 100 62 101 63 102 64 103 65 104 66 105
REMARK H PARENT 21 6 15 27 28 36 90 55 56 66
REMARK Flexibility Score: inf
ROOT
ATOM      1  C   UNL A   1      36.773  20.559  25.065  1.00  0.00     0.021 C 
ENDROOT
BRANCH   1   2
ATOM      2  C   UNL A   1      35.581  21.007  25.896  1.00  0.00     0.116 C 
BRANCH   2   3
ATOM      3  N   UNL A   1      34.425  20.190  25.585  1.00  0.00    -0.354 N 
ATOM      4  C   UNL A   1      33.318  20.501  24.852  1.00  0.00     0.243 C 
ATOM      5  O   UNL A   1      32.361  19.721  24.892  1.00  0.00    -0.273 OA
ATOM      6  H   UNL A   1      34.442  19.279  25.956  1.00  0.00     0.163 HD
BRANCH   4   7
ATOM      7  C   UNL A   1      33.193  21.881  24.175  1.00  0.00     0.181 C 
BRANCH   7   8
ATOM      8  C   UNL A   1      31.671  22.213  24.152  1.00  0.00     0.105 C 
BRANCH   8   9
ATOM      9  S   UNL A   1      30.869  23.233  25.473  1.00  0.00    -0.145 SA
BRANCH   9  10
ATOM     10  C   UNL A   1      30.436  24.765  24.572  1.00  0.00     0.146 C 
ATOM     11  N   UNL A   1      31.750  26.665  25.010  1.00  0.00    -0.250 N 
ATOM     12  C   UNL A   1      32.041  26.341  23.716  1.00  0.00     0.235 C 
ATOM     13  C   UNL A   1      30.731  25.909  25.498  1.00  0.00     0.247 C 
ATOM     14  O   UNL A   1      32.772  26.934  22.933  1.00  0.00    -0.274 OA
ATOM     15  C   UNL A   1      31.293  25.080  23.354  1.00  0.00     0.125 C 
ATOM     16  O   UNL A   1      30.073  26.135  26.506  1.00  0.00    -0.273 OA
BRANCH  11  17
ATOM     17  C   UNL A   1      32.254  27.747  25.756  1.00  0.00     0.052 A 
ATOM     18  C   UNL A   1      33.340  30.040  26.985  1.00  0.00    -0.048 A 
ATOM     19  C   UNL A   1      32.131  30.116  26.285  1.00  0.00     0.006 A 
ATOM     20  C   UNL A   1      33.970  28.791  27.099  1.00  0.00     0.006 A 
ATOM     21  C   UNL A   1      31.606  28.988  25.661  1.00  0.00     0.027 A 
ATOM     22  C   UNL A   1      33.422  27.645  26.507  1.00  0.00     0.027 A 
BRANCH  18  23
ATOM     23  C   UNL A   1      33.863  31.299  27.634  1.00  0.00     0.032 C 
ATOM     24  C   UNL A   1      35.375  31.397  27.774  1.00  0.00     0.009 C 
ENDBRANCH  18  23
ENDBRANCH  11  17
ENDBRANCH   9  10
ENDBRANCH   8   9
ENDBRANCH   7   8
BRANCH   7  25
ATOM     25  N   UNL A   1      34.012  22.893  24.858  1.00  0.00    -0.344 N 
ATOM     26  C   UNL A   1      34.648  23.931  24.212  1.00  0.00     0.217 C 
ATOM     27  H   UNL A   1      34.111  22.825  25.836  1.00  0.00     0.164 HD
ATOM     28  C   UNL A   1      35.256  24.935  25.164  1.00  0.00     0.114 C 
ATOM     29  O   UNL A   1      34.791  24.011  22.999  1.00  0.00    -0.275 OA
ENDBRANCH   7  25
ENDBRANCH   4   7
ENDBRANCH   2   3
ENDBRANCH   1   2
BRANCH   1  30
ATOM     30  C   UNL A   1      37.726  21.708  24.730  1.00  0.00     0.002 C 
BRANCH  30  31
ATOM     31  C   UNL A   1      38.069  22.605  25.925  1.00  0.00     0.002 C 
BRANCH  31  32
ATOM     32  C   UNL A   1      39.389  22.259  26.619  1.00  0.00     0.021 C 
BRANCH  32  33
ATOM     33  C   UNL A   1      40.128  23.470  27.174  1.00  0.00     0.116 C 
BRANCH  33  34
ATOM     34  N   UNL A   1      40.867  24.169  26.136  1.00  0.00    -0.352 N 
ATOM     35  C   UNL A   1      41.241  25.486  26.087  1.00  0.00     0.251 C 
ATOM     36  H   UNL A   1      41.135  23.621  25.363  1.00  0.00     0.163 HD
ATOM     37  O   UNL A   1      41.663  25.968  25.042  1.00  0.00    -0.269 OA
BRANCH  35  38
ATOM     38  C   UNL A   1      41.118  26.315  27.303  1.00  0.00     0.039 A 
ATOM     39  C   UNL A   1      42.050  27.328  27.526  1.00  0.00     0.014 A 
ATOM     40  C   UNL A   1      40.083  26.087  28.215  1.00  0.00     0.014 A 
ATOM     41  C   UNL A   1      41.925  28.139  28.654  1.00  0.00     0.010 A 
ATOM     42  C   UNL A   1      39.911  26.949  29.292  1.00  0.00     0.010 A 
ATOM     43  C   UNL A   1      40.843  27.970  29.534  1.00  0.00    -0.014 A 
BRANCH  43  44
ATOM     44  C   UNL A   1      40.689  28.833  30.731  1.00  0.00     0.031 A 
ATOM     45  C   UNL A   1      39.630  29.903  30.755  1.00  0.00     0.074 A 
ATOM     46  C   UNL A   1      41.530  28.684  31.773  1.00  0.00     0.049 A 
ATOM     47  N   UNL A   1      39.362  30.779  31.689  1.00  0.00    -0.248 NA
ATOM     48  C   UNL A   1      38.781  30.025  29.558  1.00  0.00     0.031 C 
ATOM     49  C   UNL A   1      42.628  27.718  31.842  1.00  0.00     0.029 A 
ATOM     50  N   UNL A   1      41.597  29.349  32.970  1.00  0.00    -0.354 N 
ATOM     51  C   UNL A   1      38.327  31.561  31.188  1.00  0.00     0.074 A 
ATOM     52  C   UNL A   1      38.061  31.099  29.845  1.00  0.00     0.031 C 
ATOM     53  C   UNL A   1      43.240  27.833  33.030  1.00  0.00     0.029 A 
ATOM     54  C   UNL A   1      42.607  28.905  33.791  1.00  0.00     0.049 A 
ATOM     55  H   UNL A   1      40.981  30.076  33.218  1.00  0.00     0.167 HD
ATOM     56  C   UNL A   1      37.644  32.555  31.804  1.00  0.00     0.037 A 
ATOM     57  C   UNL A   1      42.981  29.317  35.017  1.00  0.00     0.037 A 
ATOM     58  C   UNL A   1      37.905  32.993  33.150  1.00  0.00     0.049 A 
ATOM     59  C   UNL A   1      42.205  30.421  35.684  1.00  0.00     0.074 A 
ATOM     60  C   UNL A   1      37.233  33.950  33.889  1.00  0.00     0.029 A 
ATOM     61  N   UNL A   1      38.923  32.504  33.959  1.00  0.00    -0.354 N 
ATOM     62  N   UNL A   1      41.184  31.105  35.225  1.00  0.00    -0.248 NA
ATOM     63  C   UNL A   1      42.623  30.800  37.040  1.00  0.00     0.031 C 
ATOM     64  C   UNL A   1      37.880  34.081  35.122  1.00  0.00     0.029 A 
ATOM     65  C   UNL A   1      38.914  33.159  35.179  1.00  0.00     0.049 A 
ATOM     66  H   UNL A   1      39.557  31.797  33.702  1.00  0.00     0.167 HD
ATOM     67  C   UNL A   1      40.817  31.974  36.246  1.00  0.00     0.074 A 
ATOM     68  C   UNL A   1      41.721  31.720  37.351  1.00  0.00     0.031 C 
ATOM     69  C   UNL A   1      39.820  32.894  36.270  1.00  0.00     0.037 A 
BRANCH  56  70
ATOM     70  C   UNL A   1      36.556  33.240  31.020  1.00  0.00     0.058 A 
ATOM     71  C   UNL A   1      36.844  34.178  30.013  1.00  0.00     0.135 A 
ATOM     72  C   UNL A   1      35.204  32.947  31.268  1.00  0.00     0.135 A 
ATOM     73  F   UNL A   1      38.116  34.509  29.740  1.00  0.00    -0.206 F 
ATOM     74  C   UNL A   1      35.833  34.830  29.313  1.00  0.00     0.059 A 
ATOM     75  C   UNL A   1      34.179  33.562  30.555  1.00  0.00     0.059 A 
ATOM     76  F   UNL A   1      34.869  32.060  32.217  1.00  0.00    -0.206 F 
ATOM     77  C   UNL A   1      34.503  34.516  29.593  1.00  0.00     0.060 A 
BRANCH  77  78
ATOM     78  S   UNL A   1      33.204  35.380  28.686  1.00  0.00     0.124 S 
ATOM     79  O   UNL A   1      33.989  36.258  27.822  1.00  0.00    -0.237 OA
ATOM     80  O   UNL A   1      32.512  34.285  28.014  1.00  0.00    -0.237 OA
ATOM     81  O   UNL A   1      32.443  36.050  29.736  1.00  0.00    -0.744 OA
ENDBRANCH  77  78
ENDBRANCH  56  70
BRANCH  57  82
ATOM     82  C   UNL A   1      44.128  28.661  35.698  1.00  0.00     0.058 A 
ATOM     83  C   UNL A   1      45.441  29.122  35.513  1.00  0.00     0.135 A 
ATOM     84  C   UNL A   1      43.933  27.582  36.576  1.00  0.00     0.135 A 
ATOM     85  F   UNL A   1      45.680  30.147  34.681  1.00  0.00    -0.206 F 
ATOM     86  C   UNL A   1      46.519  28.531  36.164  1.00  0.00     0.059 A 
ATOM     87  C   UNL A   1      44.992  26.993  37.258  1.00  0.00     0.059 A 
ATOM     88  F   UNL A   1      42.695  27.115  36.802  1.00  0.00    -0.206 F 
ATOM     89  C   UNL A   1      46.283  27.471  37.040  1.00  0.00     0.060 A 
BRANCH  89  90
ATOM     90  S   UNL A   1      47.683  26.755  37.928  1.00  0.00     0.124 S 
ATOM     91  O   UNL A   1      47.660  25.377  37.454  1.00  0.00    -0.237 OA
ATOM     92  O   UNL A   1      48.795  27.575  37.457  1.00  0.00    -0.237 OA
ATOM     93  O   UNL A   1      47.323  26.946  39.331  1.00  0.00    -0.744 OA
ENDBRANCH  89  90
ENDBRANCH  57  82
BRANCH  69  94
ATOM     94  C   UNL A   1      39.624  33.670  37.545  1.00  0.00     0.058 A 
ATOM     95  C   UNL A   1      38.762  33.228  38.561  1.00  0.00     0.135 A 
ATOM     96  C   UNL A   1      40.346  34.855  37.768  1.00  0.00     0.135 A 
ATOM     97  F   UNL A   1      38.045  32.105  38.398  1.00  0.00    -0.206 F 
ATOM     98  C   UNL A   1      38.601  33.948  39.741  1.00  0.00     0.059 A 
ATOM     99  C   UNL A   1      40.225  35.573  38.954  1.00  0.00     0.059 A 
ATOM    100  F   UNL A   1      41.193  35.317  36.835  1.00  0.00    -0.206 F 
ATOM    101  C   UNL A   1      39.338  35.119  39.929  1.00  0.00     0.060 A 
BRANCH 101 102
ATOM    102  S   UNL A   1      39.136  36.030  41.472  1.00  0.00     0.124 S 
ATOM    103  O   UNL A   1      37.879  35.485  41.974  1.00  0.00    -0.237 OA
ATOM    104  O   UNL A   1      40.334  35.652  42.217  1.00  0.00    -0.237 OA
ATOM    105  O   UNL A   1      39.088  37.424  41.041  1.00  0.00    -0.744 OA
ENDBRANCH 101 102
ENDBRANCH  69  94
ENDBRANCH  43  44
ENDBRANCH  35  38
ENDBRANCH  33  34
ENDBRANCH  32  33
ENDBRANCH  31  32
ENDBRANCH  30  31
ENDBRANCH   1  30
TORSDOF 22
ENDMDL
MODEL 3
REMARK VINA RESULT:     -10.5      6.207     11.691
REMARK SMILES CCc1ccc(N2C(=O)C[C@@H](SC[C@@H](NC(C)=O)C(=O)NCCCCCCNC(=O)c3ccc(-c4c5nc(c(-c6c(F)cc(S(=O)(=O)[O-])cc6F)c6ccc([nH]6)c(-c6c(F)cc(S(=O)(=O)[O-])cc6F)c6nc(c(-c7c(F)cc(S(=O)(=O)[O-])cc7F)c7ccc4[nH]7)C=C6)C=C5)cc3)C2=O)cc1
REMARK SMILES IDX 23 1 22 2 21 3 19 4 20 5 14 7 13 8 12 9 11 10 7 11 8 12
REMARK SMILES IDX 97 13 9 14 10 15 98 16 6 17 3 18 4 19 100 20 5 21 99 22 2 23
REMARK SMILES IDX 1 24 15 25 16 26 17 28 18 29 24 30 25 31 26 32 27 33 28 34
REMARK SMILES IDX 29 35 30 37 31 38 32 39 96 40 33 41 95 42 34 43 35 44 36 45
REMARK SMILES IDX 89 46 37 47 94 48 88 49 90 50 38 51 93 52 87 53 86 54 39 56
REMARK SMILES IDX 73 57 52 58 72 59 53 60 56 61 71 62 91 63 54 64 55 65 70 67
REMARK SMILES IDX 92 68 57 69 40 70 41 71 50 72 42 73 43 74 49 75 51 76 44 77
REMARK SMILES IDX 45 78 46 79 47 80 48 81 74 82 75 83 84 84 76 85 77 86 83 87
REMARK SMILES IDX 85 88 78 89 79 90 80 91 81 92 82 93 58 94 59 95 68 96 60 97
REMARK SMILES IDX 61 98 67 99 69 100 62 101 63 102 64 103 65 104 66 105
REMARK H PARENT 21 6 15 27 28 36 90 55 56 66
REMARK Flexibility Score: inf
ROOT
ATOM      1  C   UNL A   1      31.826  30.350  26.410  1.00  0.00     0.021 C 
ENDROOT
BRANCH   1   2
ATOM      2  C   UNL A   1      32.132  29.897  24.991  1.00  0.00     0.116 C 
BRANCH   2   3
ATOM      3  N   UNL A   1      30.966  29.260  24.412  1.00  0.00    -0.354 N 
ATOM      4  C   UNL A   1      30.896  28.221  23.530  1.00  0.00     0.243 C 
ATOM      5  O   UNL A   1      29.802  27.979  23.009  1.00  0.00    -0.273 OA
ATOM      6  H   UNL A   1      30.100  29.631  24.694  1.00  0.00     0.163 HD
BRANCH   4   7
ATOM      7  C   UNL A   1      32.181  27.519  23.049  1.00  0.00     0.181 C 
BRANCH   7   8
ATOM      8  C   UNL A   1      32.534  26.470  24.145  1.00  0.00     0.105 C 
BRANCH   8   9
ATOM      9  S   UNL A   1      31.252  25.362  24.893  1.00  0.00    -0.145 SA
BRANCH   9  10
ATOM     10  C   UNL A   1      32.230  24.392  26.096  1.00  0.00     0.146 C 
ATOM     11  N   UNL A   1      33.352  22.496  25.273  1.00  0.00    -0.250 N 
ATOM     12  C   UNL A   1      34.351  23.363  25.611  1.00  0.00     0.235 C 
ATOM     13  C   UNL A   1      32.135  22.955  25.671  1.00  0.00     0.247 C 
ATOM     14  O   UNL A   1      35.561  23.181  25.558  1.00  0.00    -0.274 OA
ATOM     15  C   UNL A   1      33.730  24.652  26.091  1.00  0.00     0.125 C 
ATOM     16  O   UNL A   1      31.102  22.303  25.756  1.00  0.00    -0.273 OA
BRANCH  11  17
ATOM     17  C   UNL A   1      33.485  21.195  24.753  1.00  0.00     0.052 A 
ATOM     18  C   UNL A   1      33.524  18.508  23.899  1.00  0.00    -0.048 A 
ATOM     19  C   UNL A   1      32.475  19.356  23.526  1.00  0.00     0.006 A 
ATOM     20  C   UNL A   1      34.574  19.039  24.665  1.00  0.00     0.006 A 
ATOM     21  C   UNL A   1      32.446  20.676  23.966  1.00  0.00     0.027 A 
ATOM     22  C   UNL A   1      34.567  20.380  25.074  1.00  0.00     0.027 A 
BRANCH  18  23
ATOM     23  C   UNL A   1      33.496  17.084  23.397  1.00  0.00     0.032 C 
ATOM     24  C   UNL A   1      34.305  16.079  24.203  1.00  0.00     0.009 C 
ENDBRANCH  18  23
ENDBRANCH  11  17
ENDBRANCH   9  10
ENDBRANCH   8   9
ENDBRANCH   7   8
BRANCH   7  25
ATOM     25  N   UNL A   1      32.010  26.942  21.707  1.00  0.00    -0.344 N 
ATOM     26  C   UNL A   1      32.821  25.958  21.185  1.00  0.00     0.217 C 
ATOM     27  H   UNL A   1      31.271  27.279  21.148  1.00  0.00     0.164 HD
ATOM     28  C   UNL A   1      32.311  25.406  19.874  1.00  0.00     0.114 C 
ATOM     29  O   UNL A   1      33.889  25.607  21.670  1.00  0.00    -0.275 OA
ENDBRANCH   7  25
ENDBRANCH   4   7
ENDBRANCH   2   3
ENDBRANCH   1   2
BRANCH   1  30
ATOM     30  C   UNL A   1      32.948  30.013  27.394  1.00  0.00     0.002 C 
BRANCH  30  31
ATOM     31  C   UNL A   1      33.830  31.209  27.769  1.00  0.00     0.002 C 
BRANCH  31  32
ATOM     32  C   UNL A   1      35.334  30.948  27.655  1.00  0.00     0.021 C 
BRANCH  32  33
ATOM     33  C   UNL A   1      36.164  31.644  28.725  1.00  0.00     0.116 C 
BRANCH  33  34
ATOM     34  N   UNL A   1      35.938  31.064  30.039  1.00  0.00    -0.352 N 
ATOM     35  C   UNL A   1      36.684  30.127  30.704  1.00  0.00     0.251 C 
ATOM     36  H   UNL A   1      35.141  31.390  30.516  1.00  0.00     0.163 HD
ATOM     37  O   UNL A   1      36.236  29.580  31.706  1.00  0.00    -0.269 OA
BRANCH  35  38
ATOM     38  C   UNL A   1      38.023  29.777  30.192  1.00  0.00     0.039 A 
ATOM     39  C   UNL A   1      38.292  29.945  28.833  1.00  0.00     0.014 A 
ATOM     40  C   UNL A   1      39.007  29.286  31.056  1.00  0.00     0.014 A 
ATOM     41  C   UNL A   1      39.565  29.648  28.345  1.00  0.00     0.010 A 
ATOM     42  C   UNL A   1      40.297  29.073  30.583  1.00  0.00     0.010 A 
ATOM     43  C   UNL A   1      40.582  29.231  29.219  1.00  0.00    -0.014 A 
BRANCH  43  44
ATOM     44  C   UNL A   1      41.944  28.924  28.715  1.00  0.00     0.031 A 
ATOM     45  C   UNL A   1      42.275  27.534  28.245  1.00  0.00     0.074 A 
ATOM     46  C   UNL A   1      42.890  29.883  28.725  1.00  0.00     0.049 A 
ATOM     47  N   UNL A   1      43.413  27.060  27.805  1.00  0.00    -0.248 NA
ATOM     48  C   UNL A   1      41.195  26.535  28.306  1.00  0.00     0.031 C 
ATOM     49  C   UNL A   1      42.701  31.253  29.207  1.00  0.00     0.029 A 
ATOM     50  N   UNL A   1      44.201  29.850  28.324  1.00  0.00    -0.354 N 
ATOM     51  C   UNL A   1      43.188  25.711  27.552  1.00  0.00     0.074 A 
ATOM     52  C   UNL A   1      41.827  25.427  27.948  1.00  0.00     0.031 C 
ATOM     53  C   UNL A   1      43.844  31.936  29.047  1.00  0.00     0.029 A 
ATOM     54  C   UNL A   1      44.858  31.047  28.490  1.00  0.00     0.049 A 
ATOM     55  H   UNL A   1      44.632  29.046  27.954  1.00  0.00     0.167 HD
ATOM     56  C   UNL A   1      44.031  24.799  27.012  1.00  0.00     0.037 A 
ATOM     57  C   UNL A   1      46.134  31.387  28.225  1.00  0.00     0.037 A 
ATOM     58  C   UNL A   1      45.378  25.097  26.602  1.00  0.00     0.049 A 
ATOM     59  C   UNL A   1      47.053  30.359  27.622  1.00  0.00     0.074 A 
ATOM     60  C   UNL A   1      46.297  24.264  25.990  1.00  0.00     0.029 A 
ATOM     61  N   UNL A   1      46.003  26.327  26.767  1.00  0.00    -0.354 N 
ATOM     62  N   UNL A   1      46.805  29.105  27.324  1.00  0.00    -0.248 NA
ATOM     63  C   UNL A   1      48.420  30.794  27.307  1.00  0.00     0.031 C 
ATOM     64  C   UNL A   1      47.494  24.971  25.837  1.00  0.00     0.029 A 
ATOM     65  C   UNL A   1      47.303  26.266  26.292  1.00  0.00     0.049 A 
ATOM     66  H   UNL A   1      45.583  27.124  27.162  1.00  0.00     0.167 HD
ATOM     67  C   UNL A   1      47.975  28.610  26.758  1.00  0.00     0.074 A 
ATOM     68  C   UNL A   1      48.925  29.705  26.746  1.00  0.00     0.031 C 
ATOM     69  C   UNL A   1      48.236  27.366  26.286  1.00  0.00     0.037 A 
BRANCH  56  70
ATOM     70  C   UNL A   1      43.521  23.392  26.845  1.00  0.00     0.058 A 
ATOM     71  C   UNL A   1      43.392  22.515  27.936  1.00  0.00     0.135 A 
ATOM     72  C   UNL A   1      43.142  22.915  25.579  1.00  0.00     0.135 A 
ATOM     73  F   UNL A   1      43.752  22.908  29.168  1.00  0.00    -0.206 F 
ATOM     74  C   UNL A   1      42.948  21.206  27.771  1.00  0.00     0.059 A 
ATOM     75  C   UNL A   1      42.662  21.622  25.397  1.00  0.00     0.059 A 
ATOM     76  F   UNL A   1      43.242  23.708  24.502  1.00  0.00    -0.206 F 
ATOM     77  C   UNL A   1      42.588  20.768  26.496  1.00  0.00     0.060 A 
BRANCH  77  78
ATOM     78  S   UNL A   1      42.027  19.065  26.296  1.00  0.00     0.124 S 
ATOM     79  O   UNL A   1      40.641  19.262  25.882  1.00  0.00    -0.237 OA
ATOM     80  O   UNL A   1      42.929  18.557  25.267  1.00  0.00    -0.237 OA
ATOM     81  O   UNL A   1      42.208  18.489  27.625  1.00  0.00    -0.744 OA
ENDBRANCH  77  78
ENDBRANCH  56  70
BRANCH  57  82
ATOM     82  C   UNL A   1      46.602  32.771  28.504  1.00  0.00     0.058 A 
ATOM     83  C   UNL A   1      47.182  33.104  29.737  1.00  0.00     0.135 A 
ATOM     84  C   UNL A   1      46.511  33.779  27.531  1.00  0.00     0.135 A 
ATOM     85  F   UNL A   1      47.288  32.177  30.701  1.00  0.00    -0.206 F 
ATOM     86  C   UNL A   1      47.646  34.389  30.001  1.00  0.00     0.059 A 
ATOM     87  C   UNL A   1      46.991  35.064  27.762  1.00  0.00     0.059 A 
ATOM     88  F   UNL A   1      45.980  33.507  26.329  1.00  0.00    -0.206 F 
ATOM     89  C   UNL A   1      47.551  35.361  29.003  1.00  0.00     0.060 A 
BRANCH  89  90
ATOM     90  S   UNL A   1      48.216  37.007  29.334  1.00  0.00     0.124 S 
ATOM     91  O   UNL A   1      47.591  37.795  28.278  1.00  0.00    -0.237 OA
ATOM     92  O   UNL A   1      47.739  37.262  30.690  1.00  0.00    -0.237 OA
ATOM     93  O   UNL A   1      49.659  36.817  29.211  1.00  0.00    -0.744 OA
ENDBRANCH  89  90
ENDBRANCH  57  82
BRANCH  69  94
ATOM     94  C   UNL A   1      49.593  27.126  25.678  1.00  0.00     0.058 A 
ATOM     95  C   UNL A   1      49.847  27.346  24.315  1.00  0.00     0.135 A 
ATOM     96  C   UNL A   1      50.665  26.711  26.486  1.00  0.00     0.135 A 
ATOM     97  F   UNL A   1      48.858  27.739  23.497  1.00  0.00    -0.206 F 
ATOM     98  C   UNL A   1      51.110  27.134  23.769  1.00  0.00     0.059 A 
ATOM     99  C   UNL A   1      51.943  26.525  25.967  1.00  0.00     0.059 A 
ATOM    100  F   UNL A   1      50.481  26.497  27.798  1.00  0.00    -0.206 F 
ATOM    101  C   UNL A   1      52.151  26.726  24.603  1.00  0.00     0.060 A 
BRANCH 101 102
ATOM    102  S   UNL A   1      53.788  26.476  23.886  1.00  0.00     0.124 S 
ATOM    103  O   UNL A   1      53.455  26.090  22.519  1.00  0.00    -0.237 OA
ATOM    104  O   UNL A   1      54.401  27.793  24.042  1.00  0.00    -0.237 OA
ATOM    105  O   UNL A   1      54.366  25.421  24.713  1.00  0.00    -0.744 OA
ENDBRANCH 101 102
ENDBRANCH  69  94
ENDBRANCH  43  44
ENDBRANCH  35  38
ENDBRANCH  33  34
ENDBRANCH  32  33
ENDBRANCH  31  32
ENDBRANCH  30  31
ENDBRANCH   1  30
TORSDOF 22
ENDMDL
