MODEL 1
REMARK VINA RESULT:     -11.5      0.000      0.000
REMARK SMILES CC[C@@H](C(=O)Nc1ccc(OC(C)=O)cc1C(=O)NCCCCCCNC(=O)c1ccc(-c2c3nc(c(-c4c(F)cc(S(=O)(=O)[O-])cc4F)c4ccc([nH]4)c(-c4c(F)cc(S(=O)(=O)[O-])cc4F)c4nc(c(-c5c(F)cc(S(=O)(=O)[O-])cc5F)c5ccc2[nH]5)C=C4)C=C3)cc1)c1ccccc1
REMARK SMILES IDX 22 1 21 2 20 3 19 4 17 5 18 6 16 8 7 9 8 10 9 11 15 12 10 13
REMARK SMILES IDX 6 14 4 15 5 16 3 18 2 19 1 20 95 21 96 22 100 23 97 24 99 25
REMARK SMILES IDX 98 26 11 27 12 28 13 29 14 30 23 31 24 32 25 33 26 34 27 35
REMARK SMILES IDX 28 37 29 38 30 39 94 40 31 41 93 42 32 43 33 44 34 45 87 46
REMARK SMILES IDX 35 47 92 48 86 49 88 50 36 51 91 52 85 53 84 54 37 56 71 57
REMARK SMILES IDX 50 58 70 59 51 60 54 61 69 62 89 63 52 64 53 65 68 67 90 68
REMARK SMILES IDX 55 69 38 70 39 71 48 72 40 73 41 74 47 75 49 76 42 77 43 78
REMARK SMILES IDX 44 79 45 80 46 81 72 82 73 83 82 84 74 85 75 86 81 87 83 88
REMARK SMILES IDX 76 89 77 90 78 91 79 92 80 93 56 94 57 95 66 96 58 97 59 98
REMARK SMILES IDX 65 99 67 100 60 101 61 102 62 103 63 104 64 105
REMARK H PARENT 19 7 6 17 26 36 88 55 54 66
REMARK Flexibility Score: inf
ROOT
ATOM      1  C   UNL A   1      38.783  23.130  26.513  1.00  0.00     0.002 C 
ENDROOT
BRANCH   1   2
ATOM      2  C   UNL A   1      37.568  22.771  25.646  1.00  0.00     0.021 C 
BRANCH   2   3
ATOM      3  C   UNL A   1      36.494  23.848  25.559  1.00  0.00     0.116 C 
BRANCH   3   4
ATOM      4  N   UNL A   1      35.867  23.943  24.259  1.00  0.00    -0.352 N 
ATOM      5  C   UNL A   1      34.604  24.321  23.890  1.00  0.00     0.253 C 
ATOM      6  O   UNL A   1      34.333  24.273  22.686  1.00  0.00    -0.269 OA
ATOM      7  H   UNL A   1      36.451  23.691  23.508  1.00  0.00     0.163 HD
BRANCH   5   8
ATOM      8  C   UNL A   1      33.526  24.754  24.830  1.00  0.00     0.067 A 
ATOM      9  C   UNL A   1      32.955  24.051  25.901  1.00  0.00     0.054 A 
ATOM     10  C   UNL A   1      31.795  24.571  26.525  1.00  0.00     0.031 A 
ATOM     11  C   UNL A   1      31.362  25.871  26.282  1.00  0.00     0.049 A 
ATOM     12  C   UNL A   1      33.052  26.067  24.577  1.00  0.00     0.063 A 
ATOM     13  C   UNL A   1      32.055  26.638  25.363  1.00  0.00     0.131 A 
BRANCH   9  14
ATOM     14  N   UNL A   1      33.374  22.857  26.494  1.00  0.00    -0.325 N 
ATOM     15  C   UNL A   1      33.504  21.550  26.164  1.00  0.00     0.231 C 
ATOM     16  O   UNL A   1      33.994  20.927  27.125  1.00  0.00    -0.274 OA
ATOM     17  H   UNL A   1      33.656  23.011  27.424  1.00  0.00     0.169 HD
BRANCH  15  18
ATOM     18  C   UNL A   1      33.297  20.813  24.798  1.00  0.00     0.108 C 
BRANCH  18  19
ATOM     19  C   UNL A   1      32.075  21.165  23.937  1.00  0.00     0.015 C 
ATOM     20  C   UNL A   1      32.210  20.974  22.441  1.00  0.00     0.005 C 
ENDBRANCH  18  19
BRANCH  18  21
ATOM     21  C   UNL A   1      33.491  19.262  24.912  1.00  0.00    -0.036 A 
ATOM     22  C   UNL A   1      32.478  18.393  25.370  1.00  0.00     0.004 A 
ATOM     23  C   UNL A   1      34.677  18.643  24.470  1.00  0.00     0.004 A 
ATOM     24  C   UNL A   1      32.647  17.002  25.399  1.00  0.00     0.000 A 
ATOM     25  C   UNL A   1      34.869  17.256  24.550  1.00  0.00     0.000 A 
ATOM     26  C   UNL A   1      33.850  16.434  25.007  1.00  0.00     0.000 A 
ENDBRANCH  18  21
ENDBRANCH  15  18
ENDBRANCH   9  14
BRANCH  13  27
ATOM     27  O   UNL A   1      31.667  27.985  25.219  1.00  0.00    -0.427 OA
BRANCH  27  28
ATOM     28  C   UNL A   1      32.471  29.046  25.643  1.00  0.00     0.308 C 
ATOM     29  C   UNL A   1      32.612  29.236  27.125  1.00  0.00     0.139 C 
ATOM     30  O   UNL A   1      33.102  29.727  24.840  1.00  0.00    -0.252 OA
ENDBRANCH  27  28
ENDBRANCH  13  27
ENDBRANCH   5   8
ENDBRANCH   3   4
ENDBRANCH   2   3
ENDBRANCH   1   2
BRANCH   1  31
ATOM     31  C   UNL A   1      39.954  22.141  26.494  1.00  0.00     0.002 C 
BRANCH  31  32
ATOM     32  C   UNL A   1      40.919  22.190  27.681  1.00  0.00     0.021 C 
BRANCH  32  33
ATOM     33  C   UNL A   1      42.222  22.942  27.438  1.00  0.00     0.116 C 
BRANCH  33  34
ATOM     34  N   UNL A   1      42.178  23.786  26.256  1.00  0.00    -0.352 N 
ATOM     35  C   UNL A   1      41.899  25.122  26.152  1.00  0.00     0.251 C 
ATOM     36  H   UNL A   1      42.379  23.331  25.407  1.00  0.00     0.163 HD
ATOM     37  O   UNL A   1      41.792  25.636  25.037  1.00  0.00    -0.269 OA
BRANCH  35  38
ATOM     38  C   UNL A   1      41.693  25.942  27.366  1.00  0.00     0.039 A 
ATOM     39  C   UNL A   1      42.678  26.866  27.722  1.00  0.00     0.014 A 
ATOM     40  C   UNL A   1      40.547  25.802  28.155  1.00  0.00     0.014 A 
ATOM     41  C   UNL A   1      42.489  27.685  28.836  1.00  0.00     0.010 A 
ATOM     42  C   UNL A   1      40.324  26.673  29.218  1.00  0.00     0.010 A 
ATOM     43  C   UNL A   1      41.295  27.619  29.574  1.00  0.00    -0.014 A 
BRANCH  43  44
ATOM     44  C   UNL A   1      41.053  28.548  30.708  1.00  0.00     0.031 A 
ATOM     45  C   UNL A   1      41.873  28.446  31.966  1.00  0.00     0.074 A 
ATOM     46  C   UNL A   1      40.062  29.457  30.615  1.00  0.00     0.049 A 
ATOM     47  N   UNL A   1      41.802  29.166  33.056  1.00  0.00    -0.248 NA
ATOM     48  C   UNL A   1      42.889  27.383  32.016  1.00  0.00     0.031 C 
ATOM     49  C   UNL A   1      39.161  29.606  29.469  1.00  0.00     0.029 A 
ATOM     50  N   UNL A   1      39.644  30.424  31.492  1.00  0.00    -0.354 N 
ATOM     51  C   UNL A   1      42.754  28.640  33.922  1.00  0.00     0.074 A 
ATOM     52  C   UNL A   1      43.348  27.503  33.254  1.00  0.00     0.031 C 
ATOM     53  C   UNL A   1      38.322  30.627  29.699  1.00  0.00     0.029 A 
ATOM     54  C   UNL A   1      38.596  31.180  31.021  1.00  0.00     0.049 A 
ATOM     55  H   UNL A   1      40.055  30.564  32.375  1.00  0.00     0.167 HD
ATOM     56  C   UNL A   1      43.117  29.081  35.151  1.00  0.00     0.037 A 
ATOM     57  C   UNL A   1      37.930  32.204  31.590  1.00  0.00     0.037 A 
ATOM     58  C   UNL A   1      42.528  30.226  35.797  1.00  0.00     0.049 A 
ATOM     59  C   UNL A   1      38.354  32.679  32.953  1.00  0.00     0.074 A 
ATOM     60  C   UNL A   1      42.865  30.793  37.014  1.00  0.00     0.029 A 
ATOM     61  N   UNL A   1      41.478  30.974  35.286  1.00  0.00    -0.354 N 
ATOM     62  N   UNL A   1      39.310  32.218  33.725  1.00  0.00    -0.248 NA
ATOM     63  C   UNL A   1      37.616  33.815  33.520  1.00  0.00     0.031 C 
ATOM     64  C   UNL A   1      41.982  31.851  37.262  1.00  0.00     0.029 A 
ATOM     65  C   UNL A   1      41.134  31.980  36.173  1.00  0.00     0.049 A 
ATOM     66  H   UNL A   1      41.040  30.812  34.418  1.00  0.00     0.167 HD
ATOM     67  C   UNL A   1      39.304  33.024  34.859  1.00  0.00     0.074 A 
ATOM     68  C   UNL A   1      38.262  34.011  34.661  1.00  0.00     0.031 C 
ATOM     69  C   UNL A   1      40.091  32.954  35.962  1.00  0.00     0.037 A 
BRANCH  56  70
ATOM     70  C   UNL A   1      44.199  28.325  35.875  1.00  0.00     0.058 A 
ATOM     71  C   UNL A   1      45.559  28.635  35.705  1.00  0.00     0.135 A 
ATOM     72  C   UNL A   1      43.873  27.299  36.778  1.00  0.00     0.135 A 
ATOM     73  F   UNL A   1      45.930  29.597  34.844  1.00  0.00    -0.206 F 
ATOM     74  C   UNL A   1      46.556  27.937  36.377  1.00  0.00     0.059 A 
ATOM     75  C   UNL A   1      44.853  26.608  37.485  1.00  0.00     0.059 A 
ATOM     76  F   UNL A   1      42.592  26.959  36.981  1.00  0.00    -0.206 F 
ATOM     77  C   UNL A   1      46.193  26.924  37.266  1.00  0.00     0.060 A 
BRANCH  77  78
ATOM     78  S   UNL A   1      47.501  26.030  38.133  1.00  0.00     0.124 S 
ATOM     79  O   UNL A   1      48.510  25.903  37.086  1.00  0.00    -0.237 OA
ATOM     80  O   UNL A   1      47.830  26.941  39.224  1.00  0.00    -0.237 OA
ATOM     81  O   UNL A   1      46.854  24.784  38.534  1.00  0.00    -0.744 OA
ENDBRANCH  77  78
ENDBRANCH  56  70
BRANCH  57  82
ATOM     82  C   UNL A   1      36.813  32.860  30.859  1.00  0.00     0.058 A 
ATOM     83  C   UNL A   1      37.058  33.869  29.915  1.00  0.00     0.135 A 
ATOM     84  C   UNL A   1      35.479  32.475  31.070  1.00  0.00     0.135 A 
ATOM     85  F   UNL A   1      38.315  34.276  29.681  1.00  0.00    -0.206 F 
ATOM     86  C   UNL A   1      36.023  34.483  29.219  1.00  0.00     0.059 A 
ATOM     87  C   UNL A   1      34.429  33.055  30.365  1.00  0.00     0.059 A 
ATOM     88  F   UNL A   1      35.191  31.502  31.949  1.00  0.00    -0.206 F 
ATOM     89  C   UNL A   1      34.710  34.065  29.448  1.00  0.00     0.060 A 
BRANCH  89  90
ATOM     90  S   UNL A   1      33.379  34.835  28.500  1.00  0.00     0.124 S 
ATOM     91  O   UNL A   1      32.636  35.528  29.546  1.00  0.00    -0.237 OA
ATOM     92  O   UNL A   1      34.117  35.683  27.569  1.00  0.00    -0.237 OA
ATOM     93  O   UNL A   1      32.699  33.694  27.891  1.00  0.00    -0.744 OA
ENDBRANCH  89  90
ENDBRANCH  57  82
BRANCH  69  94
ATOM     94  C   UNL A   1      39.870  33.987  37.033  1.00  0.00     0.058 A 
ATOM     95  C   UNL A   1      40.349  35.300  36.903  1.00  0.00     0.135 A 
ATOM     96  C   UNL A   1      39.132  33.671  38.184  1.00  0.00     0.135 A 
ATOM     97  F   UNL A   1      41.066  35.655  35.824  1.00  0.00    -0.206 F 
ATOM     98  C   UNL A   1      40.130  36.255  37.890  1.00  0.00     0.059 A 
ATOM     99  C   UNL A   1      38.874  34.617  39.171  1.00  0.00     0.059 A 
ATOM    100  F   UNL A   1      38.641  32.432  38.354  1.00  0.00    -0.206 F 
ATOM    101  C   UNL A   1      39.389  35.903  39.021  1.00  0.00     0.060 A 
BRANCH 101 102
ATOM    102  S   UNL A   1      39.090  37.159  40.283  1.00  0.00     0.124 S 
ATOM    103  O   UNL A   1      38.155  36.470  41.167  1.00  0.00    -0.237 OA
ATOM    104  O   UNL A   1      40.427  37.381  40.824  1.00  0.00    -0.237 OA
ATOM    105  O   UNL A   1      38.532  38.275  39.526  1.00  0.00    -0.744 OA
ENDBRANCH 101 102
ENDBRANCH  69  94
ENDBRANCH  43  44
ENDBRANCH  35  38
ENDBRANCH  33  34
ENDBRANCH  32  33
ENDBRANCH  31  32
ENDBRANCH   1  31
TORSDOF 22
ENDMDL
MODEL 2
REMARK VINA RESULT:     -11.4      6.238     11.579
REMARK SMILES CC[C@@H](C(=O)Nc1ccc(OC(C)=O)cc1C(=O)NCCCCCCNC(=O)c1ccc(-c2c3nc(c(-c4c(F)cc(S(=O)(=O)[O-])cc4F)c4ccc([nH]4)c(-c4c(F)cc(S(=O)(=O)[O-])cc4F)c4nc(c(-c5c(F)cc(S(=O)(=O)[O-])cc5F)c5ccc2[nH]5)C=C4)C=C3)cc1)c1ccccc1
REMARK SMILES IDX 22 1 21 2 20 3 19 4 17 5 18 6 16 8 7 9 8 10 9 11 15 12 10 13
REMARK SMILES IDX 6 14 4 15 5 16 3 18 2 19 1 20 95 21 96 22 100 23 97 24 99 25
REMARK SMILES IDX 98 26 11 27 12 28 13 29 14 30 23 31 24 32 25 33 26 34 27 35
REMARK SMILES IDX 28 37 29 38 30 39 94 40 31 41 93 42 32 43 33 44 34 45 87 46
REMARK SMILES IDX 35 47 92 48 86 49 88 50 36 51 91 52 85 53 84 54 37 56 71 57
REMARK SMILES IDX 50 58 70 59 51 60 54 61 69 62 89 63 52 64 53 65 68 67 90 68
REMARK SMILES IDX 55 69 38 70 39 71 48 72 40 73 41 74 47 75 49 76 42 77 43 78
REMARK SMILES IDX 44 79 45 80 46 81 72 82 73 83 82 84 74 85 75 86 81 87 83 88
REMARK SMILES IDX 76 89 77 90 78 91 79 92 80 93 56 94 57 95 66 96 58 97 59 98
REMARK SMILES IDX 65 99 67 100 60 101 61 102 62 103 63 104 64 105
REMARK H PARENT 19 7 6 17 26 36 88 55 54 66
REMARK Flexibility Score: inf
ROOT
ATOM      1  C   UNL A   1      33.585  30.412  26.785  1.00  0.00     0.002 C 
ENDROOT
BRANCH   1   2
ATOM      2  C   UNL A   1      32.537  29.321  27.045  1.00  0.00     0.021 C 
BRANCH   2   3
ATOM      3  C   UNL A   1      33.079  27.896  27.067  1.00  0.00     0.116 C 
BRANCH   3   4
ATOM      4  N   UNL A   1      33.719  27.497  25.834  1.00  0.00    -0.352 N 
ATOM      5  C   UNL A   1      33.197  27.152  24.616  1.00  0.00     0.253 C 
ATOM      6  O   UNL A   1      33.998  26.817  23.737  1.00  0.00    -0.269 OA
ATOM      7  H   UNL A   1      34.702  27.468  25.877  1.00  0.00     0.163 HD
BRANCH   5   8
ATOM      8  C   UNL A   1      31.741  27.118  24.282  1.00  0.00     0.067 A 
ATOM      9  C   UNL A   1      30.736  26.288  24.799  1.00  0.00     0.054 A 
ATOM     10  C   UNL A   1      29.462  26.283  24.181  1.00  0.00     0.031 A 
ATOM     11  C   UNL A   1      29.103  27.254  23.252  1.00  0.00     0.049 A 
ATOM     12  C   UNL A   1      31.363  28.084  23.312  1.00  0.00     0.063 A 
ATOM     13  C   UNL A   1      30.043  28.202  22.889  1.00  0.00     0.131 A 
BRANCH   9  14
ATOM     14  N   UNL A   1      30.787  25.422  25.895  1.00  0.00    -0.325 N 
ATOM     15  C   UNL A   1      31.130  24.139  26.161  1.00  0.00     0.231 C 
ATOM     16  O   UNL A   1      31.008  23.922  27.382  1.00  0.00    -0.274 OA
ATOM     17  H   UNL A   1      30.484  25.878  26.713  1.00  0.00     0.169 HD
BRANCH  15  18
ATOM     18  C   UNL A   1      31.764  23.038  25.246  1.00  0.00     0.108 C 
BRANCH  18  19
ATOM     19  C   UNL A   1      31.507  21.559  25.569  1.00  0.00     0.015 C 
ATOM     20  C   UNL A   1      32.341  20.538  24.824  1.00  0.00     0.005 C 
ENDBRANCH  18  19
BRANCH  18  21
ATOM     21  C   UNL A   1      33.279  23.304  24.944  1.00  0.00    -0.036 A 
ATOM     22  C   UNL A   1      33.838  23.183  23.654  1.00  0.00     0.004 A 
ATOM     23  C   UNL A   1      34.150  23.770  25.949  1.00  0.00     0.004 A 
ATOM     24  C   UNL A   1      35.179  23.494  23.391  1.00  0.00     0.000 A 
ATOM     25  C   UNL A   1      35.505  24.028  25.700  1.00  0.00     0.000 A 
ATOM     26  C   UNL A   1      36.019  23.897  24.418  1.00  0.00     0.000 A 
ENDBRANCH  18  21
ENDBRANCH  15  18
ENDBRANCH   9  14
BRANCH  13  27
ATOM     27  O   UNL A   1      29.620  29.239  22.035  1.00  0.00    -0.427 OA
BRANCH  27  28
ATOM     28  C   UNL A   1      29.025  30.410  22.514  1.00  0.00     0.308 C 
ATOM     29  C   UNL A   1      28.094  31.126  21.579  1.00  0.00     0.139 C 
ATOM     30  O   UNL A   1      29.187  30.778  23.674  1.00  0.00    -0.252 OA
ENDBRANCH  27  28
ENDBRANCH  13  27
ENDBRANCH   5   8
ENDBRANCH   3   4
ENDBRANCH   2   3
ENDBRANCH   1   2
BRANCH   1  31
ATOM     31  C   UNL A   1      33.380  31.746  27.513  1.00  0.00     0.002 C 
BRANCH  31  32
ATOM     32  C   UNL A   1      34.594  32.330  28.241  1.00  0.00     0.021 C 
BRANCH  32  33
ATOM     33  C   UNL A   1      35.668  31.325  28.637  1.00  0.00     0.116 C 
BRANCH  33  34
ATOM     34  N   UNL A   1      35.613  30.958  30.042  1.00  0.00    -0.352 N 
ATOM     35  C   UNL A   1      36.564  30.359  30.822  1.00  0.00     0.251 C 
ATOM     36  H   UNL A   1      34.767  31.171  30.499  1.00  0.00     0.163 HD
ATOM     37  O   UNL A   1      36.281  30.016  31.972  1.00  0.00    -0.269 OA
BRANCH  35  38
ATOM     38  C   UNL A   1      37.916  30.092  30.283  1.00  0.00     0.039 A 
ATOM     39  C   UNL A   1      39.000  30.106  31.165  1.00  0.00     0.014 A 
ATOM     40  C   UNL A   1      38.122  29.837  28.925  1.00  0.00     0.014 A 
ATOM     41  C   UNL A   1      40.279  29.811  30.693  1.00  0.00     0.010 A 
ATOM     42  C   UNL A   1      39.385  29.466  28.470  1.00  0.00     0.010 A 
ATOM     43  C   UNL A   1      40.479  29.456  29.348  1.00  0.00    -0.014 A 
BRANCH  43  44
ATOM     44  C   UNL A   1      41.824  29.059  28.860  1.00  0.00     0.031 A 
ATOM     45  C   UNL A   1      42.931  30.074  28.762  1.00  0.00     0.074 A 
ATOM     46  C   UNL A   1      42.033  27.786  28.467  1.00  0.00     0.049 A 
ATOM     47  N   UNL A   1      44.164  29.912  28.357  1.00  0.00    -0.248 NA
ATOM     48  C   UNL A   1      42.604  31.457  29.144  1.00  0.00     0.031 C 
ATOM     49  C   UNL A   1      41.018  26.729  28.459  1.00  0.00     0.029 A 
ATOM     50  N   UNL A   1      43.161  27.163  27.999  1.00  0.00    -0.354 N 
ATOM     51  C   UNL A   1      44.756  31.167  28.428  1.00  0.00     0.074 A 
ATOM     52  C   UNL A   1      43.730  32.092  28.857  1.00  0.00     0.031 C 
ATOM     53  C   UNL A   1      41.578  25.584  28.043  1.00  0.00     0.029 A 
ATOM     54  C   UNL A   1      42.979  25.830  27.717  1.00  0.00     0.049 A 
ATOM     55  H   UNL A   1      44.021  27.627  27.877  1.00  0.00     0.167 HD
ATOM     56  C   UNL A   1      46.043  31.512  28.183  1.00  0.00     0.037 A 
ATOM     57  C   UNL A   1      43.842  24.908  27.248  1.00  0.00     0.037 A 
ATOM     58  C   UNL A   1      47.059  30.577  27.772  1.00  0.00     0.049 A 
ATOM     59  C   UNL A   1      45.267  25.313  26.987  1.00  0.00     0.074 A 
ATOM     60  C   UNL A   1      48.406  30.811  27.556  1.00  0.00     0.029 A 
ATOM     61  N   UNL A   1      46.840  29.232  27.508  1.00  0.00    -0.354 N 
ATOM     62  N   UNL A   1      45.830  26.489  27.135  1.00  0.00    -0.248 NA
ATOM     63  C   UNL A   1      46.178  24.267  26.504  1.00  0.00     0.031 C 
ATOM     64  C   UNL A   1      48.990  29.619  27.110  1.00  0.00     0.029 A 
ATOM     65  C   UNL A   1      48.020  28.629  27.104  1.00  0.00     0.049 A 
ATOM     66  H   UNL A   1      45.973  28.774  27.593  1.00  0.00     0.167 HD
ATOM     67  C   UNL A   1      47.165  26.320  26.787  1.00  0.00     0.074 A 
ATOM     68  C   UNL A   1      47.328  24.922  26.438  1.00  0.00     0.031 C 
ATOM     69  C   UNL A   1      48.165  27.236  26.758  1.00  0.00     0.037 A 
BRANCH  56  70
ATOM     70  C   UNL A   1      46.426  32.959  28.352  1.00  0.00     0.058 A 
ATOM     71  C   UNL A   1      46.881  33.464  29.581  1.00  0.00     0.135 A 
ATOM     72  C   UNL A   1      46.370  33.845  27.264  1.00  0.00     0.135 A 
ATOM     73  F   UNL A   1      46.942  32.666  30.660  1.00  0.00    -0.206 F 
ATOM     74  C   UNL A   1      47.237  34.800  29.734  1.00  0.00     0.059 A 
ATOM     75  C   UNL A   1      46.750  35.179  27.386  1.00  0.00     0.059 A 
ATOM     76  F   UNL A   1      45.943  33.419  26.065  1.00  0.00    -0.206 F 
ATOM     77  C   UNL A   1      47.167  35.651  28.630  1.00  0.00     0.060 A 
BRANCH  77  78
ATOM     78  S   UNL A   1      47.635  37.381  28.846  1.00  0.00     0.124 S 
ATOM     79  O   UNL A   1      47.650  37.500  30.300  1.00  0.00    -0.237 OA
ATOM     80  O   UNL A   1      48.938  37.435  28.192  1.00  0.00    -0.237 OA
ATOM     81  O   UNL A   1      46.566  38.110  28.169  1.00  0.00    -0.744 OA
ENDBRANCH  77  78
ENDBRANCH  56  70
BRANCH  57  82
ATOM     82  C   UNL A   1      43.385  23.510  27.022  1.00  0.00     0.058 A 
ATOM     83  C   UNL A   1      43.034  23.061  25.740  1.00  0.00     0.135 A 
ATOM     84  C   UNL A   1      43.314  22.588  28.078  1.00  0.00     0.135 A 
ATOM     85  F   UNL A   1      43.081  23.905  24.697  1.00  0.00    -0.206 F 
ATOM     86  C   UNL A   1      42.615  21.755  25.515  1.00  0.00     0.059 A 
ATOM     87  C   UNL A   1      42.924  21.269  27.874  1.00  0.00     0.059 A 
ATOM     88  F   UNL A   1      43.656  22.962  29.321  1.00  0.00    -0.206 F 
ATOM     89  C   UNL A   1      42.567  20.864  26.589  1.00  0.00     0.060 A 
BRANCH  89  90
ATOM     90  S   UNL A   1      42.069  19.156  26.275  1.00  0.00     0.124 S 
ATOM     91  O   UNL A   1      42.293  18.540  27.578  1.00  0.00    -0.237 OA
ATOM     92  O   UNL A   1      40.675  19.312  25.872  1.00  0.00    -0.237 OA
ATOM     93  O   UNL A   1      42.977  18.732  25.212  1.00  0.00    -0.744 OA
ENDBRANCH  89  90
ENDBRANCH  57  82
BRANCH  69  94
ATOM     94  C   UNL A   1      49.532  26.752  26.357  1.00  0.00     0.058 A 
ATOM     95  C   UNL A   1      50.431  26.218  27.293  1.00  0.00     0.135 A 
ATOM     96  C   UNL A   1      49.930  26.785  25.011  1.00  0.00     0.135 A 
ATOM     97  F   UNL A   1      50.102  26.169  28.595  1.00  0.00    -0.206 F 
ATOM     98  C   UNL A   1      51.688  25.760  26.914  1.00  0.00     0.059 A 
ATOM     99  C   UNL A   1      51.171  26.304  24.604  1.00  0.00     0.059 A 
ATOM    100  F   UNL A   1      49.105  27.275  24.073  1.00  0.00    -0.206 F 
ATOM    101  C   UNL A   1      52.048  25.806  25.565  1.00  0.00     0.060 A 
BRANCH 101 102
ATOM    102  S   UNL A   1      53.673  25.184  25.083  1.00  0.00     0.124 S 
ATOM    103  O   UNL A   1      53.411  23.756  24.940  1.00  0.00    -0.237 OA
ATOM    104  O   UNL A   1      53.927  25.909  23.842  1.00  0.00    -0.237 OA
ATOM    105  O   UNL A   1      54.527  25.557  26.207  1.00  0.00    -0.744 OA
ENDBRANCH 101 102
ENDBRANCH  69  94
ENDBRANCH  43  44
ENDBRANCH  35  38
ENDBRANCH  33  34
ENDBRANCH  32  33
ENDBRANCH  31  32
ENDBRANCH   1  31
TORSDOF 22
ENDMDL
MODEL 3
REMARK VINA RESULT:     -11.2      2.718      8.450
REMARK SMILES CC[C@@H](C(=O)Nc1ccc(OC(C)=O)cc1C(=O)NCCCCCCNC(=O)c1ccc(-c2c3nc(c(-c4c(F)cc(S(=O)(=O)[O-])cc4F)c4ccc([nH]4)c(-c4c(F)cc(S(=O)(=O)[O-])cc4F)c4nc(c(-c5c(F)cc(S(=O)(=O)[O-])cc5F)c5ccc2[nH]5)C=C4)C=C3)cc1)c1ccccc1
REMARK SMILES IDX 22 1 21 2 20 3 19 4 17 5 18 6 16 8 7 9 8 10 9 11 15 12 10 13
REMARK SMILES IDX 6 14 4 15 5 16 3 18 2 19 1 20 95 21 96 22 100 23 97 24 99 25
REMARK SMILES IDX 98 26 11 27 12 28 13 29 14 30 23 31 24 32 25 33 26 34 27 35
REMARK SMILES IDX 28 37 29 38 30 39 94 40 31 41 93 42 32 43 33 44 34 45 87 46
REMARK SMILES IDX 35 47 92 48 86 49 88 50 36 51 91 52 85 53 84 54 37 56 71 57
REMARK SMILES IDX 50 58 70 59 51 60 54 61 69 62 89 63 52 64 53 65 68 67 90 68
REMARK SMILES IDX 55 69 38 70 39 71 48 72 40 73 41 74 47 75 49 76 42 77 43 78
REMARK SMILES IDX 44 79 45 80 46 81 72 82 73 83 82 84 74 85 75 86 81 87 83 88
REMARK SMILES IDX 76 89 77 90 78 91 79 92 80 93 56 94 57 95 66 96 58 97 59 98
REMARK SMILES IDX 65 99 67 100 60 101 61 102 62 103 63 104 64 105
REMARK H PARENT 19 7 6 17 26 36 88 55 54 66
REMARK Flexibility Score: inf
ROOT
ATOM      1  C   UNL A   1      35.224  30.839  28.767  1.00  0.00     0.002 C 
ENDROOT
BRANCH   1   2
ATOM      2  C   UNL A   1      35.848  29.706  27.939  1.00  0.00     0.021 C 
BRANCH   2   3
ATOM      3  C   UNL A   1      34.893  29.002  26.983  1.00  0.00     0.116 C 
BRANCH   3   4
ATOM      4  N   UNL A   1      33.641  28.611  27.593  1.00  0.00    -0.352 N 
ATOM      5  C   UNL A   1      32.444  28.241  27.041  1.00  0.00     0.253 C 
ATOM      6  O   UNL A   1      31.521  27.988  27.822  1.00  0.00    -0.269 OA
ATOM      7  H   UNL A   1      33.651  28.613  28.577  1.00  0.00     0.163 HD
BRANCH   5   8
ATOM      8  C   UNL A   1      32.163  28.151  25.576  1.00  0.00     0.067 A 
ATOM      9  C   UNL A   1      32.728  27.295  24.620  1.00  0.00     0.054 A 
ATOM     10  C   UNL A   1      32.470  27.530  23.248  1.00  0.00     0.031 A 
ATOM     11  C   UNL A   1      31.477  28.414  22.838  1.00  0.00     0.049 A 
ATOM     12  C   UNL A   1      31.173  29.068  25.136  1.00  0.00     0.063 A 
ATOM     13  C   UNL A   1      30.777  29.116  23.803  1.00  0.00     0.131 A 
BRANCH   9  14
ATOM     14  N   UNL A   1      33.543  26.176  24.812  1.00  0.00    -0.325 N 
ATOM     15  C   UNL A   1      33.410  24.862  25.115  1.00  0.00     0.231 C 
ATOM     16  O   UNL A   1      34.532  24.320  25.106  1.00  0.00    -0.274 OA
ATOM     17  H   UNL A   1      34.491  26.412  24.695  1.00  0.00     0.169 HD
BRANCH  15  18
ATOM     18  C   UNL A   1      32.131  23.977  25.291  1.00  0.00     0.108 C 
BRANCH  18  19
ATOM     19  C   UNL A   1      31.521  23.817  26.691  1.00  0.00     0.015 C 
ATOM     20  C   UNL A   1      30.153  23.172  26.775  1.00  0.00     0.005 C 
ENDBRANCH  18  19
BRANCH  18  21
ATOM     21  C   UNL A   1      32.245  22.599  24.554  1.00  0.00    -0.036 A 
ATOM     22  C   UNL A   1      32.585  21.399  25.214  1.00  0.00     0.004 A 
ATOM     23  C   UNL A   1      31.918  22.476  23.188  1.00  0.00     0.004 A 
ATOM     24  C   UNL A   1      32.613  20.165  24.551  1.00  0.00     0.000 A 
ATOM     25  C   UNL A   1      31.998  21.251  22.510  1.00  0.00     0.000 A 
ATOM     26  C   UNL A   1      32.339  20.094  23.193  1.00  0.00     0.000 A 
ENDBRANCH  18  21
ENDBRANCH  15  18
ENDBRANCH   9  14
BRANCH  13  27
ATOM     27  O   UNL A   1      29.703  29.918  23.369  1.00  0.00    -0.427 OA
BRANCH  27  28
ATOM     28  C   UNL A   1      28.727  29.449  22.484  1.00  0.00     0.308 C 
ATOM     29  C   UNL A   1      27.609  28.643  23.078  1.00  0.00     0.139 C 
ATOM     30  O   UNL A   1      28.740  29.762  21.297  1.00  0.00    -0.252 OA
ENDBRANCH  27  28
ENDBRANCH  13  27
ENDBRANCH   5   8
ENDBRANCH   3   4
ENDBRANCH   2   3
ENDBRANCH   1   2
BRANCH   1  31
ATOM     31  C   UNL A   1      35.216  32.231  28.126  1.00  0.00     0.002 C 
BRANCH  31  32
ATOM     32  C   UNL A   1      33.862  32.940  28.028  1.00  0.00     0.021 C 
BRANCH  32  33
ATOM     33  C   UNL A   1      33.904  34.457  28.158  1.00  0.00     0.116 C 
BRANCH  33  34
ATOM     34  N   UNL A   1      33.015  34.964  29.188  1.00  0.00    -0.352 N 
ATOM     35  C   UNL A   1      33.146  34.918  30.551  1.00  0.00     0.251 C 
ATOM     36  H   UNL A   1      32.198  35.404  28.859  1.00  0.00     0.163 HD
ATOM     37  O   UNL A   1      32.217  35.299  31.265  1.00  0.00    -0.269 OA
BRANCH  35  38
ATOM     38  C   UNL A   1      34.381  34.385  31.166  1.00  0.00     0.039 A 
ATOM     39  C   UNL A   1      34.372  33.074  31.651  1.00  0.00     0.014 A 
ATOM     40  C   UNL A   1      35.537  35.163  31.275  1.00  0.00     0.014 A 
ATOM     41  C   UNL A   1      35.536  32.529  32.193  1.00  0.00     0.010 A 
ATOM     42  C   UNL A   1      36.718  34.593  31.744  1.00  0.00     0.010 A 
ATOM     43  C   UNL A   1      36.729  33.272  32.214  1.00  0.00    -0.014 A 
BRANCH  43  44
ATOM     44  C   UNL A   1      37.991  32.667  32.712  1.00  0.00     0.031 A 
ATOM     45  C   UNL A   1      38.470  32.945  34.111  1.00  0.00     0.074 A 
ATOM     46  C   UNL A   1      38.724  31.898  31.883  1.00  0.00     0.049 A 
ATOM     47  N   UNL A   1      39.545  32.509  34.716  1.00  0.00    -0.248 NA
ATOM     48  C   UNL A   1      37.648  33.850  34.931  1.00  0.00     0.031 C 
ATOM     49  C   UNL A   1      38.391  31.610  30.485  1.00  0.00     0.029 A 
ATOM     50  N   UNL A   1      39.898  31.219  32.089  1.00  0.00    -0.354 N 
ATOM     51  C   UNL A   1      39.533  33.090  35.979  1.00  0.00     0.074 A 
ATOM     52  C   UNL A   1      38.377  33.957  36.032  1.00  0.00     0.031 C 
ATOM     53  C   UNL A   1      39.318  30.787  29.972  1.00  0.00     0.029 A 
ATOM     54  C   UNL A   1      40.332  30.519  30.988  1.00  0.00     0.049 A 
ATOM     55  H   UNL A   1      40.384  31.232  32.945  1.00  0.00     0.167 HD
ATOM     56  C   UNL A   1      40.394  32.897  37.007  1.00  0.00     0.037 A 
ATOM     57  C   UNL A   1      41.423  29.749  30.814  1.00  0.00     0.037 A 
ATOM     58  C   UNL A   1      41.533  32.017  36.946  1.00  0.00     0.049 A 
ATOM     59  C   UNL A   1      42.361  29.546  31.972  1.00  0.00     0.074 A 
ATOM     60  C   UNL A   1      42.433  31.704  37.950  1.00  0.00     0.029 A 
ATOM     61  N   UNL A   1      41.934  31.316  35.818  1.00  0.00    -0.354 N 
ATOM     62  N   UNL A   1      42.292  30.042  33.185  1.00  0.00    -0.248 NA
ATOM     63  C   UNL A   1      43.522  28.676  31.742  1.00  0.00     0.031 C 
ATOM     64  C   UNL A   1      43.407  30.855  37.413  1.00  0.00     0.029 A 
ATOM     65  C   UNL A   1      43.083  30.592  36.091  1.00  0.00     0.049 A 
ATOM     66  H   UNL A   1      41.470  31.331  34.949  1.00  0.00     0.167 HD
ATOM     67  C   UNL A   1      43.386  29.524  33.871  1.00  0.00     0.074 A 
ATOM     68  C   UNL A   1      44.088  28.663  32.940  1.00  0.00     0.031 C 
ATOM     69  C   UNL A   1      43.772  29.741  35.153  1.00  0.00     0.037 A 
BRANCH  56  70
ATOM     70  C   UNL A   1      40.138  33.651  38.286  1.00  0.00     0.058 A 
ATOM     71  C   UNL A   1      39.187  33.214  39.224  1.00  0.00     0.135 A 
ATOM     72  C   UNL A   1      40.874  34.806  38.595  1.00  0.00     0.135 A 
ATOM     73  F   UNL A   1      38.444  32.124  38.976  1.00  0.00    -0.206 F 
ATOM     74  C   UNL A   1      38.955  33.910  40.405  1.00  0.00     0.059 A 
ATOM     75  C   UNL A   1      40.680  35.501  39.785  1.00  0.00     0.059 A 
ATOM     76  F   UNL A   1      41.795  35.271  37.737  1.00  0.00    -0.206 F 
ATOM     77  C   UNL A   1      39.706  35.054  40.677  1.00  0.00     0.060 A 
BRANCH  77  78
ATOM     78  S   UNL A   1      39.393  35.944  42.216  1.00  0.00     0.124 S 
ATOM     79  O   UNL A   1      40.402  35.365  43.098  1.00  0.00    -0.237 OA
ATOM     80  O   UNL A   1      39.615  37.332  41.825  1.00  0.00    -0.237 OA
ATOM     81  O   UNL A   1      38.010  35.599  42.535  1.00  0.00    -0.744 OA
ENDBRANCH  77  78
ENDBRANCH  56  70
BRANCH  57  82
ATOM     82  C   UNL A   1      41.668  29.094  29.500  1.00  0.00     0.058 A 
ATOM     83  C   UNL A   1      42.472  29.704  28.526  1.00  0.00     0.135 A 
ATOM     84  C   UNL A   1      41.122  27.836  29.202  1.00  0.00     0.135 A 
ATOM     85  F   UNL A   1      43.013  30.909  28.761  1.00  0.00    -0.206 F 
ATOM     86  C   UNL A   1      42.716  29.098  27.298  1.00  0.00     0.059 A 
ATOM     87  C   UNL A   1      41.374  27.196  27.992  1.00  0.00     0.059 A 
ATOM     88  F   UNL A   1      40.360  27.201  30.107  1.00  0.00    -0.206 F 
ATOM     89  C   UNL A   1      42.165  27.840  27.042  1.00  0.00     0.060 A 
BRANCH  89  90
ATOM     90  S   UNL A   1      42.530  27.040  25.465  1.00  0.00     0.124 S 
ATOM     91  O   UNL A   1      42.564  28.181  24.557  1.00  0.00    -0.237 OA
ATOM     92  O   UNL A   1      43.813  26.399  25.736  1.00  0.00    -0.237 OA
ATOM     93  O   UNL A   1      41.406  26.124  25.286  1.00  0.00    -0.744 OA
ENDBRANCH  89  90
ENDBRANCH  57  82
BRANCH  69  94
ATOM     94  C   UNL A   1      45.000  29.017  35.634  1.00  0.00     0.058 A 
ATOM     95  C   UNL A   1      46.279  29.587  35.539  1.00  0.00     0.135 A 
ATOM     96  C   UNL A   1      44.889  27.755  36.238  1.00  0.00     0.135 A 
ATOM     97  F   UNL A   1      46.443  30.790  34.964  1.00  0.00    -0.206 F 
ATOM     98  C   UNL A   1      47.409  28.918  35.999  1.00  0.00     0.059 A 
ATOM     99  C   UNL A   1      46.000  27.080  36.734  1.00  0.00     0.059 A 
ATOM    100  F   UNL A   1      43.687  27.169  36.365  1.00  0.00    -0.206 F 
ATOM    101  C   UNL A   1      47.258  27.665  36.596  1.00  0.00     0.060 A 
BRANCH 101 102
ATOM    102  S   UNL A   1      48.729  26.819  37.212  1.00  0.00     0.124 S 
ATOM    103  O   UNL A   1      49.348  27.859  38.025  1.00  0.00    -0.237 OA
ATOM    104  O   UNL A   1      48.157  25.695  37.948  1.00  0.00    -0.237 OA
ATOM    105  O   UNL A   1      49.450  26.461  35.994  1.00  0.00    -0.744 OA
ENDBRANCH 101 102
ENDBRANCH  69  94
ENDBRANCH  43  44
ENDBRANCH  35  38
ENDBRANCH  33  34
ENDBRANCH  32  33
ENDBRANCH  31  32
ENDBRANCH   1  31
TORSDOF 22
ENDMDL
