MODEL 1
REMARK VINA RESULT:     -10.9      0.000      0.000
REMARK SMILES CC[N@@H+]1CCO[C@H](C[NH2+][C@@H]2CCC[C@H](C(=O)NCCCCCCNC(=O)c3ccc(-c4c5nc(c(-c6c(F)cc(S(=O)(=O)[O-])cc6F)c6ccc([nH]6)c(-c6c(F)cc(S(=O)(=O)[O-])cc6F)c6nc(c(-c7c(F)cc(S(=O)(=O)[O-])cc7F)c7ccc4[nH]7)C=C6)C=C5)cc3)C2)C1
REMARK SMILES IDX 20 1 19 2 18 3 17 4 15 5 16 6 14 8 10 9 11 10 93 11 12 12
REMARK SMILES IDX 13 13 9 14 8 17 7 18 3 19 4 20 94 21 5 23 6 24 2 25 1 26
REMARK SMILES IDX 21 27 22 28 23 29 24 30 25 31 26 33 27 34 28 35 92 36 29 37
REMARK SMILES IDX 91 38 30 39 31 40 32 41 85 42 33 43 90 44 84 45 86 46 34 47
REMARK SMILES IDX 89 48 83 49 82 50 35 52 69 53 48 54 68 55 49 56 52 57 67 58
REMARK SMILES IDX 87 59 50 60 51 61 66 63 88 64 53 65 36 66 37 67 46 68 38 69
REMARK SMILES IDX 39 70 45 71 47 72 40 73 41 74 42 75 43 76 44 77 70 78 71 79
REMARK SMILES IDX 80 80 72 81 73 82 79 83 81 84 74 85 75 86 76 87 77 88 78 89
REMARK SMILES IDX 54 90 55 91 64 92 56 93 57 94 63 95 65 96 58 97 59 98 60 99
REMARK SMILES IDX 61 100 62 101
REMARK H PARENT 17 7 9 15 9 16 3 22 24 32 86 51 52 62
REMARK Flexibility Score: inf
ROOT
ATOM      1  C   UNL A   1      30.613  26.127  26.040  1.00  0.00     0.002 C 
ENDROOT
BRANCH   1   2
ATOM      2  C   UNL A   1      30.599  26.202  24.510  1.00  0.00     0.021 C 
BRANCH   2   3
ATOM      3  C   UNL A   1      30.624  24.850  23.798  1.00  0.00     0.116 C 
BRANCH   3   4
ATOM      4  N   UNL A   1      31.449  24.879  22.602  1.00  0.00    -0.356 N 
ATOM      5  C   UNL A   1      32.710  24.421  22.366  1.00  0.00     0.223 C 
ATOM      6  O   UNL A   1      33.167  24.562  21.228  1.00  0.00    -0.275 OA
ATOM      7  H   UNL A   1      31.021  25.305  21.824  1.00  0.00     0.163 HD
BRANCH   5   8
ATOM      8  C   UNL A   1      33.553  23.759  23.455  1.00  0.00     0.084 C 
ATOM      9  C   UNL A   1      33.480  21.964  25.327  1.00  0.00     0.183 C 
ATOM     10  C   UNL A   1      33.825  23.100  26.303  1.00  0.00     0.065 C 
ATOM     11  C   UNL A   1      32.848  22.522  24.037  1.00  0.00     0.078 C 
ATOM     12  C   UNL A   1      34.734  24.138  25.661  1.00  0.00     0.007 C 
ATOM     13  C   UNL A   1      34.051  24.791  24.472  1.00  0.00     0.014 C 
BRANCH   9  14
ATOM     14  N   UNL A   1      32.536  20.955  25.833  1.00  0.00    -0.341 N 
ATOM     15  H   UNL A   1      32.414  21.124  26.832  1.00  0.00     0.346 HD
ATOM     16  H   UNL A   1      31.696  21.076  25.267  1.00  0.00     0.346 HD
BRANCH  14  17
ATOM     17  C   UNL A   1      32.904  19.550  25.664  1.00  0.00     0.299 C 
BRANCH  17  18
ATOM     18  C   UNL A   1      33.359  19.180  24.230  1.00  0.00     0.227 C 
ATOM     19  N   UNL A   1      32.782  16.685  23.988  1.00  0.00    -0.331 N 
ATOM     20  C   UNL A   1      34.236  16.440  24.021  1.00  0.00     0.291 C 
ATOM     21  C   UNL A   1      32.549  18.064  23.521  1.00  0.00     0.300 C 
ATOM     22  H   UNL A   1      32.347  16.040  23.329  1.00  0.00     0.348 HD
ATOM     23  C   UNL A   1      35.045  17.541  24.730  1.00  0.00     0.222 C 
ATOM     24  O   UNL A   1      34.767  18.856  24.218  1.00  0.00    -0.361 OA
BRANCH  19  25
ATOM     25  C   UNL A   1      32.128  16.388  25.260  1.00  0.00     0.258 C 
ATOM     26  C   UNL A   1      32.535  15.003  25.729  1.00  0.00     0.071 C 
ENDBRANCH  19  25
ENDBRANCH  17  18
ENDBRANCH  14  17
ENDBRANCH   9  14
ENDBRANCH   5   8
ENDBRANCH   3   4
ENDBRANCH   2   3
ENDBRANCH   1   2
BRANCH   1  27
ATOM     27  C   UNL A   1      31.480  27.174  26.751  1.00  0.00     0.002 C 
BRANCH  27  28
ATOM     28  C   UNL A   1      32.713  27.649  25.979  1.00  0.00     0.021 C 
BRANCH  28  29
ATOM     29  C   UNL A   1      33.849  28.198  26.834  1.00  0.00     0.116 C 
BRANCH  29  30
ATOM     30  N   UNL A   1      33.604  29.569  27.247  1.00  0.00    -0.352 N 
ATOM     31  C   UNL A   1      34.407  30.413  27.967  1.00  0.00     0.251 C 
ATOM     32  H   UNL A   1      32.737  29.945  26.970  1.00  0.00     0.163 HD
ATOM     33  O   UNL A   1      33.943  31.470  28.403  1.00  0.00    -0.269 OA
BRANCH  31  34
ATOM     34  C   UNL A   1      35.821  30.064  28.234  1.00  0.00     0.039 A 
ATOM     35  C   UNL A   1      36.182  29.634  29.514  1.00  0.00     0.014 A 
ATOM     36  C   UNL A   1      36.797  30.194  27.241  1.00  0.00     0.014 A 
ATOM     37  C   UNL A   1      37.510  29.302  29.787  1.00  0.00     0.010 A 
ATOM     38  C   UNL A   1      38.107  29.792  27.495  1.00  0.00     0.010 A 
ATOM     39  C   UNL A   1      38.483  29.360  28.775  1.00  0.00    -0.014 A 
BRANCH  39  40
ATOM     40  C   UNL A   1      39.900  29.007  29.051  1.00  0.00     0.031 A 
ATOM     41  C   UNL A   1      40.825  30.024  29.669  1.00  0.00     0.074 A 
ATOM     42  C   UNL A   1      40.368  27.791  28.708  1.00  0.00     0.049 A 
ATOM     43  N   UNL A   1      42.101  29.923  29.943  1.00  0.00    -0.248 NA
ATOM     44  C   UNL A   1      40.245  31.337  29.995  1.00  0.00     0.031 C 
ATOM     45  C   UNL A   1      39.586  26.735  28.061  1.00  0.00     0.029 A 
ATOM     46  N   UNL A   1      41.616  27.237  28.850  1.00  0.00    -0.354 N 
ATOM     47  C   UNL A   1      42.477  31.159  30.458  1.00  0.00     0.074 A 
ATOM     48  C   UNL A   1      41.310  32.011  30.405  1.00  0.00     0.031 C 
ATOM     49  C   UNL A   1      40.365  25.656  27.884  1.00  0.00     0.029 A 
ATOM     50  C   UNL A   1      41.708  25.951  28.372  1.00  0.00     0.049 A 
ATOM     51  H   UNL A   1      42.375  27.717  29.255  1.00  0.00     0.167 HD
ATOM     52  C   UNL A   1      43.679  31.542  30.953  1.00  0.00     0.037 A 
ATOM     53  C   UNL A   1      42.757  25.106  28.330  1.00  0.00     0.037 A 
ATOM     54  C   UNL A   1      44.830  30.680  31.031  1.00  0.00     0.049 A 
ATOM     55  C   UNL A   1      44.078  25.547  28.902  1.00  0.00     0.074 A 
ATOM     56  C   UNL A   1      46.078  30.954  31.563  1.00  0.00     0.029 A 
ATOM     57  N   UNL A   1      44.873  29.372  30.567  1.00  0.00    -0.354 N 
ATOM     58  N   UNL A   1      44.401  26.701  29.436  1.00  0.00    -0.248 NA
ATOM     59  C   UNL A   1      45.172  24.567  28.881  1.00  0.00     0.031 C 
ATOM     60  C   UNL A   1      46.888  29.828  31.382  1.00  0.00     0.029 A 
ATOM     61  C   UNL A   1      46.129  28.833  30.788  1.00  0.00     0.049 A 
ATOM     62  H   UNL A   1      44.121  28.899  30.143  1.00  0.00     0.167 HD
ATOM     63  C   UNL A   1      45.724  26.574  29.846  1.00  0.00     0.074 A 
ATOM     64  C   UNL A   1      46.138  25.228  29.505  1.00  0.00     0.031 C 
ATOM     65  C   UNL A   1      46.522  27.486  30.454  1.00  0.00     0.037 A 
BRANCH  52  66
ATOM     66  C   UNL A   1      43.809  32.956  31.454  1.00  0.00     0.058 A 
ATOM     67  C   UNL A   1      44.141  34.017  30.595  1.00  0.00     0.135 A 
ATOM     68  C   UNL A   1      43.569  33.261  32.804  1.00  0.00     0.135 A 
ATOM     69  F   UNL A   1      44.397  33.782  29.298  1.00  0.00    -0.206 F 
ATOM     70  C   UNL A   1      44.263  35.322  31.061  1.00  0.00     0.059 A 
ATOM     71  C   UNL A   1      43.654  34.564  33.286  1.00  0.00     0.059 A 
ATOM     72  F   UNL A   1      43.248  32.287  33.670  1.00  0.00    -0.206 F 
ATOM     73  C   UNL A   1      44.018  35.585  32.411  1.00  0.00     0.060 A 
BRANCH  73  74
ATOM     74  S   UNL A   1      44.179  37.284  32.999  1.00  0.00     0.124 S 
ATOM     75  O   UNL A   1      44.226  38.024  31.742  1.00  0.00    -0.237 OA
ATOM     76  O   UNL A   1      42.964  37.457  33.790  1.00  0.00    -0.237 OA
ATOM     77  O   UNL A   1      45.423  37.263  33.762  1.00  0.00    -0.744 OA
ENDBRANCH  73  74
ENDBRANCH  52  66
BRANCH  53  78
ATOM     78  C   UNL A   1      42.591  23.744  27.754  1.00  0.00     0.058 A 
ATOM     79  C   UNL A   1      42.440  22.622  28.583  1.00  0.00     0.135 A 
ATOM     80  C   UNL A   1      42.571  23.537  26.366  1.00  0.00     0.135 A 
ATOM     81  F   UNL A   1      42.459  22.767  29.917  1.00  0.00    -0.206 F 
ATOM     82  C   UNL A   1      42.295  21.342  28.060  1.00  0.00     0.059 A 
ATOM     83  C   UNL A   1      42.398  22.270  25.818  1.00  0.00     0.059 A 
ATOM     84  F   UNL A   1      42.693  24.579  25.529  1.00  0.00    -0.206 F 
ATOM     85  C   UNL A   1      42.274  21.176  26.674  1.00  0.00     0.060 A 
BRANCH  85  86
ATOM     86  S   UNL A   1      42.041  19.515  26.005  1.00  0.00     0.124 S 
ATOM     87  O   UNL A   1      42.895  19.553  24.822  1.00  0.00    -0.237 OA
ATOM     88  O   UNL A   1      42.508  18.674  27.102  1.00  0.00    -0.237 OA
ATOM     89  O   UNL A   1      40.605  19.456  25.745  1.00  0.00    -0.744 OA
ENDBRANCH  85  86
ENDBRANCH  53  78
BRANCH  65  90
ATOM     90  C   UNL A   1      47.908  27.045  30.840  1.00  0.00     0.058 A 
ATOM     91  C   UNL A   1      48.167  26.376  32.046  1.00  0.00     0.135 A 
ATOM     92  C   UNL A   1      48.987  27.264  29.968  1.00  0.00     0.135 A 
ATOM     93  F   UNL A   1      47.172  26.143  32.917  1.00  0.00    -0.206 F 
ATOM     94  C   UNL A   1      49.453  25.968  32.390  1.00  0.00     0.059 A 
ATOM     95  C   UNL A   1      50.275  26.840  30.277  1.00  0.00     0.059 A 
ATOM     96  F   UNL A   1      48.793  27.888  28.795  1.00  0.00    -0.206 F 
ATOM     97  C   UNL A   1      50.502  26.207  31.498  1.00  0.00     0.060 A 
BRANCH  97  98
ATOM     98  S   UNL A   1      52.162  25.662  31.948  1.00  0.00     0.124 S 
ATOM     99  O   UNL A   1      52.454  26.521  33.090  1.00  0.00    -0.237 OA
ATOM    100  O   UNL A   1      51.956  24.249  32.251  1.00  0.00    -0.237 OA
ATOM    101  O   UNL A   1      52.945  25.929  30.745  1.00  0.00    -0.744 OA
ENDBRANCH  97  98
ENDBRANCH  65  90
ENDBRANCH  39  40
ENDBRANCH  31  34
ENDBRANCH  29  30
ENDBRANCH  28  29
ENDBRANCH  27  28
ENDBRANCH   1  27
TORSDOF 20
ENDMDL
MODEL 2
REMARK VINA RESULT:     -10.6      4.675     10.260
REMARK SMILES CC[N@@H+]1CCO[C@H](C[NH2+][C@@H]2CCC[C@H](C(=O)NCCCCCCNC(=O)c3ccc(-c4c5nc(c(-c6c(F)cc(S(=O)(=O)[O-])cc6F)c6ccc([nH]6)c(-c6c(F)cc(S(=O)(=O)[O-])cc6F)c6nc(c(-c7c(F)cc(S(=O)(=O)[O-])cc7F)c7ccc4[nH]7)C=C6)C=C5)cc3)C2)C1
REMARK SMILES IDX 20 1 19 2 18 3 17 4 15 5 16 6 14 8 10 9 11 10 93 11 12 12
REMARK SMILES IDX 13 13 9 14 8 17 7 18 3 19 4 20 94 21 5 23 6 24 2 25 1 26
REMARK SMILES IDX 21 27 22 28 23 29 24 30 25 31 26 33 27 34 28 35 92 36 29 37
REMARK SMILES IDX 91 38 30 39 31 40 32 41 85 42 33 43 90 44 84 45 86 46 34 47
REMARK SMILES IDX 89 48 83 49 82 50 35 52 69 53 48 54 68 55 49 56 52 57 67 58
REMARK SMILES IDX 87 59 50 60 51 61 66 63 88 64 53 65 36 66 37 67 46 68 38 69
REMARK SMILES IDX 39 70 45 71 47 72 40 73 41 74 42 75 43 76 44 77 70 78 71 79
REMARK SMILES IDX 80 80 72 81 73 82 79 83 81 84 74 85 75 86 76 87 77 88 78 89
REMARK SMILES IDX 54 90 55 91 64 92 56 93 57 94 63 95 65 96 58 97 59 98 60 99
REMARK SMILES IDX 61 100 62 101
REMARK H PARENT 17 7 9 15 9 16 3 22 24 32 86 51 52 62
REMARK Flexibility Score: inf
ROOT
ATOM      1  C   UNL A   1      41.615  21.890  27.818  1.00  0.00     0.002 C 
ENDROOT
BRANCH   1   2
ATOM      2  C   UNL A   1      40.243  22.569  27.735  1.00  0.00     0.021 C 
BRANCH   2   3
ATOM      3  C   UNL A   1      39.666  22.686  26.325  1.00  0.00     0.116 C 
BRANCH   3   4
ATOM      4  N   UNL A   1      39.230  21.400  25.805  1.00  0.00    -0.356 N 
ATOM      5  C   UNL A   1      38.040  20.998  25.278  1.00  0.00     0.223 C 
ATOM      6  O   UNL A   1      37.952  19.831  24.888  1.00  0.00    -0.275 OA
ATOM      7  H   UNL A   1      39.916  20.694  25.840  1.00  0.00     0.163 HD
BRANCH   5   8
ATOM      8  C   UNL A   1      36.840  21.937  25.168  1.00  0.00     0.084 C 
ATOM      9  C   UNL A   1      34.257  22.033  25.397  1.00  0.00     0.183 C 
ATOM     10  C   UNL A   1      34.235  22.473  23.924  1.00  0.00     0.065 C 
ATOM     11  C   UNL A   1      35.563  21.286  25.726  1.00  0.00     0.078 C 
ATOM     12  C   UNL A   1      35.448  23.322  23.571  1.00  0.00     0.007 C 
ATOM     13  C   UNL A   1      36.731  22.533  23.761  1.00  0.00     0.014 C 
BRANCH   9  14
ATOM     14  N   UNL A   1      33.166  21.137  25.809  1.00  0.00    -0.341 N 
ATOM     15  H   UNL A   1      32.971  21.325  26.793  1.00  0.00     0.346 HD
ATOM     16  H   UNL A   1      32.400  21.344  25.169  1.00  0.00     0.346 HD
BRANCH  14  17
ATOM     17  C   UNL A   1      33.393  19.699  25.672  1.00  0.00     0.299 C 
BRANCH  17  18
ATOM     18  C   UNL A   1      33.541  19.216  24.206  1.00  0.00     0.227 C 
ATOM     19  N   UNL A   1      32.518  16.857  24.192  1.00  0.00    -0.331 N 
ATOM     20  C   UNL A   1      33.896  16.360  24.014  1.00  0.00     0.291 C 
ATOM     21  C   UNL A   1      32.451  18.242  23.693  1.00  0.00     0.300 C 
ATOM     22  H   UNL A   1      31.881  16.280  23.643  1.00  0.00     0.348 HD
ATOM     23  C   UNL A   1      34.984  17.321  24.529  1.00  0.00     0.222 C 
ATOM     24  O   UNL A   1      34.854  18.650  23.995  1.00  0.00    -0.361 OA
BRANCH  19  25
ATOM     25  C   UNL A   1      32.037  16.713  25.564  1.00  0.00     0.258 C 
ATOM     26  C   UNL A   1      32.295  15.297  26.047  1.00  0.00     0.071 C 
ENDBRANCH  19  25
ENDBRANCH  17  18
ENDBRANCH  14  17
ENDBRANCH   9  14
ENDBRANCH   5   8
ENDBRANCH   3   4
ENDBRANCH   2   3
ENDBRANCH   1   2
BRANCH   1  27
ATOM     27  C   UNL A   1      42.739  22.733  28.431  1.00  0.00     0.002 C 
BRANCH  27  28
ATOM     28  C   UNL A   1      43.944  22.992  27.525  1.00  0.00     0.021 C 
BRANCH  28  29
ATOM     29  C   UNL A   1      44.131  24.438  27.080  1.00  0.00     0.116 C 
BRANCH  29  30
ATOM     30  N   UNL A   1      43.230  24.793  25.997  1.00  0.00    -0.352 N 
ATOM     31  C   UNL A   1      42.148  25.633  26.012  1.00  0.00     0.251 C 
ATOM     32  H   UNL A   1      43.425  24.370  25.129  1.00  0.00     0.163 HD
ATOM     33  O   UNL A   1      41.377  25.646  25.049  1.00  0.00    -0.269 OA
BRANCH  31  34
ATOM     34  C   UNL A   1      41.892  26.512  27.174  1.00  0.00     0.039 A 
ATOM     35  C   UNL A   1      40.959  26.110  28.134  1.00  0.00     0.014 A 
ATOM     36  C   UNL A   1      42.537  27.746  27.303  1.00  0.00     0.014 A 
ATOM     37  C   UNL A   1      40.700  26.926  29.237  1.00  0.00     0.010 A 
ATOM     38  C   UNL A   1      42.333  28.524  28.441  1.00  0.00     0.010 A 
ATOM     39  C   UNL A   1      41.399  28.133  29.411  1.00  0.00    -0.014 A 
BRANCH  39  40
ATOM     40  C   UNL A   1      41.136  29.011  30.582  1.00  0.00     0.031 A 
ATOM     41  C   UNL A   1      41.978  28.885  31.824  1.00  0.00     0.074 A 
ATOM     42  C   UNL A   1      40.115  29.890  30.545  1.00  0.00     0.049 A 
ATOM     43  N   UNL A   1      41.876  29.526  32.961  1.00  0.00    -0.248 NA
ATOM     44  C   UNL A   1      43.060  27.888  31.796  1.00  0.00     0.031 C 
ATOM     45  C   UNL A   1      39.197  30.074  29.418  1.00  0.00     0.029 A 
ATOM     46  N   UNL A   1      39.672  30.790  31.482  1.00  0.00    -0.354 N 
ATOM     47  C   UNL A   1      42.867  29.000  33.784  1.00  0.00     0.074 A 
ATOM     48  C   UNL A   1      43.521  27.949  33.037  1.00  0.00     0.031 C 
ATOM     49  C   UNL A   1      38.317  31.042  29.721  1.00  0.00     0.029 A 
ATOM     50  C   UNL A   1      38.584  31.525  31.072  1.00  0.00     0.049 A 
ATOM     51  H   UNL A   1      40.093  30.899  32.365  1.00  0.00     0.167 HD
ATOM     52  C   UNL A   1      43.216  29.375  35.038  1.00  0.00     0.037 A 
ATOM     53  C   UNL A   1      37.881  32.479  31.713  1.00  0.00     0.037 A 
ATOM     54  C   UNL A   1      42.580  30.442  35.766  1.00  0.00     0.049 A 
ATOM     55  C   UNL A   1      38.298  32.891  33.100  1.00  0.00     0.074 A 
ATOM     56  C   UNL A   1      42.893  30.936  37.021  1.00  0.00     0.029 A 
ATOM     57  N   UNL A   1      41.503  31.186  35.303  1.00  0.00    -0.354 N 
ATOM     58  N   UNL A   1      39.273  32.421  33.841  1.00  0.00    -0.248 NA
ATOM     59  C   UNL A   1      37.531  33.973  33.731  1.00  0.00     0.031 C 
ATOM     60  C   UNL A   1      41.979  31.947  37.335  1.00  0.00     0.029 A 
ATOM     61  C   UNL A   1      41.132  32.123  36.253  1.00  0.00     0.049 A 
ATOM     62  H   UNL A   1      41.068  31.064  34.429  1.00  0.00     0.167 HD
ATOM     63  C   UNL A   1      39.259  33.174  35.011  1.00  0.00     0.074 A 
ATOM     64  C   UNL A   1      38.183  34.135  34.874  1.00  0.00     0.031 C 
ATOM     65  C   UNL A   1      40.066  33.082  36.097  1.00  0.00     0.037 A 
BRANCH  52  66
ATOM     66  C   UNL A   1      44.342  28.628  35.702  1.00  0.00     0.058 A 
ATOM     67  C   UNL A   1      45.680  29.034  35.566  1.00  0.00     0.135 A 
ATOM     68  C   UNL A   1      44.078  27.510  36.512  1.00  0.00     0.135 A 
ATOM     69  F   UNL A   1      45.992  30.085  34.793  1.00  0.00    -0.206 F 
ATOM     70  C   UNL A   1      46.718  28.339  36.180  1.00  0.00     0.059 A 
ATOM     71  C   UNL A   1      45.098  26.820  37.160  1.00  0.00     0.059 A 
ATOM     72  F   UNL A   1      42.818  27.078  36.678  1.00  0.00    -0.206 F 
ATOM     73  C   UNL A   1      46.417  27.232  36.975  1.00  0.00     0.060 A 
BRANCH  73  74
ATOM     74  S   UNL A   1      47.775  26.344  37.765  1.00  0.00     0.124 S 
ATOM     75  O   UNL A   1      47.071  25.607  38.810  1.00  0.00    -0.237 OA
ATOM     76  O   UNL A   1      48.303  25.538  36.668  1.00  0.00    -0.237 OA
ATOM     77  O   UNL A   1      48.652  27.412  38.234  1.00  0.00    -0.744 OA
ENDBRANCH  73  74
ENDBRANCH  52  66
BRANCH  53  78
ATOM     78  C   UNL A   1      36.728  33.133  31.037  1.00  0.00     0.058 A 
ATOM     79  C   UNL A   1      35.411  32.884  31.451  1.00  0.00     0.135 A 
ATOM     80  C   UNL A   1      36.919  34.025  29.971  1.00  0.00     0.135 A 
ATOM     81  F   UNL A   1      35.176  32.034  32.462  1.00  0.00    -0.206 F 
ATOM     82  C   UNL A   1      34.323  33.479  30.821  1.00  0.00     0.059 A 
ATOM     83  C   UNL A   1      35.849  34.655  29.343  1.00  0.00     0.059 A 
ATOM     84  F   UNL A   1      38.160  34.312  29.547  1.00  0.00    -0.206 F 
ATOM     85  C   UNL A   1      34.553  34.365  29.768  1.00  0.00     0.060 A 
BRANCH  85  86
ATOM     86  S   UNL A   1      33.136  35.165  28.985  1.00  0.00     0.124 S 
ATOM     87  O   UNL A   1      32.727  34.155  28.015  1.00  0.00    -0.237 OA
ATOM     88  O   UNL A   1      32.234  35.368  30.115  1.00  0.00    -0.237 OA
ATOM     89  O   UNL A   1      33.707  36.386  28.423  1.00  0.00    -0.744 OA
ENDBRANCH  85  86
ENDBRANCH  53  78
BRANCH  65  90
ATOM     90  C   UNL A   1      39.854  34.079  37.203  1.00  0.00     0.058 A 
ATOM     91  C   UNL A   1      39.035  33.801  38.309  1.00  0.00     0.135 A 
ATOM     92  C   UNL A   1      40.513  35.319  37.172  1.00  0.00     0.135 A 
ATOM     93  F   UNL A   1      38.379  32.632  38.387  1.00  0.00    -0.206 F 
ATOM     94  C   UNL A   1      38.850  34.730  39.328  1.00  0.00     0.059 A 
ATOM     95  C   UNL A   1      40.366  36.251  38.194  1.00  0.00     0.059 A 
ATOM     96  F   UNL A   1      41.319  35.631  36.145  1.00  0.00    -0.206 F 
ATOM     97  C   UNL A   1      39.519  35.955  39.260  1.00  0.00     0.060 A 
BRANCH  97  98
ATOM     98  S   UNL A   1      39.284  37.146  40.595  1.00  0.00     0.124 S 
ATOM     99  O   UNL A   1      38.236  38.000  40.046  1.00  0.00    -0.237 OA
ATOM    100  O   UNL A   1      38.887  36.293  41.711  1.00  0.00    -0.237 OA
ATOM    101  O   UNL A   1      40.597  37.770  40.729  1.00  0.00    -0.744 OA
ENDBRANCH  97  98
ENDBRANCH  65  90
ENDBRANCH  39  40
ENDBRANCH  31  34
ENDBRANCH  29  30
ENDBRANCH  28  29
ENDBRANCH  27  28
ENDBRANCH   1  27
TORSDOF 20
ENDMDL
MODEL 3
REMARK VINA RESULT:     -10.5      2.717      3.459
REMARK SMILES CC[N@@H+]1CCO[C@H](C[NH2+][C@@H]2CCC[C@H](C(=O)NCCCCCCNC(=O)c3ccc(-c4c5nc(c(-c6c(F)cc(S(=O)(=O)[O-])cc6F)c6ccc([nH]6)c(-c6c(F)cc(S(=O)(=O)[O-])cc6F)c6nc(c(-c7c(F)cc(S(=O)(=O)[O-])cc7F)c7ccc4[nH]7)C=C6)C=C5)cc3)C2)C1
REMARK SMILES IDX 20 1 19 2 18 3 17 4 15 5 16 6 14 8 10 9 11 10 93 11 12 12
REMARK SMILES IDX 13 13 9 14 8 17 7 18 3 19 4 20 94 21 5 23 6 24 2 25 1 26
REMARK SMILES IDX 21 27 22 28 23 29 24 30 25 31 26 33 27 34 28 35 92 36 29 37
REMARK SMILES IDX 91 38 30 39 31 40 32 41 85 42 33 43 90 44 84 45 86 46 34 47
REMARK SMILES IDX 89 48 83 49 82 50 35 52 69 53 48 54 68 55 49 56 52 57 67 58
REMARK SMILES IDX 87 59 50 60 51 61 66 63 88 64 53 65 36 66 37 67 46 68 38 69
REMARK SMILES IDX 39 70 45 71 47 72 40 73 41 74 42 75 43 76 44 77 70 78 71 79
REMARK SMILES IDX 80 80 72 81 73 82 79 83 81 84 74 85 75 86 76 87 77 88 78 89
REMARK SMILES IDX 54 90 55 91 64 92 56 93 57 94 63 95 65 96 58 97 59 98 60 99
REMARK SMILES IDX 61 100 62 101
REMARK H PARENT 17 7 9 15 9 16 3 22 24 32 86 51 52 62
REMARK Flexibility Score: inf
ROOT
ATOM      1  C   UNL A   1      30.951  26.593  25.502  1.00  0.00     0.002 C 
ENDROOT
BRANCH   1   2
ATOM      2  C   UNL A   1      30.613  26.380  24.023  1.00  0.00     0.021 C 
BRANCH   2   3
ATOM      3  C   UNL A   1      30.826  24.956  23.511  1.00  0.00     0.116 C 
BRANCH   3   4
ATOM      4  N   UNL A   1      31.568  24.930  22.261  1.00  0.00    -0.356 N 
ATOM      5  C   UNL A   1      32.855  24.584  21.984  1.00  0.00     0.223 C 
ATOM      6  O   UNL A   1      33.222  24.637  20.807  1.00  0.00    -0.275 OA
ATOM      7  H   UNL A   1      31.047  25.215  21.474  1.00  0.00     0.163 HD
BRANCH   5   8
ATOM      8  C   UNL A   1      33.833  24.147  23.073  1.00  0.00     0.084 C 
ATOM      9  C   UNL A   1      34.185  22.406  24.965  1.00  0.00     0.183 C 
ATOM     10  C   UNL A   1      34.264  23.603  25.926  1.00  0.00     0.065 C 
ATOM     11  C   UNL A   1      33.436  22.788  23.674  1.00  0.00     0.078 C 
ATOM     12  C   UNL A   1      34.906  24.815  25.266  1.00  0.00     0.007 C 
ATOM     13  C   UNL A   1      34.086  25.278  24.075  1.00  0.00     0.014 C 
BRANCH   9  14
ATOM     14  N   UNL A   1      33.501  21.214  25.489  1.00  0.00    -0.341 N 
ATOM     15  H   UNL A   1      33.782  21.103  26.463  1.00  0.00     0.346 HD
ATOM     16  H   UNL A   1      32.508  21.395  25.342  1.00  0.00     0.346 HD
BRANCH  14  17
ATOM     17  C   UNL A   1      33.755  19.944  24.809  1.00  0.00     0.299 C 
BRANCH  17  18
ATOM     18  C   UNL A   1      32.582  18.934  24.890  1.00  0.00     0.227 C 
ATOM     19  N   UNL A   1      33.715  16.628  24.989  1.00  0.00    -0.331 N 
ATOM     20  C   UNL A   1      33.200  16.418  23.622  1.00  0.00     0.291 C 
ATOM     21  C   UNL A   1      32.861  17.621  25.664  1.00  0.00     0.300 C 
ATOM     22  H   UNL A   1      33.665  15.749  25.504  1.00  0.00     0.348 HD
ATOM     23  C   UNL A   1      32.928  17.719  22.845  1.00  0.00     0.222 C 
ATOM     24  O   UNL A   1      32.085  18.635  23.566  1.00  0.00    -0.361 OA
BRANCH  19  25
ATOM     25  C   UNL A   1      35.134  16.974  25.013  1.00  0.00     0.258 C 
ATOM     26  C   UNL A   1      35.934  15.801  25.550  1.00  0.00     0.071 C 
ENDBRANCH  19  25
ENDBRANCH  17  18
ENDBRANCH  14  17
ENDBRANCH   9  14
ENDBRANCH   5   8
ENDBRANCH   3   4
ENDBRANCH   2   3
ENDBRANCH   1   2
BRANCH   1  27
ATOM     27  C   UNL A   1      31.647  27.916  25.843  1.00  0.00     0.002 C 
BRANCH  27  28
ATOM     28  C   UNL A   1      33.029  28.119  25.219  1.00  0.00     0.021 C 
BRANCH  28  29
ATOM     29  C   UNL A   1      34.077  28.737  26.136  1.00  0.00     0.116 C 
BRANCH  29  30
ATOM     30  N   UNL A   1      33.757  30.113  26.476  1.00  0.00    -0.352 N 
ATOM     31  C   UNL A   1      34.320  30.923  27.427  1.00  0.00     0.251 C 
ATOM     32  H   UNL A   1      33.034  30.522  25.949  1.00  0.00     0.163 HD
ATOM     33  O   UNL A   1      33.775  31.992  27.715  1.00  0.00    -0.269 OA
BRANCH  31  34
ATOM     34  C   UNL A   1      35.566  30.521  28.118  1.00  0.00     0.039 A 
ATOM     35  C   UNL A   1      36.781  31.069  27.696  1.00  0.00     0.014 A 
ATOM     36  C   UNL A   1      35.548  29.581  29.153  1.00  0.00     0.014 A 
ATOM     37  C   UNL A   1      37.968  30.702  28.332  1.00  0.00     0.010 A 
ATOM     38  C   UNL A   1      36.723  29.272  29.835  1.00  0.00     0.010 A 
ATOM     39  C   UNL A   1      37.949  29.814  29.421  1.00  0.00    -0.014 A 
BRANCH  39  40
ATOM     40  C   UNL A   1      39.205  29.416  30.110  1.00  0.00     0.031 A 
ATOM     41  C   UNL A   1      39.637  30.129  31.364  1.00  0.00     0.074 A 
ATOM     42  C   UNL A   1      39.978  28.444  29.586  1.00  0.00     0.049 A 
ATOM     43  N   UNL A   1      40.718  29.959  32.082  1.00  0.00    -0.248 NA
ATOM     44  C   UNL A   1      38.751  31.193  31.862  1.00  0.00     0.031 C 
ATOM     45  C   UNL A   1      39.693  27.709  28.351  1.00  0.00     0.029 A 
ATOM     46  N   UNL A   1      41.165  27.910  30.022  1.00  0.00    -0.354 N 
ATOM     47  C   UNL A   1      40.649  30.901  33.103  1.00  0.00     0.074 A 
ATOM     48  C   UNL A   1      39.449  31.677  32.879  1.00  0.00     0.031 C 
ATOM     49  C   UNL A   1      40.665  26.806  28.142  1.00  0.00     0.029 A 
ATOM     50  C   UNL A   1      41.657  26.917  29.207  1.00  0.00     0.049 A 
ATOM     51  H   UNL A   1      41.621  28.209  30.842  1.00  0.00     0.167 HD
ATOM     52  C   UNL A   1      41.494  31.088  34.146  1.00  0.00     0.037 A 
ATOM     53  C   UNL A   1      42.783  26.183  29.304  1.00  0.00     0.037 A 
ATOM     54  C   UNL A   1      42.672  30.292  34.380  1.00  0.00     0.049 A 
ATOM     55  C   UNL A   1      43.698  26.395  30.481  1.00  0.00     0.074 A 
ATOM     56  C   UNL A   1      43.565  30.365  35.434  1.00  0.00     0.029 A 
ATOM     57  N   UNL A   1      43.118  29.274  33.548  1.00  0.00    -0.354 N 
ATOM     58  N   UNL A   1      43.587  27.254  31.467  1.00  0.00    -0.248 NA
ATOM     59  C   UNL A   1      44.881  25.530  30.567  1.00  0.00     0.031 C 
ATOM     60  C   UNL A   1      44.575  29.421  35.219  1.00  0.00     0.029 A 
ATOM     61  C   UNL A   1      44.281  28.722  34.060  1.00  0.00     0.049 A 
ATOM     62  H   UNL A   1      42.674  28.988  32.718  1.00  0.00     0.167 HD
ATOM     63  C   UNL A   1      44.667  27.007  32.309  1.00  0.00     0.074 A 
ATOM     64  C   UNL A   1      45.413  25.915  31.719  1.00  0.00     0.031 C 
ATOM     65  C   UNL A   1      45.006  27.625  33.467  1.00  0.00     0.037 A 
BRANCH  52  66
ATOM     66  C   UNL A   1      41.172  32.193  35.116  1.00  0.00     0.058 A 
ATOM     67  C   UNL A   1      40.286  31.999  36.189  1.00  0.00     0.135 A 
ATOM     68  C   UNL A   1      41.783  33.452  34.993  1.00  0.00     0.135 A 
ATOM     69  F   UNL A   1      39.662  30.821  36.347  1.00  0.00    -0.206 F 
ATOM     70  C   UNL A   1      39.989  33.024  37.083  1.00  0.00     0.059 A 
ATOM     71  C   UNL A   1      41.525  34.481  35.894  1.00  0.00     0.059 A 
ATOM     72  F   UNL A   1      42.639  33.692  33.988  1.00  0.00    -0.206 F 
ATOM     73  C   UNL A   1      40.614  34.262  36.926  1.00  0.00     0.060 A 
BRANCH  73  74
ATOM     74  S   UNL A   1      40.220  35.580  38.096  1.00  0.00     0.124 S 
ATOM     75  O   UNL A   1      40.030  36.716  37.201  1.00  0.00    -0.237 OA
ATOM     76  O   UNL A   1      39.013  35.073  38.743  1.00  0.00    -0.237 OA
ATOM     77  O   UNL A   1      41.405  35.643  38.947  1.00  0.00    -0.744 OA
ENDBRANCH  73  74
ENDBRANCH  52  66
BRANCH  53  78
ATOM     78  C   UNL A   1      43.090  25.154  28.274  1.00  0.00     0.058 A 
ATOM     79  C   UNL A   1      42.823  23.797  28.507  1.00  0.00     0.135 A 
ATOM     80  C   UNL A   1      43.646  25.507  27.035  1.00  0.00     0.135 A 
ATOM     81  F   UNL A   1      42.297  23.408  29.678  1.00  0.00    -0.206 F 
ATOM     82  C   UNL A   1      43.115  22.822  27.558  1.00  0.00     0.059 A 
ATOM     83  C   UNL A   1      43.920  24.554  26.058  1.00  0.00     0.059 A 
ATOM     84  F   UNL A   1      43.904  26.794  26.755  1.00  0.00    -0.206 F 
ATOM     85  C   UNL A   1      43.662  23.212  26.335  1.00  0.00     0.060 A 
BRANCH  85  86
ATOM     86  S   UNL A   1      43.997  21.944  25.093  1.00  0.00     0.124 S 
ATOM     87  O   UNL A   1      43.852  22.701  23.854  1.00  0.00    -0.237 OA
ATOM     88  O   UNL A   1      45.355  21.531  25.434  1.00  0.00    -0.237 OA
ATOM     89  O   UNL A   1      42.963  20.944  25.347  1.00  0.00    -0.744 OA
ENDBRANCH  85  86
ENDBRANCH  53  78
BRANCH  65  90
ATOM     90  C   UNL A   1      46.209  27.102  34.204  1.00  0.00     0.058 A 
ATOM     91  C   UNL A   1      47.495  27.621  33.994  1.00  0.00     0.135 A 
ATOM     92  C   UNL A   1      46.061  26.088  35.166  1.00  0.00     0.135 A 
ATOM     93  F   UNL A   1      47.693  28.590  33.085  1.00  0.00    -0.206 F 
ATOM     94  C   UNL A   1      48.599  27.132  34.686  1.00  0.00     0.059 A 
ATOM     95  C   UNL A   1      47.146  25.603  35.890  1.00  0.00     0.059 A 
ATOM     96  F   UNL A   1      44.851  25.564  35.417  1.00  0.00    -0.206 F 
ATOM     97  C   UNL A   1      48.414  26.120  35.631  1.00  0.00     0.060 A 
BRANCH  97  98
ATOM     98  S   UNL A   1      49.850  25.502  36.533  1.00  0.00     0.124 S 
ATOM     99  O   UNL A   1      50.922  26.317  35.972  1.00  0.00    -0.237 OA
ATOM    100  O   UNL A   1      49.495  25.787  37.920  1.00  0.00    -0.237 OA
ATOM    101  O   UNL A   1      49.888  24.086  36.182  1.00  0.00    -0.744 OA
ENDBRANCH  97  98
ENDBRANCH  65  90
ENDBRANCH  39  40
ENDBRANCH  31  34
ENDBRANCH  29  30
ENDBRANCH  28  29
ENDBRANCH  27  28
ENDBRANCH   1  27
TORSDOF 20
ENDMDL
