MODEL 1
REMARK VINA RESULT:     -11.0      0.000      0.000
REMARK SMILES COc1c(N)cc(-c2ccccc2)cc1C(=O)NCCCCCCNC(=O)c1ccc(-c2c3nc(c(-c4c(F)cc(S(=O)(=O)[O-])cc4F)c4ccc([nH]4)c(-c4c(F)cc(S(=O)(=O)[O-])cc4F)c4nc(c(-c5c(F)cc(S(=O)(=O)[O-])cc5F)c5ccc2[nH]5)C=C4)C=C3)cc1
REMARK SMILES IDX 22 1 21 2 20 3 19 4 18 5 16 6 17 7 15 9 3 10 4 11 6 12 14 13
REMARK SMILES IDX 7 14 2 15 1 16 5 17 8 20 9 21 13 22 10 23 12 24 11 25 23 26
REMARK SMILES IDX 24 27 25 28 26 29 27 31 28 32 29 33 93 34 30 35 92 36 31 37
REMARK SMILES IDX 32 38 33 39 86 40 34 41 91 42 85 43 87 44 35 45 90 46 84 47
REMARK SMILES IDX 83 48 36 50 70 51 49 52 69 53 50 54 53 55 68 56 88 57 51 58
REMARK SMILES IDX 52 59 67 61 89 62 54 63 37 64 38 65 47 66 39 67 40 68 46 69
REMARK SMILES IDX 48 70 41 71 42 72 43 73 44 74 45 75 71 76 72 77 81 78 73 79
REMARK SMILES IDX 74 80 80 81 82 82 75 83 76 84 77 85 78 86 79 87 55 88 56 89
REMARK SMILES IDX 65 90 57 91 58 92 64 93 66 94 59 95 60 96 61 97 62 98 63 99
REMARK H PARENT 18 8 5 18 5 19 25 30 87 49 53 60
REMARK Flexibility Score: inf
ROOT
ATOM      1  C   UNL A   1      32.997  27.369  25.277  1.00  0.00     0.002 C 
ENDROOT
BRANCH   1   2
ATOM      2  C   UNL A   1      34.068  28.216  24.582  1.00  0.00     0.002 C 
BRANCH   2   3
ATOM      3  C   UNL A   1      33.891  28.506  23.093  1.00  0.00     0.021 C 
BRANCH   3   4
ATOM      4  C   UNL A   1      32.702  27.871  22.388  1.00  0.00     0.116 C 
BRANCH   4   5
ATOM      5  N   UNL A   1      32.976  26.884  21.383  1.00  0.00    -0.352 N 
ATOM      6  C   UNL A   1      33.020  25.512  21.518  1.00  0.00     0.255 C 
ATOM      7  O   UNL A   1      33.192  24.867  20.478  1.00  0.00    -0.269 OA
ATOM      8  H   UNL A   1      33.156  27.232  20.480  1.00  0.00     0.163 HD
BRANCH   6   9
ATOM      9  C   UNL A   1      32.975  24.761  22.825  1.00  0.00     0.084 A 
ATOM     10  C   UNL A   1      31.839  24.355  23.564  1.00  0.00     0.154 A 
ATOM     11  C   UNL A   1      32.001  23.568  24.732  1.00  0.00     0.076 A 
ATOM     12  C   UNL A   1      33.285  23.276  25.194  1.00  0.00     0.038 A 
ATOM     13  C   UNL A   1      34.258  24.363  23.293  1.00  0.00     0.026 A 
ATOM     14  C   UNL A   1      34.429  23.613  24.465  1.00  0.00    -0.015 A 
BRANCH  10  15
ATOM     15  O   UNL A   1      30.564  24.594  23.096  1.00  0.00    -0.494 OA
ATOM     16  C   UNL A   1      29.962  25.780  23.644  1.00  0.00     0.278 C 
ENDBRANCH  10  15
BRANCH  11  17
ATOM     17  N   UNL A   1      30.925  23.088  25.480  1.00  0.00    -0.396 N 
ATOM     18  H   UNL A   1      30.689  23.515  26.335  1.00  0.00     0.156 HD
ATOM     19  H   UNL A   1      30.401  22.321  25.152  1.00  0.00     0.156 HD
ENDBRANCH  11  17
BRANCH  14  20
ATOM     20  C   UNL A   1      35.735  23.115  24.931  1.00  0.00    -0.018 A 
ATOM     21  C   UNL A   1      36.558  23.943  25.720  1.00  0.00     0.009 A 
ATOM     22  C   UNL A   1      36.237  21.864  24.548  1.00  0.00     0.009 A 
ATOM     23  C   UNL A   1      37.853  23.560  26.073  1.00  0.00     0.001 A 
ATOM     24  C   UNL A   1      37.535  21.477  24.903  1.00  0.00     0.001 A 
ATOM     25  C   UNL A   1      38.345  22.329  25.654  1.00  0.00     0.000 A 
ENDBRANCH  14  20
ENDBRANCH   6   9
ENDBRANCH   4   5
ENDBRANCH   3   4
ENDBRANCH   2   3
ENDBRANCH   1   2
BRANCH   1  26
ATOM     26  C   UNL A   1      32.353  27.936  26.546  1.00  0.00     0.021 C 
BRANCH  26  27
ATOM     27  C   UNL A   1      33.298  28.460  27.623  1.00  0.00     0.116 C 
BRANCH  27  28
ATOM     28  N   UNL A   1      33.323  29.910  27.706  1.00  0.00    -0.352 N 
ATOM     29  C   UNL A   1      34.339  30.756  28.073  1.00  0.00     0.251 C 
ATOM     30  H   UNL A   1      32.480  30.355  27.459  1.00  0.00     0.163 HD
ATOM     31  O   UNL A   1      34.108  31.960  28.199  1.00  0.00    -0.269 OA
BRANCH  29  32
ATOM     32  C   UNL A   1      35.698  30.237  28.349  1.00  0.00     0.039 A 
ATOM     33  C   UNL A   1      36.627  30.204  27.304  1.00  0.00     0.014 A 
ATOM     34  C   UNL A   1      36.060  29.770  29.616  1.00  0.00     0.014 A 
ATOM     35  C   UNL A   1      37.932  29.767  27.545  1.00  0.00     0.010 A 
ATOM     36  C   UNL A   1      37.381  29.402  29.871  1.00  0.00     0.010 A 
ATOM     37  C   UNL A   1      38.332  29.400  28.840  1.00  0.00    -0.014 A 
BRANCH  37  38
ATOM     38  C   UNL A   1      39.747  29.044  29.132  1.00  0.00     0.031 A 
ATOM     39  C   UNL A   1      40.700  30.071  29.678  1.00  0.00     0.074 A 
ATOM     40  C   UNL A   1      40.191  27.806  28.835  1.00  0.00     0.049 A 
ATOM     41  N   UNL A   1      41.977  29.957  29.938  1.00  0.00    -0.248 NA
ATOM     42  C   UNL A   1      40.152  31.411  29.940  1.00  0.00     0.031 C 
ATOM     43  C   UNL A   1      39.381  26.738  28.245  1.00  0.00     0.029 A 
ATOM     44  N   UNL A   1      41.436  27.240  28.969  1.00  0.00    -0.354 N 
ATOM     45  C   UNL A   1      42.391  31.209  30.378  1.00  0.00     0.074 A 
ATOM     46  C   UNL A   1      41.237  32.080  30.303  1.00  0.00     0.031 C 
ATOM     47  C   UNL A   1      40.143  25.647  28.077  1.00  0.00     0.029 A 
ATOM     48  C   UNL A   1      41.506  25.947  28.509  1.00  0.00     0.049 A 
ATOM     49  H   UNL A   1      42.204  27.716  29.358  1.00  0.00     0.167 HD
ATOM     50  C   UNL A   1      43.614  31.592  30.820  1.00  0.00     0.037 A 
ATOM     51  C   UNL A   1      42.549  25.099  28.423  1.00  0.00     0.037 A 
ATOM     52  C   UNL A   1      44.752  30.712  30.904  1.00  0.00     0.049 A 
ATOM     53  C   UNL A   1      43.896  25.540  28.925  1.00  0.00     0.074 A 
ATOM     54  C   UNL A   1      46.011  30.981  31.412  1.00  0.00     0.029 A 
ATOM     55  N   UNL A   1      44.778  29.399  30.454  1.00  0.00    -0.354 N 
ATOM     56  N   UNL A   1      44.248  26.701  29.424  1.00  0.00    -0.248 NA
ATOM     57  C   UNL A   1      44.986  24.557  28.860  1.00  0.00     0.031 C 
ATOM     58  C   UNL A   1      46.814  29.853  31.214  1.00  0.00     0.029 A 
ATOM     59  C   UNL A   1      46.041  28.858  30.638  1.00  0.00     0.049 A 
ATOM     60  H   UNL A   1      44.011  28.922  30.061  1.00  0.00     0.167 HD
ATOM     61  C   UNL A   1      45.595  26.585  29.748  1.00  0.00     0.074 A 
ATOM     62  C   UNL A   1      45.989  25.233  29.405  1.00  0.00     0.031 C 
ATOM     63  C   UNL A   1      46.427  27.513  30.282  1.00  0.00     0.037 A 
BRANCH  50  64
ATOM     64  C   UNL A   1      43.788  33.031  31.230  1.00  0.00     0.058 A 
ATOM     65  C   UNL A   1      43.650  33.446  32.566  1.00  0.00     0.135 A 
ATOM     66  C   UNL A   1      44.116  34.008  30.276  1.00  0.00     0.135 A 
ATOM     67  F   UNL A   1      43.328  32.558  33.520  1.00  0.00    -0.206 F 
ATOM     68  C   UNL A   1      43.784  34.782  32.931  1.00  0.00     0.059 A 
ATOM     69  C   UNL A   1      44.288  35.345  30.624  1.00  0.00     0.059 A 
ATOM     70  F   UNL A   1      44.266  33.671  28.986  1.00  0.00    -0.206 F 
ATOM     71  C   UNL A   1      44.098  35.725  31.952  1.00  0.00     0.060 A 
BRANCH  71  72
ATOM     72  S   UNL A   1      44.246  37.457  32.439  1.00  0.00     0.124 S 
ATOM     73  O   UNL A   1      43.131  37.592  33.372  1.00  0.00    -0.237 OA
ATOM     74  O   UNL A   1      45.579  37.502  33.033  1.00  0.00    -0.237 OA
ATOM     75  O   UNL A   1      44.100  38.180  31.179  1.00  0.00    -0.744 OA
ENDBRANCH  71  72
ENDBRANCH  50  64
BRANCH  51  76
ATOM     76  C   UNL A   1      42.347  23.747  27.837  1.00  0.00     0.058 A 
ATOM     77  C   UNL A   1      42.302  23.553  26.450  1.00  0.00     0.135 A 
ATOM     78  C   UNL A   1      42.247  22.612  28.659  1.00  0.00     0.135 A 
ATOM     79  F   UNL A   1      42.384  24.606  25.622  1.00  0.00    -0.206 F 
ATOM     80  C   UNL A   1      42.166  22.284  25.895  1.00  0.00     0.059 A 
ATOM     81  C   UNL A   1      42.137  21.332  28.128  1.00  0.00     0.059 A 
ATOM     82  F   UNL A   1      42.300  22.742  29.994  1.00  0.00    -0.206 F 
ATOM     83  C   UNL A   1      42.094  21.178  26.744  1.00  0.00     0.060 A 
BRANCH  83  84
ATOM     84  S   UNL A   1      42.000  19.529  26.012  1.00  0.00     0.124 S 
ATOM     85  O   UNL A   1      42.516  18.697  27.093  1.00  0.00    -0.237 OA
ATOM     86  O   UNL A   1      40.573  19.401  25.732  1.00  0.00    -0.237 OA
ATOM     87  O   UNL A   1      42.856  19.637  24.833  1.00  0.00    -0.744 OA
ENDBRANCH  83  84
ENDBRANCH  51  76
BRANCH  63  88
ATOM     88  C   UNL A   1      47.851  27.101  30.543  1.00  0.00     0.058 A 
ATOM     89  C   UNL A   1      48.852  27.246  29.568  1.00  0.00     0.135 A 
ATOM     90  C   UNL A   1      48.231  26.605  31.800  1.00  0.00     0.135 A 
ATOM     91  F   UNL A   1      48.544  27.707  28.346  1.00  0.00    -0.206 F 
ATOM     92  C   UNL A   1      50.174  26.895  29.825  1.00  0.00     0.059 A 
ATOM     93  C   UNL A   1      49.552  26.277  32.090  1.00  0.00     0.059 A 
ATOM     94  F   UNL A   1      47.317  26.455  32.772  1.00  0.00    -0.206 F 
ATOM     95  C   UNL A   1      50.514  26.414  31.092  1.00  0.00     0.060 A 
BRANCH  95  96
ATOM     96  S   UNL A   1      52.240  25.998  31.423  1.00  0.00     0.124 S 
ATOM     97  O   UNL A   1      52.601  27.009  32.413  1.00  0.00    -0.237 OA
ATOM     98  O   UNL A   1      52.141  24.630  31.921  1.00  0.00    -0.237 OA
ATOM     99  O   UNL A   1      52.881  26.139  30.119  1.00  0.00    -0.744 OA
ENDBRANCH  95  96
ENDBRANCH  63  88
ENDBRANCH  37  38
ENDBRANCH  29  32
ENDBRANCH  27  28
ENDBRANCH  26  27
ENDBRANCH   1  26
TORSDOF 19
ENDMDL
MODEL 2
REMARK VINA RESULT:     -10.8      3.214      5.248
REMARK SMILES COc1c(N)cc(-c2ccccc2)cc1C(=O)NCCCCCCNC(=O)c1ccc(-c2c3nc(c(-c4c(F)cc(S(=O)(=O)[O-])cc4F)c4ccc([nH]4)c(-c4c(F)cc(S(=O)(=O)[O-])cc4F)c4nc(c(-c5c(F)cc(S(=O)(=O)[O-])cc5F)c5ccc2[nH]5)C=C4)C=C3)cc1
REMARK SMILES IDX 22 1 21 2 20 3 19 4 18 5 16 6 17 7 15 9 3 10 4 11 6 12 14 13
REMARK SMILES IDX 7 14 2 15 1 16 5 17 8 20 9 21 13 22 10 23 12 24 11 25 23 26
REMARK SMILES IDX 24 27 25 28 26 29 27 31 28 32 29 33 93 34 30 35 92 36 31 37
REMARK SMILES IDX 32 38 33 39 86 40 34 41 91 42 85 43 87 44 35 45 90 46 84 47
REMARK SMILES IDX 83 48 36 50 70 51 49 52 69 53 50 54 53 55 68 56 88 57 51 58
REMARK SMILES IDX 52 59 67 61 89 62 54 63 37 64 38 65 47 66 39 67 40 68 46 69
REMARK SMILES IDX 48 70 41 71 42 72 43 73 44 74 45 75 71 76 72 77 81 78 73 79
REMARK SMILES IDX 74 80 80 81 82 82 75 83 76 84 77 85 78 86 79 87 55 88 56 89
REMARK SMILES IDX 65 90 57 91 58 92 64 93 66 94 59 95 60 96 61 97 62 98 63 99
REMARK H PARENT 18 8 5 18 5 19 25 30 87 49 53 60
REMARK Flexibility Score: inf
ROOT
ATOM      1  C   UNL A   1      34.035  31.892  28.031  1.00  0.00     0.002 C 
ENDROOT
BRANCH   1   2
ATOM      2  C   UNL A   1      33.888  30.556  27.296  1.00  0.00     0.002 C 
BRANCH   2   3
ATOM      3  C   UNL A   1      32.477  30.082  26.954  1.00  0.00     0.021 C 
BRANCH   3   4
ATOM      4  C   UNL A   1      32.272  28.593  26.717  1.00  0.00     0.116 C 
BRANCH   4   5
ATOM      5  N   UNL A   1      32.944  28.002  25.595  1.00  0.00    -0.352 N 
ATOM      6  C   UNL A   1      32.430  27.692  24.353  1.00  0.00     0.255 C 
ATOM      7  O   UNL A   1      33.236  27.267  23.519  1.00  0.00    -0.269 OA
ATOM      8  H   UNL A   1      33.895  27.790  25.729  1.00  0.00     0.163 HD
BRANCH   6   9
ATOM      9  C   UNL A   1      30.970  27.737  23.976  1.00  0.00     0.084 A 
ATOM     10  C   UNL A   1      29.979  26.747  24.181  1.00  0.00     0.154 A 
ATOM     11  C   UNL A   1      28.631  27.017  23.839  1.00  0.00     0.076 A 
ATOM     12  C   UNL A   1      28.304  28.223  23.218  1.00  0.00     0.038 A 
ATOM     13  C   UNL A   1      30.569  28.983  23.419  1.00  0.00     0.026 A 
ATOM     14  C   UNL A   1      29.242  29.246  23.047  1.00  0.00    -0.015 A 
BRANCH  10  15
ATOM     15  O   UNL A   1      30.276  25.571  24.836  1.00  0.00    -0.494 OA
ATOM     16  C   UNL A   1      30.800  24.547  23.971  1.00  0.00     0.278 C 
ENDBRANCH  10  15
BRANCH  11  17
ATOM     17  N   UNL A   1      27.594  26.110  24.062  1.00  0.00    -0.396 N 
ATOM     18  H   UNL A   1      27.383  25.426  23.387  1.00  0.00     0.156 HD
ATOM     19  H   UNL A   1      27.074  26.153  24.898  1.00  0.00     0.156 HD
ENDBRANCH  11  17
BRANCH  14  20
ATOM     20  C   UNL A   1      28.780  30.552  22.546  1.00  0.00    -0.018 A 
ATOM     21  C   UNL A   1      28.353  30.677  21.209  1.00  0.00     0.009 A 
ATOM     22  C   UNL A   1      28.824  31.711  23.333  1.00  0.00     0.009 A 
ATOM     23  C   UNL A   1      28.029  31.919  20.661  1.00  0.00     0.001 A 
ATOM     24  C   UNL A   1      28.499  32.957  22.784  1.00  0.00     0.001 A 
ATOM     25  C   UNL A   1      28.114  33.062  21.448  1.00  0.00     0.000 A 
ENDBRANCH  14  20
ENDBRANCH   6   9
ENDBRANCH   4   5
ENDBRANCH   3   4
ENDBRANCH   2   3
ENDBRANCH   1   2
BRANCH   1  26
ATOM     26  C   UNL A   1      35.412  32.564  28.020  1.00  0.00     0.021 C 
BRANCH  26  27
ATOM     27  C   UNL A   1      36.133  32.677  29.359  1.00  0.00     0.116 C 
BRANCH  27  28
ATOM     28  N   UNL A   1      35.753  31.642  30.304  1.00  0.00    -0.352 N 
ATOM     29  C   UNL A   1      36.425  30.511  30.694  1.00  0.00     0.251 C 
ATOM     30  H   UNL A   1      34.875  31.772  30.733  1.00  0.00     0.163 HD
ATOM     31  O   UNL A   1      35.860  29.692  31.420  1.00  0.00    -0.269 OA
BRANCH  29  32
ATOM     32  C   UNL A   1      37.806  30.250  30.229  1.00  0.00     0.039 A 
ATOM     33  C   UNL A   1      38.839  30.234  31.173  1.00  0.00     0.014 A 
ATOM     34  C   UNL A   1      38.096  30.038  28.878  1.00  0.00     0.014 A 
ATOM     35  C   UNL A   1      40.145  29.941  30.772  1.00  0.00     0.010 A 
ATOM     36  C   UNL A   1      39.387  29.675  28.491  1.00  0.00     0.010 A 
ATOM     37  C   UNL A   1      40.424  29.619  29.434  1.00  0.00    -0.014 A 
BRANCH  37  38
ATOM     38  C   UNL A   1      41.787  29.193  29.017  1.00  0.00     0.031 A 
ATOM     39  C   UNL A   1      42.908  30.189  28.922  1.00  0.00     0.074 A 
ATOM     40  C   UNL A   1      41.995  27.911  28.653  1.00  0.00     0.049 A 
ATOM     41  N   UNL A   1      44.142  30.010  28.524  1.00  0.00    -0.248 NA
ATOM     42  C   UNL A   1      42.596  31.576  29.298  1.00  0.00     0.031 C 
ATOM     43  C   UNL A   1      40.973  26.860  28.643  1.00  0.00     0.029 A 
ATOM     44  N   UNL A   1      43.126  27.275  28.204  1.00  0.00    -0.354 N 
ATOM     45  C   UNL A   1      44.748  31.259  28.585  1.00  0.00     0.074 A 
ATOM     46  C   UNL A   1      43.731  32.197  29.013  1.00  0.00     0.031 C 
ATOM     47  C   UNL A   1      41.525  25.714  28.220  1.00  0.00     0.029 A 
ATOM     48  C   UNL A   1      42.927  25.952  27.889  1.00  0.00     0.049 A 
ATOM     49  H   UNL A   1      43.997  27.725  28.115  1.00  0.00     0.167 HD
ATOM     50  C   UNL A   1      46.037  31.590  28.324  1.00  0.00     0.037 A 
ATOM     51  C   UNL A   1      43.769  25.034  27.375  1.00  0.00     0.037 A 
ATOM     52  C   UNL A   1      47.044  30.645  27.913  1.00  0.00     0.049 A 
ATOM     53  C   UNL A   1      45.196  25.419  27.100  1.00  0.00     0.074 A 
ATOM     54  C   UNL A   1      48.394  30.866  27.703  1.00  0.00     0.029 A 
ATOM     55  N   UNL A   1      46.811  29.306  27.631  1.00  0.00    -0.354 N 
ATOM     56  N   UNL A   1      45.776  26.585  27.251  1.00  0.00    -0.248 NA
ATOM     57  C   UNL A   1      46.085  24.365  26.593  1.00  0.00     0.031 C 
ATOM     58  C   UNL A   1      48.965  29.677  27.236  1.00  0.00     0.029 A 
ATOM     59  C   UNL A   1      47.985  28.697  27.213  1.00  0.00     0.049 A 
ATOM     60  H   UNL A   1      45.940  28.855  27.716  1.00  0.00     0.167 HD
ATOM     61  C   UNL A   1      47.102  26.403  26.873  1.00  0.00     0.074 A 
ATOM     62  C   UNL A   1      47.241  25.009  26.505  1.00  0.00     0.031 C 
ATOM     63  C   UNL A   1      48.110  27.309  26.837  1.00  0.00     0.037 A 
BRANCH  50  64
ATOM     64  C   UNL A   1      46.426  33.039  28.461  1.00  0.00     0.058 A 
ATOM     65  C   UNL A   1      46.346  33.937  27.383  1.00  0.00     0.135 A 
ATOM     66  C   UNL A   1      46.870  33.543  29.695  1.00  0.00     0.135 A 
ATOM     67  F   UNL A   1      45.938  33.510  26.177  1.00  0.00    -0.206 F 
ATOM     68  C   UNL A   1      46.735  35.266  27.511  1.00  0.00     0.059 A 
ATOM     69  C   UNL A   1      47.233  34.878  29.855  1.00  0.00     0.059 A 
ATOM     70  F   UNL A   1      46.962  32.735  30.762  1.00  0.00    -0.206 F 
ATOM     71  C   UNL A   1      47.182  35.727  28.750  1.00  0.00     0.060 A 
BRANCH  71  72
ATOM     72  S   UNL A   1      47.706  37.448  28.893  1.00  0.00     0.124 S 
ATOM     73  O   UNL A   1      47.723  37.626  30.342  1.00  0.00    -0.237 OA
ATOM     74  O   UNL A   1      49.011  37.433  28.240  1.00  0.00    -0.237 OA
ATOM     75  O   UNL A   1      46.662  38.183  28.184  1.00  0.00    -0.744 OA
ENDBRANCH  71  72
ENDBRANCH  50  64
BRANCH  51  76
ATOM     76  C   UNL A   1      43.269  23.661  27.092  1.00  0.00     0.058 A 
ATOM     77  C   UNL A   1      42.921  23.265  25.794  1.00  0.00     0.135 A 
ATOM     78  C   UNL A   1      43.181  22.701  28.115  1.00  0.00     0.135 A 
ATOM     79  F   UNL A   1      42.979  24.148  24.785  1.00  0.00    -0.206 F 
ATOM     80  C   UNL A   1      42.504  21.967  25.515  1.00  0.00     0.059 A 
ATOM     81  C   UNL A   1      42.793  21.391  27.856  1.00  0.00     0.059 A 
ATOM     82  F   UNL A   1      43.518  23.025  29.372  1.00  0.00    -0.206 F 
ATOM     83  C   UNL A   1      42.453  21.034  26.553  1.00  0.00     0.060 A 
BRANCH  83  84
ATOM     84  S   UNL A   1      41.990  19.332  26.165  1.00  0.00     0.124 S 
ATOM     85  O   UNL A   1      42.865  19.038  25.036  1.00  0.00    -0.237 OA
ATOM     86  O   UNL A   1      42.300  18.640  27.413  1.00  0.00    -0.237 OA
ATOM     87  O   UNL A   1      40.567  19.435  25.852  1.00  0.00    -0.744 OA
ENDBRANCH  83  84
ENDBRANCH  51  76
BRANCH  63  88
ATOM     88  C   UNL A   1      49.465  26.824  26.393  1.00  0.00     0.058 A 
ATOM     89  C   UNL A   1      50.355  26.202  27.284  1.00  0.00     0.135 A 
ATOM     90  C   UNL A   1      49.855  26.934  25.049  1.00  0.00     0.135 A 
ATOM     91  F   UNL A   1      50.036  26.079  28.582  1.00  0.00    -0.206 F 
ATOM     92  C   UNL A   1      51.592  25.726  26.861  1.00  0.00     0.059 A 
ATOM     93  C   UNL A   1      51.074  26.437  24.597  1.00  0.00     0.059 A 
ATOM     94  F   UNL A   1      49.039  27.511  24.152  1.00  0.00    -0.206 F 
ATOM     95  C   UNL A   1      51.941  25.845  25.514  1.00  0.00     0.060 A 
BRANCH  95  96
ATOM     96  S   UNL A   1      53.534  25.188  24.972  1.00  0.00     0.124 S 
ATOM     97  O   UNL A   1      53.514  25.506  23.548  1.00  0.00    -0.237 OA
ATOM     98  O   UNL A   1      54.478  25.955  25.780  1.00  0.00    -0.237 OA
ATOM     99  O   UNL A   1      53.446  23.769  25.300  1.00  0.00    -0.744 OA
ENDBRANCH  95  96
ENDBRANCH  63  88
ENDBRANCH  37  38
ENDBRANCH  29  32
ENDBRANCH  27  28
ENDBRANCH  26  27
ENDBRANCH   1  26
TORSDOF 19
ENDMDL
MODEL 3
REMARK VINA RESULT:     -10.8      4.695     10.382
REMARK SMILES COc1c(N)cc(-c2ccccc2)cc1C(=O)NCCCCCCNC(=O)c1ccc(-c2c3nc(c(-c4c(F)cc(S(=O)(=O)[O-])cc4F)c4ccc([nH]4)c(-c4c(F)cc(S(=O)(=O)[O-])cc4F)c4nc(c(-c5c(F)cc(S(=O)(=O)[O-])cc5F)c5ccc2[nH]5)C=C4)C=C3)cc1
REMARK SMILES IDX 22 1 21 2 20 3 19 4 18 5 16 6 17 7 15 9 3 10 4 11 6 12 14 13
REMARK SMILES IDX 7 14 2 15 1 16 5 17 8 20 9 21 13 22 10 23 12 24 11 25 23 26
REMARK SMILES IDX 24 27 25 28 26 29 27 31 28 32 29 33 93 34 30 35 92 36 31 37
REMARK SMILES IDX 32 38 33 39 86 40 34 41 91 42 85 43 87 44 35 45 90 46 84 47
REMARK SMILES IDX 83 48 36 50 70 51 49 52 69 53 50 54 53 55 68 56 88 57 51 58
REMARK SMILES IDX 52 59 67 61 89 62 54 63 37 64 38 65 47 66 39 67 40 68 46 69
REMARK SMILES IDX 48 70 41 71 42 72 43 73 44 74 45 75 71 76 72 77 81 78 73 79
REMARK SMILES IDX 74 80 80 81 82 82 75 83 76 84 77 85 78 86 79 87 55 88 56 89
REMARK SMILES IDX 65 90 57 91 58 92 64 93 66 94 59 95 60 96 61 97 62 98 63 99
REMARK H PARENT 18 8 5 18 5 19 25 30 87 49 53 60
REMARK Flexibility Score: inf
ROOT
ATOM      1  C   UNL A   1      36.115  23.675  25.600  1.00  0.00     0.002 C 
ENDROOT
BRANCH   1   2
ATOM      2  C   UNL A   1      35.522  22.363  26.122  1.00  0.00     0.002 C 
BRANCH   2   3
ATOM      3  C   UNL A   1      34.403  22.448  27.157  1.00  0.00     0.021 C 
BRANCH   3   4
ATOM      4  C   UNL A   1      33.082  21.767  26.826  1.00  0.00     0.116 C 
BRANCH   4   5
ATOM      5  N   UNL A   1      31.874  22.447  27.196  1.00  0.00    -0.352 N 
ATOM      6  C   UNL A   1      31.397  23.659  26.740  1.00  0.00     0.255 C 
ATOM      7  O   UNL A   1      30.280  23.994  27.149  1.00  0.00    -0.269 OA
ATOM      8  H   UNL A   1      31.313  21.990  27.863  1.00  0.00     0.163 HD
BRANCH   6   9
ATOM      9  C   UNL A   1      32.163  24.630  25.877  1.00  0.00     0.084 A 
ATOM     10  C   UNL A   1      32.603  24.459  24.543  1.00  0.00     0.154 A 
ATOM     11  C   UNL A   1      33.231  25.534  23.864  1.00  0.00     0.076 A 
ATOM     12  C   UNL A   1      33.491  26.722  24.546  1.00  0.00     0.038 A 
ATOM     13  C   UNL A   1      32.375  25.892  26.498  1.00  0.00     0.026 A 
ATOM     14  C   UNL A   1      33.025  26.949  25.845  1.00  0.00    -0.015 A 
BRANCH  10  15
ATOM     15  O   UNL A   1      32.312  23.309  23.841  1.00  0.00    -0.494 OA
ATOM     16  C   UNL A   1      31.056  23.364  23.141  1.00  0.00     0.278 C 
ENDBRANCH  10  15
BRANCH  11  17
ATOM     17  N   UNL A   1      33.642  25.455  22.533  1.00  0.00    -0.396 N 
ATOM     18  H   UNL A   1      33.531  24.615  22.032  1.00  0.00     0.156 HD
ATOM     19  H   UNL A   1      34.043  26.240  22.094  1.00  0.00     0.156 HD
ENDBRANCH  11  17
BRANCH  14  20
ATOM     20  C   UNL A   1      33.187  28.292  26.429  1.00  0.00    -0.018 A 
ATOM     21  C   UNL A   1      32.097  29.185  26.441  1.00  0.00     0.009 A 
ATOM     22  C   UNL A   1      34.419  28.754  26.908  1.00  0.00     0.009 A 
ATOM     23  C   UNL A   1      32.242  30.506  26.867  1.00  0.00     0.001 A 
ATOM     24  C   UNL A   1      34.567  30.079  27.337  1.00  0.00     0.001 A 
ATOM     25  C   UNL A   1      33.483  30.955  27.306  1.00  0.00     0.000 A 
ENDBRANCH  14  20
ENDBRANCH   6   9
ENDBRANCH   4   5
ENDBRANCH   3   4
ENDBRANCH   2   3
ENDBRANCH   1   2
BRANCH   1  26
ATOM     26  C   UNL A   1      37.619  23.713  25.312  1.00  0.00     0.021 C 
BRANCH  26  27
ATOM     27  C   UNL A   1      38.542  23.954  26.501  1.00  0.00     0.116 C 
BRANCH  27  28
ATOM     28  N   UNL A   1      39.950  23.816  26.171  1.00  0.00    -0.352 N 
ATOM     29  C   UNL A   1      41.025  24.580  26.550  1.00  0.00     0.251 C 
ATOM     30  H   UNL A   1      40.167  23.055  25.585  1.00  0.00     0.163 HD
ATOM     31  O   UNL A   1      42.129  24.362  26.048  1.00  0.00    -0.269 OA
BRANCH  29  32
ATOM     32  C   UNL A   1      40.869  25.680  27.528  1.00  0.00     0.039 A 
ATOM     33  C   UNL A   1      39.793  25.634  28.422  1.00  0.00     0.014 A 
ATOM     34  C   UNL A   1      41.756  26.759  27.564  1.00  0.00     0.014 A 
ATOM     35  C   UNL A   1      39.649  26.632  29.389  1.00  0.00     0.010 A 
ATOM     36  C   UNL A   1      41.651  27.715  28.575  1.00  0.00     0.010 A 
ATOM     37  C   UNL A   1      40.599  27.660  29.501  1.00  0.00    -0.014 A 
BRANCH  37  38
ATOM     38  C   UNL A   1      40.519  28.660  30.598  1.00  0.00     0.031 A 
ATOM     39  C   UNL A   1      41.389  28.533  31.818  1.00  0.00     0.074 A 
ATOM     40  C   UNL A   1      39.605  29.649  30.525  1.00  0.00     0.049 A 
ATOM     41  N   UNL A   1      41.416  29.276  32.895  1.00  0.00    -0.248 NA
ATOM     42  C   UNL A   1      42.334  27.407  31.844  1.00  0.00     0.031 C 
ATOM     43  C   UNL A   1      38.661  29.845  29.422  1.00  0.00     0.029 A 
ATOM     44  N   UNL A   1      39.305  30.664  31.401  1.00  0.00    -0.354 N 
ATOM     45  C   UNL A   1      42.365  28.701  33.732  1.00  0.00     0.074 A 
ATOM     46  C   UNL A   1      42.856  27.518  33.057  1.00  0.00     0.031 C 
ATOM     47  C   UNL A   1      37.896  30.916  29.682  1.00  0.00     0.029 A 
ATOM     48  C   UNL A   1      38.264  31.460  30.986  1.00  0.00     0.049 A 
ATOM     49  H   UNL A   1      39.789  30.806  32.246  1.00  0.00     0.167 HD
ATOM     50  C   UNL A   1      42.798  29.129  34.943  1.00  0.00     0.037 A 
ATOM     51  C   UNL A   1      37.658  32.500  31.591  1.00  0.00     0.037 A 
ATOM     52  C   UNL A   1      42.312  30.316  35.600  1.00  0.00     0.049 A 
ATOM     53  C   UNL A   1      38.158  32.964  32.931  1.00  0.00     0.074 A 
ATOM     54  C   UNL A   1      42.743  30.878  36.789  1.00  0.00     0.029 A 
ATOM     55  N   UNL A   1      41.276  31.114  35.136  1.00  0.00    -0.354 N 
ATOM     56  N   UNL A   1      39.121  32.463  33.667  1.00  0.00    -0.248 NA
ATOM     57  C   UNL A   1      37.499  34.138  33.518  1.00  0.00     0.031 C 
ATOM     58  C   UNL A   1      41.929  31.979  37.074  1.00  0.00     0.029 A 
ATOM     59  C   UNL A   1      41.029  32.142  36.032  1.00  0.00     0.049 A 
ATOM     60  H   UNL A   1      40.788  30.971  34.292  1.00  0.00     0.167 HD
ATOM     61  C   UNL A   1      39.193  33.267  34.799  1.00  0.00     0.074 A 
ATOM     62  C   UNL A   1      38.190  34.300  34.639  1.00  0.00     0.031 C 
ATOM     63  C   UNL A   1      40.018  33.160  35.870  1.00  0.00     0.037 A 
BRANCH  50  64
ATOM     64  C   UNL A   1      43.840  28.297  35.645  1.00  0.00     0.058 A 
ATOM     65  C   UNL A   1      43.494  27.286  36.558  1.00  0.00     0.135 A 
ATOM     66  C   UNL A   1      45.206  28.502  35.387  1.00  0.00     0.135 A 
ATOM     67  F   UNL A   1      42.205  27.051  36.852  1.00  0.00    -0.206 F 
ATOM     68  C   UNL A   1      44.464  26.543  37.223  1.00  0.00     0.059 A 
ATOM     69  C   UNL A   1      46.192  27.747  36.016  1.00  0.00     0.059 A 
ATOM     70  F   UNL A   1      45.596  29.449  34.521  1.00  0.00    -0.206 F 
ATOM     71  C   UNL A   1      45.811  26.784  36.950  1.00  0.00     0.060 A 
BRANCH  71  72
ATOM     72  S   UNL A   1      47.057  25.827  37.839  1.00  0.00     0.124 S 
ATOM     73  O   UNL A   1      47.297  26.674  39.003  1.00  0.00    -0.237 OA
ATOM     74  O   UNL A   1      46.359  24.572  38.101  1.00  0.00    -0.237 OA
ATOM     75  O   UNL A   1      48.162  25.739  36.889  1.00  0.00    -0.744 OA
ENDBRANCH  71  72
ENDBRANCH  50  64
BRANCH  51  76
ATOM     76  C   UNL A   1      36.510  33.168  30.920  1.00  0.00     0.058 A 
ATOM     77  C   UNL A   1      35.210  33.074  31.435  1.00  0.00     0.135 A 
ATOM     78  C   UNL A   1      36.704  33.960  29.775  1.00  0.00     0.135 A 
ATOM     79  F   UNL A   1      34.971  32.323  32.521  1.00  0.00    -0.206 F 
ATOM     80  C   UNL A   1      34.142  33.740  30.842  1.00  0.00     0.059 A 
ATOM     81  C   UNL A   1      35.657  34.655  29.181  1.00  0.00     0.059 A 
ATOM     82  F   UNL A   1      37.933  34.094  29.251  1.00  0.00    -0.206 F 
ATOM     83  C   UNL A   1      34.378  34.536  29.720  1.00  0.00     0.060 A 
BRANCH  83  84
ATOM     84  S   UNL A   1      32.999  35.461  29.007  1.00  0.00     0.124 S 
ATOM     85  O   UNL A   1      32.154  35.677  30.176  1.00  0.00    -0.237 OA
ATOM     86  O   UNL A   1      33.669  36.644  28.475  1.00  0.00    -0.237 OA
ATOM     87  O   UNL A   1      32.466  34.546  28.001  1.00  0.00    -0.744 OA
ENDBRANCH  83  84
ENDBRANCH  51  76
BRANCH  63  88
ATOM     88  C   UNL A   1      39.882  34.192  36.957  1.00  0.00     0.058 A 
ATOM     89  C   UNL A   1      40.484  35.457  36.854  1.00  0.00     0.135 A 
ATOM     90  C   UNL A   1      39.097  33.933  38.092  1.00  0.00     0.135 A 
ATOM     91  F   UNL A   1      41.252  35.756  35.795  1.00  0.00    -0.206 F 
ATOM     92  C   UNL A   1      40.329  36.420  37.847  1.00  0.00     0.059 A 
ATOM     93  C   UNL A   1      38.903  34.891  39.082  1.00  0.00     0.059 A 
ATOM     94  F   UNL A   1      38.492  32.743  38.238  1.00  0.00    -0.206 F 
ATOM     95  C   UNL A   1      39.532  36.128  38.956  1.00  0.00     0.060 A 
BRANCH  95  96
ATOM     96  S   UNL A   1      39.308  37.400  40.218  1.00  0.00     0.124 S 
ATOM     97  O   UNL A   1      38.788  36.617  41.335  1.00  0.00    -0.237 OA
ATOM     98  O   UNL A   1      40.664  37.917  40.384  1.00  0.00    -0.237 OA
ATOM     99  O   UNL A   1      38.362  38.326  39.605  1.00  0.00    -0.744 OA
ENDBRANCH  95  96
ENDBRANCH  63  88
ENDBRANCH  37  38
ENDBRANCH  29  32
ENDBRANCH  27  28
ENDBRANCH  26  27
ENDBRANCH   1  26
TORSDOF 19
ENDMDL
