MODEL 1
REMARK VINA RESULT:     -11.3      0.000      0.000
REMARK SMILES CC[C@@H](C)N(C)S(=O)(=O)c1cc(C(=O)NCCCCCCNC(=O)c2ccc(-c3c4nc(c(-c5c(F)cc(S(=O)(=O)[O-])cc5F)c5ccc([nH]5)c(-c5c(F)cc(S(=O)(=O)[O-])cc5F)c5nc(c(-c6c(F)cc(S(=O)(=O)[O-])cc6F)c6ccc3[nH]6)C=C5)C=C4)cc2)c(C)cc1C
REMARK SMILES IDX 18 1 17 2 16 3 15 4 13 5 14 6 12 8 10 9 11 10 94 11 93 12
REMARK SMILES IDX 95 13 91 14 92 15 7 16 8 17 9 18 5 19 6 20 3 21 4 22 2 23
REMARK SMILES IDX 1 24 19 25 20 26 21 27 22 28 23 29 24 31 25 32 26 33 90 34
REMARK SMILES IDX 27 35 89 36 28 37 29 38 30 39 83 40 31 41 88 42 82 43 84 44
REMARK SMILES IDX 32 45 87 46 81 47 80 48 33 50 67 51 46 52 66 53 47 54 50 55
REMARK SMILES IDX 65 56 85 57 48 58 49 59 64 61 86 62 51 63 34 64 35 65 44 66
REMARK SMILES IDX 36 67 37 68 43 69 45 70 38 71 39 72 40 73 41 74 42 75 68 76
REMARK SMILES IDX 69 77 78 78 70 79 71 80 77 81 79 82 72 83 73 84 74 85 75 86
REMARK SMILES IDX 76 87 52 88 53 89 62 90 54 91 55 92 61 93 63 94 56 95 57 96
REMARK SMILES IDX 58 97 59 98 60 99
REMARK H PARENT 15 7 22 30 84 49 50 60
REMARK Flexibility Score: inf
ROOT
ATOM      1  C   UNL A   1      35.518  22.055  25.807  1.00  0.00     0.002 C 
ENDROOT
BRANCH   1   2
ATOM      2  C   UNL A   1      34.559  21.506  26.864  1.00  0.00     0.021 C 
BRANCH   2   3
ATOM      3  C   UNL A   1      33.970  22.584  27.782  1.00  0.00     0.116 C 
BRANCH   3   4
ATOM      4  N   UNL A   1      32.536  22.458  27.765  1.00  0.00    -0.352 N 
ATOM      5  C   UNL A   1      31.573  22.937  26.929  1.00  0.00     0.251 C 
ATOM      6  O   UNL A   1      30.415  22.865  27.356  1.00  0.00    -0.269 OA
ATOM      7  H   UNL A   1      32.180  21.917  28.507  1.00  0.00     0.163 HD
BRANCH   5   8
ATOM      8  C   UNL A   1      31.772  23.425  25.525  1.00  0.00     0.044 A 
ATOM      9  C   UNL A   1      32.151  25.542  24.318  1.00  0.00     0.086 A 
ATOM     10  C   UNL A   1      31.804  24.835  25.477  1.00  0.00     0.036 A 
ATOM     11  C   UNL A   1      32.381  24.863  23.120  1.00  0.00    -0.031 A 
ATOM     12  C   UNL A   1      32.278  23.465  23.145  1.00  0.00     0.009 A 
ATOM     13  C   UNL A   1      32.724  25.512  21.811  1.00  0.00     0.046 C 
ATOM     14  C   UNL A   1      32.060  22.729  24.336  1.00  0.00    -0.038 A 
ATOM     15  C   UNL A   1      32.249  21.251  24.185  1.00  0.00     0.045 C 
BRANCH   9  16
ATOM     16  S   UNL A   1      32.384  27.304  24.485  1.00  0.00     0.243 S 
ATOM     17  O   UNL A   1      33.763  27.612  24.172  1.00  0.00    -0.207 OA
ATOM     18  O   UNL A   1      31.824  27.687  25.763  1.00  0.00    -0.207 OA
BRANCH  16  19
ATOM     19  N   UNL A   1      31.418  27.927  23.195  1.00  0.00    -0.198 NA
ATOM     20  C   UNL A   1      32.078  29.022  22.424  1.00  0.00     0.124 C 
BRANCH  19  21
ATOM     21  C   UNL A   1      29.978  28.256  23.501  1.00  0.00     0.069 C 
ATOM     22  C   UNL A   1      29.114  27.004  23.645  1.00  0.00     0.026 C 
BRANCH  21  23
ATOM     23  C   UNL A   1      29.425  29.282  22.497  1.00  0.00     0.016 C 
ATOM     24  C   UNL A   1      27.916  29.462  22.569  1.00  0.00     0.005 C 
ENDBRANCH  21  23
ENDBRANCH  19  21
ENDBRANCH  16  19
ENDBRANCH   9  16
ENDBRANCH   5   8
ENDBRANCH   3   4
ENDBRANCH   2   3
ENDBRANCH   1   2
BRANCH   1  25
ATOM     25  C   UNL A   1      35.983  23.486  26.080  1.00  0.00     0.002 C 
BRANCH  25  26
ATOM     26  C   UNL A   1      37.385  23.810  25.555  1.00  0.00     0.021 C 
BRANCH  26  27
ATOM     27  C   UNL A   1      38.396  24.145  26.647  1.00  0.00     0.116 C 
BRANCH  27  28
ATOM     28  N   UNL A   1      39.755  24.110  26.128  1.00  0.00    -0.352 N 
ATOM     29  C   UNL A   1      40.783  24.991  26.344  1.00  0.00     0.251 C 
ATOM     30  H   UNL A   1      39.965  23.347  25.543  1.00  0.00     0.163 HD
ATOM     31  O   UNL A   1      41.750  25.003  25.589  1.00  0.00    -0.269 OA
BRANCH  29  32
ATOM     32  C   UNL A   1      40.717  25.921  27.490  1.00  0.00     0.039 A 
ATOM     33  C   UNL A   1      41.627  26.975  27.568  1.00  0.00     0.014 A 
ATOM     34  C   UNL A   1      39.766  25.733  28.499  1.00  0.00     0.014 A 
ATOM     35  C   UNL A   1      41.555  27.869  28.638  1.00  0.00     0.010 A 
ATOM     36  C   UNL A   1      39.642  26.671  29.518  1.00  0.00     0.010 A 
ATOM     37  C   UNL A   1      40.544  27.740  29.606  1.00  0.00    -0.014 A 
BRANCH  37  38
ATOM     38  C   UNL A   1      40.422  28.716  30.719  1.00  0.00     0.031 A 
ATOM     39  C   UNL A   1      41.289  28.580  31.942  1.00  0.00     0.074 A 
ATOM     40  C   UNL A   1      39.496  29.692  30.645  1.00  0.00     0.049 A 
ATOM     41  N   UNL A   1      41.303  29.311  33.027  1.00  0.00    -0.248 NA
ATOM     42  C   UNL A   1      42.247  27.463  31.961  1.00  0.00     0.031 C 
ATOM     43  C   UNL A   1      38.564  29.891  29.533  1.00  0.00     0.029 A 
ATOM     44  N   UNL A   1      39.181  30.698  31.524  1.00  0.00    -0.354 N 
ATOM     45  C   UNL A   1      42.261  28.739  33.857  1.00  0.00     0.074 A 
ATOM     46  C   UNL A   1      42.761  27.565  33.178  1.00  0.00     0.031 C 
ATOM     47  C   UNL A   1      37.804  30.969  29.781  1.00  0.00     0.029 A 
ATOM     48  C   UNL A   1      38.164  31.514  31.086  1.00  0.00     0.049 A 
ATOM     49  H   UNL A   1      39.642  30.824  32.385  1.00  0.00     0.167 HD
ATOM     50  C   UNL A   1      42.702  29.171  35.063  1.00  0.00     0.037 A 
ATOM     51  C   UNL A   1      37.581  32.575  31.675  1.00  0.00     0.037 A 
ATOM     52  C   UNL A   1      42.207  30.352  35.723  1.00  0.00     0.049 A 
ATOM     53  C   UNL A   1      38.080  33.028  33.022  1.00  0.00     0.074 A 
ATOM     54  C   UNL A   1      42.625  30.907  36.919  1.00  0.00     0.029 A 
ATOM     55  N   UNL A   1      41.181  31.156  35.248  1.00  0.00    -0.354 N 
ATOM     56  N   UNL A   1      39.037  32.518  33.760  1.00  0.00    -0.248 NA
ATOM     57  C   UNL A   1      37.425  34.202  33.611  1.00  0.00     0.031 C 
ATOM     58  C   UNL A   1      41.813  32.011  37.196  1.00  0.00     0.029 A 
ATOM     59  C   UNL A   1      40.932  32.185  36.141  1.00  0.00     0.049 A 
ATOM     60  H   UNL A   1      40.701  31.016  34.400  1.00  0.00     0.167 HD
ATOM     61  C   UNL A   1      39.117  33.325  34.890  1.00  0.00     0.074 A 
ATOM     62  C   UNL A   1      38.123  34.367  34.726  1.00  0.00     0.031 C 
ATOM     63  C   UNL A   1      39.937  33.215  35.965  1.00  0.00     0.037 A 
BRANCH  50  64
ATOM     64  C   UNL A   1      43.771  28.362  35.748  1.00  0.00     0.058 A 
ATOM     65  C   UNL A   1      43.456  27.327  36.645  1.00  0.00     0.135 A 
ATOM     66  C   UNL A   1      45.129  28.598  35.477  1.00  0.00     0.135 A 
ATOM     67  F   UNL A   1      42.176  27.066  36.954  1.00  0.00    -0.206 F 
ATOM     68  C   UNL A   1      44.448  26.578  37.270  1.00  0.00     0.059 A 
ATOM     69  C   UNL A   1      46.136  27.838  36.066  1.00  0.00     0.059 A 
ATOM     70  F   UNL A   1      45.490  29.574  34.630  1.00  0.00    -0.206 F 
ATOM     71  C   UNL A   1      45.786  26.840  36.973  1.00  0.00     0.060 A 
BRANCH  71  72
ATOM     72  S   UNL A   1      47.058  25.852  37.788  1.00  0.00     0.124 S 
ATOM     73  O   UNL A   1      48.221  26.728  37.678  1.00  0.00    -0.237 OA
ATOM     74  O   UNL A   1      46.511  25.689  39.132  1.00  0.00    -0.237 OA
ATOM     75  O   UNL A   1      47.112  24.635  36.984  1.00  0.00    -0.744 OA
ENDBRANCH  71  72
ENDBRANCH  50  64
BRANCH  51  76
ATOM     76  C   UNL A   1      36.475  33.294  30.987  1.00  0.00     0.058 A 
ATOM     77  C   UNL A   1      36.727  34.132  29.890  1.00  0.00     0.135 A 
ATOM     78  C   UNL A   1      35.141  33.147  31.403  1.00  0.00     0.135 A 
ATOM     79  F   UNL A   1      37.983  34.309  29.456  1.00  0.00    -0.206 F 
ATOM     80  C   UNL A   1      35.701  34.815  29.243  1.00  0.00     0.059 A 
ATOM     81  C   UNL A   1      34.096  33.795  30.753  1.00  0.00     0.059 A 
ATOM     82  F   UNL A   1      34.844  32.343  32.436  1.00  0.00    -0.206 F 
ATOM     83  C   UNL A   1      34.388  34.637  29.681  1.00  0.00     0.060 A 
BRANCH  83  84
ATOM     84  S   UNL A   1      33.061  35.492  28.805  1.00  0.00     0.124 S 
ATOM     85  O   UNL A   1      33.806  36.482  28.036  1.00  0.00    -0.237 OA
ATOM     86  O   UNL A   1      32.454  34.409  28.037  1.00  0.00    -0.237 OA
ATOM     87  O   UNL A   1      32.233  36.024  29.885  1.00  0.00    -0.744 OA
ENDBRANCH  83  84
ENDBRANCH  51  76
BRANCH  63  88
ATOM     88  C   UNL A   1      39.815  34.264  37.038  1.00  0.00     0.058 A 
ATOM     89  C   UNL A   1      38.988  34.085  38.157  1.00  0.00     0.135 A 
ATOM     90  C   UNL A   1      40.570  35.446  36.963  1.00  0.00     0.135 A 
ATOM     91  F   UNL A   1      38.240  32.976  38.276  1.00  0.00    -0.206 F 
ATOM     92  C   UNL A   1      38.888  35.055  39.149  1.00  0.00     0.059 A 
ATOM     93  C   UNL A   1      40.511  36.414  37.960  1.00  0.00     0.059 A 
ATOM     94  F   UNL A   1      41.387  35.664  35.921  1.00  0.00    -0.206 F 
ATOM     95  C   UNL A   1      39.656  36.216  39.043  1.00  0.00     0.060 A 
BRANCH  95  96
ATOM     96  S   UNL A   1      39.533  37.455  40.350  1.00  0.00     0.124 S 
ATOM     97  O   UNL A   1      38.786  36.731  41.372  1.00  0.00    -0.237 OA
ATOM     98  O   UNL A   1      40.936  37.721  40.658  1.00  0.00    -0.237 OA
ATOM     99  O   UNL A   1      38.818  38.555  39.710  1.00  0.00    -0.744 OA
ENDBRANCH  95  96
ENDBRANCH  63  88
ENDBRANCH  37  38
ENDBRANCH  29  32
ENDBRANCH  27  28
ENDBRANCH  26  27
ENDBRANCH  25  26
ENDBRANCH   1  25
TORSDOF 20
ENDMDL
MODEL 2
REMARK VINA RESULT:     -11.1      1.183      2.178
REMARK SMILES CC[C@@H](C)N(C)S(=O)(=O)c1cc(C(=O)NCCCCCCNC(=O)c2ccc(-c3c4nc(c(-c5c(F)cc(S(=O)(=O)[O-])cc5F)c5ccc([nH]5)c(-c5c(F)cc(S(=O)(=O)[O-])cc5F)c5nc(c(-c6c(F)cc(S(=O)(=O)[O-])cc6F)c6ccc3[nH]6)C=C5)C=C4)cc2)c(C)cc1C
REMARK SMILES IDX 18 1 17 2 16 3 15 4 13 5 14 6 12 8 10 9 11 10 94 11 93 12
REMARK SMILES IDX 95 13 91 14 92 15 7 16 8 17 9 18 5 19 6 20 3 21 4 22 2 23
REMARK SMILES IDX 1 24 19 25 20 26 21 27 22 28 23 29 24 31 25 32 26 33 90 34
REMARK SMILES IDX 27 35 89 36 28 37 29 38 30 39 83 40 31 41 88 42 82 43 84 44
REMARK SMILES IDX 32 45 87 46 81 47 80 48 33 50 67 51 46 52 66 53 47 54 50 55
REMARK SMILES IDX 65 56 85 57 48 58 49 59 64 61 86 62 51 63 34 64 35 65 44 66
REMARK SMILES IDX 36 67 37 68 43 69 45 70 38 71 39 72 40 73 41 74 42 75 68 76
REMARK SMILES IDX 69 77 78 78 70 79 71 80 77 81 79 82 72 83 73 84 74 85 75 86
REMARK SMILES IDX 76 87 52 88 53 89 62 90 54 91 55 92 61 93 63 94 56 95 57 96
REMARK SMILES IDX 58 97 59 98 60 99
REMARK H PARENT 15 7 22 30 84 49 50 60
REMARK Flexibility Score: inf
ROOT
ATOM      1  C   UNL A   1      37.230  23.793  26.102  1.00  0.00     0.002 C 
ENDROOT
BRANCH   1   2
ATOM      2  C   UNL A   1      35.709  23.940  26.038  1.00  0.00     0.021 C 
BRANCH   2   3
ATOM      3  C   UNL A   1      34.949  22.723  26.580  1.00  0.00     0.116 C 
BRANCH   3   4
ATOM      4  N   UNL A   1      33.646  23.160  27.010  1.00  0.00    -0.352 N 
ATOM      5  C   UNL A   1      32.684  23.926  26.423  1.00  0.00     0.251 C 
ATOM      6  O   UNL A   1      31.793  24.331  27.177  1.00  0.00    -0.269 OA
ATOM      7  H   UNL A   1      33.401  22.841  27.908  1.00  0.00     0.163 HD
BRANCH   5   8
ATOM      8  C   UNL A   1      32.548  24.220  24.958  1.00  0.00     0.044 A 
ATOM      9  C   UNL A   1      32.563  26.156  23.430  1.00  0.00     0.086 A 
ATOM     10  C   UNL A   1      32.510  25.610  24.720  1.00  0.00     0.036 A 
ATOM     11  C   UNL A   1      32.551  25.321  22.311  1.00  0.00    -0.031 A 
ATOM     12  C   UNL A   1      32.514  23.939  22.541  1.00  0.00     0.009 A 
ATOM     13  C   UNL A   1      32.570  25.788  20.884  1.00  0.00     0.046 C 
ATOM     14  C   UNL A   1      32.595  23.371  23.837  1.00  0.00    -0.038 A 
ATOM     15  C   UNL A   1      32.806  21.888  23.842  1.00  0.00     0.045 C 
BRANCH   9  16
ATOM     16  S   UNL A   1      32.754  27.926  23.309  1.00  0.00     0.243 S 
ATOM     17  O   UNL A   1      31.678  28.444  22.489  1.00  0.00    -0.207 OA
ATOM     18  O   UNL A   1      34.131  28.181  22.948  1.00  0.00    -0.207 OA
BRANCH  16  19
ATOM     19  N   UNL A   1      32.451  28.441  24.930  1.00  0.00    -0.198 NA
ATOM     20  C   UNL A   1      31.242  29.306  25.071  1.00  0.00     0.124 C 
BRANCH  19  21
ATOM     21  C   UNL A   1      33.617  28.989  25.714  1.00  0.00     0.069 C 
ATOM     22  C   UNL A   1      34.270  27.929  26.600  1.00  0.00     0.026 C 
BRANCH  21  23
ATOM     23  C   UNL A   1      33.218  30.270  26.466  1.00  0.00     0.016 C 
ATOM     24  C   UNL A   1      34.276  30.766  27.442  1.00  0.00     0.005 C 
ENDBRANCH  21  23
ENDBRANCH  19  21
ENDBRANCH  16  19
ENDBRANCH   9  16
ENDBRANCH   5   8
ENDBRANCH   3   4
ENDBRANCH   2   3
ENDBRANCH   1   2
BRANCH   1  25
ATOM     25  C   UNL A   1      37.732  22.398  25.726  1.00  0.00     0.002 C 
BRANCH  25  26
ATOM     26  C   UNL A   1      39.113  22.047  26.284  1.00  0.00     0.021 C 
BRANCH  26  27
ATOM     27  C   UNL A   1      39.830  23.218  26.950  1.00  0.00     0.116 C 
BRANCH  27  28
ATOM     28  N   UNL A   1      41.010  23.607  26.192  1.00  0.00    -0.352 N 
ATOM     29  C   UNL A   1      41.654  24.817  26.161  1.00  0.00     0.251 C 
ATOM     30  H   UNL A   1      41.398  22.904  25.624  1.00  0.00     0.163 HD
ATOM     31  O   UNL A   1      42.422  25.080  25.241  1.00  0.00    -0.269 OA
BRANCH  29  32
ATOM     32  C   UNL A   1      41.419  25.795  27.243  1.00  0.00     0.039 A 
ATOM     33  C   UNL A   1      40.381  25.576  28.149  1.00  0.00     0.014 A 
ATOM     34  C   UNL A   1      42.216  26.941  27.345  1.00  0.00     0.014 A 
ATOM     35  C   UNL A   1      40.170  26.487  29.185  1.00  0.00     0.010 A 
ATOM     36  C   UNL A   1      42.058  27.801  28.426  1.00  0.00     0.010 A 
ATOM     37  C   UNL A   1      41.024  27.591  29.349  1.00  0.00    -0.014 A 
BRANCH  37  38
ATOM     38  C   UNL A   1      40.843  28.537  30.479  1.00  0.00     0.031 A 
ATOM     39  C   UNL A   1      41.693  28.411  31.715  1.00  0.00     0.074 A 
ATOM     40  C   UNL A   1      39.882  29.478  30.407  1.00  0.00     0.049 A 
ATOM     41  N   UNL A   1      41.659  29.119  32.815  1.00  0.00    -0.248 NA
ATOM     42  C   UNL A   1      42.693  27.331  31.730  1.00  0.00     0.031 C 
ATOM     43  C   UNL A   1      38.963  29.663  29.282  1.00  0.00     0.029 A 
ATOM     44  N   UNL A   1      39.511  30.453  31.300  1.00  0.00    -0.354 N 
ATOM     45  C   UNL A   1      42.623  28.568  33.651  1.00  0.00     0.074 A 
ATOM     46  C   UNL A   1      43.181  27.428  32.958  1.00  0.00     0.031 C 
ATOM     47  C   UNL A   1      38.157  30.706  29.537  1.00  0.00     0.029 A 
ATOM     48  C   UNL A   1      38.471  31.237  30.860  1.00  0.00     0.049 A 
ATOM     49  H   UNL A   1      39.951  30.579  32.172  1.00  0.00     0.167 HD
ATOM     50  C   UNL A   1      43.025  28.991  34.874  1.00  0.00     0.037 A 
ATOM     51  C   UNL A   1      37.837  32.263  31.458  1.00  0.00     0.037 A 
ATOM     52  C   UNL A   1      42.472  30.138  35.548  1.00  0.00     0.049 A 
ATOM     53  C   UNL A   1      38.292  32.707  32.823  1.00  0.00     0.074 A 
ATOM     54  C   UNL A   1      42.846  30.684  36.763  1.00  0.00     0.029 A 
ATOM     55  N   UNL A   1      41.424  30.911  35.069  1.00  0.00    -0.354 N 
ATOM     56  N   UNL A   1      39.256  32.219  33.568  1.00  0.00    -0.248 NA
ATOM     57  C   UNL A   1      37.582  33.842  33.423  1.00  0.00     0.031 C 
ATOM     58  C   UNL A   1      41.987  31.750  37.046  1.00  0.00     0.029 A 
ATOM     59  C   UNL A   1      41.119  31.911  35.978  1.00  0.00     0.049 A 
ATOM     60  H   UNL A   1      40.966  30.770  34.210  1.00  0.00     0.167 HD
ATOM     61  C   UNL A   1      39.283  33.005  34.716  1.00  0.00     0.074 A 
ATOM     62  C   UNL A   1      38.253  34.011  34.554  1.00  0.00     0.031 C 
ATOM     63  C   UNL A   1      40.087  32.904  35.803  1.00  0.00     0.037 A 
BRANCH  50  64
ATOM     64  C   UNL A   1      44.112  28.210  35.563  1.00  0.00     0.058 A 
ATOM     65  C   UNL A   1      43.821  27.163  36.454  1.00  0.00     0.135 A 
ATOM     66  C   UNL A   1      45.464  28.486  35.302  1.00  0.00     0.135 A 
ATOM     67  F   UNL A   1      42.548  26.864  36.753  1.00  0.00    -0.206 F 
ATOM     68  C   UNL A   1      44.831  26.439  37.082  1.00  0.00     0.059 A 
ATOM     69  C   UNL A   1      46.489  27.753  35.895  1.00  0.00     0.059 A 
ATOM     70  F   UNL A   1      45.803  29.476  34.461  1.00  0.00    -0.206 F 
ATOM     71  C   UNL A   1      46.162  26.742  36.795  1.00  0.00     0.060 A 
BRANCH  71  72
ATOM     72  S   UNL A   1      47.457  25.788  37.615  1.00  0.00     0.124 S 
ATOM     73  O   UNL A   1      48.650  26.261  36.920  1.00  0.00    -0.237 OA
ATOM     74  O   UNL A   1      47.321  26.211  39.005  1.00  0.00    -0.237 OA
ATOM     75  O   UNL A   1      47.082  24.403  37.344  1.00  0.00    -0.744 OA
ENDBRANCH  71  72
ENDBRANCH  50  64
BRANCH  51  76
ATOM     76  C   UNL A   1      36.715  32.952  30.763  1.00  0.00     0.058 A 
ATOM     77  C   UNL A   1      35.382  32.706  31.121  1.00  0.00     0.135 A 
ATOM     78  C   UNL A   1      36.956  33.881  29.738  1.00  0.00     0.135 A 
ATOM     79  F   UNL A   1      35.098  31.824  32.091  1.00  0.00    -0.206 F 
ATOM     80  C   UNL A   1      34.325  33.339  30.473  1.00  0.00     0.059 A 
ATOM     81  C   UNL A   1      35.918  34.549  29.097  1.00  0.00     0.059 A 
ATOM     82  F   UNL A   1      38.215  34.167  29.370  1.00  0.00    -0.206 F 
ATOM     83  C   UNL A   1      34.604  34.262  29.464  1.00  0.00     0.060 A 
BRANCH  83  84
ATOM     84  S   UNL A   1      33.227  35.111  28.663  1.00  0.00     0.124 S 
ATOM     85  O   UNL A   1      32.486  35.619  29.812  1.00  0.00    -0.237 OA
ATOM     86  O   UNL A   1      33.914  36.111  27.852  1.00  0.00    -0.237 OA
ATOM     87  O   UNL A   1      32.569  34.048  27.908  1.00  0.00    -0.744 OA
ENDBRANCH  83  84
ENDBRANCH  51  76
BRANCH  63  88
ATOM     88  C   UNL A   1      39.905  33.926  36.895  1.00  0.00     0.058 A 
ATOM     89  C   UNL A   1      40.521  35.186  36.840  1.00  0.00     0.135 A 
ATOM     90  C   UNL A   1      39.068  33.653  37.990  1.00  0.00     0.135 A 
ATOM     91  F   UNL A   1      41.335  35.496  35.818  1.00  0.00    -0.206 F 
ATOM     92  C   UNL A   1      40.340  36.127  37.847  1.00  0.00     0.059 A 
ATOM     93  C   UNL A   1      38.846  34.593  38.991  1.00  0.00     0.059 A 
ATOM     94  F   UNL A   1      38.444  32.469  38.088  1.00  0.00    -0.206 F 
ATOM     95  C   UNL A   1      39.499  35.822  38.918  1.00  0.00     0.060 A 
BRANCH  95  96
ATOM     96  S   UNL A   1      39.255  37.064  40.206  1.00  0.00     0.124 S 
ATOM     97  O   UNL A   1      40.630  37.355  40.597  1.00  0.00    -0.237 OA
ATOM     98  O   UNL A   1      38.561  38.127  39.485  1.00  0.00    -0.237 OA
ATOM     99  O   UNL A   1      38.453  36.365  41.205  1.00  0.00    -0.744 OA
ENDBRANCH  95  96
ENDBRANCH  63  88
ENDBRANCH  37  38
ENDBRANCH  29  32
ENDBRANCH  27  28
ENDBRANCH  26  27
ENDBRANCH  25  26
ENDBRANCH   1  25
TORSDOF 20
ENDMDL
MODEL 3
REMARK VINA RESULT:     -11.0      2.379      8.773
REMARK SMILES CC[C@@H](C)N(C)S(=O)(=O)c1cc(C(=O)NCCCCCCNC(=O)c2ccc(-c3c4nc(c(-c5c(F)cc(S(=O)(=O)[O-])cc5F)c5ccc([nH]5)c(-c5c(F)cc(S(=O)(=O)[O-])cc5F)c5nc(c(-c6c(F)cc(S(=O)(=O)[O-])cc6F)c6ccc3[nH]6)C=C5)C=C4)cc2)c(C)cc1C
REMARK SMILES IDX 18 1 17 2 16 3 15 4 13 5 14 6 12 8 10 9 11 10 94 11 93 12
REMARK SMILES IDX 95 13 91 14 92 15 7 16 8 17 9 18 5 19 6 20 3 21 4 22 2 23
REMARK SMILES IDX 1 24 19 25 20 26 21 27 22 28 23 29 24 31 25 32 26 33 90 34
REMARK SMILES IDX 27 35 89 36 28 37 29 38 30 39 83 40 31 41 88 42 82 43 84 44
REMARK SMILES IDX 32 45 87 46 81 47 80 48 33 50 67 51 46 52 66 53 47 54 50 55
REMARK SMILES IDX 65 56 85 57 48 58 49 59 64 61 86 62 51 63 34 64 35 65 44 66
REMARK SMILES IDX 36 67 37 68 43 69 45 70 38 71 39 72 40 73 41 74 42 75 68 76
REMARK SMILES IDX 69 77 78 78 70 79 71 80 77 81 79 82 72 83 73 84 74 85 75 86
REMARK SMILES IDX 76 87 52 88 53 89 62 90 54 91 55 92 61 93 63 94 56 95 57 96
REMARK SMILES IDX 58 97 59 98 60 99
REMARK H PARENT 15 7 22 30 84 49 50 60
REMARK Flexibility Score: inf
ROOT
ATOM      1  C   UNL A   1      34.410  31.489  27.962  1.00  0.00     0.002 C 
ENDROOT
BRANCH   1   2
ATOM      2  C   UNL A   1      35.107  30.149  27.726  1.00  0.00     0.021 C 
BRANCH   2   3
ATOM      3  C   UNL A   1      34.275  29.158  26.903  1.00  0.00     0.116 C 
BRANCH   3   4
ATOM      4  N   UNL A   1      33.122  28.782  27.679  1.00  0.00    -0.352 N 
ATOM      5  C   UNL A   1      31.973  28.118  27.371  1.00  0.00     0.251 C 
ATOM      6  O   UNL A   1      31.070  28.200  28.211  1.00  0.00    -0.269 OA
ATOM      7  H   UNL A   1      33.174  29.062  28.621  1.00  0.00     0.163 HD
BRANCH   5   8
ATOM      8  C   UNL A   1      31.750  27.222  26.188  1.00  0.00     0.044 A 
ATOM      9  C   UNL A   1      31.534  24.819  25.678  1.00  0.00     0.086 A 
ATOM     10  C   UNL A   1      31.867  25.864  26.551  1.00  0.00     0.036 A 
ATOM     11  C   UNL A   1      31.166  25.093  24.359  1.00  0.00    -0.031 A 
ATOM     12  C   UNL A   1      31.119  26.439  23.972  1.00  0.00     0.009 A 
ATOM     13  C   UNL A   1      30.823  24.060  23.325  1.00  0.00     0.046 C 
ATOM     14  C   UNL A   1      31.322  27.510  24.879  1.00  0.00    -0.038 A 
ATOM     15  C   UNL A   1      30.968  28.855  24.325  1.00  0.00     0.045 C 
BRANCH   9  16
ATOM     16  S   UNL A   1      31.503  23.171  26.363  1.00  0.00     0.243 S 
ATOM     17  O   UNL A   1      30.215  22.580  26.067  1.00  0.00    -0.207 OA
ATOM     18  O   UNL A   1      31.959  23.272  27.732  1.00  0.00    -0.207 OA
BRANCH  16  19
ATOM     19  N   UNL A   1      32.675  22.348  25.396  1.00  0.00    -0.198 NA
ATOM     20  C   UNL A   1      32.197  21.041  24.854  1.00  0.00     0.124 C 
BRANCH  19  21
ATOM     21  C   UNL A   1      34.076  22.239  25.945  1.00  0.00     0.069 C 
ATOM     22  C   UNL A   1      34.121  21.485  27.273  1.00  0.00     0.026 C 
BRANCH  21  23
ATOM     23  C   UNL A   1      34.756  23.618  25.987  1.00  0.00     0.016 C 
ATOM     24  C   UNL A   1      34.940  24.256  24.617  1.00  0.00     0.005 C 
ENDBRANCH  21  23
ENDBRANCH  19  21
ENDBRANCH  16  19
ENDBRANCH   9  16
ENDBRANCH   5   8
ENDBRANCH   3   4
ENDBRANCH   2   3
ENDBRANCH   1   2
BRANCH   1  25
ATOM     25  C   UNL A   1      35.364  32.684  27.999  1.00  0.00     0.002 C 
BRANCH  25  26
ATOM     26  C   UNL A   1      34.679  34.048  27.881  1.00  0.00     0.021 C 
BRANCH  26  27
ATOM     27  C   UNL A   1      33.172  34.009  28.110  1.00  0.00     0.116 C 
BRANCH  27  28
ATOM     28  N   UNL A   1      32.741  35.120  28.946  1.00  0.00    -0.352 N 
ATOM     29  C   UNL A   1      33.028  35.370  30.263  1.00  0.00     0.251 C 
ATOM     30  H   UNL A   1      32.165  35.784  28.503  1.00  0.00     0.163 HD
ATOM     31  O   UNL A   1      32.336  36.156  30.904  1.00  0.00    -0.269 OA
BRANCH  29  32
ATOM     32  C   UNL A   1      34.173  34.690  30.901  1.00  0.00     0.039 A 
ATOM     33  C   UNL A   1      33.974  33.463  31.535  1.00  0.00     0.014 A 
ATOM     34  C   UNL A   1      35.442  35.280  30.888  1.00  0.00     0.014 A 
ATOM     35  C   UNL A   1      35.058  32.807  32.120  1.00  0.00     0.010 A 
ATOM     36  C   UNL A   1      36.534  34.586  31.397  1.00  0.00     0.010 A 
ATOM     37  C   UNL A   1      36.351  33.349  32.031  1.00  0.00    -0.014 A 
BRANCH  37  38
ATOM     38  C   UNL A   1      37.522  32.635  32.602  1.00  0.00     0.031 A 
ATOM     39  C   UNL A   1      38.103  33.067  33.921  1.00  0.00     0.074 A 
ATOM     40  C   UNL A   1      38.087  31.630  31.905  1.00  0.00     0.049 A 
ATOM     41  N   UNL A   1      39.140  32.591  34.561  1.00  0.00    -0.248 NA
ATOM     42  C   UNL A   1      37.451  34.200  34.598  1.00  0.00     0.031 C 
ATOM     43  C   UNL A   1      37.643  31.157  30.592  1.00  0.00     0.029 A 
ATOM     44  N   UNL A   1      39.160  30.826  32.200  1.00  0.00    -0.354 N 
ATOM     45  C   UNL A   1      39.268  33.367  35.707  1.00  0.00     0.074 A 
ATOM     46  C   UNL A   1      38.243  34.385  35.644  1.00  0.00     0.031 C 
ATOM     47  C   UNL A   1      38.416  30.128  30.209  1.00  0.00     0.029 A 
ATOM     48  C   UNL A   1      39.436  29.895  31.227  1.00  0.00     0.049 A 
ATOM     49  H   UNL A   1      39.681  30.909  33.031  1.00  0.00     0.167 HD
ATOM     50  C   UNL A   1      40.144  33.226  36.731  1.00  0.00     0.037 A 
ATOM     51  C   UNL A   1      40.406  28.964  31.158  1.00  0.00     0.037 A 
ATOM     52  C   UNL A   1      41.151  32.197  36.790  1.00  0.00     0.049 A 
ATOM     53  C   UNL A   1      41.376  28.835  32.303  1.00  0.00     0.074 A 
ATOM     54  C   UNL A   1      42.050  31.933  37.807  1.00  0.00     0.029 A 
ATOM     55  N   UNL A   1      41.396  31.269  35.789  1.00  0.00    -0.354 N 
ATOM     56  N   UNL A   1      41.436  29.531  33.413  1.00  0.00    -0.248 NA
ATOM     57  C   UNL A   1      42.402  27.791  32.189  1.00  0.00     0.031 C 
ATOM     58  C   UNL A   1      42.877  30.883  37.396  1.00  0.00     0.029 A 
ATOM     59  C   UNL A   1      42.453  30.449  36.152  1.00  0.00     0.049 A 
ATOM     60  H   UNL A   1      40.893  31.202  34.946  1.00  0.00     0.167 HD
ATOM     61  C   UNL A   1      42.492  28.992  34.142  1.00  0.00     0.074 A 
ATOM     62  C   UNL A   1      43.026  27.900  33.353  1.00  0.00     0.031 C 
ATOM     63  C   UNL A   1      42.975  29.367  35.353  1.00  0.00     0.037 A 
BRANCH  50  64
ATOM     64  C   UNL A   1      40.053  34.207  37.870  1.00  0.00     0.058 A 
ATOM     65  C   UNL A   1      39.203  33.991  38.967  1.00  0.00     0.135 A 
ATOM     66  C   UNL A   1      40.855  35.360  37.884  1.00  0.00     0.135 A 
ATOM     67  F   UNL A   1      38.402  32.914  39.001  1.00  0.00    -0.206 F 
ATOM     68  C   UNL A   1      39.128  34.898  40.021  1.00  0.00     0.059 A 
ATOM     69  C   UNL A   1      40.820  36.263  38.943  1.00  0.00     0.059 A 
ATOM     70  F   UNL A   1      41.686  35.619  36.862  1.00  0.00    -0.206 F 
ATOM     71  C   UNL A   1      39.942  36.030  40.000  1.00  0.00     0.060 A 
BRANCH  71  72
ATOM     72  S   UNL A   1      39.837  37.190  41.379  1.00  0.00     0.124 S 
ATOM     73  O   UNL A   1      38.978  38.229  40.820  1.00  0.00    -0.237 OA
ATOM     74  O   UNL A   1      39.241  36.371  42.429  1.00  0.00    -0.237 OA
ATOM     75  O   UNL A   1      41.226  37.579  41.604  1.00  0.00    -0.744 OA
ENDBRANCH  71  72
ENDBRANCH  50  64
BRANCH  51  76
ATOM     76  C   UNL A   1      40.497  28.069  29.973  1.00  0.00     0.058 A 
ATOM     77  C   UNL A   1      41.472  28.271  28.985  1.00  0.00     0.135 A 
ATOM     78  C   UNL A   1      39.619  26.984  29.810  1.00  0.00     0.135 A 
ATOM     79  F   UNL A   1      42.332  29.296  29.092  1.00  0.00    -0.206 F 
ATOM     80  C   UNL A   1      41.562  27.445  27.869  1.00  0.00     0.059 A 
ATOM     81  C   UNL A   1      39.709  26.127  28.718  1.00  0.00     0.059 A 
ATOM     82  F   UNL A   1      38.679  26.735  30.735  1.00  0.00    -0.206 F 
ATOM     83  C   UNL A   1      40.677  26.374  27.746  1.00  0.00     0.060 A 
BRANCH  83  84
ATOM     84  S   UNL A   1      40.833  25.282  26.317  1.00  0.00     0.124 S 
ATOM     85  O   UNL A   1      39.475  24.764  26.193  1.00  0.00    -0.237 OA
ATOM     86  O   UNL A   1      41.265  26.205  25.272  1.00  0.00    -0.237 OA
ATOM     87  O   UNL A   1      41.840  24.313  26.742  1.00  0.00    -0.744 OA
ENDBRANCH  83  84
ENDBRANCH  51  76
BRANCH  63  88
ATOM     88  C   UNL A   1      44.123  28.571  35.915  1.00  0.00     0.058 A 
ATOM     89  C   UNL A   1      45.459  28.948  35.703  1.00  0.00     0.135 A 
ATOM     90  C   UNL A   1      43.881  27.440  36.712  1.00  0.00     0.135 A 
ATOM     91  F   UNL A   1      45.747  30.018  34.944  1.00  0.00    -0.206 F 
ATOM     92  C   UNL A   1      46.514  28.214  36.233  1.00  0.00     0.059 A 
ATOM     93  C   UNL A   1      44.920  26.710  37.280  1.00  0.00     0.059 A 
ATOM     94  F   UNL A   1      42.623  27.041  36.957  1.00  0.00    -0.206 F 
ATOM     95  C   UNL A   1      46.234  27.097  37.023  1.00  0.00     0.060 A 
BRANCH  95  96
ATOM     96  S   UNL A   1      47.614  26.168  37.723  1.00  0.00     0.124 S 
ATOM     97  O   UNL A   1      48.387  25.844  36.530  1.00  0.00    -0.237 OA
ATOM     98  O   UNL A   1      48.219  27.143  38.626  1.00  0.00    -0.237 OA
ATOM     99  O   UNL A   1      46.965  25.036  38.377  1.00  0.00    -0.744 OA
ENDBRANCH  95  96
ENDBRANCH  63  88
ENDBRANCH  37  38
ENDBRANCH  29  32
ENDBRANCH  27  28
ENDBRANCH  26  27
ENDBRANCH  25  26
ENDBRANCH   1  25
TORSDOF 20
ENDMDL
