MODEL 1
REMARK VINA RESULT:     -12.5      0.000      0.000
REMARK SMILES O=C(NCCCCCCNC(=O)[C@H](c1c[nH]c2ccc(Cl)cc12)[NH+]1CCN(c2cccc(Cl)c2)CC1)c1ccc(-c2c3nc(c(-c4c(F)cc(S(=O)(=O)[O-])cc4F)c4ccc([nH]4)c(-c4c(F)cc(S(=O)(=O)[O-])cc4F)c4nc(c(-c5c(F)cc(S(=O)(=O)[O-])cc5F)c5ccc2[nH]5)C=C4)C=C3)cc1
REMARK SMILES IDX 6 1 5 2 4 3 3 4 1 5 2 6 37 8 38 9 102 10 39 11 101 12 40 13
REMARK SMILES IDX 41 14 42 15 95 16 43 17 100 18 94 19 96 20 44 21 99 22 93 23
REMARK SMILES IDX 92 24 45 26 79 27 58 28 78 29 59 30 62 31 77 32 97 33 60 34
REMARK SMILES IDX 61 35 76 37 98 38 63 39 46 40 47 41 56 42 48 43 49 44 55 45
REMARK SMILES IDX 57 46 50 47 51 48 52 49 53 50 54 51 80 52 81 53 90 54 82 55
REMARK SMILES IDX 83 56 89 57 91 58 84 59 85 60 86 61 87 62 88 63 64 64 65 65
REMARK SMILES IDX 74 66 66 67 67 68 73 69 75 70 68 71 69 72 70 73 71 74 72 75
REMARK SMILES IDX 7 76 8 77 9 78 10 79 11 80 12 82 13 83 24 84 25 85 36 86
REMARK SMILES IDX 26 88 35 89 27 90 28 91 29 92 34 93 30 94 32 95 31 96 33 97
REMARK SMILES IDX 14 98 15 99 23 100 16 101 17 102 22 103 18 105 20 106 19 107
REMARK SMILES IDX 21 108
REMARK H PARENT 3 7 96 25 62 36 10 81 24 87 16 104
REMARK Flexibility Score: inf
ROOT
ATOM      1  C   UNL A   1      34.331  32.564  28.384  1.00  0.00     0.002 C 
ENDROOT
BRANCH   1   2
ATOM      2  C   UNL A   1      35.840  32.669  28.153  1.00  0.00     0.021 C 
BRANCH   2   3
ATOM      3  C   UNL A   1      36.646  32.726  29.444  1.00  0.00     0.116 C 
BRANCH   3   4
ATOM      4  N   UNL A   1      36.177  31.729  30.394  1.00  0.00    -0.352 N 
ATOM      5  O   UNL A   1      35.982  29.631  31.199  1.00  0.00    -0.269 OA
ATOM      6  C   UNL A   1      36.659  30.462  30.607  1.00  0.00     0.251 C 
ATOM      7  H   UNL A   1      35.415  31.998  30.956  1.00  0.00     0.163 HD
BRANCH   6   8
ATOM      8  C   UNL A   1      38.009  30.125  30.115  1.00  0.00     0.039 A 
ATOM      9  C   UNL A   1      39.067  30.019  31.022  1.00  0.00     0.014 A 
ATOM     10  C   UNL A   1      38.215  29.906  28.752  1.00  0.00     0.014 A 
ATOM     11  C   UNL A   1      40.356  29.818  30.554  1.00  0.00     0.010 A 
ATOM     12  C   UNL A   1      39.500  29.603  28.295  1.00  0.00     0.010 A 
ATOM     13  C   UNL A   1      40.581  29.571  29.190  1.00  0.00    -0.014 A 
BRANCH  13  14
ATOM     14  C   UNL A   1      41.940  29.178  28.748  1.00  0.00     0.031 A 
ATOM     15  C   UNL A   1      43.060  30.173  28.692  1.00  0.00     0.074 A 
ATOM     16  C   UNL A   1      42.145  27.891  28.401  1.00  0.00     0.049 A 
ATOM     17  N   UNL A   1      44.301  29.991  28.321  1.00  0.00    -0.248 NA
ATOM     18  C   UNL A   1      42.752  31.554  29.096  1.00  0.00     0.031 C 
ATOM     19  C   UNL A   1      41.115  26.847  28.401  1.00  0.00     0.029 A 
ATOM     20  N   UNL A   1      43.277  27.239  27.990  1.00  0.00    -0.354 N 
ATOM     21  C   UNL A   1      44.918  31.231  28.424  1.00  0.00     0.074 A 
ATOM     22  C   UNL A   1      43.907  32.166  28.871  1.00  0.00     0.031 C 
ATOM     23  C   UNL A   1      41.670  25.680  28.045  1.00  0.00     0.029 A 
ATOM     24  C   UNL A   1      43.071  25.907  27.717  1.00  0.00     0.049 A 
ATOM     25  H   UNL A   1      44.152  27.680  27.898  1.00  0.00     0.167 HD
ATOM     26  C   UNL A   1      46.210  31.551  28.171  1.00  0.00     0.037 A 
ATOM     27  C   UNL A   1      43.907  24.975  27.225  1.00  0.00     0.037 A 
ATOM     28  C   UNL A   1      47.201  30.603  27.727  1.00  0.00     0.049 A 
ATOM     29  C   UNL A   1      45.325  25.364  26.927  1.00  0.00     0.074 A 
ATOM     30  C   UNL A   1      48.547  30.817  27.481  1.00  0.00     0.029 A 
ATOM     31  N   UNL A   1      46.953  29.266  27.445  1.00  0.00    -0.354 N 
ATOM     32  N   UNL A   1      45.905  26.532  27.077  1.00  0.00    -0.248 NA
ATOM     33  C   UNL A   1      46.202  24.315  26.395  1.00  0.00     0.031 C 
ATOM     34  C   UNL A   1      49.098  29.626  26.996  1.00  0.00     0.029 A 
ATOM     35  C   UNL A   1      48.112  28.651  27.000  1.00  0.00     0.049 A 
ATOM     36  H   UNL A   1      46.081  28.821  27.547  1.00  0.00     0.167 HD
ATOM     37  C   UNL A   1      47.222  26.355  26.672  1.00  0.00     0.074 A 
ATOM     38  C   UNL A   1      47.355  24.962  26.291  1.00  0.00     0.031 C 
ATOM     39  C   UNL A   1      48.228  27.262  26.621  1.00  0.00     0.037 A 
BRANCH  26  40
ATOM     40  C   UNL A   1      46.622  32.990  28.339  1.00  0.00     0.058 A 
ATOM     41  C   UNL A   1      47.178  33.471  29.536  1.00  0.00     0.135 A 
ATOM     42  C   UNL A   1      46.489  33.897  27.273  1.00  0.00     0.135 A 
ATOM     43  F   UNL A   1      47.318  32.656  30.592  1.00  0.00    -0.206 F 
ATOM     44  C   UNL A   1      47.557  34.803  29.680  1.00  0.00     0.059 A 
ATOM     45  C   UNL A   1      46.888  35.226  27.384  1.00  0.00     0.059 A 
ATOM     46  F   UNL A   1      45.965  33.494  26.105  1.00  0.00    -0.206 F 
ATOM     47  C   UNL A   1      47.406  35.674  28.598  1.00  0.00     0.060 A 
BRANCH  47  48
ATOM     48  S   UNL A   1      47.892  37.399  28.807  1.00  0.00     0.124 S 
ATOM     49  O   UNL A   1      48.942  37.529  27.800  1.00  0.00    -0.237 OA
ATOM     50  O   UNL A   1      46.651  38.109  28.520  1.00  0.00    -0.237 OA
ATOM     51  O   UNL A   1      48.342  37.462  30.194  1.00  0.00    -0.744 OA
ENDBRANCH  47  48
ENDBRANCH  26  40
BRANCH  27  52
ATOM     52  C   UNL A   1      43.403  23.600  26.970  1.00  0.00     0.058 A 
ATOM     53  C   UNL A   1      43.095  23.169  25.673  1.00  0.00     0.135 A 
ATOM     54  C   UNL A   1      43.267  22.675  28.019  1.00  0.00     0.135 A 
ATOM     55  F   UNL A   1      43.209  24.015  24.639  1.00  0.00    -0.206 F 
ATOM     56  C   UNL A   1      42.657  21.872  25.424  1.00  0.00     0.059 A 
ATOM     57  C   UNL A   1      42.863  21.365  27.791  1.00  0.00     0.059 A 
ATOM     58  F   UNL A   1      43.572  23.033  29.276  1.00  0.00    -0.206 F 
ATOM     59  C   UNL A   1      42.551  20.975  26.489  1.00  0.00     0.060 A 
BRANCH  59  60
ATOM     60  S   UNL A   1      42.039  19.279  26.146  1.00  0.00     0.124 S 
ATOM     61  O   UNL A   1      42.855  18.958  24.980  1.00  0.00    -0.237 OA
ATOM     62  O   UNL A   1      42.398  18.596  27.386  1.00  0.00    -0.237 OA
ATOM     63  O   UNL A   1      40.607  19.403  25.900  1.00  0.00    -0.744 OA
ENDBRANCH  59  60
ENDBRANCH  27  52
BRANCH  39  64
ATOM     64  C   UNL A   1      49.573  26.769  26.164  1.00  0.00     0.058 A 
ATOM     65  C   UNL A   1      50.016  26.944  24.844  1.00  0.00     0.135 A 
ATOM     66  C   UNL A   1      50.448  26.152  27.074  1.00  0.00     0.135 A 
ATOM     67  F   UNL A   1      49.215  27.518  23.931  1.00  0.00    -0.206 F 
ATOM     68  C   UNL A   1      51.270  26.502  24.435  1.00  0.00     0.059 A 
ATOM     69  C   UNL A   1      51.717  25.731  26.694  1.00  0.00     0.059 A 
ATOM     70  F   UNL A   1      50.076  25.966  28.350  1.00  0.00    -0.206 F 
ATOM     71  C   UNL A   1      52.115  25.900  25.368  1.00  0.00     0.060 A 
BRANCH  71  72
ATOM     72  S   UNL A   1      53.753  25.364  24.833  1.00  0.00     0.124 S 
ATOM     73  O   UNL A   1      53.607  23.913  24.848  1.00  0.00    -0.237 OA
ATOM     74  O   UNL A   1      53.865  25.977  23.513  1.00  0.00    -0.237 OA
ATOM     75  O   UNL A   1      54.641  25.916  25.851  1.00  0.00    -0.744 OA
ENDBRANCH  71  72
ENDBRANCH  39  64
ENDBRANCH  13  14
ENDBRANCH   6   8
ENDBRANCH   3   4
ENDBRANCH   2   3
ENDBRANCH   1   2
BRANCH   1  76
ATOM     76  C   UNL A   1      33.740  31.184  28.078  1.00  0.00     0.002 C 
BRANCH  76  77
ATOM     77  C   UNL A   1      34.481  30.418  26.980  1.00  0.00     0.021 C 
BRANCH  77  78
ATOM     78  C   UNL A   1      34.450  28.905  27.188  1.00  0.00     0.116 C 
BRANCH  78  79
ATOM     79  N   UNL A   1      33.126  28.492  27.580  1.00  0.00    -0.351 N 
ATOM     80  C   UNL A   1      32.098  27.959  26.864  1.00  0.00     0.283 C 
ATOM     81  H   UNL A   1      32.929  28.617  28.537  1.00  0.00     0.163 HD
ATOM     82  O   UNL A   1      31.023  27.964  27.486  1.00  0.00    -0.268 OA
BRANCH  80  83
ATOM     83  C   UNL A   1      32.255  27.238  25.464  1.00  0.00     0.307 C 
BRANCH  83  84
ATOM     84  N   UNL A   1      31.352  26.041  25.435  1.00  0.00    -0.318 N 
ATOM     85  C   UNL A   1      31.367  25.220  24.201  1.00  0.00     0.284 C 
ATOM     86  C   UNL A   1      31.678  25.122  26.568  1.00  0.00     0.284 C 
ATOM     87  H   UNL A   1      30.422  26.456  25.497  1.00  0.00     0.349 HD
ATOM     88  C   UNL A   1      32.678  24.455  23.923  1.00  0.00     0.178 C 
ATOM     89  C   UNL A   1      32.984  24.306  26.402  1.00  0.00     0.178 C 
ATOM     90  N   UNL A   1      33.014  23.651  25.095  1.00  0.00    -0.360 N 
BRANCH  90  91
ATOM     91  C   UNL A   1      33.560  22.397  24.956  1.00  0.00     0.038 A 
ATOM     92  C   UNL A   1      34.947  22.234  25.055  1.00  0.00     0.026 A 
ATOM     93  C   UNL A   1      32.769  21.261  24.754  1.00  0.00     0.046 A 
ATOM     94  C   UNL A   1      35.538  20.974  24.970  1.00  0.00     0.004 A 
ATOM     95  C   UNL A   1      33.360  20.002  24.647  1.00  0.00     0.043 A 
ATOM     96  C   UNL A   1      34.741  19.853  24.759  1.00  0.00     0.020 A 
ATOM     97  Cl  UNL A   1      32.377  18.616  24.369  1.00  0.00    -0.084 Cl
ENDBRANCH  90  91
ENDBRANCH  83  84
BRANCH  83  98
ATOM     98  C   UNL A   1      32.091  28.119  24.241  1.00  0.00     0.044 A 
ATOM     99  C   UNL A   1      33.063  28.709  23.449  1.00  0.00     0.094 A 
ATOM    100  C   UNL A   1      30.822  28.506  23.666  1.00  0.00     0.011 A 
ATOM    101  N   UNL A   1      32.451  29.376  22.421  1.00  0.00    -0.361 N 
ATOM    102  C   UNL A   1      31.085  29.238  22.508  1.00  0.00     0.046 A 
ATOM    103  C   UNL A   1      29.474  28.253  24.006  1.00  0.00     0.031 A 
ATOM    104  H   UNL A   1      32.921  29.883  21.720  1.00  0.00     0.166 HD
ATOM    105  C   UNL A   1      30.074  29.697  21.654  1.00  0.00     0.028 A 
ATOM    106  C   UNL A   1      28.456  28.717  23.169  1.00  0.00     0.041 A 
ATOM    107  C   UNL A   1      28.748  29.417  22.004  1.00  0.00     0.022 A 
ATOM    108  Cl  UNL A   1      26.816  28.400  23.589  1.00  0.00    -0.084 Cl
ENDBRANCH  83  98
ENDBRANCH  80  83
ENDBRANCH  78  79
ENDBRANCH  77  78
ENDBRANCH  76  77
ENDBRANCH   1  76
TORSDOF 19
ENDMDL
MODEL 2
REMARK VINA RESULT:     -12.2      6.293     12.143
REMARK SMILES O=C(NCCCCCCNC(=O)[C@H](c1c[nH]c2ccc(Cl)cc12)[NH+]1CCN(c2cccc(Cl)c2)CC1)c1ccc(-c2c3nc(c(-c4c(F)cc(S(=O)(=O)[O-])cc4F)c4ccc([nH]4)c(-c4c(F)cc(S(=O)(=O)[O-])cc4F)c4nc(c(-c5c(F)cc(S(=O)(=O)[O-])cc5F)c5ccc2[nH]5)C=C4)C=C3)cc1
REMARK SMILES IDX 6 1 5 2 4 3 3 4 1 5 2 6 37 8 38 9 102 10 39 11 101 12 40 13
REMARK SMILES IDX 41 14 42 15 95 16 43 17 100 18 94 19 96 20 44 21 99 22 93 23
REMARK SMILES IDX 92 24 45 26 79 27 58 28 78 29 59 30 62 31 77 32 97 33 60 34
REMARK SMILES IDX 61 35 76 37 98 38 63 39 46 40 47 41 56 42 48 43 49 44 55 45
REMARK SMILES IDX 57 46 50 47 51 48 52 49 53 50 54 51 80 52 81 53 90 54 82 55
REMARK SMILES IDX 83 56 89 57 91 58 84 59 85 60 86 61 87 62 88 63 64 64 65 65
REMARK SMILES IDX 74 66 66 67 67 68 73 69 75 70 68 71 69 72 70 73 71 74 72 75
REMARK SMILES IDX 7 76 8 77 9 78 10 79 11 80 12 82 13 83 24 84 25 85 36 86
REMARK SMILES IDX 26 88 35 89 27 90 28 91 29 92 34 93 30 94 32 95 31 96 33 97
REMARK SMILES IDX 14 98 15 99 23 100 16 101 17 102 22 103 18 105 20 106 19 107
REMARK SMILES IDX 21 108
REMARK H PARENT 3 7 96 25 62 36 10 81 24 87 16 104
REMARK Flexibility Score: inf
ROOT
ATOM      1  C   UNL A   1      38.757  23.246  26.934  1.00  0.00     0.002 C 
ENDROOT
BRANCH   1   2
ATOM      2  C   UNL A   1      40.049  22.438  27.069  1.00  0.00     0.021 C 
BRANCH   2   3
ATOM      3  C   UNL A   1      41.263  23.294  27.402  1.00  0.00     0.116 C 
BRANCH   3   4
ATOM      4  N   UNL A   1      41.673  24.086  26.253  1.00  0.00    -0.352 N 
ATOM      5  O   UNL A   1      41.672  25.935  24.962  1.00  0.00    -0.269 OA
ATOM      6  C   UNL A   1      41.590  25.445  26.080  1.00  0.00     0.251 C 
ATOM      7  H   UNL A   1      42.059  23.581  25.500  1.00  0.00     0.163 HD
BRANCH   6   8
ATOM      8  C   UNL A   1      41.408  26.299  27.269  1.00  0.00     0.039 A 
ATOM      9  C   UNL A   1      42.382  27.250  27.591  1.00  0.00     0.014 A 
ATOM     10  C   UNL A   1      40.264  26.159  28.056  1.00  0.00     0.014 A 
ATOM     11  C   UNL A   1      42.273  27.974  28.768  1.00  0.00     0.010 A 
ATOM     12  C   UNL A   1      40.109  26.962  29.188  1.00  0.00     0.010 A 
ATOM     13  C   UNL A   1      41.118  27.865  29.559  1.00  0.00    -0.014 A 
BRANCH  13  14
ATOM     14  C   UNL A   1      40.949  28.784  30.710  1.00  0.00     0.031 A 
ATOM     15  C   UNL A   1      41.817  28.676  31.928  1.00  0.00     0.074 A 
ATOM     16  C   UNL A   1      39.993  29.731  30.628  1.00  0.00     0.049 A 
ATOM     17  N   UNL A   1      41.790  29.396  33.020  1.00  0.00    -0.248 NA
ATOM     18  C   UNL A   1      42.842  27.621  31.931  1.00  0.00     0.031 C 
ATOM     19  C   UNL A   1      39.081  29.907  29.493  1.00  0.00     0.029 A 
ATOM     20  N   UNL A   1      39.628  30.721  31.501  1.00  0.00    -0.354 N 
ATOM     21  C   UNL A   1      42.774  28.873  33.848  1.00  0.00     0.074 A 
ATOM     22  C   UNL A   1      43.366  27.757  33.142  1.00  0.00     0.031 C 
ATOM     23  C   UNL A   1      38.289  30.963  29.724  1.00  0.00     0.029 A 
ATOM     24  C   UNL A   1      38.582  31.490  31.050  1.00  0.00     0.049 A 
ATOM     25  H   UNL A   1      40.072  30.868  32.367  1.00  0.00     0.167 HD
ATOM     26  C   UNL A   1      43.147  29.293  35.081  1.00  0.00     0.037 A 
ATOM     27  C   UNL A   1      37.906  32.487  31.649  1.00  0.00     0.037 A 
ATOM     28  C   UNL A   1      42.543  30.409  35.767  1.00  0.00     0.049 A 
ATOM     29  C   UNL A   1      38.322  32.913  33.026  1.00  0.00     0.074 A 
ATOM     30  C   UNL A   1      42.875  30.941  37.001  1.00  0.00     0.029 A 
ATOM     31  N   UNL A   1      41.475  31.154  35.286  1.00  0.00    -0.354 N 
ATOM     32  N   UNL A   1      39.288  32.438  33.776  1.00  0.00    -0.248 NA
ATOM     33  C   UNL A   1      37.560  34.007  33.639  1.00  0.00     0.031 C 
ATOM     34  C   UNL A   1      41.970  31.968  37.292  1.00  0.00     0.029 A 
ATOM     35  C   UNL A   1      41.115  32.121  36.212  1.00  0.00     0.049 A 
ATOM     36  H   UNL A   1      41.037  31.016  34.416  1.00  0.00     0.167 HD
ATOM     37  C   UNL A   1      39.262  33.187  34.946  1.00  0.00     0.074 A 
ATOM     38  C   UNL A   1      38.196  34.158  34.793  1.00  0.00     0.031 C 
ATOM     39  C   UNL A   1      40.048  33.080  36.045  1.00  0.00     0.037 A 
BRANCH  26  40
ATOM     40  C   UNL A   1      44.238  28.527  35.783  1.00  0.00     0.058 A 
ATOM     41  C   UNL A   1      45.596  28.833  35.605  1.00  0.00     0.135 A 
ATOM     42  C   UNL A   1      43.916  27.491  36.677  1.00  0.00     0.135 A 
ATOM     43  F   UNL A   1      45.965  29.804  34.755  1.00  0.00    -0.206 F 
ATOM     44  C   UNL A   1      46.597  28.120  36.260  1.00  0.00     0.059 A 
ATOM     45  C   UNL A   1      44.898  26.784  37.366  1.00  0.00     0.059 A 
ATOM     46  F   UNL A   1      42.634  27.155  36.888  1.00  0.00    -0.206 F 
ATOM     47  C   UNL A   1      46.237  27.095  37.138  1.00  0.00     0.060 A 
BRANCH  47  48
ATOM     48  S   UNL A   1      47.547  26.174  37.970  1.00  0.00     0.124 S 
ATOM     49  O   UNL A   1      47.933  25.219  36.936  1.00  0.00    -0.237 OA
ATOM     50  O   UNL A   1      48.523  27.218  38.263  1.00  0.00    -0.237 OA
ATOM     51  O   UNL A   1      46.876  25.602  39.133  1.00  0.00    -0.744 OA
ENDBRANCH  47  48
ENDBRANCH  26  40
BRANCH  27  52
ATOM     52  C   UNL A   1      36.762  33.122  30.946  1.00  0.00     0.058 A 
ATOM     53  C   UNL A   1      35.438  32.848  31.319  1.00  0.00     0.135 A 
ATOM     54  C   UNL A   1      36.973  34.054  29.916  1.00  0.00     0.135 A 
ATOM     55  F   UNL A   1      35.185  31.966  32.296  1.00  0.00    -0.206 F 
ATOM     56  C   UNL A   1      34.363  33.467  30.689  1.00  0.00     0.059 A 
ATOM     57  C   UNL A   1      35.918  34.709  29.294  1.00  0.00     0.059 A 
ATOM     58  F   UNL A   1      38.222  34.367  29.538  1.00  0.00    -0.206 F 
ATOM     59  C   UNL A   1      34.614  34.401  29.681  1.00  0.00     0.060 A 
BRANCH  59  60
ATOM     60  S   UNL A   1      33.214  35.241  28.911  1.00  0.00     0.124 S 
ATOM     61  O   UNL A   1      32.454  35.673  30.079  1.00  0.00    -0.237 OA
ATOM     62  O   UNL A   1      33.874  36.299  28.151  1.00  0.00    -0.237 OA
ATOM     63  O   UNL A   1      32.595  34.194  28.106  1.00  0.00    -0.744 OA
ENDBRANCH  59  60
ENDBRANCH  27  52
BRANCH  39  64
ATOM     64  C   UNL A   1      39.805  34.059  37.160  1.00  0.00     0.058 A 
ATOM     65  C   UNL A   1      38.937  33.769  38.224  1.00  0.00     0.135 A 
ATOM     66  C   UNL A   1      40.485  35.288  37.184  1.00  0.00     0.135 A 
ATOM     67  F   UNL A   1      38.254  32.613  38.245  1.00  0.00    -0.206 F 
ATOM     68  C   UNL A   1      38.734  34.673  39.262  1.00  0.00     0.059 A 
ATOM     69  C   UNL A   1      40.321  36.193  38.227  1.00  0.00     0.059 A 
ATOM     70  F   UNL A   1      41.332  35.612  36.194  1.00  0.00    -0.206 F 
ATOM     71  C   UNL A   1      39.433  35.881  39.256  1.00  0.00     0.060 A 
BRANCH  71  72
ATOM     72  S   UNL A   1      39.187  37.030  40.626  1.00  0.00     0.124 S 
ATOM     73  O   UNL A   1      38.257  37.990  40.041  1.00  0.00    -0.237 OA
ATOM     74  O   UNL A   1      38.635  36.163  41.663  1.00  0.00    -0.237 OA
ATOM     75  O   UNL A   1      40.529  37.537  40.890  1.00  0.00    -0.744 OA
ENDBRANCH  71  72
ENDBRANCH  39  64
ENDBRANCH  13  14
ENDBRANCH   6   8
ENDBRANCH   3   4
ENDBRANCH   2   3
ENDBRANCH   1   2
BRANCH   1  76
ATOM     76  C   UNL A   1      37.983  22.988  25.636  1.00  0.00     0.002 C 
BRANCH  76  77
ATOM     77  C   UNL A   1      37.881  21.509  25.256  1.00  0.00     0.021 C 
BRANCH  77  78
ATOM     78  C   UNL A   1      36.508  21.133  24.701  1.00  0.00     0.116 C 
BRANCH  78  79
ATOM     79  N   UNL A   1      35.574  20.960  25.786  1.00  0.00    -0.351 N 
ATOM     80  C   UNL A   1      34.369  21.542  26.041  1.00  0.00     0.283 C 
ATOM     81  H   UNL A   1      35.857  20.304  26.464  1.00  0.00     0.163 HD
ATOM     82  O   UNL A   1      33.968  21.333  27.198  1.00  0.00    -0.268 OA
BRANCH  80  83
ATOM     83  C   UNL A   1      33.468  22.257  24.955  1.00  0.00     0.307 C 
BRANCH  83  84
ATOM     84  N   UNL A   1      34.240  23.398  24.363  1.00  0.00    -0.318 N 
ATOM     85  C   UNL A   1      33.533  24.245  23.374  1.00  0.00     0.284 C 
ATOM     86  C   UNL A   1      34.721  24.311  25.446  1.00  0.00     0.284 C 
ATOM     87  H   UNL A   1      34.991  22.927  23.859  1.00  0.00     0.349 HD
ATOM     88  C   UNL A   1      32.369  25.092  23.930  1.00  0.00     0.178 C 
ATOM     89  C   UNL A   1      33.633  25.207  26.087  1.00  0.00     0.178 C 
ATOM     90  N   UNL A   1      32.859  25.890  25.052  1.00  0.00    -0.360 N 
BRANCH  90  91
ATOM     91  C   UNL A   1      32.417  27.177  25.246  1.00  0.00     0.038 A 
ATOM     92  C   UNL A   1      32.919  27.923  26.320  1.00  0.00     0.026 A 
ATOM     93  C   UNL A   1      31.504  27.788  24.381  1.00  0.00     0.046 A 
ATOM     94  C   UNL A   1      32.537  29.248  26.526  1.00  0.00     0.004 A 
ATOM     95  C   UNL A   1      31.103  29.106  24.598  1.00  0.00     0.043 A 
ATOM     96  C   UNL A   1      31.620  29.841  25.663  1.00  0.00     0.020 A 
ATOM     97  Cl  UNL A   1      29.956  29.837  23.542  1.00  0.00    -0.084 Cl
ENDBRANCH  90  91
ENDBRANCH  83  84
BRANCH  83  98
ATOM     98  C   UNL A   1      32.862  21.355  23.897  1.00  0.00     0.044 A 
ATOM     99  C   UNL A   1      32.129  21.695  22.771  1.00  0.00     0.094 A 
ATOM    100  C   UNL A   1      32.960  19.912  23.886  1.00  0.00     0.011 A 
ATOM    101  N   UNL A   1      31.831  20.552  22.077  1.00  0.00    -0.361 N 
ATOM    102  C   UNL A   1      32.358  19.454  22.715  1.00  0.00     0.046 A 
ATOM    103  C   UNL A   1      33.554  18.965  24.750  1.00  0.00     0.031 A 
ATOM    104  H   UNL A   1      31.313  20.522  21.240  1.00  0.00     0.166 HD
ATOM    105  C   UNL A   1      32.351  18.103  22.344  1.00  0.00     0.028 A 
ATOM    106  C   UNL A   1      33.543  17.613  24.397  1.00  0.00     0.041 A 
ATOM    107  C   UNL A   1      32.963  17.187  23.207  1.00  0.00     0.022 A 
ATOM    108  Cl  UNL A   1      34.272  16.464  25.453  1.00  0.00    -0.084 Cl
ENDBRANCH  83  98
ENDBRANCH  80  83
ENDBRANCH  78  79
ENDBRANCH  77  78
ENDBRANCH  76  77
ENDBRANCH   1  76
TORSDOF 19
ENDMDL
MODEL 3
REMARK VINA RESULT:     -12.1      6.308     12.034
REMARK SMILES O=C(NCCCCCCNC(=O)[C@H](c1c[nH]c2ccc(Cl)cc12)[NH+]1CCN(c2cccc(Cl)c2)CC1)c1ccc(-c2c3nc(c(-c4c(F)cc(S(=O)(=O)[O-])cc4F)c4ccc([nH]4)c(-c4c(F)cc(S(=O)(=O)[O-])cc4F)c4nc(c(-c5c(F)cc(S(=O)(=O)[O-])cc5F)c5ccc2[nH]5)C=C4)C=C3)cc1
REMARK SMILES IDX 6 1 5 2 4 3 3 4 1 5 2 6 37 8 38 9 102 10 39 11 101 12 40 13
REMARK SMILES IDX 41 14 42 15 95 16 43 17 100 18 94 19 96 20 44 21 99 22 93 23
REMARK SMILES IDX 92 24 45 26 79 27 58 28 78 29 59 30 62 31 77 32 97 33 60 34
REMARK SMILES IDX 61 35 76 37 98 38 63 39 46 40 47 41 56 42 48 43 49 44 55 45
REMARK SMILES IDX 57 46 50 47 51 48 52 49 53 50 54 51 80 52 81 53 90 54 82 55
REMARK SMILES IDX 83 56 89 57 91 58 84 59 85 60 86 61 87 62 88 63 64 64 65 65
REMARK SMILES IDX 74 66 66 67 67 68 73 69 75 70 68 71 69 72 70 73 71 74 72 75
REMARK SMILES IDX 7 76 8 77 9 78 10 79 11 80 12 82 13 83 24 84 25 85 36 86
REMARK SMILES IDX 26 88 35 89 27 90 28 91 29 92 34 93 30 94 32 95 31 96 33 97
REMARK SMILES IDX 14 98 15 99 23 100 16 101 17 102 22 103 18 105 20 106 19 107
REMARK SMILES IDX 21 108
REMARK H PARENT 3 7 96 25 62 36 10 81 24 87 16 104
REMARK Flexibility Score: inf
ROOT
ATOM      1  C   UNL A   1      40.208  22.113  26.527  1.00  0.00     0.002 C 
ENDROOT
BRANCH   1   2
ATOM      2  C   UNL A   1      40.866  21.987  27.903  1.00  0.00     0.021 C 
BRANCH   2   3
ATOM      3  C   UNL A   1      42.105  22.856  28.061  1.00  0.00     0.116 C 
BRANCH   3   4
ATOM      4  N   UNL A   1      42.409  23.559  26.824  1.00  0.00    -0.352 N 
ATOM      5  O   UNL A   1      42.223  25.271  25.367  1.00  0.00    -0.269 OA
ATOM      6  C   UNL A   1      42.223  24.886  26.530  1.00  0.00     0.251 C 
ATOM      7  H   UNL A   1      42.798  23.011  26.105  1.00  0.00     0.163 HD
BRANCH   6   8
ATOM      8  C   UNL A   1      42.031  25.838  27.641  1.00  0.00     0.039 A 
ATOM      9  C   UNL A   1      40.798  25.890  28.299  1.00  0.00     0.014 A 
ATOM     10  C   UNL A   1      43.082  26.669  28.032  1.00  0.00     0.014 A 
ATOM     11  C   UNL A   1      40.576  26.858  29.265  1.00  0.00     0.010 A 
ATOM     12  C   UNL A   1      42.884  27.577  29.075  1.00  0.00     0.010 A 
ATOM     13  C   UNL A   1      41.626  27.686  29.689  1.00  0.00    -0.014 A 
BRANCH  13  14
ATOM     14  C   UNL A   1      41.407  28.585  30.847  1.00  0.00     0.031 A 
ATOM     15  C   UNL A   1      42.256  28.490  32.081  1.00  0.00     0.074 A 
ATOM     16  C   UNL A   1      40.422  29.502  30.760  1.00  0.00     0.049 A 
ATOM     17  N   UNL A   1      42.186  29.195  33.180  1.00  0.00    -0.248 NA
ATOM     18  C   UNL A   1      43.314  27.467  32.089  1.00  0.00     0.031 C 
ATOM     19  C   UNL A   1      39.526  29.664  29.610  1.00  0.00     0.029 A 
ATOM     20  N   UNL A   1      40.011  30.469  31.638  1.00  0.00    -0.354 N 
ATOM     21  C   UNL A   1      43.172  28.693  34.020  1.00  0.00     0.074 A 
ATOM     22  C   UNL A   1      43.812  27.605  33.311  1.00  0.00     0.031 C 
ATOM     23  C   UNL A   1      38.696  30.691  29.839  1.00  0.00     0.029 A 
ATOM     24  C   UNL A   1      38.949  31.210  31.176  1.00  0.00     0.049 A 
ATOM     25  H   UNL A   1      40.435  30.619  32.513  1.00  0.00     0.167 HD
ATOM     26  C   UNL A   1      43.509  29.109  35.264  1.00  0.00     0.037 A 
ATOM     27  C   UNL A   1      38.231  32.178  31.774  1.00  0.00     0.037 A 
ATOM     28  C   UNL A   1      42.858  30.197  35.952  1.00  0.00     0.049 A 
ATOM     29  C   UNL A   1      38.608  32.600  33.164  1.00  0.00     0.074 A 
ATOM     30  C   UNL A   1      43.150  30.724  37.198  1.00  0.00     0.029 A 
ATOM     31  N   UNL A   1      41.775  30.914  35.461  1.00  0.00    -0.354 N 
ATOM     32  N   UNL A   1      39.576  32.147  33.926  1.00  0.00    -0.248 NA
ATOM     33  C   UNL A   1      37.801  33.661  33.776  1.00  0.00     0.031 C 
ATOM     34  C   UNL A   1      42.207  31.718  37.485  1.00  0.00     0.029 A 
ATOM     35  C   UNL A   1      41.367  31.857  36.391  1.00  0.00     0.049 A 
ATOM     36  H   UNL A   1      41.357  30.772  34.581  1.00  0.00     0.167 HD
ATOM     37  C   UNL A   1      39.505  32.879  35.104  1.00  0.00     0.074 A 
ATOM     38  C   UNL A   1      38.411  33.818  34.943  1.00  0.00     0.031 C 
ATOM     39  C   UNL A   1      40.274  32.784  36.216  1.00  0.00     0.037 A 
BRANCH  26  40
ATOM     40  C   UNL A   1      44.611  28.370  35.977  1.00  0.00     0.058 A 
ATOM     41  C   UNL A   1      44.349  27.278  36.820  1.00  0.00     0.135 A 
ATOM     42  C   UNL A   1      45.954  28.739  35.787  1.00  0.00     0.135 A 
ATOM     43  F   UNL A   1      43.087  26.887  37.051  1.00  0.00    -0.206 F 
ATOM     44  C   UNL A   1      45.376  26.600  37.474  1.00  0.00     0.059 A 
ATOM     45  C   UNL A   1      46.998  28.056  36.406  1.00  0.00     0.059 A 
ATOM     46  F   UNL A   1      46.264  29.773  34.991  1.00  0.00    -0.206 F 
ATOM     47  C   UNL A   1      46.697  26.998  37.261  1.00  0.00     0.060 A 
BRANCH  47  48
ATOM     48  S   UNL A   1      48.013  26.115  38.125  1.00  0.00     0.124 S 
ATOM     49  O   UNL A   1      47.329  25.695  39.345  1.00  0.00    -0.237 OA
ATOM     50  O   UNL A   1      48.340  25.048  37.185  1.00  0.00    -0.237 OA
ATOM     51  O   UNL A   1      49.046  27.130  38.303  1.00  0.00    -0.744 OA
ENDBRANCH  47  48
ENDBRANCH  26  40
BRANCH  27  52
ATOM     52  C   UNL A   1      37.080  32.785  31.058  1.00  0.00     0.058 A 
ATOM     53  C   UNL A   1      37.266  33.805  30.116  1.00  0.00     0.135 A 
ATOM     54  C   UNL A   1      35.771  32.319  31.270  1.00  0.00     0.135 A 
ATOM     55  F   UNL A   1      38.497  34.283  29.879  1.00  0.00    -0.206 F 
ATOM     56  C   UNL A   1      36.196  34.353  29.416  1.00  0.00     0.059 A 
ATOM     57  C   UNL A   1      34.690  32.827  30.560  1.00  0.00     0.059 A 
ATOM     58  F   UNL A   1      35.543  31.328  32.145  1.00  0.00    -0.206 F 
ATOM     59  C   UNL A   1      34.912  33.852  29.641  1.00  0.00     0.060 A 
BRANCH  59  60
ATOM     60  S   UNL A   1      33.538  34.529  28.685  1.00  0.00     0.124 S 
ATOM     61  O   UNL A   1      32.613  34.923  29.741  1.00  0.00    -0.237 OA
ATOM     62  O   UNL A   1      34.182  35.620  27.958  1.00  0.00    -0.237 OA
ATOM     63  O   UNL A   1      33.114  33.402  27.861  1.00  0.00    -0.744 OA
ENDBRANCH  59  60
ENDBRANCH  27  52
BRANCH  39  64
ATOM     64  C   UNL A   1      39.980  33.741  37.338  1.00  0.00     0.058 A 
ATOM     65  C   UNL A   1      40.644  34.972  37.454  1.00  0.00     0.135 A 
ATOM     66  C   UNL A   1      38.987  33.438  38.285  1.00  0.00     0.135 A 
ATOM     67  F   UNL A   1      41.609  35.305  36.582  1.00  0.00    -0.206 F 
ATOM     68  C   UNL A   1      40.351  35.860  38.484  1.00  0.00     0.059 A 
ATOM     69  C   UNL A   1      38.657  34.325  39.304  1.00  0.00     0.059 A 
ATOM     70  F   UNL A   1      38.317  32.277  38.216  1.00  0.00    -0.206 F 
ATOM     71  C   UNL A   1      39.353  35.529  39.403  1.00  0.00     0.060 A 
BRANCH  71  72
ATOM     72  S   UNL A   1      38.959  36.705  40.713  1.00  0.00     0.124 S 
ATOM     73  O   UNL A   1      40.286  37.037  41.220  1.00  0.00    -0.237 OA
ATOM     74  O   UNL A   1      38.275  37.767  39.982  1.00  0.00    -0.237 OA
ATOM     75  O   UNL A   1      38.116  35.933  41.620  1.00  0.00    -0.744 OA
ENDBRANCH  71  72
ENDBRANCH  39  64
ENDBRANCH  13  14
ENDBRANCH   6   8
ENDBRANCH   3   4
ENDBRANCH   2   3
ENDBRANCH   1   2
BRANCH   1  76
ATOM     76  C   UNL A   1      39.111  23.180  26.447  1.00  0.00     0.002 C 
BRANCH  76  77
ATOM     77  C   UNL A   1      37.782  22.668  25.888  1.00  0.00     0.021 C 
BRANCH  77  78
ATOM     78  C   UNL A   1      36.801  23.794  25.564  1.00  0.00     0.116 C 
BRANCH  78  79
ATOM     79  N   UNL A   1      36.345  23.668  24.202  1.00  0.00    -0.351 N 
ATOM     80  C   UNL A   1      35.173  23.209  23.682  1.00  0.00     0.283 C 
ATOM     81  H   UNL A   1      36.996  23.968  23.528  1.00  0.00     0.163 HD
ATOM     82  O   UNL A   1      35.233  23.014  22.457  1.00  0.00    -0.268 OA
BRANCH  80  83
ATOM     83  C   UNL A   1      33.814  23.099  24.485  1.00  0.00     0.307 C 
BRANCH  83  84
ATOM     84  N   UNL A   1      32.675  23.337  23.539  1.00  0.00    -0.318 N 
ATOM     85  C   UNL A   1      31.375  23.721  24.138  1.00  0.00     0.284 C 
ATOM     86  C   UNL A   1      33.033  24.411  22.562  1.00  0.00     0.284 C 
ATOM     87  H   UNL A   1      32.539  22.421  23.112  1.00  0.00     0.349 HD
ATOM     88  C   UNL A   1      31.333  25.108  24.813  1.00  0.00     0.178 C 
ATOM     89  C   UNL A   1      33.034  25.850  23.133  1.00  0.00     0.178 C 
ATOM     90  N   UNL A   1      31.790  26.114  23.856  1.00  0.00    -0.360 N 
BRANCH  90  91
ATOM     91  C   UNL A   1      31.203  27.356  23.805  1.00  0.00     0.038 A 
ATOM     92  C   UNL A   1      30.195  27.604  22.865  1.00  0.00     0.026 A 
ATOM     93  C   UNL A   1      31.553  28.380  24.691  1.00  0.00     0.046 A 
ATOM     94  C   UNL A   1      29.538  28.832  22.812  1.00  0.00     0.004 A 
ATOM     95  C   UNL A   1      30.913  29.617  24.625  1.00  0.00     0.043 A 
ATOM     96  C   UNL A   1      29.903  29.846  23.693  1.00  0.00     0.020 A 
ATOM     97  Cl  UNL A   1      31.374  30.878  25.703  1.00  0.00    -0.084 Cl
ENDBRANCH  90  91
ENDBRANCH  83  84
BRANCH  83  98
ATOM     98  C   UNL A   1      33.630  21.840  25.310  1.00  0.00     0.044 A 
ATOM     99  C   UNL A   1      33.780  21.656  26.675  1.00  0.00     0.094 A 
ATOM    100  C   UNL A   1      33.241  20.552  24.777  1.00  0.00     0.011 A 
ATOM    101  N   UNL A   1      33.459  20.361  26.985  1.00  0.00    -0.361 N 
ATOM    102  C   UNL A   1      33.092  19.675  25.851  1.00  0.00     0.046 A 
ATOM    103  C   UNL A   1      32.957  20.076  23.478  1.00  0.00     0.031 A 
ATOM    104  H   UNL A   1      33.489  19.976  27.890  1.00  0.00     0.166 HD
ATOM    105  C   UNL A   1      32.638  18.359  25.697  1.00  0.00     0.028 A 
ATOM    106  C   UNL A   1      32.515  18.760  23.310  1.00  0.00     0.041 A 
ATOM    107  C   UNL A   1      32.345  17.917  24.402  1.00  0.00     0.022 A 
ATOM    108  Cl  UNL A   1      32.167  18.189  21.723  1.00  0.00    -0.084 Cl
ENDBRANCH  83  98
ENDBRANCH  80  83
ENDBRANCH  78  79
ENDBRANCH  77  78
ENDBRANCH  76  77
ENDBRANCH   1  76
TORSDOF 19
ENDMDL
