MODEL 1
REMARK VINA RESULT:     -10.3      0.000      0.000
REMARK SMILES Cn1nc(C(=O)NCCCCCCNC(=O)c2ccc(-c3c4nc(c(-c5c(F)cc(S(=O)(=O)[O-])cc5F)c5ccc([nH]5)c(-c5c(F)cc(S(=O)(=O)[O-])cc5F)c5nc(c(-c6c(F)cc(S(=O)(=O)[O-])cc6F)c6ccc3[nH]6)C=C5)C=C4)cc2)cc1C1CC1
REMARK SMILES IDX 11 1 10 2 9 3 8 4 7 5 5 6 6 7 4 9 1 10 2 11 3 12 84 13 83 14
REMARK SMILES IDX 85 15 86 16 87 17 12 18 13 19 14 20 15 21 16 23 17 24 18 25
REMARK SMILES IDX 82 26 19 27 81 28 20 29 21 30 22 31 75 32 23 33 80 34 74 35
REMARK SMILES IDX 76 36 24 37 79 38 73 39 72 40 25 42 59 43 38 44 58 45 39 46
REMARK SMILES IDX 42 47 57 48 77 49 40 50 41 51 56 53 78 54 43 55 26 56 27 57
REMARK SMILES IDX 36 58 28 59 29 60 35 61 37 62 30 63 31 64 32 65 33 66 34 67
REMARK SMILES IDX 60 68 61 69 70 70 62 71 63 72 69 73 71 74 64 75 65 76 66 77
REMARK SMILES IDX 67 78 68 79 44 80 45 81 54 82 46 83 47 84 53 85 55 86 48 87
REMARK SMILES IDX 49 88 50 89 51 90 52 91
REMARK H PARENT 7 8 14 22 76 41 42 52
REMARK Flexibility Score: inf
ROOT
ATOM      1  C   UNL A   1      33.104  29.058  24.825  1.00  0.00     0.002 C 
ENDROOT
BRANCH   1   2
ATOM      2  C   UNL A   1      33.142  28.772  23.317  1.00  0.00     0.002 C 
BRANCH   2   3
ATOM      3  C   UNL A   1      31.781  28.866  22.613  1.00  0.00     0.021 C 
BRANCH   3   4
ATOM      4  C   UNL A   1      31.137  27.498  22.392  1.00  0.00     0.116 C 
BRANCH   4   5
ATOM      5  N   UNL A   1      31.850  26.757  21.375  1.00  0.00    -0.351 N 
ATOM      6  C   UNL A   1      32.633  25.627  21.417  1.00  0.00     0.271 C 
ATOM      7  O   UNL A   1      33.097  25.270  20.329  1.00  0.00    -0.267 OA
ATOM      8  H   UNL A   1      31.756  27.139  20.472  1.00  0.00     0.163 HD
BRANCH   6   9
ATOM      9  C   UNL A   1      32.873  24.870  22.668  1.00  0.00     0.150 A 
ATOM     10  C   UNL A   1      31.483  22.810  25.133  1.00  0.00     0.174 C 
ATOM     11  N   UNL A   1      32.360  23.663  24.373  1.00  0.00    -0.272 N 
ATOM     12  N   UNL A   1      31.860  24.177  23.231  1.00  0.00    -0.168 NA
ATOM     13  C   UNL A   1      33.642  24.060  24.613  1.00  0.00     0.042 A 
ATOM     14  C   UNL A   1      34.034  24.713  23.464  1.00  0.00     0.059 A 
BRANCH  13  15
ATOM     15  C   UNL A   1      34.575  23.942  25.806  1.00  0.00     0.038 C 
ATOM     16  C   UNL A   1      35.428  22.705  25.970  1.00  0.00     0.010 C 
ATOM     17  C   UNL A   1      36.069  24.019  25.664  1.00  0.00     0.010 C 
ENDBRANCH  13  15
ENDBRANCH   6   9
ENDBRANCH   4   5
ENDBRANCH   3   4
ENDBRANCH   2   3
ENDBRANCH   1   2
BRANCH   1  18
ATOM     18  C   UNL A   1      33.673  27.944  25.706  1.00  0.00     0.021 C 
BRANCH  18  19
ATOM     19  C   UNL A   1      33.628  28.253  27.199  1.00  0.00     0.116 C 
BRANCH  19  20
ATOM     20  N   UNL A   1      33.531  29.683  27.445  1.00  0.00    -0.352 N 
ATOM     21  C   UNL A   1      34.427  30.521  28.062  1.00  0.00     0.251 C 
ATOM     22  H   UNL A   1      32.705  30.112  27.124  1.00  0.00     0.163 HD
ATOM     23  O   UNL A   1      34.081  31.644  28.411  1.00  0.00    -0.269 OA
BRANCH  21  24
ATOM     24  C   UNL A   1      35.805  30.052  28.313  1.00  0.00     0.039 A 
ATOM     25  C   UNL A   1      36.734  30.083  27.271  1.00  0.00     0.014 A 
ATOM     26  C   UNL A   1      36.176  29.585  29.577  1.00  0.00     0.014 A 
ATOM     27  C   UNL A   1      38.056  29.704  27.517  1.00  0.00     0.010 A 
ATOM     28  C   UNL A   1      37.508  29.285  29.839  1.00  0.00     0.010 A 
ATOM     29  C   UNL A   1      38.462  29.336  28.811  1.00  0.00    -0.014 A 
BRANCH  29  30
ATOM     30  C   UNL A   1      39.880  29.007  29.107  1.00  0.00     0.031 A 
ATOM     31  C   UNL A   1      40.786  30.045  29.712  1.00  0.00     0.074 A 
ATOM     32  C   UNL A   1      40.363  27.793  28.777  1.00  0.00     0.049 A 
ATOM     33  N   UNL A   1      42.062  29.965  29.988  1.00  0.00    -0.248 NA
ATOM     34  C   UNL A   1      40.188  31.355  30.020  1.00  0.00     0.031 C 
ATOM     35  C   UNL A   1      39.595  26.721  28.141  1.00  0.00     0.029 A 
ATOM     36  N   UNL A   1      41.618  27.257  28.921  1.00  0.00    -0.354 N 
ATOM     37  C   UNL A   1      42.419  31.209  30.495  1.00  0.00     0.074 A 
ATOM     38  C   UNL A   1      41.241  32.046  30.431  1.00  0.00     0.031 C 
ATOM     39  C   UNL A   1      40.386  25.650  27.974  1.00  0.00     0.029 A 
ATOM     40  C   UNL A   1      41.728  25.970  28.450  1.00  0.00     0.049 A 
ATOM     41  H   UNL A   1      42.370  27.748  29.325  1.00  0.00     0.167 HD
ATOM     42  C   UNL A   1      43.613  31.610  30.993  1.00  0.00     0.037 A 
ATOM     43  C   UNL A   1      42.791  25.143  28.398  1.00  0.00     0.037 A 
ATOM     44  C   UNL A   1      44.775  30.763  31.072  1.00  0.00     0.049 A 
ATOM     45  C   UNL A   1      44.112  25.617  28.944  1.00  0.00     0.074 A 
ATOM     46  C   UNL A   1      46.017  31.057  31.608  1.00  0.00     0.029 A 
ATOM     47  N   UNL A   1      44.843  29.461  30.598  1.00  0.00    -0.354 N 
ATOM     48  N   UNL A   1      44.414  26.775  29.484  1.00  0.00    -0.248 NA
ATOM     49  C   UNL A   1      45.236  24.672  28.881  1.00  0.00     0.031 C 
ATOM     50  C   UNL A   1      46.851  29.952  31.409  1.00  0.00     0.029 A 
ATOM     51  C   UNL A   1      46.112  28.947  30.806  1.00  0.00     0.049 A 
ATOM     52  H   UNL A   1      44.098  28.975  30.176  1.00  0.00     0.167 HD
ATOM     53  C   UNL A   1      45.751  26.685  29.854  1.00  0.00     0.074 A 
ATOM     54  C   UNL A   1      46.197  25.356  29.487  1.00  0.00     0.031 C 
ATOM     55  C   UNL A   1      46.538  27.617  30.447  1.00  0.00     0.037 A 
BRANCH  42  56
ATOM     56  C   UNL A   1      43.725  33.023  31.497  1.00  0.00     0.058 A 
ATOM     57  C   UNL A   1      44.186  34.065  30.677  1.00  0.00     0.135 A 
ATOM     58  C   UNL A   1      43.324  33.350  32.804  1.00  0.00     0.135 A 
ATOM     59  F   UNL A   1      44.598  33.810  29.425  1.00  0.00    -0.206 F 
ATOM     60  C   UNL A   1      44.270  35.375  31.140  1.00  0.00     0.059 A 
ATOM     61  C   UNL A   1      43.370  34.658  33.278  1.00  0.00     0.059 A 
ATOM     62  F   UNL A   1      42.876  32.394  33.632  1.00  0.00    -0.206 F 
ATOM     63  C   UNL A   1      43.857  35.661  32.442  1.00  0.00     0.060 A 
BRANCH  63  64
ATOM     64  S   UNL A   1      43.960  37.367  33.021  1.00  0.00     0.124 S 
ATOM     65  O   UNL A   1      43.619  38.107  31.810  1.00  0.00    -0.237 OA
ATOM     66  O   UNL A   1      42.959  37.396  34.083  1.00  0.00    -0.237 OA
ATOM     67  O   UNL A   1      45.344  37.495  33.464  1.00  0.00    -0.744 OA
ENDBRANCH  63  64
ENDBRANCH  42  56
BRANCH  43  68
ATOM     68  C   UNL A   1      42.649  23.778  27.822  1.00  0.00     0.058 A 
ATOM     69  C   UNL A   1      42.749  23.562  26.439  1.00  0.00     0.135 A 
ATOM     70  C   UNL A   1      42.413  22.663  28.641  1.00  0.00     0.135 A 
ATOM     71  F   UNL A   1      42.967  24.597  25.613  1.00  0.00    -0.206 F 
ATOM     72  C   UNL A   1      42.596  22.295  25.885  1.00  0.00     0.059 A 
ATOM     73  C   UNL A   1      42.287  21.381  28.114  1.00  0.00     0.059 A 
ATOM     74  F   UNL A   1      42.328  22.810  29.972  1.00  0.00    -0.206 F 
ATOM     75  C   UNL A   1      42.366  21.209  26.733  1.00  0.00     0.060 A 
BRANCH  75  76
ATOM     76  S   UNL A   1      42.205  19.563  26.008  1.00  0.00     0.124 S 
ATOM     77  O   UNL A   1      43.106  19.657  24.865  1.00  0.00    -0.237 OA
ATOM     78  O   UNL A   1      42.647  18.703  27.101  1.00  0.00    -0.237 OA
ATOM     79  O   UNL A   1      40.783  19.477  25.686  1.00  0.00    -0.744 OA
ENDBRANCH  75  76
ENDBRANCH  43  68
BRANCH  55  80
ATOM     80  C   UNL A   1      47.952  27.225  30.780  1.00  0.00     0.058 A 
ATOM     81  C   UNL A   1      48.299  26.690  32.030  1.00  0.00     0.135 A 
ATOM     82  C   UNL A   1      48.961  27.325  29.807  1.00  0.00     0.135 A 
ATOM     83  F   UNL A   1      47.375  26.579  32.999  1.00  0.00    -0.206 F 
ATOM     84  C   UNL A   1      49.600  26.284  32.310  1.00  0.00     0.059 A 
ATOM     85  C   UNL A   1      50.260  26.897  30.055  1.00  0.00     0.059 A 
ATOM     86  F   UNL A   1      48.681  27.821  28.591  1.00  0.00    -0.206 F 
ATOM     87  C   UNL A   1      50.572  26.386  31.314  1.00  0.00     0.060 A 
BRANCH  87  88
ATOM     88  S   UNL A   1      52.244  25.812  31.677  1.00  0.00     0.124 S 
ATOM     89  O   UNL A   1      52.011  24.407  31.999  1.00  0.00    -0.237 OA
ATOM     90  O   UNL A   1      52.941  26.066  30.420  1.00  0.00    -0.237 OA
ATOM     91  O   UNL A   1      52.658  26.652  32.798  1.00  0.00    -0.744 OA
ENDBRANCH  87  88
ENDBRANCH  55  80
ENDBRANCH  29  30
ENDBRANCH  21  24
ENDBRANCH  19  20
ENDBRANCH  18  19
ENDBRANCH   1  18
TORSDOF 17
ENDMDL
MODEL 2
REMARK VINA RESULT:     -10.2      0.691      1.605
REMARK SMILES Cn1nc(C(=O)NCCCCCCNC(=O)c2ccc(-c3c4nc(c(-c5c(F)cc(S(=O)(=O)[O-])cc5F)c5ccc([nH]5)c(-c5c(F)cc(S(=O)(=O)[O-])cc5F)c5nc(c(-c6c(F)cc(S(=O)(=O)[O-])cc6F)c6ccc3[nH]6)C=C5)C=C4)cc2)cc1C1CC1
REMARK SMILES IDX 11 1 10 2 9 3 8 4 7 5 5 6 6 7 4 9 1 10 2 11 3 12 84 13 83 14
REMARK SMILES IDX 85 15 86 16 87 17 12 18 13 19 14 20 15 21 16 23 17 24 18 25
REMARK SMILES IDX 82 26 19 27 81 28 20 29 21 30 22 31 75 32 23 33 80 34 74 35
REMARK SMILES IDX 76 36 24 37 79 38 73 39 72 40 25 42 59 43 38 44 58 45 39 46
REMARK SMILES IDX 42 47 57 48 77 49 40 50 41 51 56 53 78 54 43 55 26 56 27 57
REMARK SMILES IDX 36 58 28 59 29 60 35 61 37 62 30 63 31 64 32 65 33 66 34 67
REMARK SMILES IDX 60 68 61 69 70 70 62 71 63 72 69 73 71 74 64 75 65 76 66 77
REMARK SMILES IDX 67 78 68 79 44 80 45 81 54 82 46 83 47 84 53 85 55 86 48 87
REMARK SMILES IDX 49 88 50 89 51 90 52 91
REMARK H PARENT 7 8 14 22 76 41 42 52
REMARK Flexibility Score: inf
ROOT
ATOM      1  C   UNL A   1      33.454  28.951  24.723  1.00  0.00     0.002 C 
ENDROOT
BRANCH   1   2
ATOM      2  C   UNL A   1      33.105  28.583  23.274  1.00  0.00     0.002 C 
BRANCH   2   3
ATOM      3  C   UNL A   1      31.602  28.445  22.993  1.00  0.00     0.021 C 
BRANCH   3   4
ATOM      4  C   UNL A   1      31.191  27.007  22.677  1.00  0.00     0.116 C 
BRANCH   4   5
ATOM      5  N   UNL A   1      31.819  26.554  21.456  1.00  0.00    -0.351 N 
ATOM      6  C   UNL A   1      32.686  25.524  21.176  1.00  0.00     0.271 C 
ATOM      7  O   UNL A   1      33.028  25.434  19.992  1.00  0.00    -0.267 OA
ATOM      8  H   UNL A   1      31.576  27.091  20.667  1.00  0.00     0.163 HD
BRANCH   6   9
ATOM      9  C   UNL A   1      33.149  24.569  22.210  1.00  0.00     0.150 A 
ATOM     10  C   UNL A   1      35.689  23.732  24.468  1.00  0.00     0.174 C 
ATOM     11  N   UNL A   1      34.511  23.716  23.641  1.00  0.00    -0.272 N 
ATOM     12  N   UNL A   1      34.338  24.770  22.817  1.00  0.00    -0.168 NA
ATOM     13  C   UNL A   1      33.511  22.796  23.534  1.00  0.00     0.042 A 
ATOM     14  C   UNL A   1      32.561  23.391  22.733  1.00  0.00     0.059 A 
BRANCH  13  15
ATOM     15  C   UNL A   1      33.319  21.385  24.064  1.00  0.00     0.038 C 
ATOM     16  C   UNL A   1      33.455  21.116  25.545  1.00  0.00     0.010 C 
ATOM     17  C   UNL A   1      32.122  20.994  24.884  1.00  0.00     0.010 C 
ENDBRANCH  13  15
ENDBRANCH   6   9
ENDBRANCH   4   5
ENDBRANCH   3   4
ENDBRANCH   2   3
ENDBRANCH   1   2
BRANCH   1  18
ATOM     18  C   UNL A   1      33.133  27.870  25.757  1.00  0.00     0.021 C 
BRANCH  18  19
ATOM     19  C   UNL A   1      33.513  28.247  27.185  1.00  0.00     0.116 C 
BRANCH  19  20
ATOM     20  N   UNL A   1      33.417  29.683  27.401  1.00  0.00    -0.352 N 
ATOM     21  C   UNL A   1      34.314  30.533  27.998  1.00  0.00     0.251 C 
ATOM     22  H   UNL A   1      32.590  30.105  27.072  1.00  0.00     0.163 HD
ATOM     23  O   UNL A   1      33.969  31.664  28.323  1.00  0.00    -0.269 OA
BRANCH  21  24
ATOM     24  C   UNL A   1      35.692  30.069  28.256  1.00  0.00     0.039 A 
ATOM     25  C   UNL A   1      36.626  30.099  27.218  1.00  0.00     0.014 A 
ATOM     26  C   UNL A   1      36.060  29.608  29.523  1.00  0.00     0.014 A 
ATOM     27  C   UNL A   1      37.947  29.725  27.470  1.00  0.00     0.010 A 
ATOM     28  C   UNL A   1      37.392  29.313  29.792  1.00  0.00     0.010 A 
ATOM     29  C   UNL A   1      38.349  29.364  28.768  1.00  0.00    -0.014 A 
BRANCH  29  30
ATOM     30  C   UNL A   1      39.767  29.040  29.070  1.00  0.00     0.031 A 
ATOM     31  C   UNL A   1      40.667  30.083  29.676  1.00  0.00     0.074 A 
ATOM     32  C   UNL A   1      40.256  27.827  28.746  1.00  0.00     0.049 A 
ATOM     33  N   UNL A   1      41.943  30.008  29.958  1.00  0.00    -0.248 NA
ATOM     34  C   UNL A   1      40.064  31.391  29.978  1.00  0.00     0.031 C 
ATOM     35  C   UNL A   1      39.494  26.750  28.110  1.00  0.00     0.029 A 
ATOM     36  N   UNL A   1      41.512  27.295  28.897  1.00  0.00    -0.354 N 
ATOM     37  C   UNL A   1      42.294  31.255  30.462  1.00  0.00     0.074 A 
ATOM     38  C   UNL A   1      41.113  32.088  30.391  1.00  0.00     0.031 C 
ATOM     39  C   UNL A   1      40.289  25.681  27.950  1.00  0.00     0.029 A 
ATOM     40  C   UNL A   1      41.628  26.007  28.430  1.00  0.00     0.049 A 
ATOM     41  H   UNL A   1      42.261  27.790  29.302  1.00  0.00     0.167 HD
ATOM     42  C   UNL A   1      43.484  31.661  30.964  1.00  0.00     0.037 A 
ATOM     43  C   UNL A   1      42.694  25.184  28.385  1.00  0.00     0.037 A 
ATOM     44  C   UNL A   1      44.649  30.818  31.050  1.00  0.00     0.049 A 
ATOM     45  C   UNL A   1      44.011  25.664  28.935  1.00  0.00     0.074 A 
ATOM     46  C   UNL A   1      45.887  31.117  31.591  1.00  0.00     0.029 A 
ATOM     47  N   UNL A   1      44.723  29.515  30.581  1.00  0.00    -0.354 N 
ATOM     48  N   UNL A   1      44.307  26.824  29.473  1.00  0.00    -0.248 NA
ATOM     49  C   UNL A   1      45.138  24.722  28.880  1.00  0.00     0.031 C 
ATOM     50  C   UNL A   1      46.726  30.014  31.398  1.00  0.00     0.029 A 
ATOM     51  C   UNL A   1      45.993  29.005  30.795  1.00  0.00     0.049 A 
ATOM     52  H   UNL A   1      43.981  29.025  30.157  1.00  0.00     0.167 HD
ATOM     53  C   UNL A   1      45.643  26.739  29.848  1.00  0.00     0.074 A 
ATOM     54  C   UNL A   1      46.095  25.411  29.488  1.00  0.00     0.031 C 
ATOM     55  C   UNL A   1      46.424  27.676  30.443  1.00  0.00     0.037 A 
BRANCH  42  56
ATOM     56  C   UNL A   1      43.590  33.076  31.465  1.00  0.00     0.058 A 
ATOM     57  C   UNL A   1      43.353  33.403  32.810  1.00  0.00     0.135 A 
ATOM     58  C   UNL A   1      43.978  34.113  30.599  1.00  0.00     0.135 A 
ATOM     59  F   UNL A   1      42.965  32.456  33.679  1.00  0.00    -0.206 F 
ATOM     60  C   UNL A   1      43.471  34.709  33.274  1.00  0.00     0.059 A 
ATOM     61  C   UNL A   1      44.132  35.421  31.049  1.00  0.00     0.059 A 
ATOM     62  F   UNL A   1      44.215  33.859  29.303  1.00  0.00    -0.206 F 
ATOM     63  C   UNL A   1      43.863  35.712  32.386  1.00  0.00     0.060 A 
BRANCH  63  64
ATOM     64  S   UNL A   1      44.025  37.397  33.008  1.00  0.00     0.124 S 
ATOM     65  O   UNL A   1      43.935  38.173  31.775  1.00  0.00    -0.237 OA
ATOM     66  O   UNL A   1      42.881  37.507  33.909  1.00  0.00    -0.237 OA
ATOM     67  O   UNL A   1      45.332  37.399  33.655  1.00  0.00    -0.744 OA
ENDBRANCH  63  64
ENDBRANCH  42  56
BRANCH  43  68
ATOM     68  C   UNL A   1      42.558  23.817  27.813  1.00  0.00     0.058 A 
ATOM     69  C   UNL A   1      42.607  23.604  26.427  1.00  0.00     0.135 A 
ATOM     70  C   UNL A   1      42.381  22.695  28.639  1.00  0.00     0.135 A 
ATOM     71  F   UNL A   1      42.770  24.644  25.595  1.00  0.00    -0.206 F 
ATOM     72  C   UNL A   1      42.460  22.335  25.877  1.00  0.00     0.059 A 
ATOM     73  C   UNL A   1      42.262  21.412  28.114  1.00  0.00     0.059 A 
ATOM     74  F   UNL A   1      42.346  22.839  29.973  1.00  0.00    -0.206 F 
ATOM     75  C   UNL A   1      42.289  21.243  26.731  1.00  0.00     0.060 A 
BRANCH  75  76
ATOM     76  S   UNL A   1      42.135  19.595  26.010  1.00  0.00     0.124 S 
ATOM     77  O   UNL A   1      43.028  19.693  24.861  1.00  0.00    -0.237 OA
ATOM     78  O   UNL A   1      42.589  18.740  27.102  1.00  0.00    -0.237 OA
ATOM     79  O   UNL A   1      40.712  19.498  25.697  1.00  0.00    -0.744 OA
ENDBRANCH  75  76
ENDBRANCH  43  68
BRANCH  55  80
ATOM     80  C   UNL A   1      47.839  27.290  30.783  1.00  0.00     0.058 A 
ATOM     81  C   UNL A   1      48.899  27.497  29.888  1.00  0.00     0.135 A 
ATOM     82  C   UNL A   1      48.144  26.770  32.052  1.00  0.00     0.135 A 
ATOM     83  F   UNL A   1      48.663  27.985  28.659  1.00  0.00    -0.206 F 
ATOM     84  C   UNL A   1      50.210  27.184  30.232  1.00  0.00     0.059 A 
ATOM     85  C   UNL A   1      49.450  26.479  32.427  1.00  0.00     0.059 A 
ATOM     86  F   UNL A   1      47.168  26.562  32.950  1.00  0.00    -0.206 F 
ATOM     87  C   UNL A   1      50.477  26.681  31.506  1.00  0.00     0.060 A 
BRANCH  87  88
ATOM     88  S   UNL A   1      52.188  26.324  31.954  1.00  0.00     0.124 S 
ATOM     89  O   UNL A   1      52.254  24.881  31.743  1.00  0.00    -0.237 OA
ATOM     90  O   UNL A   1      52.936  27.139  31.001  1.00  0.00    -0.237 OA
ATOM     91  O   UNL A   1      52.275  26.759  33.345  1.00  0.00    -0.744 OA
ENDBRANCH  87  88
ENDBRANCH  55  80
ENDBRANCH  29  30
ENDBRANCH  21  24
ENDBRANCH  19  20
ENDBRANCH  18  19
ENDBRANCH   1  18
TORSDOF 17
ENDMDL
MODEL 3
REMARK VINA RESULT:     -10.0      2.527      3.138
REMARK SMILES Cn1nc(C(=O)NCCCCCCNC(=O)c2ccc(-c3c4nc(c(-c5c(F)cc(S(=O)(=O)[O-])cc5F)c5ccc([nH]5)c(-c5c(F)cc(S(=O)(=O)[O-])cc5F)c5nc(c(-c6c(F)cc(S(=O)(=O)[O-])cc6F)c6ccc3[nH]6)C=C5)C=C4)cc2)cc1C1CC1
REMARK SMILES IDX 11 1 10 2 9 3 8 4 7 5 5 6 6 7 4 9 1 10 2 11 3 12 84 13 83 14
REMARK SMILES IDX 85 15 86 16 87 17 12 18 13 19 14 20 15 21 16 23 17 24 18 25
REMARK SMILES IDX 82 26 19 27 81 28 20 29 21 30 22 31 75 32 23 33 80 34 74 35
REMARK SMILES IDX 76 36 24 37 79 38 73 39 72 40 25 42 59 43 38 44 58 45 39 46
REMARK SMILES IDX 42 47 57 48 77 49 40 50 41 51 56 53 78 54 43 55 26 56 27 57
REMARK SMILES IDX 36 58 28 59 29 60 35 61 37 62 30 63 31 64 32 65 33 66 34 67
REMARK SMILES IDX 60 68 61 69 70 70 62 71 63 72 69 73 71 74 64 75 65 76 66 77
REMARK SMILES IDX 67 78 68 79 44 80 45 81 54 82 46 83 47 84 53 85 55 86 48 87
REMARK SMILES IDX 49 88 50 89 51 90 52 91
REMARK H PARENT 7 8 14 22 76 41 42 52
REMARK Flexibility Score: inf
ROOT
ATOM      1  C   UNL A   1      33.579  29.022  24.230  1.00  0.00     0.002 C 
ENDROOT
BRANCH   1   2
ATOM      2  C   UNL A   1      33.051  28.501  22.887  1.00  0.00     0.002 C 
BRANCH   2   3
ATOM      3  C   UNL A   1      31.520  28.412  22.792  1.00  0.00     0.021 C 
BRANCH   3   4
ATOM      4  C   UNL A   1      31.033  27.009  22.434  1.00  0.00     0.116 C 
BRANCH   4   5
ATOM      5  N   UNL A   1      31.730  26.508  21.270  1.00  0.00    -0.351 N 
ATOM      6  C   UNL A   1      32.661  25.511  21.093  1.00  0.00     0.271 C 
ATOM      7  O   UNL A   1      33.052  25.359  19.932  1.00  0.00    -0.267 OA
ATOM      8  H   UNL A   1      31.490  26.976  20.437  1.00  0.00     0.163 HD
BRANCH   6   9
ATOM      9  C   UNL A   1      33.133  24.656  22.207  1.00  0.00     0.150 A 
ATOM     10  C   UNL A   1      32.871  21.554  23.807  1.00  0.00     0.174 C 
ATOM     11  N   UNL A   1      33.193  22.917  23.472  1.00  0.00    -0.272 N 
ATOM     12  N   UNL A   1      32.633  23.411  22.349  1.00  0.00    -0.168 NA
ATOM     13  C   UNL A   1      33.982  23.827  24.111  1.00  0.00     0.042 A 
ATOM     14  C   UNL A   1      34.071  24.894  23.243  1.00  0.00     0.059 A 
BRANCH  13  15
ATOM     15  C   UNL A   1      34.664  23.860  25.468  1.00  0.00     0.038 C 
ATOM     16  C   UNL A   1      35.549  22.710  25.889  1.00  0.00     0.010 C 
ATOM     17  C   UNL A   1      36.148  24.050  25.614  1.00  0.00     0.010 C 
ENDBRANCH  13  15
ENDBRANCH   6   9
ENDBRANCH   4   5
ENDBRANCH   3   4
ENDBRANCH   2   3
ENDBRANCH   1   2
BRANCH   1  18
ATOM     18  C   UNL A   1      33.808  27.945  25.294  1.00  0.00     0.021 C 
BRANCH  18  19
ATOM     19  C   UNL A   1      33.641  28.444  26.724  1.00  0.00     0.116 C 
BRANCH  19  20
ATOM     20  N   UNL A   1      33.593  29.897  26.781  1.00  0.00    -0.352 N 
ATOM     21  C   UNL A   1      34.387  30.765  27.489  1.00  0.00     0.251 C 
ATOM     22  H   UNL A   1      32.891  30.318  26.234  1.00  0.00     0.163 HD
ATOM     23  O   UNL A   1      34.053  31.937  27.622  1.00  0.00    -0.269 OA
BRANCH  21  24
ATOM     24  C   UNL A   1      35.639  30.271  28.098  1.00  0.00     0.039 A 
ATOM     25  C   UNL A   1      36.839  30.417  27.400  1.00  0.00     0.014 A 
ATOM     26  C   UNL A   1      35.624  29.667  29.358  1.00  0.00     0.014 A 
ATOM     27  C   UNL A   1      38.035  30.013  27.996  1.00  0.00     0.010 A 
ATOM     28  C   UNL A   1      36.823  29.340  29.982  1.00  0.00     0.010 A 
ATOM     29  C   UNL A   1      38.041  29.504  29.307  1.00  0.00    -0.014 A 
BRANCH  29  30
ATOM     30  C   UNL A   1      39.312  29.144  29.986  1.00  0.00     0.031 A 
ATOM     31  C   UNL A   1      39.767  29.915  31.195  1.00  0.00     0.074 A 
ATOM     32  C   UNL A   1      40.083  28.162  29.477  1.00  0.00     0.049 A 
ATOM     33  N   UNL A   1      40.870  29.787  31.887  1.00  0.00    -0.248 NA
ATOM     34  C   UNL A   1      38.882  30.989  31.674  1.00  0.00     0.031 C 
ATOM     35  C   UNL A   1      39.772  27.377  28.281  1.00  0.00     0.029 A 
ATOM     36  N   UNL A   1      41.290  27.661  29.894  1.00  0.00    -0.354 N 
ATOM     37  C   UNL A   1      40.814  30.764  32.875  1.00  0.00     0.074 A 
ATOM     38  C   UNL A   1      39.598  31.517  32.656  1.00  0.00     0.031 C 
ATOM     39  C   UNL A   1      40.747  26.478  28.077  1.00  0.00     0.029 A 
ATOM     40  C   UNL A   1      41.775  26.649  29.099  1.00  0.00     0.049 A 
ATOM     41  H   UNL A   1      41.765  27.994  30.690  1.00  0.00     0.167 HD
ATOM     42  C   UNL A   1      41.682  30.995  33.888  1.00  0.00     0.037 A 
ATOM     43  C   UNL A   1      42.920  25.944  29.178  1.00  0.00     0.037 A 
ATOM     44  C   UNL A   1      42.880  30.227  34.110  1.00  0.00     0.049 A 
ATOM     45  C   UNL A   1      43.878  26.231  30.304  1.00  0.00     0.074 A 
ATOM     46  C   UNL A   1      43.798  30.347  35.139  1.00  0.00     0.029 A 
ATOM     47  N   UNL A   1      43.329  29.201  33.291  1.00  0.00    -0.354 N 
ATOM     48  N   UNL A   1      43.774  27.113  31.271  1.00  0.00    -0.248 NA
ATOM     49  C   UNL A   1      45.104  25.423  30.358  1.00  0.00     0.031 C 
ATOM     50  C   UNL A   1      44.830  29.431  34.911  1.00  0.00     0.029 A 
ATOM     51  C   UNL A   1      44.524  28.696  33.777  1.00  0.00     0.049 A 
ATOM     52  H   UNL A   1      42.865  28.879  32.484  1.00  0.00     0.167 HD
ATOM     53  C   UNL A   1      44.904  26.943  32.063  1.00  0.00     0.074 A 
ATOM     54  C   UNL A   1      45.672  25.867  31.470  1.00  0.00     0.031 C 
ATOM     55  C   UNL A   1      45.270  27.616  33.183  1.00  0.00     0.037 A 
BRANCH  42  56
ATOM     56  C   UNL A   1      41.370  32.120  34.837  1.00  0.00     0.058 A 
ATOM     57  C   UNL A   1      41.911  33.404  34.664  1.00  0.00     0.135 A 
ATOM     58  C   UNL A   1      40.482  31.925  35.909  1.00  0.00     0.135 A 
ATOM     59  F   UNL A   1      42.777  33.645  33.666  1.00  0.00    -0.206 F 
ATOM     60  C   UNL A   1      41.605  34.447  35.533  1.00  0.00     0.059 A 
ATOM     61  C   UNL A   1      40.138  32.962  36.771  1.00  0.00     0.059 A 
ATOM     62  F   UNL A   1      39.936  30.718  36.123  1.00  0.00    -0.206 F 
ATOM     63  C   UNL A   1      40.715  34.217  36.582  1.00  0.00     0.060 A 
BRANCH  63  64
ATOM     64  S   UNL A   1      40.319  35.585  37.690  1.00  0.00     0.124 S 
ATOM     65  O   UNL A   1      41.622  35.863  38.287  1.00  0.00    -0.237 OA
ATOM     66  O   UNL A   1      39.817  36.598  36.766  1.00  0.00    -0.237 OA
ATOM     67  O   UNL A   1      39.325  35.016  38.594  1.00  0.00    -0.744 OA
ENDBRANCH  63  64
ENDBRANCH  42  56
BRANCH  43  68
ATOM     68  C   UNL A   1      43.220  24.890  28.171  1.00  0.00     0.058 A 
ATOM     69  C   UNL A   1      42.891  23.547  28.408  1.00  0.00     0.135 A 
ATOM     70  C   UNL A   1      43.838  25.204  26.950  1.00  0.00     0.135 A 
ATOM     71  F   UNL A   1      42.304  23.195  29.562  1.00  0.00    -0.206 F 
ATOM     72  C   UNL A   1      43.185  22.549  27.485  1.00  0.00     0.059 A 
ATOM     73  C   UNL A   1      44.116  24.228  25.998  1.00  0.00     0.059 A 
ATOM     74  F   UNL A   1      44.157  26.476  26.664  1.00  0.00    -0.206 F 
ATOM     75  C   UNL A   1      43.798  22.901  26.281  1.00  0.00     0.060 A 
BRANCH  75  76
ATOM     76  S   UNL A   1      44.144  21.603  25.073  1.00  0.00     0.124 S 
ATOM     77  O   UNL A   1      45.502  21.216  25.440  1.00  0.00    -0.237 OA
ATOM     78  O   UNL A   1      43.100  20.627  25.367  1.00  0.00    -0.237 OA
ATOM     79  O   UNL A   1      44.007  22.291  23.793  1.00  0.00    -0.744 OA
ENDBRANCH  75  76
ENDBRANCH  43  68
BRANCH  55  80
ATOM     80  C   UNL A   1      46.537  27.184  33.872  1.00  0.00     0.058 A 
ATOM     81  C   UNL A   1      46.546  26.163  34.835  1.00  0.00     0.135 A 
ATOM     82  C   UNL A   1      47.769  27.754  33.510  1.00  0.00     0.135 A 
ATOM     83  F   UNL A   1      45.396  25.589  35.224  1.00  0.00    -0.206 F 
ATOM     84  C   UNL A   1      47.730  25.737  35.430  1.00  0.00     0.059 A 
ATOM     85  C   UNL A   1      48.966  27.322  34.068  1.00  0.00     0.059 A 
ATOM     86  F   UNL A   1      47.817  28.727  32.586  1.00  0.00    -0.206 F 
ATOM     87  C   UNL A   1      48.936  26.318  35.035  1.00  0.00     0.060 A 
BRANCH  87  88
ATOM     88  S   UNL A   1      50.467  25.722  35.780  1.00  0.00     0.124 S 
ATOM     89  O   UNL A   1      50.278  26.091  37.179  1.00  0.00    -0.237 OA
ATOM     90  O   UNL A   1      50.419  24.292  35.489  1.00  0.00    -0.237 OA
ATOM     91  O   UNL A   1      51.504  26.466  35.070  1.00  0.00    -0.744 OA
ENDBRANCH  87  88
ENDBRANCH  55  80
ENDBRANCH  29  30
ENDBRANCH  21  24
ENDBRANCH  19  20
ENDBRANCH  18  19
ENDBRANCH   1  18
TORSDOF 17
ENDMDL
