MODEL 1
REMARK VINA RESULT:     -10.7      0.000      0.000
REMARK SMILES Cc1ccc(C)c(OCc2ccc(C(=O)NCCCCCCNC(=O)c3ccc(-c4c5nc(c(-c6c(F)cc(S(=O)(=O)[O-])cc6F)c6ccc([nH]6)c(-c6c(F)cc(S(=O)(=O)[O-])cc6F)c6nc(c(-c7c(F)cc(S(=O)(=O)[O-])cc7F)c7ccc4[nH]7)C=C6)C=C5)cc3)cc2)c1C
REMARK SMILES IDX 19 1 18 2 17 3 16 4 14 5 15 6 13 8 10 9 11 10 93 11 12 12
REMARK SMILES IDX 92 13 9 14 8 15 7 16 1 17 2 18 3 19 94 20 4 21 95 22 5 23
REMARK SMILES IDX 6 24 20 25 21 26 22 27 23 28 24 29 25 31 26 32 27 33 91 34
REMARK SMILES IDX 28 35 90 36 29 37 30 38 31 39 84 40 32 41 89 42 83 43 85 44
REMARK SMILES IDX 33 45 88 46 82 47 81 48 34 50 68 51 47 52 67 53 48 54 51 55
REMARK SMILES IDX 66 56 86 57 49 58 50 59 65 61 87 62 52 63 35 64 36 65 45 66
REMARK SMILES IDX 37 67 38 68 44 69 46 70 39 71 40 72 41 73 42 74 43 75 69 76
REMARK SMILES IDX 70 77 79 78 71 79 72 80 78 81 80 82 73 83 74 84 75 85 76 86
REMARK SMILES IDX 77 87 53 88 54 89 63 90 55 91 56 92 62 93 64 94 57 95 58 96
REMARK SMILES IDX 59 97 60 98 61 99
REMARK H PARENT 16 7 23 30 85 49 51 60
REMARK Flexibility Score: inf
ROOT
ATOM      1  C   UNL A   1      40.864  22.338  26.519  1.00  0.00     0.002 C 
ENDROOT
BRANCH   1   2
ATOM      2  C   UNL A   1      39.922  23.303  27.253  1.00  0.00     0.021 C 
BRANCH   2   3
ATOM      3  C   UNL A   1      38.715  23.705  26.403  1.00  0.00     0.116 C 
BRANCH   3   4
ATOM      4  N   UNL A   1      38.337  22.592  25.563  1.00  0.00    -0.352 N 
ATOM      5  C   UNL A   1      37.130  22.197  25.056  1.00  0.00     0.251 C 
ATOM      6  O   UNL A   1      37.095  21.082  24.531  1.00  0.00    -0.269 OA
ATOM      7  H   UNL A   1      39.088  22.009  25.309  1.00  0.00     0.163 HD
BRANCH   5   8
ATOM      8  C   UNL A   1      35.911  23.064  25.017  1.00  0.00     0.039 A 
ATOM      9  C   UNL A   1      33.900  25.051  24.657  1.00  0.00    -0.011 A 
ATOM     10  C   UNL A   1      34.543  24.456  23.570  1.00  0.00     0.008 A 
ATOM     11  C   UNL A   1      34.193  24.533  25.926  1.00  0.00     0.008 A 
ATOM     12  C   UNL A   1      35.536  23.493  23.744  1.00  0.00     0.014 A 
ATOM     13  C   UNL A   1      35.164  23.532  26.099  1.00  0.00     0.014 A 
BRANCH   9  14
ATOM     14  C   UNL A   1      33.082  26.333  24.547  1.00  0.00     0.265 C 
BRANCH  14  15
ATOM     15  O   UNL A   1      32.379  26.671  23.349  1.00  0.00    -0.488 OA
BRANCH  15  16
ATOM     16  C   UNL A   1      31.028  26.874  23.360  1.00  0.00     0.125 A 
ATOM     17  C   UNL A   1      28.825  29.950  22.706  1.00  0.00     0.045 C 
ATOM     18  C   UNL A   1      29.289  28.566  23.067  1.00  0.00    -0.044 A 
ATOM     19  C   UNL A   1      28.347  27.632  23.511  1.00  0.00     0.004 A 
ATOM     20  C   UNL A   1      30.640  28.180  22.968  1.00  0.00    -0.006 A 
ATOM     21  C   UNL A   1      28.724  26.322  23.806  1.00  0.00     0.007 A 
ATOM     22  C   UNL A   1      31.707  29.141  22.498  1.00  0.00     0.049 C 
ATOM     23  C   UNL A   1      30.061  25.909  23.699  1.00  0.00    -0.009 A 
ATOM     24  C   UNL A   1      30.379  24.475  24.016  1.00  0.00     0.048 C 
ENDBRANCH  15  16
ENDBRANCH  14  15
ENDBRANCH   9  14
ENDBRANCH   5   8
ENDBRANCH   3   4
ENDBRANCH   2   3
ENDBRANCH   1   2
BRANCH   1  25
ATOM     25  C   UNL A   1      41.002  20.963  27.184  1.00  0.00     0.002 C 
BRANCH  25  26
ATOM     26  C   UNL A   1      41.394  19.836  26.226  1.00  0.00     0.021 C 
BRANCH  26  27
ATOM     27  C   UNL A   1      42.665  19.100  26.636  1.00  0.00     0.116 C 
BRANCH  27  28
ATOM     28  N   UNL A   1      43.476  18.775  25.473  1.00  0.00    -0.352 N 
ATOM     29  C   UNL A   1      44.116  19.628  24.615  1.00  0.00     0.251 C 
ATOM     30  H   UNL A   1      43.578  17.815  25.277  1.00  0.00     0.163 HD
ATOM     31  O   UNL A   1      44.513  19.224  23.522  1.00  0.00    -0.269 OA
BRANCH  29  32
ATOM     32  C   UNL A   1      44.322  21.034  25.011  1.00  0.00     0.039 A 
ATOM     33  C   UNL A   1      44.757  21.324  26.305  1.00  0.00     0.014 A 
ATOM     34  C   UNL A   1      44.074  22.064  24.098  1.00  0.00     0.014 A 
ATOM     35  C   UNL A   1      44.985  22.651  26.672  1.00  0.00     0.010 A 
ATOM     36  C   UNL A   1      44.365  23.379  24.444  1.00  0.00     0.010 A 
ATOM     37  C   UNL A   1      44.812  23.686  25.737  1.00  0.00    -0.014 A 
BRANCH  37  38
ATOM     38  C   UNL A   1      45.082  25.100  26.097  1.00  0.00     0.031 A 
ATOM     39  C   UNL A   1      46.478  25.648  25.992  1.00  0.00     0.074 A 
ATOM     40  C   UNL A   1      44.083  25.864  26.578  1.00  0.00     0.049 A 
ATOM     41  N   UNL A   1      46.928  26.829  26.324  1.00  0.00    -0.248 NA
ATOM     42  C   UNL A   1      47.511  24.738  25.467  1.00  0.00     0.031 C 
ATOM     43  C   UNL A   1      42.699  25.425  26.770  1.00  0.00     0.029 A 
ATOM     44  N   UNL A   1      44.080  27.167  27.005  1.00  0.00    -0.354 N 
ATOM     45  C   UNL A   1      48.294  26.801  26.064  1.00  0.00     0.074 A 
ATOM     46  C   UNL A   1      48.608  25.470  25.596  1.00  0.00     0.031 C 
ATOM     47  C   UNL A   1      41.977  26.448  27.257  1.00  0.00     0.029 A 
ATOM     48  C   UNL A   1      42.853  27.600  27.447  1.00  0.00     0.049 A 
ATOM     49  H   UNL A   1      44.882  27.739  26.996  1.00  0.00     0.167 HD
ATOM     50  C   UNL A   1      49.198  27.803  26.184  1.00  0.00     0.037 A 
ATOM     51  C   UNL A   1      42.477  28.790  27.954  1.00  0.00     0.037 A 
ATOM     52  C   UNL A   1      48.871  29.132  26.629  1.00  0.00     0.049 A 
ATOM     53  C   UNL A   1      43.498  29.887  28.076  1.00  0.00     0.074 A 
ATOM     54  C   UNL A   1      49.700  30.235  26.729  1.00  0.00     0.029 A 
ATOM     55  N   UNL A   1      47.611  29.538  27.048  1.00  0.00    -0.354 N 
ATOM     56  N   UNL A   1      44.773  29.863  27.769  1.00  0.00    -0.248 NA
ATOM     57  C   UNL A   1      43.030  31.175  28.608  1.00  0.00     0.031 C 
ATOM     58  C   UNL A   1      48.952  31.297  27.248  1.00  0.00     0.029 A 
ATOM     59  C   UNL A   1      47.645  30.870  27.428  1.00  0.00     0.049 A 
ATOM     60  H   UNL A   1      46.812  28.964  27.072  1.00  0.00     0.167 HD
ATOM     61  C   UNL A   1      45.256  31.136  28.047  1.00  0.00     0.074 A 
ATOM     62  C   UNL A   1      44.132  31.910  28.536  1.00  0.00     0.031 C 
ATOM     63  C   UNL A   1      46.515  31.623  27.911  1.00  0.00     0.037 A 
BRANCH  50  64
ATOM     64  C   UNL A   1      50.626  27.495  25.826  1.00  0.00     0.058 A 
ATOM     65  C   UNL A   1      51.579  27.170  26.805  1.00  0.00     0.135 A 
ATOM     66  C   UNL A   1      51.043  27.503  24.485  1.00  0.00     0.135 A 
ATOM     67  F   UNL A   1      51.238  27.163  28.103  1.00  0.00    -0.206 F 
ATOM     68  C   UNL A   1      52.902  26.896  26.472  1.00  0.00     0.059 A 
ATOM     69  C   UNL A   1      52.355  27.203  24.126  1.00  0.00     0.059 A 
ATOM     70  F   UNL A   1      50.176  27.807  23.507  1.00  0.00    -0.206 F 
ATOM     71  C   UNL A   1      53.281  26.917  25.128  1.00  0.00     0.060 A 
BRANCH  71  72
ATOM     72  S   UNL A   1      55.001  26.562  24.714  1.00  0.00     0.124 S 
ATOM     73  O   UNL A   1      55.038  26.915  23.298  1.00  0.00    -0.237 OA
ATOM     74  O   UNL A   1      55.730  27.455  25.608  1.00  0.00    -0.237 OA
ATOM     75  O   UNL A   1      55.135  25.139  25.009  1.00  0.00    -0.744 OA
ENDBRANCH  71  72
ENDBRANCH  50  64
BRANCH  51  76
ATOM     76  C   UNL A   1      41.064  29.008  28.360  1.00  0.00     0.058 A 
ATOM     77  C   UNL A   1      40.690  28.979  29.711  1.00  0.00     0.135 A 
ATOM     78  C   UNL A   1      40.064  29.274  27.411  1.00  0.00     0.135 A 
ATOM     79  F   UNL A   1      41.609  28.722  30.655  1.00  0.00    -0.206 F 
ATOM     80  C   UNL A   1      39.374  29.193  30.109  1.00  0.00     0.059 A 
ATOM     81  C   UNL A   1      38.746  29.516  27.785  1.00  0.00     0.059 A 
ATOM     82  F   UNL A   1      40.374  29.333  26.106  1.00  0.00    -0.206 F 
ATOM     83  C   UNL A   1      38.410  29.464  29.138  1.00  0.00     0.060 A 
BRANCH  83  84
ATOM     84  S   UNL A   1      36.716  29.796  29.668  1.00  0.00     0.124 S 
ATOM     85  O   UNL A   1      35.952  29.330  28.517  1.00  0.00    -0.237 OA
ATOM     86  O   UNL A   1      36.609  28.986  30.878  1.00  0.00    -0.237 OA
ATOM     87  O   UNL A   1      36.710  31.240  29.888  1.00  0.00    -0.744 OA
ENDBRANCH  83  84
ENDBRANCH  51  76
BRANCH  63  88
ATOM     88  C   UNL A   1      46.739  33.065  28.272  1.00  0.00     0.058 A 
ATOM     89  C   UNL A   1      47.206  33.442  29.539  1.00  0.00     0.135 A 
ATOM     90  C   UNL A   1      46.530  34.076  27.320  1.00  0.00     0.135 A 
ATOM     91  F   UNL A   1      47.415  32.515  30.487  1.00  0.00    -0.206 F 
ATOM     92  C   UNL A   1      47.439  34.776  29.860  1.00  0.00     0.059 A 
ATOM     93  C   UNL A   1      46.781  35.414  27.609  1.00  0.00     0.059 A 
ATOM     94  F   UNL A   1      46.092  33.767  26.089  1.00  0.00    -0.206 F 
ATOM     95  C   UNL A   1      47.224  35.754  28.887  1.00  0.00     0.060 A 
BRANCH  95  96
ATOM     96  S   UNL A   1      47.562  37.478  29.303  1.00  0.00     0.124 S 
ATOM     97  O   UNL A   1      46.705  38.182  28.354  1.00  0.00    -0.237 OA
ATOM     98  O   UNL A   1      47.150  37.549  30.701  1.00  0.00    -0.237 OA
ATOM     99  O   UNL A   1      48.997  37.609  29.070  1.00  0.00    -0.744 OA
ENDBRANCH  95  96
ENDBRANCH  63  88
ENDBRANCH  37  38
ENDBRANCH  29  32
ENDBRANCH  27  28
ENDBRANCH  26  27
ENDBRANCH  25  26
ENDBRANCH   1  25
TORSDOF 19
ENDMDL
MODEL 2
REMARK VINA RESULT:     -10.6      6.374      8.616
REMARK SMILES Cc1ccc(C)c(OCc2ccc(C(=O)NCCCCCCNC(=O)c3ccc(-c4c5nc(c(-c6c(F)cc(S(=O)(=O)[O-])cc6F)c6ccc([nH]6)c(-c6c(F)cc(S(=O)(=O)[O-])cc6F)c6nc(c(-c7c(F)cc(S(=O)(=O)[O-])cc7F)c7ccc4[nH]7)C=C6)C=C5)cc3)cc2)c1C
REMARK SMILES IDX 19 1 18 2 17 3 16 4 14 5 15 6 13 8 10 9 11 10 93 11 12 12
REMARK SMILES IDX 92 13 9 14 8 15 7 16 1 17 2 18 3 19 94 20 4 21 95 22 5 23
REMARK SMILES IDX 6 24 20 25 21 26 22 27 23 28 24 29 25 31 26 32 27 33 91 34
REMARK SMILES IDX 28 35 90 36 29 37 30 38 31 39 84 40 32 41 89 42 83 43 85 44
REMARK SMILES IDX 33 45 88 46 82 47 81 48 34 50 68 51 47 52 67 53 48 54 51 55
REMARK SMILES IDX 66 56 86 57 49 58 50 59 65 61 87 62 52 63 35 64 36 65 45 66
REMARK SMILES IDX 37 67 38 68 44 69 46 70 39 71 40 72 41 73 42 74 43 75 69 76
REMARK SMILES IDX 70 77 79 78 71 79 72 80 78 81 80 82 73 83 74 84 75 85 76 86
REMARK SMILES IDX 77 87 53 88 54 89 63 90 55 91 56 92 62 93 64 94 57 95 58 96
REMARK SMILES IDX 59 97 60 98 61 99
REMARK H PARENT 16 7 23 30 85 49 51 60
REMARK Flexibility Score: inf
ROOT
ATOM      1  C   UNL A   1      39.368  26.008  27.371  1.00  0.00     0.002 C 
ENDROOT
BRANCH   1   2
ATOM      2  C   UNL A   1      39.337  24.474  27.392  1.00  0.00     0.021 C 
BRANCH   2   3
ATOM      3  C   UNL A   1      38.245  23.897  26.489  1.00  0.00     0.116 C 
BRANCH   3   4
ATOM      4  N   UNL A   1      38.630  22.569  26.071  1.00  0.00    -0.352 N 
ATOM      5  C   UNL A   1      37.959  21.595  25.385  1.00  0.00     0.251 C 
ATOM      6  O   UNL A   1      38.489  20.483  25.353  1.00  0.00    -0.269 OA
ATOM      7  H   UNL A   1      39.546  22.317  26.329  1.00  0.00     0.163 HD
BRANCH   5   8
ATOM      8  C   UNL A   1      36.702  21.830  24.608  1.00  0.00     0.039 A 
ATOM      9  C   UNL A   1      34.435  22.798  23.177  1.00  0.00    -0.011 A 
ATOM     10  C   UNL A   1      35.736  23.111  22.782  1.00  0.00     0.008 A 
ATOM     11  C   UNL A   1      34.295  21.880  24.227  1.00  0.00     0.008 A 
ATOM     12  C   UNL A   1      36.847  22.648  23.488  1.00  0.00     0.014 A 
ATOM     13  C   UNL A   1      35.416  21.381  24.913  1.00  0.00     0.014 A 
BRANCH   9  14
ATOM     14  C   UNL A   1      33.204  23.545  22.673  1.00  0.00     0.265 C 
BRANCH  14  15
ATOM     15  O   UNL A   1      32.342  24.253  23.568  1.00  0.00    -0.488 OA
BRANCH  15  16
ATOM     16  C   UNL A   1      32.777  25.370  24.226  1.00  0.00     0.125 A 
ATOM     17  C   UNL A   1      33.658  28.925  23.073  1.00  0.00     0.045 C 
ATOM     18  C   UNL A   1      33.465  27.695  23.916  1.00  0.00    -0.044 A 
ATOM     19  C   UNL A   1      33.858  27.725  25.258  1.00  0.00     0.004 A 
ATOM     20  C   UNL A   1      32.898  26.514  23.397  1.00  0.00    -0.006 A 
ATOM     21  C   UNL A   1      33.650  26.625  26.089  1.00  0.00     0.007 A 
ATOM     22  C   UNL A   1      32.455  26.413  21.956  1.00  0.00     0.049 C 
ATOM     23  C   UNL A   1      33.070  25.444  25.600  1.00  0.00    -0.009 A 
ATOM     24  C   UNL A   1      32.863  24.313  26.567  1.00  0.00     0.048 C 
ENDBRANCH  15  16
ENDBRANCH  14  15
ENDBRANCH   9  14
ENDBRANCH   5   8
ENDBRANCH   3   4
ENDBRANCH   2   3
ENDBRANCH   1   2
BRANCH   1  25
ATOM     25  C   UNL A   1      40.535  26.605  26.576  1.00  0.00     0.002 C 
BRANCH  25  26
ATOM     26  C   UNL A   1      41.242  25.612  25.651  1.00  0.00     0.021 C 
BRANCH  26  27
ATOM     27  C   UNL A   1      42.634  26.062  25.222  1.00  0.00     0.116 C 
BRANCH  27  28
ATOM     28  N   UNL A   1      43.658  25.195  25.784  1.00  0.00    -0.352 N 
ATOM     29  C   UNL A   1      44.363  25.352  26.947  1.00  0.00     0.251 C 
ATOM     30  H   UNL A   1      43.873  24.389  25.259  1.00  0.00     0.163 HD
ATOM     31  O   UNL A   1      45.390  24.701  27.141  1.00  0.00    -0.269 OA
BRANCH  29  32
ATOM     32  C   UNL A   1      43.881  26.308  27.963  1.00  0.00     0.039 A 
ATOM     33  C   UNL A   1      43.028  25.861  28.972  1.00  0.00     0.014 A 
ATOM     34  C   UNL A   1      44.271  27.650  27.904  1.00  0.00     0.014 A 
ATOM     35  C   UNL A   1      42.597  26.756  29.953  1.00  0.00     0.010 A 
ATOM     36  C   UNL A   1      43.896  28.523  28.919  1.00  0.00     0.010 A 
ATOM     37  C   UNL A   1      43.046  28.087  29.946  1.00  0.00    -0.014 A 
BRANCH  37  38
ATOM     38  C   UNL A   1      42.628  29.045  30.999  1.00  0.00     0.031 A 
ATOM     39  C   UNL A   1      43.412  29.145  32.278  1.00  0.00     0.074 A 
ATOM     40  C   UNL A   1      41.508  29.774  30.826  1.00  0.00     0.049 A 
ATOM     41  N   UNL A   1      43.169  29.864  33.341  1.00  0.00    -0.248 NA
ATOM     42  C   UNL A   1      44.616  28.302  32.386  1.00  0.00     0.031 C 
ATOM     43  C   UNL A   1      40.641  29.725  29.647  1.00  0.00     0.029 A 
ATOM     44  N   UNL A   1      40.901  30.688  31.648  1.00  0.00    -0.354 N 
ATOM     45  C   UNL A   1      44.176  29.554  34.248  1.00  0.00     0.074 A 
ATOM     46  C   UNL A   1      45.003  28.542  33.630  1.00  0.00     0.031 C 
ATOM     47  C   UNL A   1      39.625  30.587  29.813  1.00  0.00     0.029 A 
ATOM     48  C   UNL A   1      39.748  31.221  31.123  1.00  0.00     0.049 A 
ATOM     49  H   UNL A   1      41.257  30.940  32.531  1.00  0.00     0.167 HD
ATOM     50  C   UNL A   1      44.402  30.082  35.475  1.00  0.00     0.037 A 
ATOM     51  C   UNL A   1      38.883  32.114  31.642  1.00  0.00     0.037 A 
ATOM     52  C   UNL A   1      43.586  31.107  36.071  1.00  0.00     0.049 A 
ATOM     53  C   UNL A   1      39.156  32.688  33.004  1.00  0.00     0.074 A 
ATOM     54  C   UNL A   1      43.762  31.752  37.282  1.00  0.00     0.029 A 
ATOM     55  N   UNL A   1      42.437  31.636  35.499  1.00  0.00    -0.354 N 
ATOM     56  N   UNL A   1      40.147  32.428  33.824  1.00  0.00    -0.248 NA
ATOM     57  C   UNL A   1      38.199  33.680  33.512  1.00  0.00     0.031 C 
ATOM     58  C   UNL A   1      42.698  32.641  37.462  1.00  0.00     0.029 A 
ATOM     59  C   UNL A   1      41.883  32.585  36.342  1.00  0.00     0.049 A 
ATOM     60  H   UNL A   1      42.071  31.375  34.624  1.00  0.00     0.167 HD
ATOM     61  C   UNL A   1      39.947  33.240  34.934  1.00  0.00     0.074 A 
ATOM     62  C   UNL A   1      38.746  34.010  34.675  1.00  0.00     0.031 C 
ATOM     63  C   UNL A   1      40.687  33.342  36.066  1.00  0.00     0.037 A 
BRANCH  50  64
ATOM     64  C   UNL A   1      45.582  29.560  36.249  1.00  0.00     0.058 A 
ATOM     65  C   UNL A   1      45.464  28.469  37.125  1.00  0.00     0.135 A 
ATOM     66  C   UNL A   1      46.851  30.142  36.096  1.00  0.00     0.135 A 
ATOM     67  F   UNL A   1      44.271  27.884  37.320  1.00  0.00    -0.206 F 
ATOM     68  C   UNL A   1      46.554  27.993  37.847  1.00  0.00     0.059 A 
ATOM     69  C   UNL A   1      47.961  29.664  36.787  1.00  0.00     0.059 A 
ATOM     70  F   UNL A   1      47.021  31.188  35.273  1.00  0.00    -0.206 F 
ATOM     71  C   UNL A   1      47.799  28.600  37.673  1.00  0.00     0.060 A 
BRANCH  71  72
ATOM     72  S   UNL A   1      49.202  27.974  38.621  1.00  0.00     0.124 S 
ATOM     73  O   UNL A   1      49.792  29.213  39.120  1.00  0.00    -0.237 OA
ATOM     74  O   UNL A   1      48.555  27.133  39.621  1.00  0.00    -0.237 OA
ATOM     75  O   UNL A   1      49.994  27.260  37.623  1.00  0.00    -0.744 OA
ENDBRANCH  71  72
ENDBRANCH  50  64
BRANCH  51  76
ATOM     76  C   UNL A   1      37.694  32.535  30.856  1.00  0.00     0.058 A 
ATOM     77  C   UNL A   1      36.438  31.954  31.083  1.00  0.00     0.135 A 
ATOM     78  C   UNL A   1      37.782  33.542  29.881  1.00  0.00     0.135 A 
ATOM     79  F   UNL A   1      36.305  30.984  32.000  1.00  0.00    -0.206 F 
ATOM     80  C   UNL A   1      35.313  32.345  30.365  1.00  0.00     0.059 A 
ATOM     81  C   UNL A   1      36.667  33.967  29.167  1.00  0.00     0.059 A 
ATOM     82  F   UNL A   1      38.958  34.143  29.639  1.00  0.00    -0.206 F 
ATOM     83  C   UNL A   1      35.437  33.355  29.410  1.00  0.00     0.060 A 
BRANCH  83  84
ATOM     84  S   UNL A   1      33.960  33.895  28.523  1.00  0.00     0.124 S 
ATOM     85  O   UNL A   1      33.126  34.386  29.613  1.00  0.00    -0.237 OA
ATOM     86  O   UNL A   1      34.498  34.910  27.622  1.00  0.00    -0.237 OA
ATOM     87  O   UNL A   1      33.495  32.674  27.871  1.00  0.00    -0.744 OA
ENDBRANCH  83  84
ENDBRANCH  51  76
BRANCH  63  88
ATOM     88  C   UNL A   1      40.236  34.336  37.098  1.00  0.00     0.058 A 
ATOM     89  C   UNL A   1      39.403  33.964  38.164  1.00  0.00     0.135 A 
ATOM     90  C   UNL A   1      40.683  35.667  37.046  1.00  0.00     0.135 A 
ATOM     91  F   UNL A   1      38.942  32.707  38.255  1.00  0.00    -0.206 F 
ATOM     92  C   UNL A   1      39.010  34.881  39.133  1.00  0.00     0.059 A 
ATOM     93  C   UNL A   1      40.325  36.595  38.019  1.00  0.00     0.059 A 
ATOM     94  F   UNL A   1      41.489  36.071  36.052  1.00  0.00    -0.206 F 
ATOM     95  C   UNL A   1      39.478  36.195  39.051  1.00  0.00     0.060 A 
BRANCH  95  96
ATOM     96  S   UNL A   1      38.989  37.369  40.334  1.00  0.00     0.124 S 
ATOM     97  O   UNL A   1      40.286  37.800  40.845  1.00  0.00    -0.237 OA
ATOM     98  O   UNL A   1      38.244  38.368  39.575  1.00  0.00    -0.237 OA
ATOM     99  O   UNL A   1      38.190  36.560  41.248  1.00  0.00    -0.744 OA
ENDBRANCH  95  96
ENDBRANCH  63  88
ENDBRANCH  37  38
ENDBRANCH  29  32
ENDBRANCH  27  28
ENDBRANCH  26  27
ENDBRANCH  25  26
ENDBRANCH   1  25
TORSDOF 19
ENDMDL
MODEL 3
REMARK VINA RESULT:     -10.4      5.988     15.733
REMARK SMILES Cc1ccc(C)c(OCc2ccc(C(=O)NCCCCCCNC(=O)c3ccc(-c4c5nc(c(-c6c(F)cc(S(=O)(=O)[O-])cc6F)c6ccc([nH]6)c(-c6c(F)cc(S(=O)(=O)[O-])cc6F)c6nc(c(-c7c(F)cc(S(=O)(=O)[O-])cc7F)c7ccc4[nH]7)C=C6)C=C5)cc3)cc2)c1C
REMARK SMILES IDX 19 1 18 2 17 3 16 4 14 5 15 6 13 8 10 9 11 10 93 11 12 12
REMARK SMILES IDX 92 13 9 14 8 15 7 16 1 17 2 18 3 19 94 20 4 21 95 22 5 23
REMARK SMILES IDX 6 24 20 25 21 26 22 27 23 28 24 29 25 31 26 32 27 33 91 34
REMARK SMILES IDX 28 35 90 36 29 37 30 38 31 39 84 40 32 41 89 42 83 43 85 44
REMARK SMILES IDX 33 45 88 46 82 47 81 48 34 50 68 51 47 52 67 53 48 54 51 55
REMARK SMILES IDX 66 56 86 57 49 58 50 59 65 61 87 62 52 63 35 64 36 65 45 66
REMARK SMILES IDX 37 67 38 68 44 69 46 70 39 71 40 72 41 73 42 74 43 75 69 76
REMARK SMILES IDX 70 77 79 78 71 79 72 80 78 81 80 82 73 83 74 84 75 85 76 86
REMARK SMILES IDX 77 87 53 88 54 89 63 90 55 91 56 92 62 93 64 94 57 95 58 96
REMARK SMILES IDX 59 97 60 98 61 99
REMARK H PARENT 16 7 23 30 85 49 51 60
REMARK Flexibility Score: inf
ROOT
ATOM      1  C   UNL A   1      45.724  41.516  29.680  1.00  0.00     0.002 C 
ENDROOT
BRANCH   1   2
ATOM      2  C   UNL A   1      44.567  42.255  28.994  1.00  0.00     0.021 C 
BRANCH   2   3
ATOM      3  C   UNL A   1      44.816  42.477  27.501  1.00  0.00     0.116 C 
BRANCH   3   4
ATOM      4  N   UNL A   1      43.789  41.802  26.744  1.00  0.00    -0.352 N 
ATOM      5  C   UNL A   1      43.358  41.947  25.455  1.00  0.00     0.251 C 
ATOM      6  O   UNL A   1      42.318  41.355  25.154  1.00  0.00    -0.269 OA
ATOM      7  H   UNL A   1      43.310  41.107  27.250  1.00  0.00     0.163 HD
BRANCH   5   8
ATOM      8  C   UNL A   1      44.114  42.683  24.394  1.00  0.00     0.039 A 
ATOM      9  C   UNL A   1      45.074  44.125  22.130  1.00  0.00    -0.011 A 
ATOM     10  C   UNL A   1      44.057  44.631  22.940  1.00  0.00     0.008 A 
ATOM     11  C   UNL A   1      45.692  42.940  22.555  1.00  0.00     0.008 A 
ATOM     12  C   UNL A   1      43.576  43.922  24.042  1.00  0.00     0.014 A 
ATOM     13  C   UNL A   1      45.236  42.246  23.689  1.00  0.00     0.014 A 
BRANCH   9  14
ATOM     14  C   UNL A   1      45.388  44.671  20.741  1.00  0.00     0.265 C 
BRANCH  14  15
ATOM     15  O   UNL A   1      44.869  44.055  19.560  1.00  0.00    -0.488 OA
BRANCH  15  16
ATOM     16  C   UNL A   1      43.596  44.314  19.135  1.00  0.00     0.125 A 
ATOM     17  C   UNL A   1      42.106  46.902  16.722  1.00  0.00     0.045 C 
ATOM     18  C   UNL A   1      42.254  45.795  17.728  1.00  0.00    -0.044 A 
ATOM     19  C   UNL A   1      41.101  45.202  18.256  1.00  0.00     0.004 A 
ATOM     20  C   UNL A   1      43.515  45.333  18.153  1.00  0.00    -0.006 A 
ATOM     21  C   UNL A   1      41.192  44.137  19.152  1.00  0.00     0.007 A 
ATOM     22  C   UNL A   1      44.798  45.932  17.625  1.00  0.00     0.049 C 
ATOM     23  C   UNL A   1      42.438  43.648  19.576  1.00  0.00    -0.009 A 
ATOM     24  C   UNL A   1      42.446  42.485  20.527  1.00  0.00     0.048 C 
ENDBRANCH  15  16
ENDBRANCH  14  15
ENDBRANCH   9  14
ENDBRANCH   5   8
ENDBRANCH   3   4
ENDBRANCH   2   3
ENDBRANCH   1   2
BRANCH   1  25
ATOM     25  C   UNL A   1      45.307  40.243  30.425  1.00  0.00     0.002 C 
BRANCH  25  26
ATOM     26  C   UNL A   1      45.031  39.042  29.517  1.00  0.00     0.021 C 
BRANCH  26  27
ATOM     27  C   UNL A   1      45.857  37.809  29.867  1.00  0.00     0.116 C 
BRANCH  27  28
ATOM     28  N   UNL A   1      47.200  37.909  29.318  1.00  0.00    -0.352 N 
ATOM     29  C   UNL A   1      48.043  36.899  28.939  1.00  0.00     0.251 C 
ATOM     30  H   UNL A   1      47.550  38.823  29.205  1.00  0.00     0.163 HD
ATOM     31  O   UNL A   1      49.243  37.123  28.773  1.00  0.00    -0.269 OA
BRANCH  29  32
ATOM     32  C   UNL A   1      47.501  35.542  28.734  1.00  0.00     0.039 A 
ATOM     33  C   UNL A   1      46.914  35.218  27.510  1.00  0.00     0.014 A 
ATOM     34  C   UNL A   1      47.570  34.596  29.762  1.00  0.00     0.014 A 
ATOM     35  C   UNL A   1      46.430  33.925  27.302  1.00  0.00     0.010 A 
ATOM     36  C   UNL A   1      47.148  33.292  29.530  1.00  0.00     0.010 A 
ATOM     37  C   UNL A   1      46.565  32.947  28.302  1.00  0.00    -0.014 A 
BRANCH  37  38
ATOM     38  C   UNL A   1      46.089  31.558  28.088  1.00  0.00     0.031 A 
ATOM     39  C   UNL A   1      44.693  31.173  28.490  1.00  0.00     0.074 A 
ATOM     40  C   UNL A   1      46.937  30.635  27.593  1.00  0.00     0.049 A 
ATOM     41  N   UNL A   1      44.117  30.000  28.451  1.00  0.00    -0.248 NA
ATOM     42  C   UNL A   1      43.839  32.243  29.033  1.00  0.00     0.031 C 
ATOM     43  C   UNL A   1      48.329  30.883  27.213  1.00  0.00     0.029 A 
ATOM     44  N   UNL A   1      46.755  29.301  27.337  1.00  0.00    -0.354 N 
ATOM     45  C   UNL A   1      42.843  30.186  28.975  1.00  0.00     0.074 A 
ATOM     46  C   UNL A   1      42.748  31.572  29.374  1.00  0.00     0.031 C 
ATOM     47  C   UNL A   1      48.869  29.743  26.753  1.00  0.00     0.029 A 
ATOM     48  C   UNL A   1      47.875  28.677  26.841  1.00  0.00     0.049 A 
ATOM     49  H   UNL A   1      45.903  28.833  27.494  1.00  0.00     0.167 HD
ATOM     50  C   UNL A   1      41.837  29.286  29.092  1.00  0.00     0.037 A 
ATOM     51  C   UNL A   1      48.080  27.390  26.501  1.00  0.00     0.037 A 
ATOM     52  C   UNL A   1      41.934  27.913  28.670  1.00  0.00     0.049 A 
ATOM     53  C   UNL A   1      46.947  26.410  26.638  1.00  0.00     0.074 A 
ATOM     54  C   UNL A   1      40.955  26.935  28.690  1.00  0.00     0.029 A 
ATOM     55  N   UNL A   1      43.078  27.324  28.153  1.00  0.00    -0.354 N 
ATOM     56  N   UNL A   1      45.729  26.615  27.079  1.00  0.00    -0.248 NA
ATOM     57  C   UNL A   1      47.213  25.025  26.226  1.00  0.00     0.031 C 
ATOM     58  C   UNL A   1      41.519  25.744  28.222  1.00  0.00     0.029 A 
ATOM     59  C   UNL A   1      42.837  25.990  27.868  1.00  0.00     0.049 A 
ATOM     60  H   UNL A   1      43.936  27.785  28.009  1.00  0.00     0.167 HD
ATOM     61  C   UNL A   1      45.075  25.393  26.977  1.00  0.00     0.074 A 
ATOM     62  C   UNL A   1      46.031  24.456  26.420  1.00  0.00     0.031 C 
ATOM     63  C   UNL A   1      43.801  25.073  27.312  1.00  0.00     0.037 A 
BRANCH  50  64
ATOM     64  C   UNL A   1      40.545  29.763  29.698  1.00  0.00     0.058 A 
ATOM     65  C   UNL A   1      40.422  30.003  31.076  1.00  0.00     0.135 A 
ATOM     66  C   UNL A   1      39.424  30.007  28.889  1.00  0.00     0.135 A 
ATOM     67  F   UNL A   1      41.458  29.772  31.898  1.00  0.00    -0.206 F 
ATOM     68  C   UNL A   1      39.223  30.435  31.636  1.00  0.00     0.059 A 
ATOM     69  C   UNL A   1      38.223  30.467  29.424  1.00  0.00     0.059 A 
ATOM     70  F   UNL A   1      39.484  29.795  27.566  1.00  0.00    -0.206 F 
ATOM     71  C   UNL A   1      38.128  30.662  30.801  1.00  0.00     0.060 A 
BRANCH  71  72
ATOM     72  S   UNL A   1      36.580  31.219  31.544  1.00  0.00     0.124 S 
ATOM     73  O   UNL A   1      36.047  29.969  32.078  1.00  0.00    -0.237 OA
ATOM     74  O   UNL A   1      37.038  32.187  32.534  1.00  0.00    -0.237 OA
ATOM     75  O   UNL A   1      35.845  31.782  30.415  1.00  0.00    -0.744 OA
ENDBRANCH  71  72
ENDBRANCH  50  64
BRANCH  51  76
ATOM     76  C   UNL A   1      49.404  26.964  25.977  1.00  0.00     0.058 A 
ATOM     77  C   UNL A   1      49.714  27.090  24.615  1.00  0.00     0.135 A 
ATOM     78  C   UNL A   1      50.393  26.446  26.828  1.00  0.00     0.135 A 
ATOM     79  F   UNL A   1      48.798  27.575  23.762  1.00  0.00    -0.206 F 
ATOM     80  C   UNL A   1      50.952  26.708  24.111  1.00  0.00     0.059 A 
ATOM     81  C   UNL A   1      51.648  26.080  26.351  1.00  0.00     0.059 A 
ATOM     82  F   UNL A   1      50.153  26.323  28.143  1.00  0.00    -0.206 F 
ATOM     83  C   UNL A   1      51.914  26.206  24.988  1.00  0.00     0.060 A 
BRANCH  83  84
ATOM     84  S   UNL A   1      53.539  25.765  24.333  1.00  0.00     0.124 S 
ATOM     85  O   UNL A   1      53.390  26.110  22.924  1.00  0.00    -0.237 OA
ATOM     86  O   UNL A   1      54.426  26.623  25.112  1.00  0.00    -0.237 OA
ATOM     87  O   UNL A   1      53.643  24.338  24.628  1.00  0.00    -0.744 OA
ENDBRANCH  83  84
ENDBRANCH  51  76
BRANCH  63  88
ATOM     88  C   UNL A   1      43.357  23.659  27.064  1.00  0.00     0.058 A 
ATOM     89  C   UNL A   1      43.247  22.728  28.107  1.00  0.00     0.135 A 
ATOM     90  C   UNL A   1      42.990  23.246  25.773  1.00  0.00     0.135 A 
ATOM     91  F   UNL A   1      43.593  23.070  29.358  1.00  0.00    -0.206 F 
ATOM     92  C   UNL A   1      42.809  21.428  27.877  1.00  0.00     0.059 A 
ATOM     93  C   UNL A   1      42.524  21.959  25.523  1.00  0.00     0.059 A 
ATOM     94  F   UNL A   1      43.068  24.101  24.741  1.00  0.00    -0.206 F 
ATOM     95  C   UNL A   1      42.449  21.053  26.581  1.00  0.00     0.060 A 
BRANCH  95  96
ATOM     96  S   UNL A   1      41.850  19.374  26.299  1.00  0.00     0.124 S 
ATOM     97  O   UNL A   1      40.446  19.614  25.980  1.00  0.00    -0.237 OA
ATOM     98  O   UNL A   1      42.684  18.925  25.189  1.00  0.00    -0.237 OA
ATOM     99  O   UNL A   1      42.099  18.706  27.573  1.00  0.00    -0.744 OA
ENDBRANCH  95  96
ENDBRANCH  63  88
ENDBRANCH  37  38
ENDBRANCH  29  32
ENDBRANCH  27  28
ENDBRANCH  26  27
ENDBRANCH  25  26
ENDBRANCH   1  25
TORSDOF 19
ENDMDL
