MODEL 1
REMARK VINA RESULT:     -11.9      0.000      0.000
REMARK SMILES O=C(NCCCCCCNC(=O)[C@H](CO)NC(=O)[C@H](Cc1c[nH]c2ccccc12)NC(=O)c1ccc(F)cc1)c1ccc(-c2c3nc(c(-c4c(F)cc(S(=O)(=O)[O-])cc4F)c4ccc([nH]4)c(-c4c(F)cc(S(=O)(=O)[O-])cc4F)c4nc(c(-c5c(F)cc(S(=O)(=O)[O-])cc5F)c5ccc2[nH]5)C=C4)C=C3)cc1
REMARK SMILES IDX 7 1 6 2 5 3 4 4 3 5 1 6 2 7 40 9 41 10 105 11 42 12 104 13
REMARK SMILES IDX 43 14 44 15 45 16 98 17 46 18 103 19 97 20 99 21 47 22
REMARK SMILES IDX 102 23 96 24 95 25 48 27 82 28 61 29 81 30 62 31 65 32 80 33
REMARK SMILES IDX 100 34 63 35 64 36 79 38 101 39 66 40 49 41 50 42 59 43
REMARK SMILES IDX 51 44 52 45 58 46 60 47 53 48 54 49 55 50 56 51 57 52 83 53
REMARK SMILES IDX 84 54 93 55 85 56 86 57 92 58 94 59 87 60 88 61 89 62 90 63
REMARK SMILES IDX 91 64 67 65 68 66 77 67 69 68 70 69 76 70 78 71 71 72 72 73
REMARK SMILES IDX 73 74 74 75 75 76 8 77 9 78 10 79 11 80 12 82 13 83 16 84
REMARK SMILES IDX 17 85 18 87 19 88 30 89 31 90 32 92 33 93 34 94 39 95 35 96
REMARK SMILES IDX 38 97 36 98 37 99 20 100 21 101 22 102 29 103 23 104 24 105
REMARK SMILES IDX 28 106 25 108 27 109 26 110 14 111 15 112
REMARK H PARENT 3 8 99 26 65 37 10 81 16 86 30 91 23 107 15 113
REMARK Flexibility Score: inf
ROOT
ATOM      1  C   UNL A   1      33.895  30.387  27.261  1.00  0.00     0.002 C 
ENDROOT
BRANCH   1   2
ATOM      2  C   UNL A   1      35.321  30.775  27.661  1.00  0.00     0.002 C 
BRANCH   2   3
ATOM      3  C   UNL A   1      35.538  32.273  27.866  1.00  0.00     0.021 C 
BRANCH   3   4
ATOM      4  C   UNL A   1      36.363  32.618  29.099  1.00  0.00     0.116 C 
BRANCH   4   5
ATOM      5  N   UNL A   1      35.967  31.827  30.254  1.00  0.00    -0.352 N 
ATOM      6  O   UNL A   1      36.031  30.045  31.641  1.00  0.00    -0.269 OA
ATOM      7  C   UNL A   1      36.599  30.737  30.801  1.00  0.00     0.251 C 
ATOM      8  H   UNL A   1      35.138  32.110  30.703  1.00  0.00     0.163 HD
BRANCH   7   9
ATOM      9  C   UNL A   1      37.965  30.401  30.350  1.00  0.00     0.039 A 
ATOM     10  C   UNL A   1      38.212  30.147  29.000  1.00  0.00     0.014 A 
ATOM     11  C   UNL A   1      38.998  30.318  31.286  1.00  0.00     0.014 A 
ATOM     12  C   UNL A   1      39.455  29.672  28.606  1.00  0.00     0.010 A 
ATOM     13  C   UNL A   1      40.276  29.934  30.870  1.00  0.00     0.010 A 
ATOM     14  C   UNL A   1      40.509  29.584  29.531  1.00  0.00    -0.014 A 
BRANCH  14  15
ATOM     15  C   UNL A   1      41.859  29.201  29.049  1.00  0.00     0.031 A 
ATOM     16  C   UNL A   1      43.016  30.156  29.121  1.00  0.00     0.074 A 
ATOM     17  C   UNL A   1      42.037  27.950  28.580  1.00  0.00     0.049 A 
ATOM     18  N   UNL A   1      44.260  29.966  28.761  1.00  0.00    -0.248 NA
ATOM     19  C   UNL A   1      42.747  31.499  29.659  1.00  0.00     0.031 C 
ATOM     20  C   UNL A   1      40.981  26.939  28.469  1.00  0.00     0.029 A 
ATOM     21  N   UNL A   1      43.161  27.302  28.140  1.00  0.00    -0.354 N 
ATOM     22  C   UNL A   1      44.922  31.160  29.022  1.00  0.00     0.074 A 
ATOM     23  C   UNL A   1      43.933  32.083  29.536  1.00  0.00     0.031 C 
ATOM     24  C   UNL A   1      41.518  25.784  28.058  1.00  0.00     0.029 A 
ATOM     25  C   UNL A   1      42.939  25.988  27.803  1.00  0.00     0.049 A 
ATOM     26  H   UNL A   1      44.042  27.736  28.072  1.00  0.00     0.167 HD
ATOM     27  C   UNL A   1      46.236  31.451  28.857  1.00  0.00     0.037 A 
ATOM     28  C   UNL A   1      43.780  25.052  27.327  1.00  0.00     0.037 A 
ATOM     29  C   UNL A   1      47.208  30.518  28.343  1.00  0.00     0.049 A 
ATOM     30  C   UNL A   1      45.218  25.414  27.105  1.00  0.00     0.074 A 
ATOM     31  C   UNL A   1      48.563  30.716  28.137  1.00  0.00     0.029 A 
ATOM     32  N   UNL A   1      46.933  29.214  27.953  1.00  0.00    -0.354 N 
ATOM     33  N   UNL A   1      45.825  26.550  27.351  1.00  0.00    -0.248 NA
ATOM     34  C   UNL A   1      46.082  24.376  26.533  1.00  0.00     0.031 C 
ATOM     35  C   UNL A   1      49.097  29.548  27.581  1.00  0.00     0.029 A 
ATOM     36  C   UNL A   1      48.088  28.603  27.491  1.00  0.00     0.049 A 
ATOM     37  H   UNL A   1      46.048  28.787  27.997  1.00  0.00     0.167 HD
ATOM     38  C   UNL A   1      47.148  26.362  26.975  1.00  0.00     0.074 A 
ATOM     39  C   UNL A   1      47.256  24.995  26.501  1.00  0.00     0.031 C 
ATOM     40  C   UNL A   1      48.178  27.242  27.016  1.00  0.00     0.037 A 
BRANCH  27  41
ATOM     41  C   UNL A   1      46.702  32.834  29.228  1.00  0.00     0.058 A 
ATOM     42  C   UNL A   1      46.714  33.866  28.275  1.00  0.00     0.135 A 
ATOM     43  C   UNL A   1      47.189  33.127  30.512  1.00  0.00     0.135 A 
ATOM     44  F   UNL A   1      46.258  33.645  27.032  1.00  0.00    -0.206 F 
ATOM     45  C   UNL A   1      47.199  35.134  28.578  1.00  0.00     0.059 A 
ATOM     46  C   UNL A   1      47.655  34.396  30.846  1.00  0.00     0.059 A 
ATOM     47  F   UNL A   1      47.183  32.185  31.467  1.00  0.00    -0.206 F 
ATOM     48  C   UNL A   1      47.667  35.391  29.869  1.00  0.00     0.060 A 
BRANCH  48  49
ATOM     49  S   UNL A   1      48.246  37.056  30.261  1.00  0.00     0.124 S 
ATOM     50  O   UNL A   1      49.675  36.949  29.994  1.00  0.00    -0.237 OA
ATOM     51  O   UNL A   1      47.482  37.875  29.327  1.00  0.00    -0.237 OA
ATOM     52  O   UNL A   1      47.878  37.218  31.666  1.00  0.00    -0.744 OA
ENDBRANCH  48  49
ENDBRANCH  27  41
BRANCH  28  53
ATOM     53  C   UNL A   1      43.265  23.685  27.051  1.00  0.00     0.058 A 
ATOM     54  C   UNL A   1      43.108  22.744  28.081  1.00  0.00     0.135 A 
ATOM     55  C   UNL A   1      42.995  23.270  25.739  1.00  0.00     0.135 A 
ATOM     56  F   UNL A   1      43.367  23.088  29.353  1.00  0.00    -0.206 F 
ATOM     57  C   UNL A   1      42.744  21.429  27.817  1.00  0.00     0.059 A 
ATOM     58  C   UNL A   1      42.601  21.967  25.452  1.00  0.00     0.059 A 
ATOM     59  F   UNL A   1      43.122  24.137  24.723  1.00  0.00    -0.206 F 
ATOM     60  C   UNL A   1      42.500  21.048  26.497  1.00  0.00     0.060 A 
BRANCH  60  61
ATOM     61  S   UNL A   1      42.064  19.327  26.171  1.00  0.00     0.124 S 
ATOM     62  O   UNL A   1      42.496  18.679  27.406  1.00  0.00    -0.237 OA
ATOM     63  O   UNL A   1      40.622  19.412  25.968  1.00  0.00    -0.237 OA
ATOM     64  O   UNL A   1      42.846  18.999  24.983  1.00  0.00    -0.744 OA
ENDBRANCH  60  61
ENDBRANCH  28  53
BRANCH  40  65
ATOM     65  C   UNL A   1      49.522  26.755  26.550  1.00  0.00     0.058 A 
ATOM     66  C   UNL A   1      49.935  26.967  25.225  1.00  0.00     0.135 A 
ATOM     67  C   UNL A   1      50.374  26.026  27.395  1.00  0.00     0.135 A 
ATOM     68  F   UNL A   1      49.157  27.655  24.375  1.00  0.00    -0.206 F 
ATOM     69  C   UNL A   1      51.138  26.458  24.749  1.00  0.00     0.059 A 
ATOM     70  C   UNL A   1      51.595  25.531  26.948  1.00  0.00     0.059 A 
ATOM     71  F   UNL A   1      50.031  25.810  28.675  1.00  0.00    -0.206 F 
ATOM     72  C   UNL A   1      51.960  25.740  25.618  1.00  0.00     0.060 A 
BRANCH  72  73
ATOM     73  S   UNL A   1      53.525  25.098  24.986  1.00  0.00     0.124 S 
ATOM     74  O   UNL A   1      53.490  25.541  23.597  1.00  0.00    -0.237 OA
ATOM     75  O   UNL A   1      54.500  25.770  25.842  1.00  0.00    -0.237 OA
ATOM     76  O   UNL A   1      53.409  23.657  25.191  1.00  0.00    -0.744 OA
ENDBRANCH  72  73
ENDBRANCH  40  65
ENDBRANCH  14  15
ENDBRANCH   7   9
ENDBRANCH   4   5
ENDBRANCH   3   4
ENDBRANCH   2   3
ENDBRANCH   1   2
BRANCH   1  77
ATOM     77  C   UNL A   1      33.779  29.072  26.480  1.00  0.00     0.021 C 
BRANCH  77  78
ATOM     78  C   UNL A   1      33.122  29.229  25.108  1.00  0.00     0.116 C 
BRANCH  78  79
ATOM     79  N   UNL A   1      31.808  29.814  25.261  1.00  0.00    -0.354 N 
ATOM     80  C   UNL A   1      30.829  30.004  24.341  1.00  0.00     0.244 C 
ATOM     81  H   UNL A   1      31.591  30.121  26.172  1.00  0.00     0.163 HD
ATOM     82  O   UNL A   1      30.002  30.887  24.607  1.00  0.00    -0.273 OA
BRANCH  80  83
ATOM     83  C   UNL A   1      30.645  29.094  23.098  1.00  0.00     0.197 C 
BRANCH  83  84
ATOM     84  N   UNL A   1      29.544  28.160  23.416  1.00  0.00    -0.340 N 
ATOM     85  C   UNL A   1      29.488  26.843  23.734  1.00  0.00     0.243 C 
ATOM     86  H   UNL A   1      28.657  28.588  23.392  1.00  0.00     0.164 HD
ATOM     87  O   UNL A   1      28.344  26.403  23.907  1.00  0.00    -0.273 OA
BRANCH  85  88
ATOM     88  C   UNL A   1      30.704  25.886  23.664  1.00  0.00     0.176 C 
BRANCH  88  89
ATOM     89  N   UNL A   1      31.534  26.007  22.460  1.00  0.00    -0.340 N 
ATOM     90  C   UNL A   1      32.594  25.291  21.980  1.00  0.00     0.251 C 
ATOM     91  H   UNL A   1      31.274  26.760  21.880  1.00  0.00     0.164 HD
ATOM     92  O   UNL A   1      33.219  25.736  21.019  1.00  0.00    -0.269 OA
BRANCH  90  93
ATOM     93  C   UNL A   1      33.000  23.981  22.542  1.00  0.00     0.040 A 
ATOM     94  C   UNL A   1      34.316  23.688  22.921  1.00  0.00     0.017 A 
ATOM     95  C   UNL A   1      31.983  23.056  22.824  1.00  0.00     0.017 A 
ATOM     96  C   UNL A   1      34.620  22.465  23.524  1.00  0.00     0.040 A 
ATOM     97  C   UNL A   1      32.285  21.837  23.434  1.00  0.00     0.040 A 
ATOM     98  C   UNL A   1      33.603  21.551  23.770  1.00  0.00     0.123 A 
ATOM     99  F   UNL A   1      33.897  20.382  24.353  1.00  0.00    -0.207 F 
ENDBRANCH  90  93
ENDBRANCH  88  89
BRANCH  88 100
ATOM    100  C   UNL A   1      31.545  25.996  24.969  1.00  0.00     0.072 C 
BRANCH 100 101
ATOM    101  C   UNL A   1      31.544  24.788  25.868  1.00  0.00    -0.020 A 
ATOM    102  C   UNL A   1      30.404  24.132  26.294  1.00  0.00     0.087 A 
ATOM    103  C   UNL A   1      32.659  24.059  26.407  1.00  0.00     0.003 A 
ATOM    104  N   UNL A   1      30.777  23.013  26.985  1.00  0.00    -0.361 N 
ATOM    105  C   UNL A   1      32.147  22.917  27.026  1.00  0.00     0.046 A 
ATOM    106  C   UNL A   1      34.059  24.215  26.373  1.00  0.00     0.010 A 
ATOM    107  H   UNL A   1      30.155  22.370  27.394  1.00  0.00     0.166 HD
ATOM    108  C   UNL A   1      32.959  21.904  27.551  1.00  0.00     0.026 A 
ATOM    109  C   UNL A   1      34.888  23.204  26.875  1.00  0.00     0.001 A 
ATOM    110  C   UNL A   1      34.343  22.059  27.444  1.00  0.00     0.002 A 
ENDBRANCH 100 101
ENDBRANCH  88 100
ENDBRANCH  85  88
ENDBRANCH  83  84
BRANCH  83 111
ATOM    111  C   UNL A   1      30.331  29.725  21.738  1.00  0.00     0.191 C 
BRANCH 111 112
ATOM    112  O   UNL A   1      29.778  31.028  21.828  1.00  0.00    -0.394 OA
ATOM    113  H   UNL A   1      29.352  31.140  22.692  1.00  0.00     0.210 HD
ENDBRANCH 111 112
ENDBRANCH  83 111
ENDBRANCH  80  83
ENDBRANCH  78  79
ENDBRANCH  77  78
ENDBRANCH   1  77
TORSDOF 24
ENDMDL
MODEL 2
REMARK VINA RESULT:     -11.6      1.241      2.351
REMARK SMILES O=C(NCCCCCCNC(=O)[C@H](CO)NC(=O)[C@H](Cc1c[nH]c2ccccc12)NC(=O)c1ccc(F)cc1)c1ccc(-c2c3nc(c(-c4c(F)cc(S(=O)(=O)[O-])cc4F)c4ccc([nH]4)c(-c4c(F)cc(S(=O)(=O)[O-])cc4F)c4nc(c(-c5c(F)cc(S(=O)(=O)[O-])cc5F)c5ccc2[nH]5)C=C4)C=C3)cc1
REMARK SMILES IDX 7 1 6 2 5 3 4 4 3 5 1 6 2 7 40 9 41 10 105 11 42 12 104 13
REMARK SMILES IDX 43 14 44 15 45 16 98 17 46 18 103 19 97 20 99 21 47 22
REMARK SMILES IDX 102 23 96 24 95 25 48 27 82 28 61 29 81 30 62 31 65 32 80 33
REMARK SMILES IDX 100 34 63 35 64 36 79 38 101 39 66 40 49 41 50 42 59 43
REMARK SMILES IDX 51 44 52 45 58 46 60 47 53 48 54 49 55 50 56 51 57 52 83 53
REMARK SMILES IDX 84 54 93 55 85 56 86 57 92 58 94 59 87 60 88 61 89 62 90 63
REMARK SMILES IDX 91 64 67 65 68 66 77 67 69 68 70 69 76 70 78 71 71 72 72 73
REMARK SMILES IDX 73 74 74 75 75 76 8 77 9 78 10 79 11 80 12 82 13 83 16 84
REMARK SMILES IDX 17 85 18 87 19 88 30 89 31 90 32 92 33 93 34 94 39 95 35 96
REMARK SMILES IDX 38 97 36 98 37 99 20 100 21 101 22 102 29 103 23 104 24 105
REMARK SMILES IDX 28 106 25 108 27 109 26 110 14 111 15 112
REMARK H PARENT 3 8 99 26 65 37 10 81 16 86 30 91 23 107 15 113
REMARK Flexibility Score: inf
ROOT
ATOM      1  C   UNL A   1      32.357  28.952  27.360  1.00  0.00     0.002 C 
ENDROOT
BRANCH   1   2
ATOM      2  C   UNL A   1      33.386  30.078  27.225  1.00  0.00     0.002 C 
BRANCH   2   3
ATOM      3  C   UNL A   1      34.830  29.651  27.482  1.00  0.00     0.021 C 
BRANCH   3   4
ATOM      4  C   UNL A   1      35.682  30.718  28.158  1.00  0.00     0.116 C 
BRANCH   4   5
ATOM      5  N   UNL A   1      35.605  30.633  29.608  1.00  0.00    -0.352 N 
ATOM      6  O   UNL A   1      36.203  29.888  31.655  1.00  0.00    -0.269 OA
ATOM      7  C   UNL A   1      36.507  30.076  30.481  1.00  0.00     0.251 C 
ATOM      8  H   UNL A   1      34.802  31.027  30.017  1.00  0.00     0.163 HD
BRANCH   7   9
ATOM      9  C   UNL A   1      37.843  29.691  29.980  1.00  0.00     0.039 A 
ATOM     10  C   UNL A   1      38.793  29.168  30.859  1.00  0.00     0.014 A 
ATOM     11  C   UNL A   1      38.154  29.878  28.632  1.00  0.00     0.014 A 
ATOM     12  C   UNL A   1      40.095  28.964  30.423  1.00  0.00     0.010 A 
ATOM     13  C   UNL A   1      39.439  29.578  28.172  1.00  0.00     0.010 A 
ATOM     14  C   UNL A   1      40.427  29.142  29.069  1.00  0.00    -0.014 A 
BRANCH  14  15
ATOM     15  C   UNL A   1      41.793  28.786  28.611  1.00  0.00     0.031 A 
ATOM     16  C   UNL A   1      42.916  29.784  28.647  1.00  0.00     0.074 A 
ATOM     17  C   UNL A   1      42.017  27.523  28.197  1.00  0.00     0.049 A 
ATOM     18  N   UNL A   1      44.168  29.622  28.301  1.00  0.00    -0.248 NA
ATOM     19  C   UNL A   1      42.597  31.138  29.124  1.00  0.00     0.031 C 
ATOM     20  C   UNL A   1      40.998  26.472  28.125  1.00  0.00     0.029 A 
ATOM     21  N   UNL A   1      43.166  26.896  27.791  1.00  0.00    -0.354 N 
ATOM     22  C   UNL A   1      44.786  30.848  28.513  1.00  0.00     0.074 A 
ATOM     23  C   UNL A   1      43.762  31.757  28.982  1.00  0.00     0.031 C 
ATOM     24  C   UNL A   1      41.577  25.319  27.767  1.00  0.00     0.029 A 
ATOM     25  C   UNL A   1      42.992  25.562  27.510  1.00  0.00     0.049 A 
ATOM     26  H   UNL A   1      44.032  27.357  27.708  1.00  0.00     0.167 HD
ATOM     27  C   UNL A   1      46.090  31.178  28.342  1.00  0.00     0.037 A 
ATOM     28  C   UNL A   1      43.868  24.636  27.079  1.00  0.00     0.037 A 
ATOM     29  C   UNL A   1      47.098  30.258  27.873  1.00  0.00     0.049 A 
ATOM     30  C   UNL A   1      45.294  25.038  26.848  1.00  0.00     0.074 A 
ATOM     31  C   UNL A   1      48.446  30.493  27.665  1.00  0.00     0.029 A 
ATOM     32  N   UNL A   1      46.870  28.930  27.539  1.00  0.00    -0.354 N 
ATOM     33  N   UNL A   1      45.859  26.205  27.048  1.00  0.00    -0.248 NA
ATOM     34  C   UNL A   1      46.197  24.008  26.326  1.00  0.00     0.031 C 
ATOM     35  C   UNL A   1      49.023  29.322  27.164  1.00  0.00     0.029 A 
ATOM     36  C   UNL A   1      48.049  28.339  27.109  1.00  0.00     0.049 A 
ATOM     37  H   UNL A   1      46.000  28.474  27.598  1.00  0.00     0.167 HD
ATOM     38  C   UNL A   1      47.191  26.047  26.687  1.00  0.00     0.074 A 
ATOM     39  C   UNL A   1      47.348  24.665  26.273  1.00  0.00     0.031 C 
ATOM     40  C   UNL A   1      48.189  26.963  26.695  1.00  0.00     0.037 A 
BRANCH  27  41
ATOM     41  C   UNL A   1      46.506  32.590  28.654  1.00  0.00     0.058 A 
ATOM     42  C   UNL A   1      47.013  32.925  29.921  1.00  0.00     0.135 A 
ATOM     43  C   UNL A   1      46.354  33.626  27.718  1.00  0.00     0.135 A 
ATOM     44  F   UNL A   1      47.182  31.976  30.855  1.00  0.00    -0.206 F 
ATOM     45  C   UNL A   1      47.344  34.236  30.251  1.00  0.00     0.059 A 
ATOM     46  C   UNL A   1      46.705  34.941  28.019  1.00  0.00     0.059 A 
ATOM     47  F   UNL A   1      45.894  33.361  26.486  1.00  0.00    -0.206 F 
ATOM     48  C   UNL A   1      47.189  35.238  29.292  1.00  0.00     0.060 A 
BRANCH  48  49
ATOM     49  S   UNL A   1      47.672  36.925  29.719  1.00  0.00     0.124 S 
ATOM     50  O   UNL A   1      47.600  37.596  28.427  1.00  0.00    -0.237 OA
ATOM     51  O   UNL A   1      46.650  37.299  30.691  1.00  0.00    -0.237 OA
ATOM     52  O   UNL A   1      49.015  36.761  30.270  1.00  0.00    -0.744 OA
ENDBRANCH  48  49
ENDBRANCH  27  41
BRANCH  28  53
ATOM     53  C   UNL A   1      43.402  23.241  26.861  1.00  0.00     0.058 A 
ATOM     54  C   UNL A   1      43.258  22.345  27.931  1.00  0.00     0.135 A 
ATOM     55  C   UNL A   1      43.169  22.757  25.566  1.00  0.00     0.135 A 
ATOM     56  F   UNL A   1      43.484  22.756  29.189  1.00  0.00    -0.206 F 
ATOM     57  C   UNL A   1      42.942  21.008  27.724  1.00  0.00     0.059 A 
ATOM     58  C   UNL A   1      42.822  21.429  25.334  1.00  0.00     0.059 A 
ATOM     59  F   UNL A   1      43.285  23.579  24.511  1.00  0.00    -0.206 F 
ATOM     60  C   UNL A   1      42.733  20.557  26.420  1.00  0.00     0.060 A 
BRANCH  60  61
ATOM     61  S   UNL A   1      42.359  18.809  26.169  1.00  0.00     0.124 S 
ATOM     62  O   UNL A   1      43.393  18.425  25.213  1.00  0.00    -0.237 OA
ATOM     63  O   UNL A   1      42.507  18.270  27.517  1.00  0.00    -0.237 OA
ATOM     64  O   UNL A   1      40.997  18.827  25.648  1.00  0.00    -0.744 OA
ENDBRANCH  60  61
ENDBRANCH  28  53
BRANCH  40  65
ATOM     65  C   UNL A   1      49.552  26.504  26.257  1.00  0.00     0.058 A 
ATOM     66  C   UNL A   1      50.422  25.888  27.171  1.00  0.00     0.135 A 
ATOM     67  C   UNL A   1      50.019  26.726  24.952  1.00  0.00     0.135 A 
ATOM     68  F   UNL A   1      50.026  25.655  28.431  1.00  0.00    -0.206 F 
ATOM     69  C   UNL A   1      51.715  25.525  26.811  1.00  0.00     0.059 A 
ATOM     70  C   UNL A   1      51.300  26.346  24.562  1.00  0.00     0.059 A 
ATOM     71  F   UNL A   1      49.220  27.297  24.037  1.00  0.00    -0.206 F 
ATOM     72  C   UNL A   1      52.146  25.760  25.504  1.00  0.00     0.060 A 
BRANCH  72  73
ATOM     73  S   UNL A   1      53.823  25.270  25.051  1.00  0.00     0.124 S 
ATOM     74  O   UNL A   1      53.677  23.829  24.881  1.00  0.00    -0.237 OA
ATOM     75  O   UNL A   1      54.046  26.034  23.826  1.00  0.00    -0.237 OA
ATOM     76  O   UNL A   1      54.622  25.690  26.198  1.00  0.00    -0.744 OA
ENDBRANCH  72  73
ENDBRANCH  40  65
ENDBRANCH  14  15
ENDBRANCH   7   9
ENDBRANCH   4   5
ENDBRANCH   3   4
ENDBRANCH   2   3
ENDBRANCH   1   2
BRANCH   1  77
ATOM     77  C   UNL A   1      31.426  28.781  26.152  1.00  0.00     0.021 C 
BRANCH  77  78
ATOM     78  C   UNL A   1      31.191  30.075  25.372  1.00  0.00     0.116 C 
BRANCH  78  79
ATOM     79  N   UNL A   1      30.516  29.779  24.128  1.00  0.00    -0.354 N 
ATOM     80  C   UNL A   1      31.023  29.344  22.946  1.00  0.00     0.244 C 
ATOM     81  H   UNL A   1      29.541  29.913  24.139  1.00  0.00     0.163 HD
ATOM     82  O   UNL A   1      30.334  29.577  21.945  1.00  0.00    -0.273 OA
BRANCH  80  83
ATOM     83  C   UNL A   1      32.309  28.482  22.841  1.00  0.00     0.197 C 
BRANCH  83  84
ATOM     84  N   UNL A   1      32.059  27.475  21.788  1.00  0.00    -0.340 N 
ATOM     85  C   UNL A   1      32.009  26.120  21.773  1.00  0.00     0.243 C 
ATOM     86  H   UNL A   1      31.891  27.876  20.904  1.00  0.00     0.164 HD
ATOM     87  O   UNL A   1      31.794  25.624  20.659  1.00  0.00    -0.273 OA
BRANCH  85  88
ATOM     88  C   UNL A   1      32.414  25.228  22.974  1.00  0.00     0.176 C 
BRANCH  88  89
ATOM     89  N   UNL A   1      33.191  25.897  24.023  1.00  0.00    -0.340 N 
ATOM     90  C   UNL A   1      34.130  25.459  24.913  1.00  0.00     0.251 C 
ATOM     91  H   UNL A   1      32.994  26.859  24.102  1.00  0.00     0.164 HD
ATOM     92  O   UNL A   1      34.487  26.218  25.813  1.00  0.00    -0.269 OA
BRANCH  90  93
ATOM     93  C   UNL A   1      34.765  24.123  24.820  1.00  0.00     0.040 A 
ATOM     94  C   UNL A   1      35.423  23.669  23.670  1.00  0.00     0.017 A 
ATOM     95  C   UNL A   1      34.816  23.349  25.990  1.00  0.00     0.017 A 
ATOM     96  C   UNL A   1      36.075  22.434  23.673  1.00  0.00     0.040 A 
ATOM     97  C   UNL A   1      35.475  22.119  25.995  1.00  0.00     0.040 A 
ATOM     98  C   UNL A   1      36.091  21.670  24.834  1.00  0.00     0.123 A 
ATOM     99  F   UNL A   1      36.722  20.489  24.834  1.00  0.00    -0.207 F 
ENDBRANCH  90  93
ENDBRANCH  88  89
BRANCH  88 100
ATOM    100  C   UNL A   1      31.161  24.502  23.545  1.00  0.00     0.072 C 
BRANCH 100 101
ATOM    101  C   UNL A   1      31.424  23.336  24.460  1.00  0.00    -0.020 A 
ATOM    102  C   UNL A   1      31.106  23.311  25.806  1.00  0.00     0.087 A 
ATOM    103  C   UNL A   1      31.981  22.048  24.149  1.00  0.00     0.003 A 
ATOM    104  N   UNL A   1      31.365  22.060  26.291  1.00  0.00    -0.361 N 
ATOM    105  C   UNL A   1      31.852  21.255  25.291  1.00  0.00     0.046 A 
ATOM    106  C   UNL A   1      32.519  21.450  22.992  1.00  0.00     0.010 A 
ATOM    107  H   UNL A   1      31.224  21.778  27.224  1.00  0.00     0.166 HD
ATOM    108  C   UNL A   1      32.173  19.891  25.314  1.00  0.00     0.026 A 
ATOM    109  C   UNL A   1      32.827  20.084  22.990  1.00  0.00     0.001 A 
ATOM    110  C   UNL A   1      32.644  19.314  24.132  1.00  0.00     0.002 A 
ENDBRANCH 100 101
ENDBRANCH  88 100
ENDBRANCH  85  88
ENDBRANCH  83  84
BRANCH  83 111
ATOM    111  C   UNL A   1      33.647  29.155  22.521  1.00  0.00     0.191 C 
BRANCH 111 112
ATOM    112  O   UNL A   1      34.772  28.463  23.040  1.00  0.00    -0.394 OA
ATOM    113  H   UNL A   1      35.357  29.089  23.493  1.00  0.00     0.210 HD
ENDBRANCH 111 112
ENDBRANCH  83 111
ENDBRANCH  80  83
ENDBRANCH  78  79
ENDBRANCH  77  78
ENDBRANCH   1  77
TORSDOF 24
ENDMDL
MODEL 3
REMARK VINA RESULT:     -11.5      6.086      8.417
REMARK SMILES O=C(NCCCCCCNC(=O)[C@H](CO)NC(=O)[C@H](Cc1c[nH]c2ccccc12)NC(=O)c1ccc(F)cc1)c1ccc(-c2c3nc(c(-c4c(F)cc(S(=O)(=O)[O-])cc4F)c4ccc([nH]4)c(-c4c(F)cc(S(=O)(=O)[O-])cc4F)c4nc(c(-c5c(F)cc(S(=O)(=O)[O-])cc5F)c5ccc2[nH]5)C=C4)C=C3)cc1
REMARK SMILES IDX 7 1 6 2 5 3 4 4 3 5 1 6 2 7 40 9 41 10 105 11 42 12 104 13
REMARK SMILES IDX 43 14 44 15 45 16 98 17 46 18 103 19 97 20 99 21 47 22
REMARK SMILES IDX 102 23 96 24 95 25 48 27 82 28 61 29 81 30 62 31 65 32 80 33
REMARK SMILES IDX 100 34 63 35 64 36 79 38 101 39 66 40 49 41 50 42 59 43
REMARK SMILES IDX 51 44 52 45 58 46 60 47 53 48 54 49 55 50 56 51 57 52 83 53
REMARK SMILES IDX 84 54 93 55 85 56 86 57 92 58 94 59 87 60 88 61 89 62 90 63
REMARK SMILES IDX 91 64 67 65 68 66 77 67 69 68 70 69 76 70 78 71 71 72 72 73
REMARK SMILES IDX 73 74 74 75 75 76 8 77 9 78 10 79 11 80 12 82 13 83 16 84
REMARK SMILES IDX 17 85 18 87 19 88 30 89 31 90 32 92 33 93 34 94 39 95 35 96
REMARK SMILES IDX 38 97 36 98 37 99 20 100 21 101 22 102 29 103 23 104 24 105
REMARK SMILES IDX 28 106 25 108 27 109 26 110 14 111 15 112
REMARK H PARENT 3 8 99 26 65 37 10 81 16 86 30 91 23 107 15 113
REMARK Flexibility Score: inf
ROOT
ATOM      1  C   UNL A   1      35.319  33.067  28.063  1.00  0.00     0.002 C 
ENDROOT
BRANCH   1   2
ATOM      2  C   UNL A   1      34.448  33.525  29.236  1.00  0.00     0.002 C 
BRANCH   2   3
ATOM      3  C   UNL A   1      33.361  34.531  28.865  1.00  0.00     0.021 C 
BRANCH   3   4
ATOM      4  C   UNL A   1      33.491  35.875  29.569  1.00  0.00     0.116 C 
BRANCH   4   5
ATOM      5  N   UNL A   1      32.515  36.024  30.638  1.00  0.00    -0.352 N 
ATOM      6  O   UNL A   1      31.545  35.526  32.615  1.00  0.00    -0.269 OA
ATOM      7  C   UNL A   1      32.542  35.489  31.902  1.00  0.00     0.251 C 
ATOM      8  H   UNL A   1      31.732  36.582  30.426  1.00  0.00     0.163 HD
BRANCH   7   9
ATOM      9  C   UNL A   1      33.787  34.853  32.383  1.00  0.00     0.039 A 
ATOM     10  C   UNL A   1      34.990  35.561  32.346  1.00  0.00     0.014 A 
ATOM     11  C   UNL A   1      33.753  33.538  32.849  1.00  0.00     0.014 A 
ATOM     12  C   UNL A   1      36.180  34.909  32.641  1.00  0.00     0.010 A 
ATOM     13  C   UNL A   1      34.941  32.915  33.240  1.00  0.00     0.010 A 
ATOM     14  C   UNL A   1      36.167  33.586  33.116  1.00  0.00    -0.014 A 
BRANCH  14  15
ATOM     15  C   UNL A   1      37.444  32.966  33.549  1.00  0.00     0.031 A 
ATOM     16  C   UNL A   1      38.060  33.290  34.880  1.00  0.00     0.074 A 
ATOM     17  C   UNL A   1      38.022  32.062  32.733  1.00  0.00     0.049 A 
ATOM     18  N   UNL A   1      39.159  32.818  35.413  1.00  0.00    -0.248 NA
ATOM     19  C   UNL A   1      37.363  34.275  35.722  1.00  0.00     0.031 C 
ATOM     20  C   UNL A   1      37.505  31.670  31.419  1.00  0.00     0.029 A 
ATOM     21  N   UNL A   1      39.142  31.290  32.891  1.00  0.00    -0.354 N 
ATOM     22  C   UNL A   1      39.289  33.447  36.645  1.00  0.00     0.074 A 
ATOM     23  C   UNL A   1      38.177  34.364  36.766  1.00  0.00     0.031 C 
ATOM     24  C   UNL A   1      38.266  30.686  30.921  1.00  0.00     0.029 A 
ATOM     25  C   UNL A   1      39.366  30.429  31.843  1.00  0.00     0.049 A 
ATOM     26  H   UNL A   1      39.730  31.346  33.679  1.00  0.00     0.167 HD
ATOM     27  C   UNL A   1      40.244  33.263  37.589  1.00  0.00     0.037 A 
ATOM     28  C   UNL A   1      40.354  29.539  31.636  1.00  0.00     0.037 A 
ATOM     29  C   UNL A   1      41.347  32.343  37.451  1.00  0.00     0.049 A 
ATOM     30  C   UNL A   1      41.427  29.393  32.673  1.00  0.00     0.074 A 
ATOM     31  C   UNL A   1      42.367  32.084  38.350  1.00  0.00     0.029 A 
ATOM     32  N   UNL A   1      41.574  31.533  36.347  1.00  0.00    -0.354 N 
ATOM     33  N   UNL A   1      41.538  30.000  33.830  1.00  0.00    -0.248 NA
ATOM     34  C   UNL A   1      42.512  28.451  32.376  1.00  0.00     0.031 C 
ATOM     35  C   UNL A   1      43.235  31.152  37.771  1.00  0.00     0.029 A 
ATOM     36  C   UNL A   1      42.729  30.788  36.534  1.00  0.00     0.049 A 
ATOM     37  H   UNL A   1      41.001  31.493  35.548  1.00  0.00     0.167 HD
ATOM     38  C   UNL A   1      42.700  29.506  34.408  1.00  0.00     0.074 A 
ATOM     39  C   UNL A   1      43.246  28.535  33.478  1.00  0.00     0.031 C 
ATOM     40  C   UNL A   1      43.263  29.829  35.597  1.00  0.00     0.037 A 
BRANCH  27  41
ATOM     41  C   UNL A   1      40.148  34.075  38.854  1.00  0.00     0.058 A 
ATOM     42  C   UNL A   1      40.828  35.298  38.973  1.00  0.00     0.135 A 
ATOM     43  C   UNL A   1      39.427  33.618  39.969  1.00  0.00     0.135 A 
ATOM     44  F   UNL A   1      41.530  35.786  37.939  1.00  0.00    -0.206 F 
ATOM     45  C   UNL A   1      40.804  36.034  40.154  1.00  0.00     0.059 A 
ATOM     46  C   UNL A   1      39.368  34.350  41.152  1.00  0.00     0.059 A 
ATOM     47  F   UNL A   1      38.743  32.465  39.905  1.00  0.00    -0.206 F 
ATOM     48  C   UNL A   1      40.069  35.553  41.239  1.00  0.00     0.060 A 
BRANCH  48  49
ATOM     49  S   UNL A   1      40.006  36.544  42.748  1.00  0.00     0.124 S 
ATOM     50  O   UNL A   1      39.756  37.880  42.221  1.00  0.00    -0.237 OA
ATOM     51  O   UNL A   1      38.902  35.927  43.475  1.00  0.00    -0.237 OA
ATOM     52  O   UNL A   1      41.325  36.338  43.340  1.00  0.00    -0.744 OA
ENDBRANCH  48  49
ENDBRANCH  27  41
BRANCH  28  53
ATOM     53  C   UNL A   1      40.345  28.719  30.396  1.00  0.00     0.058 A 
ATOM     54  C   UNL A   1      39.568  27.555  30.298  1.00  0.00     0.135 A 
ATOM     55  C   UNL A   1      41.177  29.043  29.314  1.00  0.00     0.135 A 
ATOM     56  F   UNL A   1      38.765  27.194  31.312  1.00  0.00    -0.206 F 
ATOM     57  C   UNL A   1      39.646  26.718  29.192  1.00  0.00     0.059 A 
ATOM     58  C   UNL A   1      41.251  28.236  28.184  1.00  0.00     0.059 A 
ATOM     59  F   UNL A   1      41.932  30.152  29.358  1.00  0.00    -0.206 F 
ATOM     60  C   UNL A   1      40.498  27.063  28.142  1.00  0.00     0.060 A 
BRANCH  60  61
ATOM     61  S   UNL A   1      40.612  25.943  26.731  1.00  0.00     0.124 S 
ATOM     62  O   UNL A   1      40.996  26.861  25.662  1.00  0.00    -0.237 OA
ATOM     63  O   UNL A   1      41.643  25.008  27.168  1.00  0.00    -0.237 OA
ATOM     64  O   UNL A   1      39.266  25.389  26.629  1.00  0.00    -0.744 OA
ENDBRANCH  60  61
ENDBRANCH  28  53
BRANCH  40  65
ATOM     65  C   UNL A   1      44.532  29.118  35.976  1.00  0.00     0.058 A 
ATOM     66  C   UNL A   1      45.780  29.639  35.596  1.00  0.00     0.135 A 
ATOM     67  C   UNL A   1      44.513  27.893  36.661  1.00  0.00     0.135 A 
ATOM     68  F   UNL A   1      45.855  30.805  34.937  1.00  0.00    -0.206 F 
ATOM     69  C   UNL A   1      46.963  28.960  35.866  1.00  0.00     0.059 A 
ATOM     70  C   UNL A   1      45.686  27.210  36.966  1.00  0.00     0.059 A 
ATOM     71  F   UNL A   1      43.346  27.361  37.059  1.00  0.00    -0.206 F 
ATOM     72  C   UNL A   1      46.906  27.745  36.550  1.00  0.00     0.060 A 
BRANCH  72  73
ATOM     73  S   UNL A   1      48.452  26.884  36.904  1.00  0.00     0.124 S 
ATOM     74  O   UNL A   1      47.982  25.713  37.635  1.00  0.00    -0.237 OA
ATOM     75  O   UNL A   1      48.976  26.629  35.565  1.00  0.00    -0.237 OA
ATOM     76  O   UNL A   1      49.209  27.854  37.690  1.00  0.00    -0.744 OA
ENDBRANCH  72  73
ENDBRANCH  40  65
ENDBRANCH  14  15
ENDBRANCH   7   9
ENDBRANCH   4   5
ENDBRANCH   3   4
ENDBRANCH   2   3
ENDBRANCH   1   2
BRANCH   1  77
ATOM     77  C   UNL A   1      35.493  31.547  27.944  1.00  0.00     0.021 C 
BRANCH  77  78
ATOM     78  C   UNL A   1      34.213  30.813  27.544  1.00  0.00     0.116 C 
BRANCH  78  79
ATOM     79  N   UNL A   1      34.549  29.567  26.891  1.00  0.00    -0.354 N 
ATOM     80  C   UNL A   1      33.883  28.883  25.926  1.00  0.00     0.244 C 
ATOM     81  H   UNL A   1      35.389  29.150  27.194  1.00  0.00     0.163 HD
ATOM     82  O   UNL A   1      34.136  27.674  25.848  1.00  0.00    -0.273 OA
BRANCH  80  83
ATOM     83  C   UNL A   1      32.969  29.572  24.877  1.00  0.00     0.197 C 
BRANCH  83  84
ATOM     84  N   UNL A   1      33.519  29.232  23.548  1.00  0.00    -0.340 N 
ATOM     85  C   UNL A   1      33.496  28.118  22.776  1.00  0.00     0.243 C 
ATOM     86  H   UNL A   1      34.009  29.979  23.132  1.00  0.00     0.164 HD
ATOM     87  O   UNL A   1      34.112  28.219  21.707  1.00  0.00    -0.273 OA
BRANCH  85  88
ATOM     88  C   UNL A   1      32.958  26.746  23.255  1.00  0.00     0.176 C 
BRANCH  88  89
ATOM     89  N   UNL A   1      31.497  26.618  23.288  1.00  0.00    -0.340 N 
ATOM     90  C   UNL A   1      30.649  25.753  23.920  1.00  0.00     0.251 C 
ATOM     91  H   UNL A   1      31.032  27.294  22.742  1.00  0.00     0.164 HD
ATOM     92  O   UNL A   1      29.457  25.771  23.618  1.00  0.00    -0.269 OA
BRANCH  90  93
ATOM     93  C   UNL A   1      31.096  24.821  24.982  1.00  0.00     0.040 A 
ATOM     94  C   UNL A   1      31.956  25.201  26.020  1.00  0.00     0.017 A 
ATOM     95  C   UNL A   1      30.513  23.544  25.008  1.00  0.00     0.017 A 
ATOM     96  C   UNL A   1      32.273  24.300  27.038  1.00  0.00     0.040 A 
ATOM     97  C   UNL A   1      30.824  22.646  26.030  1.00  0.00     0.040 A 
ATOM     98  C   UNL A   1      31.707  23.030  27.031  1.00  0.00     0.123 A 
ATOM     99  F   UNL A   1      32.009  22.171  28.012  1.00  0.00    -0.207 F 
ENDBRANCH  90  93
ENDBRANCH  88  89
BRANCH  88 100
ATOM    100  C   UNL A   1      33.629  25.598  22.446  1.00  0.00     0.072 C 
BRANCH 100 101
ATOM    101  C   UNL A   1      34.065  24.392  23.236  1.00  0.00    -0.020 A 
ATOM    102  C   UNL A   1      35.039  24.411  24.217  1.00  0.00     0.087 A 
ATOM    103  C   UNL A   1      33.561  23.047  23.187  1.00  0.00     0.003 A 
ATOM    104  N   UNL A   1      35.086  23.179  24.808  1.00  0.00    -0.361 N 
ATOM    105  C   UNL A   1      34.160  22.343  24.234  1.00  0.00     0.046 A 
ATOM    106  C   UNL A   1      32.604  22.371  22.405  1.00  0.00     0.010 A 
ATOM    107  H   UNL A   1      35.696  22.928  25.539  1.00  0.00     0.166 HD
ATOM    108  C   UNL A   1      33.807  21.030  24.571  1.00  0.00     0.026 A 
ATOM    109  C   UNL A   1      32.223  21.066  22.739  1.00  0.00     0.001 A 
ATOM    110  C   UNL A   1      32.809  20.411  23.816  1.00  0.00     0.002 A 
ENDBRANCH 100 101
ENDBRANCH  88 100
ENDBRANCH  85  88
ENDBRANCH  83  84
BRANCH  83 111
ATOM    111  C   UNL A   1      31.472  29.248  24.850  1.00  0.00     0.191 C 
BRANCH 111 112
ATOM    112  O   UNL A   1      30.799  29.759  23.711  1.00  0.00    -0.394 OA
ATOM    113  H   UNL A   1      29.845  29.787  23.884  1.00  0.00     0.210 HD
ENDBRANCH 111 112
ENDBRANCH  83 111
ENDBRANCH  80  83
ENDBRANCH  78  79
ENDBRANCH  77  78
ENDBRANCH   1  77
TORSDOF 24
ENDMDL
