MODEL 1
REMARK VINA RESULT:     -12.4      0.000      0.000
REMARK SMILES Cc1ccc(C(=O)N2C[C@H](C(=O)NCCCCCCNC(=O)c3ccc(-c4c5nc(c(-c6c(F)cc(S(=O)(=O)[O-])cc6F)c6ccc([nH]6)c(-c6c(F)cc(S(=O)(=O)[O-])cc6F)c6nc(c(-c7c(F)cc(S(=O)(=O)[O-])cc7F)c7ccc4[nH]7)C=C6)C=C5)cc3)Oc3ccccc32)o1
REMARK SMILES IDX 17 1 16 2 15 3 14 4 13 5 11 6 12 7 10 9 8 10 9 11 95 12
REMARK SMILES IDX 90 13 94 14 89 15 91 16 93 17 92 18 6 19 7 20 5 21 1 22 2 23
REMARK SMILES IDX 3 24 96 25 4 26 18 27 19 28 20 29 21 30 22 32 23 33 24 34
REMARK SMILES IDX 88 35 25 36 87 37 26 38 27 39 28 40 81 41 29 42 86 43 80 44
REMARK SMILES IDX 82 45 30 46 85 47 79 48 78 49 31 51 65 52 44 53 64 54 45 55
REMARK SMILES IDX 48 56 63 57 83 58 46 59 47 60 62 62 84 63 49 64 32 65 33 66
REMARK SMILES IDX 42 67 34 68 35 69 41 70 43 71 36 72 37 73 38 74 39 75 40 76
REMARK SMILES IDX 66 77 67 78 76 79 68 80 69 81 75 82 77 83 70 84 71 85 72 86
REMARK SMILES IDX 73 87 74 88 50 89 51 90 60 91 52 92 53 93 59 94 61 95 54 96
REMARK SMILES IDX 55 97 56 98 57 99 58 100
REMARK H PARENT 13 8 20 31 82 50 48 61
REMARK Flexibility Score: inf
ROOT
ATOM      1  C   UNL A   1      32.309  27.013  25.406  1.00  0.00     0.002 C 
ENDROOT
BRANCH   1   2
ATOM      2  C   UNL A   1      31.787  27.879  24.253  1.00  0.00     0.002 C 
BRANCH   2   3
ATOM      3  C   UNL A   1      30.589  27.306  23.487  1.00  0.00     0.021 C 
BRANCH   3   4
ATOM      4  C   UNL A   1      30.736  25.841  23.078  1.00  0.00     0.116 C 
BRANCH   4   5
ATOM      5  N   UNL A   1      31.603  25.702  21.918  1.00  0.00    -0.353 N 
ATOM      6  C   UNL A   1      32.712  24.924  21.735  1.00  0.00     0.262 C 
ATOM      7  O   UNL A   1      33.294  25.001  20.649  1.00  0.00    -0.271 OA
ATOM      8  H   UNL A   1      31.352  26.254  21.143  1.00  0.00     0.163 HD
BRANCH   6   9
ATOM      9  C   UNL A   1      33.257  24.032  22.854  1.00  0.00     0.281 C 
ATOM     10  N   UNL A   1      33.068  21.796  23.877  1.00  0.00    -0.298 N 
ATOM     11  C   UNL A   1      32.543  22.685  22.838  1.00  0.00     0.181 C 
ATOM     12  C   UNL A   1      34.470  21.910  24.134  1.00  0.00     0.087 A 
ATOM     13  C   UNL A   1      35.214  22.928  23.511  1.00  0.00     0.144 A 
ATOM     14  C   UNL A   1      35.159  20.967  24.909  1.00  0.00     0.030 A 
ATOM     15  O   UNL A   1      34.673  23.909  22.719  1.00  0.00    -0.477 OA
ATOM     16  C   UNL A   1      36.606  22.979  23.637  1.00  0.00     0.049 A 
ATOM     17  C   UNL A   1      36.549  21.024  25.040  1.00  0.00     0.002 A 
ATOM     18  C   UNL A   1      37.274  22.025  24.400  1.00  0.00     0.004 A 
BRANCH  10  19
ATOM     19  C   UNL A   1      32.242  20.912  24.584  1.00  0.00     0.294 C 
ATOM     20  O   UNL A   1      31.486  21.314  25.472  1.00  0.00    -0.265 OA
BRANCH  19  21
ATOM     21  C   UNL A   1      32.355  19.495  24.259  1.00  0.00     0.192 A 
ATOM     22  C   UNL A   1      32.850  16.276  25.751  1.00  0.00     0.087 C 
ATOM     23  C   UNL A   1      32.662  17.371  24.780  1.00  0.00     0.101 A 
ATOM     24  C   UNL A   1      32.697  17.436  23.406  1.00  0.00     0.046 A 
ATOM     25  O   UNL A   1      32.437  18.606  25.301  1.00  0.00    -0.456 OA
ATOM     26  C   UNL A   1      32.512  18.800  23.071  1.00  0.00     0.056 A 
ENDBRANCH  19  21
ENDBRANCH  10  19
ENDBRANCH   6   9
ENDBRANCH   4   5
ENDBRANCH   3   4
ENDBRANCH   2   3
ENDBRANCH   1   2
BRANCH   1  27
ATOM     27  C   UNL A   1      32.396  27.702  26.772  1.00  0.00     0.021 C 
BRANCH  27  28
ATOM     28  C   UNL A   1      33.730  28.378  27.084  1.00  0.00     0.116 C 
BRANCH  28  29
ATOM     29  N   UNL A   1      33.572  29.764  27.491  1.00  0.00    -0.352 N 
ATOM     30  C   UNL A   1      34.459  30.579  28.151  1.00  0.00     0.251 C 
ATOM     31  H   UNL A   1      32.707  30.177  27.262  1.00  0.00     0.163 HD
ATOM     32  O   UNL A   1      34.101  31.687  28.541  1.00  0.00    -0.269 OA
BRANCH  30  33
ATOM     33  C   UNL A   1      35.839  30.112  28.415  1.00  0.00     0.039 A 
ATOM     34  C   UNL A   1      36.780  30.176  27.384  1.00  0.00     0.014 A 
ATOM     35  C   UNL A   1      36.200  29.608  29.668  1.00  0.00     0.014 A 
ATOM     36  C   UNL A   1      38.103  29.796  27.627  1.00  0.00     0.010 A 
ATOM     37  C   UNL A   1      37.527  29.265  29.920  1.00  0.00     0.010 A 
ATOM     38  C   UNL A   1      38.492  29.366  28.904  1.00  0.00    -0.014 A 
BRANCH  38  39
ATOM     39  C   UNL A   1      39.907  29.036  29.209  1.00  0.00     0.031 A 
ATOM     40  C   UNL A   1      40.811  30.069  29.818  1.00  0.00     0.074 A 
ATOM     41  C   UNL A   1      40.396  27.830  28.863  1.00  0.00     0.049 A 
ATOM     42  N   UNL A   1      42.098  30.008  30.043  1.00  0.00    -0.248 NA
ATOM     43  C   UNL A   1      40.190  31.344  30.207  1.00  0.00     0.031 C 
ATOM     44  C   UNL A   1      39.627  26.753  28.237  1.00  0.00     0.029 A 
ATOM     45  N   UNL A   1      41.663  27.315  28.974  1.00  0.00    -0.354 N 
ATOM     46  C   UNL A   1      42.448  31.242  30.576  1.00  0.00     0.074 A 
ATOM     47  C   UNL A   1      41.240  32.038  30.625  1.00  0.00     0.031 C 
ATOM     48  C   UNL A   1      40.438  25.702  28.022  1.00  0.00     0.029 A 
ATOM     49  C   UNL A   1      41.787  26.043  28.467  1.00  0.00     0.049 A 
ATOM     50  H   UNL A   1      42.413  27.809  29.378  1.00  0.00     0.167 HD
ATOM     51  C   UNL A   1      43.664  31.668  30.994  1.00  0.00     0.037 A 
ATOM     52  C   UNL A   1      42.867  25.246  28.361  1.00  0.00     0.037 A 
ATOM     53  C   UNL A   1      44.859  30.868  30.977  1.00  0.00     0.049 A 
ATOM     54  C   UNL A   1      44.200  25.733  28.851  1.00  0.00     0.074 A 
ATOM     55  C   UNL A   1      46.125  31.199  31.427  1.00  0.00     0.029 A 
ATOM     56  N   UNL A   1      44.935  29.573  30.487  1.00  0.00    -0.354 N 
ATOM     57  N   UNL A   1      44.506  26.893  29.378  1.00  0.00    -0.248 NA
ATOM     58  C   UNL A   1      45.333  24.805  28.730  1.00  0.00     0.031 C 
ATOM     59  C   UNL A   1      46.972  30.107  31.195  1.00  0.00     0.029 A 
ATOM     60  C   UNL A   1      46.228  29.093  30.617  1.00  0.00     0.049 A 
ATOM     61  H   UNL A   1      44.181  29.068  30.104  1.00  0.00     0.167 HD
ATOM     62  C   UNL A   1      45.865  26.833  29.662  1.00  0.00     0.074 A 
ATOM     63  C   UNL A   1      46.321  25.518  29.256  1.00  0.00     0.031 C 
ATOM     64  C   UNL A   1      46.662  27.781  30.210  1.00  0.00     0.037 A 
BRANCH  51  65
ATOM     65  C   UNL A   1      43.755  33.077  31.503  1.00  0.00     0.058 A 
ATOM     66  C   UNL A   1      43.550  33.378  32.858  1.00  0.00     0.135 A 
ATOM     67  C   UNL A   1      44.057  34.133  30.630  1.00  0.00     0.135 A 
ATOM     68  F   UNL A   1      43.243  32.404  33.728  1.00  0.00    -0.206 F 
ATOM     69  C   UNL A   1      43.611  34.687  33.326  1.00  0.00     0.059 A 
ATOM     70  C   UNL A   1      44.140  35.446  31.080  1.00  0.00     0.059 A 
ATOM     71  F   UNL A   1      44.259  33.894  29.325  1.00  0.00    -0.206 F 
ATOM     72  C   UNL A   1      43.898  35.715  32.427  1.00  0.00     0.060 A 
BRANCH  72  73
ATOM     73  S   UNL A   1      43.956  37.415  33.034  1.00  0.00     0.124 S 
ATOM     74  O   UNL A   1      43.818  38.169  31.791  1.00  0.00    -0.237 OA
ATOM     75  O   UNL A   1      42.812  37.471  33.938  1.00  0.00    -0.237 OA
ATOM     76  O   UNL A   1      45.264  37.496  33.678  1.00  0.00    -0.744 OA
ENDBRANCH  72  73
ENDBRANCH  51  65
BRANCH  52  77
ATOM     77  C   UNL A   1      42.723  23.893  27.770  1.00  0.00     0.058 A 
ATOM     78  C   UNL A   1      42.811  23.705  26.384  1.00  0.00     0.135 A 
ATOM     79  C   UNL A   1      42.527  22.764  28.578  1.00  0.00     0.135 A 
ATOM     80  F   UNL A   1      42.992  24.760  25.574  1.00  0.00    -0.206 F 
ATOM     81  C   UNL A   1      42.709  22.441  25.815  1.00  0.00     0.059 A 
ATOM     82  C   UNL A   1      42.435  21.488  28.033  1.00  0.00     0.059 A 
ATOM     83  F   UNL A   1      42.452  22.896  29.911  1.00  0.00    -0.206 F 
ATOM     84  C   UNL A   1      42.523  21.337  26.649  1.00  0.00     0.060 A 
BRANCH  84  85
ATOM     85  S   UNL A   1      42.464  19.686  25.917  1.00  0.00     0.124 S 
ATOM     86  O   UNL A   1      41.079  19.614  25.470  1.00  0.00    -0.237 OA
ATOM     87  O   UNL A   1      43.472  19.774  24.865  1.00  0.00    -0.237 OA
ATOM     88  O   UNL A   1      42.816  18.818  27.037  1.00  0.00    -0.744 OA
ENDBRANCH  84  85
ENDBRANCH  52  77
BRANCH  64  89
ATOM     89  C   UNL A   1      48.105  27.428  30.416  1.00  0.00     0.058 A 
ATOM     90  C   UNL A   1      48.544  26.827  31.604  1.00  0.00     0.135 A 
ATOM     91  C   UNL A   1      49.046  27.647  29.398  1.00  0.00     0.135 A 
ATOM     92  F   UNL A   1      47.681  26.605  32.607  1.00  0.00    -0.206 F 
ATOM     93  C   UNL A   1      49.875  26.461  31.781  1.00  0.00     0.059 A 
ATOM     94  C   UNL A   1      50.379  27.278  29.548  1.00  0.00     0.059 A 
ATOM     95  F   UNL A   1      48.671  28.217  28.242  1.00  0.00    -0.206 F 
ATOM     96  C   UNL A   1      50.785  26.691  30.748  1.00  0.00     0.060 A 
BRANCH  96  97
ATOM     97  S   UNL A   1      52.502  26.176  30.964  1.00  0.00     0.124 S 
ATOM     98  O   UNL A   1      52.963  26.109  29.582  1.00  0.00    -0.237 OA
ATOM     99  O   UNL A   1      53.061  27.260  31.767  1.00  0.00    -0.237 OA
ATOM    100  O   UNL A   1      52.384  24.894  31.652  1.00  0.00    -0.744 OA
ENDBRANCH  96  97
ENDBRANCH  64  89
ENDBRANCH  38  39
ENDBRANCH  30  33
ENDBRANCH  28  29
ENDBRANCH  27  28
ENDBRANCH   1  27
TORSDOF 18
ENDMDL
MODEL 2
REMARK VINA RESULT:     -12.1      2.508      3.378
REMARK SMILES Cc1ccc(C(=O)N2C[C@H](C(=O)NCCCCCCNC(=O)c3ccc(-c4c5nc(c(-c6c(F)cc(S(=O)(=O)[O-])cc6F)c6ccc([nH]6)c(-c6c(F)cc(S(=O)(=O)[O-])cc6F)c6nc(c(-c7c(F)cc(S(=O)(=O)[O-])cc7F)c7ccc4[nH]7)C=C6)C=C5)cc3)Oc3ccccc32)o1
REMARK SMILES IDX 17 1 16 2 15 3 14 4 13 5 11 6 12 7 10 9 8 10 9 11 95 12
REMARK SMILES IDX 90 13 94 14 89 15 91 16 93 17 92 18 6 19 7 20 5 21 1 22 2 23
REMARK SMILES IDX 3 24 96 25 4 26 18 27 19 28 20 29 21 30 22 32 23 33 24 34
REMARK SMILES IDX 88 35 25 36 87 37 26 38 27 39 28 40 81 41 29 42 86 43 80 44
REMARK SMILES IDX 82 45 30 46 85 47 79 48 78 49 31 51 65 52 44 53 64 54 45 55
REMARK SMILES IDX 48 56 63 57 83 58 46 59 47 60 62 62 84 63 49 64 32 65 33 66
REMARK SMILES IDX 42 67 34 68 35 69 41 70 43 71 36 72 37 73 38 74 39 75 40 76
REMARK SMILES IDX 66 77 67 78 76 79 68 80 69 81 75 82 77 83 70 84 71 85 72 86
REMARK SMILES IDX 73 87 74 88 50 89 51 90 60 91 52 92 53 93 59 94 61 95 54 96
REMARK SMILES IDX 55 97 56 98 57 99 58 100
REMARK H PARENT 13 8 20 31 82 50 48 61
REMARK Flexibility Score: inf
ROOT
ATOM      1  C   UNL A   1      33.267  27.973  26.377  1.00  0.00     0.002 C 
ENDROOT
BRANCH   1   2
ATOM      2  C   UNL A   1      33.760  27.316  25.081  1.00  0.00     0.002 C 
BRANCH   2   3
ATOM      3  C   UNL A   1      33.021  27.737  23.806  1.00  0.00     0.021 C 
BRANCH   3   4
ATOM      4  C   UNL A   1      31.929  26.768  23.353  1.00  0.00     0.116 C 
BRANCH   4   5
ATOM      5  N   UNL A   1      32.258  26.165  22.070  1.00  0.00    -0.353 N 
ATOM      6  C   UNL A   1      32.880  24.982  21.788  1.00  0.00     0.262 C 
ATOM      7  O   UNL A   1      33.064  24.700  20.600  1.00  0.00    -0.271 OA
ATOM      8  H   UNL A   1      31.991  26.691  21.283  1.00  0.00     0.163 HD
BRANCH   6   9
ATOM      9  C   UNL A   1      33.391  24.060  22.900  1.00  0.00     0.281 C 
ATOM     10  N   UNL A   1      33.134  21.816  23.888  1.00  0.00    -0.298 N 
ATOM     11  C   UNL A   1      32.642  22.732  22.857  1.00  0.00     0.181 C 
ATOM     12  C   UNL A   1      34.535  21.890  24.161  1.00  0.00     0.087 A 
ATOM     13  C   UNL A   1      35.312  22.897  23.561  1.00  0.00     0.144 A 
ATOM     14  C   UNL A   1      35.191  20.918  24.930  1.00  0.00     0.030 A 
ATOM     15  O   UNL A   1      34.804  23.902  22.777  1.00  0.00    -0.477 OA
ATOM     16  C   UNL A   1      36.703  22.910  23.702  1.00  0.00     0.049 A 
ATOM     17  C   UNL A   1      36.581  20.938  25.077  1.00  0.00     0.002 A 
ATOM     18  C   UNL A   1      37.338  21.929  24.458  1.00  0.00     0.004 A 
BRANCH  10  19
ATOM     19  C   UNL A   1      32.278  20.944  24.575  1.00  0.00     0.294 C 
ATOM     20  O   UNL A   1      31.517  21.354  25.454  1.00  0.00    -0.265 OA
BRANCH  19  21
ATOM     21  C   UNL A   1      32.364  19.528  24.238  1.00  0.00     0.192 A 
ATOM     22  C   UNL A   1      32.785  16.287  25.706  1.00  0.00     0.087 C 
ATOM     23  C   UNL A   1      32.625  17.393  24.742  1.00  0.00     0.101 A 
ATOM     24  C   UNL A   1      32.673  17.470  23.369  1.00  0.00     0.046 A 
ATOM     25  O   UNL A   1      32.421  18.628  25.273  1.00  0.00    -0.456 OA
ATOM     26  C   UNL A   1      32.517  18.840  23.045  1.00  0.00     0.056 A 
ENDBRANCH  19  21
ENDBRANCH  10  19
ENDBRANCH   6   9
ENDBRANCH   4   5
ENDBRANCH   3   4
ENDBRANCH   2   3
ENDBRANCH   1   2
BRANCH   1  27
ATOM     27  C   UNL A   1      33.965  29.280  26.769  1.00  0.00     0.021 C 
BRANCH  27  28
ATOM     28  C   UNL A   1      35.174  29.130  27.690  1.00  0.00     0.116 C 
BRANCH  28  29
ATOM     29  N   UNL A   1      35.218  30.150  28.725  1.00  0.00    -0.352 N 
ATOM     30  C   UNL A   1      36.276  30.546  29.504  1.00  0.00     0.251 C 
ATOM     31  H   UNL A   1      34.370  30.623  28.889  1.00  0.00     0.163 HD
ATOM     32  O   UNL A   1      36.095  31.331  30.432  1.00  0.00    -0.269 OA
BRANCH  30  33
ATOM     33  C   UNL A   1      37.630  30.007  29.245  1.00  0.00     0.039 A 
ATOM     34  C   UNL A   1      38.067  29.890  27.922  1.00  0.00     0.014 A 
ATOM     35  C   UNL A   1      38.462  29.614  30.298  1.00  0.00     0.014 A 
ATOM     36  C   UNL A   1      39.362  29.440  27.656  1.00  0.00     0.010 A 
ATOM     37  C   UNL A   1      39.767  29.201  30.033  1.00  0.00     0.010 A 
ATOM     38  C   UNL A   1      40.231  29.121  28.710  1.00  0.00    -0.014 A 
BRANCH  38  39
ATOM     39  C   UNL A   1      41.638  28.720  28.455  1.00  0.00     0.031 A 
ATOM     40  C   UNL A   1      42.729  29.751  28.447  1.00  0.00     0.074 A 
ATOM     41  C   UNL A   1      41.917  27.437  28.154  1.00  0.00     0.049 A 
ATOM     42  N   UNL A   1      43.990  29.614  28.128  1.00  0.00    -0.248 NA
ATOM     43  C   UNL A   1      42.348  31.120  28.829  1.00  0.00     0.031 C 
ATOM     44  C   UNL A   1      40.941  26.349  28.099  1.00  0.00     0.029 A 
ATOM     45  N   UNL A   1      43.105  26.838  27.820  1.00  0.00    -0.354 N 
ATOM     46  C   UNL A   1      44.550  30.879  28.245  1.00  0.00     0.074 A 
ATOM     47  C   UNL A   1      43.487  31.775  28.648  1.00  0.00     0.031 C 
ATOM     48  C   UNL A   1      41.570  25.212  27.755  1.00  0.00     0.029 A 
ATOM     49  C   UNL A   1      42.985  25.498  27.537  1.00  0.00     0.049 A 
ATOM     50  H   UNL A   1      43.963  27.321  27.785  1.00  0.00     0.167 HD
ATOM     51  C   UNL A   1      45.835  31.257  28.042  1.00  0.00     0.037 A 
ATOM     52  C   UNL A   1      43.908  24.603  27.135  1.00  0.00     0.037 A 
ATOM     53  C   UNL A   1      46.900  30.363  27.672  1.00  0.00     0.049 A 
ATOM     54  C   UNL A   1      45.331  25.043  26.938  1.00  0.00     0.074 A 
ATOM     55  C   UNL A   1      48.243  30.648  27.495  1.00  0.00     0.029 A 
ATOM     56  N   UNL A   1      46.743  29.008  27.429  1.00  0.00    -0.354 N 
ATOM     57  N   UNL A   1      45.848  26.238  27.080  1.00  0.00    -0.248 NA
ATOM     58  C   UNL A   1      46.293  24.012  26.523  1.00  0.00     0.031 C 
ATOM     59  C   UNL A   1      48.896  29.465  27.127  1.00  0.00     0.029 A 
ATOM     60  C   UNL A   1      47.963  28.443  27.095  1.00  0.00     0.049 A 
ATOM     61  H   UNL A   1      45.891  28.518  27.485  1.00  0.00     0.167 HD
ATOM     62  C   UNL A   1      47.198  26.104  26.784  1.00  0.00     0.074 A 
ATOM     63  C   UNL A   1      47.421  24.709  26.461  1.00  0.00     0.031 C 
ATOM     64  C   UNL A   1      48.166  27.052  26.779  1.00  0.00     0.037 A 
BRANCH  51  65
ATOM     65  C   UNL A   1      46.153  32.714  28.215  1.00  0.00     0.058 A 
ATOM     66  C   UNL A   1      46.047  33.616  27.145  1.00  0.00     0.135 A 
ATOM     67  C   UNL A   1      46.560  33.213  29.461  1.00  0.00     0.135 A 
ATOM     68  F   UNL A   1      45.677  33.183  25.930  1.00  0.00    -0.206 F 
ATOM     69  C   UNL A   1      46.364  34.962  27.299  1.00  0.00     0.059 A 
ATOM     70  C   UNL A   1      46.865  34.558  29.642  1.00  0.00     0.059 A 
ATOM     71  F   UNL A   1      46.678  32.388  30.513  1.00  0.00    -0.206 F 
ATOM     72  C   UNL A   1      46.781  35.420  28.549  1.00  0.00     0.060 A 
BRANCH  72  73
ATOM     73  S   UNL A   1      47.212  37.164  28.740  1.00  0.00     0.124 S 
ATOM     74  O   UNL A   1      46.074  37.814  28.097  1.00  0.00    -0.237 OA
ATOM     75  O   UNL A   1      47.292  37.317  30.190  1.00  0.00    -0.237 OA
ATOM     76  O   UNL A   1      48.484  37.274  28.032  1.00  0.00    -0.744 OA
ENDBRANCH  72  73
ENDBRANCH  51  65
BRANCH  52  77
ATOM     77  C   UNL A   1      43.509  23.194  26.901  1.00  0.00     0.058 A 
ATOM     78  C   UNL A   1      43.158  22.363  27.974  1.00  0.00     0.135 A 
ATOM     79  C   UNL A   1      43.439  22.664  25.606  1.00  0.00     0.135 A 
ATOM     80  F   UNL A   1      43.215  22.830  29.231  1.00  0.00    -0.206 F 
ATOM     81  C   UNL A   1      42.751  21.049  27.771  1.00  0.00     0.059 A 
ATOM     82  C   UNL A   1      43.023  21.356  25.377  1.00  0.00     0.059 A 
ATOM     83  F   UNL A   1      43.752  23.428  24.548  1.00  0.00    -0.206 F 
ATOM     84  C   UNL A   1      42.686  20.555  26.468  1.00  0.00     0.060 A 
BRANCH  84  85
ATOM     85  S   UNL A   1      42.087  18.871  26.198  1.00  0.00     0.124 S 
ATOM     86  O   UNL A   1      42.288  18.276  27.513  1.00  0.00    -0.237 OA
ATOM     87  O   UNL A   1      40.700  19.092  25.800  1.00  0.00    -0.237 OA
ATOM     88  O   UNL A   1      42.962  18.379  25.137  1.00  0.00    -0.744 OA
ENDBRANCH  84  85
ENDBRANCH  52  77
BRANCH  64  89
ATOM     89  C   UNL A   1      49.555  26.611  26.429  1.00  0.00     0.058 A 
ATOM     90  C   UNL A   1      50.016  26.639  25.105  1.00  0.00     0.135 A 
ATOM     91  C   UNL A   1      50.449  26.205  27.431  1.00  0.00     0.135 A 
ATOM     92  F   UNL A   1      49.193  27.013  24.112  1.00  0.00    -0.206 F 
ATOM     93  C   UNL A   1      51.318  26.269  24.783  1.00  0.00     0.059 A 
ATOM     94  C   UNL A   1      51.759  25.843  27.134  1.00  0.00     0.059 A 
ATOM     95  F   UNL A   1      50.054  26.165  28.714  1.00  0.00    -0.206 F 
ATOM     96  C   UNL A   1      52.182  25.872  25.804  1.00  0.00     0.060 A 
BRANCH  96  97
ATOM     97  S   UNL A   1      53.884  25.433  25.389  1.00  0.00     0.124 S 
ATOM     98  O   UNL A   1      54.034  26.052  24.077  1.00  0.00    -0.237 OA
ATOM     99  O   UNL A   1      54.645  26.050  26.473  1.00  0.00    -0.237 OA
ATOM    100  O   UNL A   1      53.866  23.973  25.400  1.00  0.00    -0.744 OA
ENDBRANCH  96  97
ENDBRANCH  64  89
ENDBRANCH  38  39
ENDBRANCH  30  33
ENDBRANCH  28  29
ENDBRANCH  27  28
ENDBRANCH   1  27
TORSDOF 18
ENDMDL
MODEL 3
REMARK VINA RESULT:     -11.8      3.427      8.421
REMARK SMILES Cc1ccc(C(=O)N2C[C@H](C(=O)NCCCCCCNC(=O)c3ccc(-c4c5nc(c(-c6c(F)cc(S(=O)(=O)[O-])cc6F)c6ccc([nH]6)c(-c6c(F)cc(S(=O)(=O)[O-])cc6F)c6nc(c(-c7c(F)cc(S(=O)(=O)[O-])cc7F)c7ccc4[nH]7)C=C6)C=C5)cc3)Oc3ccccc32)o1
REMARK SMILES IDX 17 1 16 2 15 3 14 4 13 5 11 6 12 7 10 9 8 10 9 11 95 12
REMARK SMILES IDX 90 13 94 14 89 15 91 16 93 17 92 18 6 19 7 20 5 21 1 22 2 23
REMARK SMILES IDX 3 24 96 25 4 26 18 27 19 28 20 29 21 30 22 32 23 33 24 34
REMARK SMILES IDX 88 35 25 36 87 37 26 38 27 39 28 40 81 41 29 42 86 43 80 44
REMARK SMILES IDX 82 45 30 46 85 47 79 48 78 49 31 51 65 52 44 53 64 54 45 55
REMARK SMILES IDX 48 56 63 57 83 58 46 59 47 60 62 62 84 63 49 64 32 65 33 66
REMARK SMILES IDX 42 67 34 68 35 69 41 70 43 71 36 72 37 73 38 74 39 75 40 76
REMARK SMILES IDX 66 77 67 78 76 79 68 80 69 81 75 82 77 83 70 84 71 85 72 86
REMARK SMILES IDX 73 87 74 88 50 89 51 90 60 91 52 92 53 93 59 94 61 95 54 96
REMARK SMILES IDX 55 97 56 98 57 99 58 100
REMARK H PARENT 13 8 20 31 82 50 48 61
REMARK Flexibility Score: inf
ROOT
ATOM      1  C   UNL A   1      36.435  21.543  25.434  1.00  0.00     0.002 C 
ENDROOT
BRANCH   1   2
ATOM      2  C   UNL A   1      35.110  20.892  25.015  1.00  0.00     0.002 C 
BRANCH   2   3
ATOM      3  C   UNL A   1      33.949  21.861  24.767  1.00  0.00     0.021 C 
BRANCH   3   4
ATOM      4  C   UNL A   1      33.830  22.989  25.792  1.00  0.00     0.116 C 
BRANCH   4   5
ATOM      5  N   UNL A   1      32.530  22.971  26.445  1.00  0.00    -0.353 N 
ATOM      6  C   UNL A   1      31.578  23.947  26.537  1.00  0.00     0.262 C 
ATOM      7  O   UNL A   1      30.551  23.689  27.173  1.00  0.00    -0.271 OA
ATOM      8  H   UNL A   1      32.300  22.124  26.891  1.00  0.00     0.163 HD
BRANCH   6   9
ATOM      9  C   UNL A   1      31.793  25.336  25.928  1.00  0.00     0.281 C 
ATOM     10  N   UNL A   1      30.837  26.983  24.362  1.00  0.00    -0.298 N 
ATOM     11  C   UNL A   1      30.677  25.646  24.936  1.00  0.00     0.181 C 
ATOM     12  C   UNL A   1      31.364  27.974  25.247  1.00  0.00     0.087 A 
ATOM     13  C   UNL A   1      31.822  27.600  26.523  1.00  0.00     0.144 A 
ATOM     14  C   UNL A   1      31.341  29.339  24.928  1.00  0.00     0.030 A 
ATOM     15  O   UNL A   1      31.890  26.305  26.972  1.00  0.00    -0.477 OA
ATOM     16  C   UNL A   1      32.214  28.564  27.456  1.00  0.00     0.049 A 
ATOM     17  C   UNL A   1      31.741  30.301  25.859  1.00  0.00     0.002 A 
ATOM     18  C   UNL A   1      32.171  29.915  27.125  1.00  0.00     0.004 A 
BRANCH  10  19
ATOM     19  C   UNL A   1      30.516  27.261  23.027  1.00  0.00     0.294 C 
ATOM     20  O   UNL A   1      31.233  26.873  22.102  1.00  0.00    -0.265 OA
BRANCH  19  21
ATOM     21  C   UNL A   1      29.326  28.069  22.785  1.00  0.00     0.192 A 
ATOM     22  C   UNL A   1      28.217  31.063  21.160  1.00  0.00     0.087 C 
ATOM     23  C   UNL A   1      28.269  29.823  21.959  1.00  0.00     0.101 A 
ATOM     24  C   UNL A   1      27.368  29.187  22.781  1.00  0.00     0.046 A 
ATOM     25  O   UNL A   1      29.447  29.145  21.941  1.00  0.00    -0.456 OA
ATOM     26  C   UNL A   1      28.048  28.068  23.321  1.00  0.00     0.056 A 
ENDBRANCH  19  21
ENDBRANCH  10  19
ENDBRANCH   6   9
ENDBRANCH   4   5
ENDBRANCH   3   4
ENDBRANCH   2   3
ENDBRANCH   1   2
BRANCH   1  27
ATOM     27  C   UNL A   1      37.707  20.812  24.991  1.00  0.00     0.021 C 
BRANCH  27  28
ATOM     28  C   UNL A   1      38.951  21.087  25.833  1.00  0.00     0.116 C 
BRANCH  28  29
ATOM     29  N   UNL A   1      39.843  19.940  25.902  1.00  0.00    -0.352 N 
ATOM     30  C   UNL A   1      41.201  19.912  26.102  1.00  0.00     0.251 C 
ATOM     31  H   UNL A   1      39.413  19.062  25.788  1.00  0.00     0.163 HD
ATOM     32  O   UNL A   1      41.816  18.855  25.989  1.00  0.00    -0.269 OA
BRANCH  30  33
ATOM     33  C   UNL A   1      41.928  21.159  26.428  1.00  0.00     0.039 A 
ATOM     34  C   UNL A   1      42.290  22.020  25.388  1.00  0.00     0.014 A 
ATOM     35  C   UNL A   1      42.258  21.475  27.750  1.00  0.00     0.014 A 
ATOM     36  C   UNL A   1      42.925  23.230  25.678  1.00  0.00     0.010 A 
ATOM     37  C   UNL A   1      42.857  22.700  28.041  1.00  0.00     0.010 A 
ATOM     38  C   UNL A   1      43.186  23.592  27.008  1.00  0.00    -0.014 A 
BRANCH  38  39
ATOM     39  C   UNL A   1      43.784  24.909  27.346  1.00  0.00     0.031 A 
ATOM     40  C   UNL A   1      42.920  26.023  27.861  1.00  0.00     0.074 A 
ATOM     41  C   UNL A   1      45.093  25.121  27.113  1.00  0.00     0.049 A 
ATOM     42  N   UNL A   1      43.235  27.270  28.095  1.00  0.00    -0.248 NA
ATOM     43  C   UNL A   1      41.510  25.696  28.130  1.00  0.00     0.031 C 
ATOM     44  C   UNL A   1      46.031  24.130  26.585  1.00  0.00     0.029 A 
ATOM     45  N   UNL A   1      45.856  26.250  27.274  1.00  0.00    -0.354 N 
ATOM     46  C   UNL A   1      42.063  27.886  28.515  1.00  0.00     0.074 A 
ATOM     47  C   UNL A   1      41.024  26.877  28.486  1.00  0.00     0.031 C 
ATOM     48  C   UNL A   1      47.246  24.693  26.469  1.00  0.00     0.029 A 
ATOM     49  C   UNL A   1      47.165  26.090  26.886  1.00  0.00     0.049 A 
ATOM     50  H   UNL A   1      45.501  27.095  27.633  1.00  0.00     0.167 HD
ATOM     51  C   UNL A   1      41.872  29.171  28.896  1.00  0.00     0.037 A 
ATOM     52  C   UNL A   1      48.182  26.972  26.856  1.00  0.00     0.037 A 
ATOM     53  C   UNL A   1      42.909  30.167  28.955  1.00  0.00     0.049 A 
ATOM     54  C   UNL A   1      47.951  28.387  27.304  1.00  0.00     0.074 A 
ATOM     55  C   UNL A   1      42.819  31.482  29.378  1.00  0.00     0.029 A 
ATOM     56  N   UNL A   1      44.229  29.955  28.586  1.00  0.00    -0.354 N 
ATOM     57  N   UNL A   1      46.842  28.943  27.724  1.00  0.00    -0.248 NA
ATOM     58  C   UNL A   1      49.109  29.292  27.272  1.00  0.00     0.031 C 
ATOM     59  C   UNL A   1      44.083  32.071  29.248  1.00  0.00     0.029 A 
ATOM     60  C   UNL A   1      44.962  31.116  28.763  1.00  0.00     0.049 A 
ATOM     61  H   UNL A   1      44.591  29.104  28.248  1.00  0.00     0.167 HD
ATOM     62  C   UNL A   1      47.167  30.262  28.017  1.00  0.00     0.074 A 
ATOM     63  C   UNL A   1      48.580  30.418  27.734  1.00  0.00     0.031 C 
ATOM     64  C   UNL A   1      46.367  31.253  28.478  1.00  0.00     0.037 A 
BRANCH  51  65
ATOM     65  C   UNL A   1      40.476  29.571  29.275  1.00  0.00     0.058 A 
ATOM     66  C   UNL A   1      40.117  29.787  30.614  1.00  0.00     0.135 A 
ATOM     67  C   UNL A   1      39.492  29.746  28.290  1.00  0.00     0.135 A 
ATOM     68  F   UNL A   1      41.019  29.617  31.592  1.00  0.00    -0.206 F 
ATOM     69  C   UNL A   1      38.817  30.135  30.967  1.00  0.00     0.059 A 
ATOM     70  C   UNL A   1      38.191  30.110  28.620  1.00  0.00     0.059 A 
ATOM     71  F   UNL A   1      39.788  29.548  26.996  1.00  0.00    -0.206 F 
ATOM     72  C   UNL A   1      37.859  30.284  29.963  1.00  0.00     0.060 A 
BRANCH  72  73
ATOM     73  S   UNL A   1      36.167  30.715  30.427  1.00  0.00     0.124 S 
ATOM     74  O   UNL A   1      35.416  30.195  29.290  1.00  0.00    -0.237 OA
ATOM     75  O   UNL A   1      35.988  29.997  31.685  1.00  0.00    -0.237 OA
ATOM     76  O   UNL A   1      36.212  32.170  30.542  1.00  0.00    -0.744 OA
ENDBRANCH  72  73
ENDBRANCH  51  65
BRANCH  52  77
ATOM     77  C   UNL A   1      49.520  26.532  26.390  1.00  0.00     0.058 A 
ATOM     78  C   UNL A   1      50.392  25.857  27.255  1.00  0.00     0.135 A 
ATOM     79  C   UNL A   1      49.937  26.747  25.070  1.00  0.00     0.135 A 
ATOM     80  F   UNL A   1      50.034  25.633  28.529  1.00  0.00    -0.206 F 
ATOM     81  C   UNL A   1      51.637  25.409  26.828  1.00  0.00     0.059 A 
ATOM     82  C   UNL A   1      51.172  26.298  24.615  1.00  0.00     0.059 A 
ATOM     83  F   UNL A   1      49.128  27.377  24.203  1.00  0.00    -0.206 F 
ATOM     84  C   UNL A   1      52.017  25.634  25.504  1.00  0.00     0.060 A 
BRANCH  84  85
ATOM     85  S   UNL A   1      53.604  24.988  24.927  1.00  0.00     0.124 S 
ATOM     86  O   UNL A   1      53.508  23.587  25.315  1.00  0.00    -0.237 OA
ATOM     87  O   UNL A   1      53.549  25.261  23.493  1.00  0.00    -0.237 OA
ATOM     88  O   UNL A   1      54.573  25.789  25.670  1.00  0.00    -0.744 OA
ENDBRANCH  84  85
ENDBRANCH  52  77
BRANCH  64  89
ATOM     89  C   UNL A   1      47.002  32.589  28.720  1.00  0.00     0.058 A 
ATOM     90  C   UNL A   1      47.050  33.565  27.714  1.00  0.00     0.135 A 
ATOM     91  C   UNL A   1      47.523  32.915  29.982  1.00  0.00     0.135 A 
ATOM     92  F   UNL A   1      46.572  33.295  26.490  1.00  0.00    -0.206 F 
ATOM     93  C   UNL A   1      47.602  34.820  27.949  1.00  0.00     0.059 A 
ATOM     94  C   UNL A   1      48.068  34.168  30.243  1.00  0.00     0.059 A 
ATOM     95  F   UNL A   1      47.496  32.014  30.977  1.00  0.00    -0.206 F 
ATOM     96  C   UNL A   1      48.109  35.112  29.216  1.00  0.00     0.060 A 
BRANCH  96  97
ATOM     97  S   UNL A   1      48.786  36.756  29.530  1.00  0.00     0.124 S 
ATOM     98  O   UNL A   1      48.761  36.809  30.988  1.00  0.00    -0.237 OA
ATOM     99  O   UNL A   1      50.112  36.677  28.922  1.00  0.00    -0.237 OA
ATOM    100  O   UNL A   1      47.846  37.642  28.850  1.00  0.00    -0.744 OA
ENDBRANCH  96  97
ENDBRANCH  64  89
ENDBRANCH  38  39
ENDBRANCH  30  33
ENDBRANCH  28  29
ENDBRANCH  27  28
ENDBRANCH   1  27
TORSDOF 18
ENDMDL
