MODEL 1
REMARK VINA RESULT:     -11.4      0.000      0.000
REMARK SMILES CC1(C)CCC[C@@H]1Nc1nc2c(cc1C(=O)NCCCCCCNC(=O)c1ccc(-c3c4nc(c(-c5c(F)cc(S(=O)(=O)[O-])cc5F)c5ccc([nH]5)c(-c5c(F)cc(S(=O)(=O)[O-])cc5F)c5nc(c(-c6c(F)cc(S(=O)(=O)[O-])cc6F)c6ccc3[nH]6)C=C5)C=C4)cc1)CCC2
REMARK SMILES IDX 21 1 20 2 19 3 18 4 17 5 15 6 16 7 14 9 9 10 10 11 11 12
REMARK SMILES IDX 13 13 12 14 95 15 93 16 94 17 8 18 7 20 1 21 2 22 3 23 4 24
REMARK SMILES IDX 5 25 6 26 22 27 23 28 24 29 25 30 26 32 27 33 28 34 92 35
REMARK SMILES IDX 29 36 91 37 30 38 31 39 32 40 85 41 33 42 90 43 84 44 86 45
REMARK SMILES IDX 34 46 89 47 83 48 82 49 35 51 69 52 48 53 68 54 49 55 52 56
REMARK SMILES IDX 67 57 87 58 50 59 51 60 66 62 88 63 53 64 36 65 37 66 46 67
REMARK SMILES IDX 38 68 39 69 45 70 47 71 40 72 41 73 42 74 43 75 44 76 70 77
REMARK SMILES IDX 71 78 80 79 72 80 73 81 79 82 81 83 74 84 75 85 76 86 77 87
REMARK SMILES IDX 78 88 54 89 55 90 64 91 56 92 57 93 63 94 65 95 58 96 59 97
REMARK SMILES IDX 60 98 61 99 62 100
REMARK H PARENT 17 8 8 19 24 31 86 50 52 61
REMARK Flexibility Score: inf
ROOT
ATOM      1  C   UNL A   1      32.968  26.577  24.669  1.00  0.00     0.002 C 
ENDROOT
BRANCH   1   2
ATOM      2  C   UNL A   1      31.758  25.807  24.109  1.00  0.00     0.002 C 
BRANCH   2   3
ATOM      3  C   UNL A   1      31.877  24.359  23.592  1.00  0.00     0.021 C 
BRANCH   3   4
ATOM      4  C   UNL A   1      30.958  23.289  24.178  1.00  0.00     0.116 C 
BRANCH   4   5
ATOM      5  N   UNL A   1      30.899  23.144  25.609  1.00  0.00    -0.352 N 
ATOM      6  C   UNL A   1      31.928  23.041  26.528  1.00  0.00     0.255 C 
ATOM      7  O   UNL A   1      31.614  23.286  27.701  1.00  0.00    -0.269 OA
ATOM      8  H   UNL A   1      29.992  23.112  25.990  1.00  0.00     0.163 HD
BRANCH   6   9
ATOM      9  C   UNL A   1      33.320  22.529  26.279  1.00  0.00     0.082 A 
ATOM     10  C   UNL A   1      33.819  21.224  26.117  1.00  0.00     0.139 A 
ATOM     11  N   UNL A   1      35.151  20.965  25.973  1.00  0.00    -0.235 NA
ATOM     12  C   UNL A   1      35.998  21.994  25.902  1.00  0.00     0.046 A 
ATOM     13  C   UNL A   1      34.271  23.587  26.178  1.00  0.00     0.023 A 
ATOM     14  C   UNL A   1      35.612  23.310  25.981  1.00  0.00    -0.025 A 
ATOM     15  C   UNL A   1      37.468  21.856  25.637  1.00  0.00     0.057 C 
ATOM     16  C   UNL A   1      36.776  24.220  25.764  1.00  0.00     0.038 C 
ATOM     17  C   UNL A   1      37.959  23.263  26.004  1.00  0.00     0.011 C 
BRANCH  10  18
ATOM     18  N   UNL A   1      33.190  20.022  26.047  1.00  0.00    -0.366 N 
ATOM     19  H   UNL A   1      33.207  19.484  26.871  1.00  0.00     0.162 HD
BRANCH  18  20
ATOM     20  C   UNL A   1      32.502  19.430  24.934  1.00  0.00     0.086 C 
ATOM     21  C   UNL A   1      32.836  17.008  25.769  1.00  0.00     0.013 C 
ATOM     22  C   UNL A   1      33.063  18.009  24.637  1.00  0.00    -0.015 C 
ATOM     23  C   UNL A   1      34.578  17.952  24.337  1.00  0.00     0.013 C 
ATOM     24  C   UNL A   1      32.270  17.715  23.356  1.00  0.00     0.008 C 
ATOM     25  C   UNL A   1      32.328  19.036  22.568  1.00  0.00     0.003 C 
ATOM     26  C   UNL A   1      32.645  20.141  23.595  1.00  0.00     0.025 C 
ENDBRANCH  18  20
ENDBRANCH  10  18
ENDBRANCH   6   9
ENDBRANCH   4   5
ENDBRANCH   3   4
ENDBRANCH   2   3
ENDBRANCH   1   2
BRANCH   1  27
ATOM     27  C   UNL A   1      32.928  27.342  26.003  1.00  0.00     0.021 C 
BRANCH  27  28
ATOM     28  C   UNL A   1      34.169  28.096  26.480  1.00  0.00     0.116 C 
BRANCH  28  29
ATOM     29  N   UNL A   1      33.830  29.424  26.961  1.00  0.00    -0.352 N 
ATOM     30  C   UNL A   1      34.519  30.229  27.837  1.00  0.00     0.251 C 
ATOM     31  H   UNL A   1      32.989  29.800  26.611  1.00  0.00     0.163 HD
ATOM     32  O   UNL A   1      33.948  31.185  28.358  1.00  0.00    -0.269 OA
BRANCH  30  33
ATOM     33  C   UNL A   1      35.945  29.969  28.159  1.00  0.00     0.039 A 
ATOM     34  C   UNL A   1      36.913  30.141  27.162  1.00  0.00     0.014 A 
ATOM     35  C   UNL A   1      36.321  29.457  29.406  1.00  0.00     0.014 A 
ATOM     36  C   UNL A   1      38.253  29.826  27.419  1.00  0.00     0.010 A 
ATOM     37  C   UNL A   1      37.665  29.164  29.669  1.00  0.00     0.010 A 
ATOM     38  C   UNL A   1      38.642  29.334  28.675  1.00  0.00    -0.014 A 
BRANCH  38  39
ATOM     39  C   UNL A   1      40.059  28.958  28.940  1.00  0.00     0.031 A 
ATOM     40  C   UNL A   1      40.995  29.943  29.591  1.00  0.00     0.074 A 
ATOM     41  C   UNL A   1      40.510  27.737  28.593  1.00  0.00     0.049 A 
ATOM     42  N   UNL A   1      42.259  29.800  29.901  1.00  0.00    -0.248 NA
ATOM     43  C   UNL A   1      40.439  31.263  29.929  1.00  0.00     0.031 C 
ATOM     44  C   UNL A   1      39.710  26.694  27.949  1.00  0.00     0.029 A 
ATOM     45  N   UNL A   1      41.752  27.164  28.732  1.00  0.00    -0.354 N 
ATOM     46  C   UNL A   1      42.645  31.001  30.485  1.00  0.00     0.074 A 
ATOM     47  C   UNL A   1      41.497  31.881  30.436  1.00  0.00     0.031 C 
ATOM     48  C   UNL A   1      40.476  25.603  27.767  1.00  0.00     0.029 A 
ATOM     49  C   UNL A   1      41.825  25.875  28.259  1.00  0.00     0.049 A 
ATOM     50  H   UNL A   1      42.518  27.634  29.135  1.00  0.00     0.167 HD
ATOM     51  C   UNL A   1      43.838  31.333  31.038  1.00  0.00     0.037 A 
ATOM     52  C   UNL A   1      42.858  25.010  28.227  1.00  0.00     0.037 A 
ATOM     53  C   UNL A   1      44.981  30.458  31.092  1.00  0.00     0.049 A 
ATOM     54  C   UNL A   1      44.191  25.421  28.798  1.00  0.00     0.074 A 
ATOM     55  C   UNL A   1      46.226  30.703  31.643  1.00  0.00     0.029 A 
ATOM     56  N   UNL A   1      45.019  29.170  30.580  1.00  0.00    -0.354 N 
ATOM     57  N   UNL A   1      44.525  26.549  29.376  1.00  0.00    -0.248 NA
ATOM     58  C   UNL A   1      45.284  24.440  28.717  1.00  0.00     0.031 C 
ATOM     59  C   UNL A   1      47.028  29.577  31.435  1.00  0.00     0.029 A 
ATOM     60  C   UNL A   1      46.270  28.614  30.791  1.00  0.00     0.049 A 
ATOM     61  H   UNL A   1      44.267  28.717  30.132  1.00  0.00     0.167 HD
ATOM     62  C   UNL A   1      45.855  26.402  29.757  1.00  0.00     0.074 A 
ATOM     63  C   UNL A   1      46.265  25.075  29.346  1.00  0.00     0.031 C 
ATOM     64  C   UNL A   1      46.661  27.285  30.393  1.00  0.00     0.037 A 
BRANCH  51  65
ATOM     65  C   UNL A   1      43.968  32.697  31.656  1.00  0.00     0.058 A 
ATOM     66  C   UNL A   1      43.690  32.907  33.016  1.00  0.00     0.135 A 
ATOM     67  C   UNL A   1      44.440  33.788  30.908  1.00  0.00     0.135 A 
ATOM     68  F   UNL A   1      43.223  31.901  33.773  1.00  0.00    -0.206 F 
ATOM     69  C   UNL A   1      43.859  34.153  33.609  1.00  0.00     0.059 A 
ATOM     70  C   UNL A   1      44.641  35.038  31.486  1.00  0.00     0.059 A 
ATOM     71  F   UNL A   1      44.723  33.640  29.604  1.00  0.00    -0.206 F 
ATOM     72  C   UNL A   1      44.339  35.213  32.837  1.00  0.00     0.060 A 
BRANCH  72  73
ATOM     73  S   UNL A   1      44.576  36.818  33.630  1.00  0.00     0.124 S 
ATOM     74  O   UNL A   1      43.768  36.667  34.837  1.00  0.00    -0.237 OA
ATOM     75  O   UNL A   1      46.023  36.849  33.839  1.00  0.00    -0.237 OA
ATOM     76  O   UNL A   1      44.067  37.763  32.647  1.00  0.00    -0.744 OA
ENDBRANCH  72  73
ENDBRANCH  51  65
BRANCH  52  77
ATOM     77  C   UNL A   1      42.670  23.645  27.664  1.00  0.00     0.058 A 
ATOM     78  C   UNL A   1      42.381  22.558  28.501  1.00  0.00     0.135 A 
ATOM     79  C   UNL A   1      42.776  23.400  26.286  1.00  0.00     0.135 A 
ATOM     80  F   UNL A   1      42.280  22.741  29.827  1.00  0.00    -0.206 F 
ATOM     81  C   UNL A   1      42.214  21.273  27.996  1.00  0.00     0.059 A 
ATOM     82  C   UNL A   1      42.592  22.128  25.755  1.00  0.00     0.059 A 
ATOM     83  F   UNL A   1      43.040  24.409  25.442  1.00  0.00    -0.206 F 
ATOM     84  C   UNL A   1      42.321  21.068  26.619  1.00  0.00     0.060 A 
BRANCH  84  85
ATOM     85  S   UNL A   1      42.060  19.402  25.972  1.00  0.00     0.124 S 
ATOM     86  O   UNL A   1      42.586  18.580  27.055  1.00  0.00    -0.237 OA
ATOM     87  O   UNL A   1      40.612  19.369  25.787  1.00  0.00    -0.237 OA
ATOM     88  O   UNL A   1      42.841  19.396  24.738  1.00  0.00    -0.744 OA
ENDBRANCH  84  85
ENDBRANCH  52  77
BRANCH  64  89
ATOM     89  C   UNL A   1      48.064  26.851  30.720  1.00  0.00     0.058 A 
ATOM     90  C   UNL A   1      49.136  27.118  29.857  1.00  0.00     0.135 A 
ATOM     91  C   UNL A   1      48.348  26.244  31.955  1.00  0.00     0.135 A 
ATOM     92  F   UNL A   1      48.916  27.691  28.664  1.00  0.00    -0.206 F 
ATOM     93  C   UNL A   1      50.444  26.796  30.204  1.00  0.00     0.059 A 
ATOM     94  C   UNL A   1      49.651  25.932  32.332  1.00  0.00     0.059 A 
ATOM     95  F   UNL A   1      47.357  25.973  32.820  1.00  0.00    -0.206 F 
ATOM     96  C   UNL A   1      50.693  26.210  31.448  1.00  0.00     0.060 A 
BRANCH  96  97
ATOM     97  S   UNL A   1      52.403  25.860  31.911  1.00  0.00     0.124 S 
ATOM     98  O   UNL A   1      52.595  26.764  33.039  1.00  0.00    -0.237 OA
ATOM     99  O   UNL A   1      52.352  24.439  32.240  1.00  0.00    -0.237 OA
ATOM    100  O   UNL A   1      53.157  26.191  30.705  1.00  0.00    -0.744 OA
ENDBRANCH  96  97
ENDBRANCH  64  89
ENDBRANCH  38  39
ENDBRANCH  30  33
ENDBRANCH  28  29
ENDBRANCH  27  28
ENDBRANCH   1  27
TORSDOF 18
ENDMDL
MODEL 2
REMARK VINA RESULT:     -11.2      3.313      9.692
REMARK SMILES CC1(C)CCC[C@@H]1Nc1nc2c(cc1C(=O)NCCCCCCNC(=O)c1ccc(-c3c4nc(c(-c5c(F)cc(S(=O)(=O)[O-])cc5F)c5ccc([nH]5)c(-c5c(F)cc(S(=O)(=O)[O-])cc5F)c5nc(c(-c6c(F)cc(S(=O)(=O)[O-])cc6F)c6ccc3[nH]6)C=C5)C=C4)cc1)CCC2
REMARK SMILES IDX 21 1 20 2 19 3 18 4 17 5 15 6 16 7 14 9 9 10 10 11 11 12
REMARK SMILES IDX 13 13 12 14 95 15 93 16 94 17 8 18 7 20 1 21 2 22 3 23 4 24
REMARK SMILES IDX 5 25 6 26 22 27 23 28 24 29 25 30 26 32 27 33 28 34 92 35
REMARK SMILES IDX 29 36 91 37 30 38 31 39 32 40 85 41 33 42 90 43 84 44 86 45
REMARK SMILES IDX 34 46 89 47 83 48 82 49 35 51 69 52 48 53 68 54 49 55 52 56
REMARK SMILES IDX 67 57 87 58 50 59 51 60 66 62 88 63 53 64 36 65 37 66 46 67
REMARK SMILES IDX 38 68 39 69 45 70 47 71 40 72 41 73 42 74 43 75 44 76 70 77
REMARK SMILES IDX 71 78 80 79 72 80 73 81 79 82 81 83 74 84 75 85 76 86 77 87
REMARK SMILES IDX 78 88 54 89 55 90 64 91 56 92 57 93 63 94 65 95 58 96 59 97
REMARK SMILES IDX 60 98 61 99 62 100
REMARK H PARENT 17 8 8 19 24 31 86 50 52 61
REMARK Flexibility Score: inf
ROOT
ATOM      1  C   UNL A   1      34.561  24.081  23.838  1.00  0.00     0.002 C 
ENDROOT
BRANCH   1   2
ATOM      2  C   UNL A   1      33.286  23.497  23.203  1.00  0.00     0.002 C 
BRANCH   2   3
ATOM      3  C   UNL A   1      31.876  23.919  23.661  1.00  0.00     0.021 C 
BRANCH   3   4
ATOM      4  C   UNL A   1      31.391  25.333  23.348  1.00  0.00     0.116 C 
BRANCH   4   5
ATOM      5  N   UNL A   1      32.149  26.127  22.416  1.00  0.00    -0.352 N 
ATOM      6  C   UNL A   1      32.938  27.240  22.643  1.00  0.00     0.255 C 
ATOM      7  O   UNL A   1      33.748  27.505  21.744  1.00  0.00    -0.269 OA
ATOM      8  H   UNL A   1      32.096  25.835  21.477  1.00  0.00     0.163 HD
BRANCH   6   9
ATOM      9  C   UNL A   1      32.815  28.225  23.773  1.00  0.00     0.082 A 
ATOM     10  C   UNL A   1      31.931  29.298  23.982  1.00  0.00     0.139 A 
ATOM     11  N   UNL A   1      32.037  30.132  25.058  1.00  0.00    -0.235 NA
ATOM     12  C   UNL A   1      32.962  29.867  25.983  1.00  0.00     0.046 A 
ATOM     13  C   UNL A   1      33.771  27.982  24.803  1.00  0.00     0.023 A 
ATOM     14  C   UNL A   1      33.833  28.807  25.913  1.00  0.00    -0.025 A 
ATOM     15  C   UNL A   1      33.116  30.634  27.262  1.00  0.00     0.057 C 
ATOM     16  C   UNL A   1      34.670  28.724  27.146  1.00  0.00     0.038 C 
ATOM     17  C   UNL A   1      34.488  30.136  27.733  1.00  0.00     0.011 C 
BRANCH  10  18
ATOM     18  N   UNL A   1      30.854  29.730  23.274  1.00  0.00    -0.366 N 
ATOM     19  H   UNL A   1      30.971  29.754  22.297  1.00  0.00     0.162 HD
BRANCH  18  20
ATOM     20  C   UNL A   1      29.571  30.154  23.757  1.00  0.00     0.086 C 
ATOM     21  C   UNL A   1      28.351  28.024  22.953  1.00  0.00     0.013 C 
ATOM     22  C   UNL A   1      28.432  29.548  22.888  1.00  0.00    -0.015 C 
ATOM     23  C   UNL A   1      28.503  29.892  21.383  1.00  0.00     0.013 C 
ATOM     24  C   UNL A   1      27.243  30.278  23.530  1.00  0.00     0.008 C 
ATOM     25  C   UNL A   1      27.747  31.721  23.716  1.00  0.00     0.003 C 
ATOM     26  C   UNL A   1      29.286  31.650  23.700  1.00  0.00     0.025 C 
ENDBRANCH  18  20
ENDBRANCH  10  18
ENDBRANCH   6   9
ENDBRANCH   4   5
ENDBRANCH   3   4
ENDBRANCH   2   3
ENDBRANCH   1   2
BRANCH   1  27
ATOM     27  C   UNL A   1      35.762  23.212  24.253  1.00  0.00     0.021 C 
BRANCH  27  28
ATOM     28  C   UNL A   1      36.925  23.846  25.016  1.00  0.00     0.116 C 
BRANCH  28  29
ATOM     29  N   UNL A   1      37.929  22.856  25.366  1.00  0.00    -0.352 N 
ATOM     30  C   UNL A   1      39.123  23.032  26.026  1.00  0.00     0.251 C 
ATOM     31  H   UNL A   1      37.728  21.932  25.093  1.00  0.00     0.163 HD
ATOM     32  O   UNL A   1      39.977  22.149  25.977  1.00  0.00    -0.269 OA
BRANCH  30  33
ATOM     33  C   UNL A   1      39.396  24.266  26.805  1.00  0.00     0.039 A 
ATOM     34  C   UNL A   1      40.213  25.258  26.249  1.00  0.00     0.014 A 
ATOM     35  C   UNL A   1      38.935  24.406  28.120  1.00  0.00     0.014 A 
ATOM     36  C   UNL A   1      40.548  26.394  26.997  1.00  0.00     0.010 A 
ATOM     37  C   UNL A   1      39.253  25.553  28.856  1.00  0.00     0.010 A 
ATOM     38  C   UNL A   1      40.071  26.553  28.308  1.00  0.00    -0.014 A 
BRANCH  38  39
ATOM     39  C   UNL A   1      40.459  27.739  29.121  1.00  0.00     0.031 A 
ATOM     40  C   UNL A   1      41.793  27.775  29.819  1.00  0.00     0.074 A 
ATOM     41  C   UNL A   1      39.615  28.783  29.239  1.00  0.00     0.049 A 
ATOM     42  N   UNL A   1      42.308  28.716  30.570  1.00  0.00    -0.248 NA
ATOM     43  C   UNL A   1      42.657  26.595  29.660  1.00  0.00     0.031 C 
ATOM     44  C   UNL A   1      38.291  28.872  28.621  1.00  0.00     0.029 A 
ATOM     45  N   UNL A   1      39.744  29.970  29.919  1.00  0.00    -0.354 N 
ATOM     46  C   UNL A   1      43.559  28.251  30.958  1.00  0.00     0.074 A 
ATOM     47  C   UNL A   1      43.704  26.922  30.405  1.00  0.00     0.031 C 
ATOM     48  C   UNL A   1      37.738  30.057  28.935  1.00  0.00     0.029 A 
ATOM     49  C   UNL A   1      38.656  30.803  29.793  1.00  0.00     0.049 A 
ATOM     50  H   UNL A   1      40.541  30.204  30.447  1.00  0.00     0.167 HD
ATOM     51  C   UNL A   1      44.514  28.884  31.683  1.00  0.00     0.037 A 
ATOM     52  C   UNL A   1      38.425  32.028  30.307  1.00  0.00     0.037 A 
ATOM     53  C   UNL A   1      44.374  30.209  32.231  1.00  0.00     0.049 A 
ATOM     54  C   UNL A   1      39.479  32.689  31.157  1.00  0.00     0.074 A 
ATOM     55  C   UNL A   1      45.292  30.935  32.969  1.00  0.00     0.029 A 
ATOM     56  N   UNL A   1      43.247  31.007  32.100  1.00  0.00    -0.354 N 
ATOM     57  N   UNL A   1      40.669  32.246  31.484  1.00  0.00    -0.248 NA
ATOM     58  C   UNL A   1      39.161  34.016  31.705  1.00  0.00     0.031 C 
ATOM     59  C   UNL A   1      44.709  32.159  33.313  1.00  0.00     0.029 A 
ATOM     60  C   UNL A   1      43.443  32.212  32.754  1.00  0.00     0.049 A 
ATOM     61  H   UNL A   1      42.429  30.754  31.614  1.00  0.00     0.167 HD
ATOM     62  C   UNL A   1      41.254  33.253  32.246  1.00  0.00     0.074 A 
ATOM     63  C   UNL A   1      40.288  34.329  32.331  1.00  0.00     0.031 C 
ATOM     64  C   UNL A   1      42.481  33.284  32.818  1.00  0.00     0.037 A 
BRANCH  51  65
ATOM     65  C   UNL A   1      45.812  28.163  31.912  1.00  0.00     0.058 A 
ATOM     66  C   UNL A   1      45.997  27.340  33.035  1.00  0.00     0.135 A 
ATOM     67  C   UNL A   1      46.855  28.234  30.974  1.00  0.00     0.135 A 
ATOM     68  F   UNL A   1      45.036  27.247  33.968  1.00  0.00    -0.206 F 
ATOM     69  C   UNL A   1      47.174  26.626  33.228  1.00  0.00     0.059 A 
ATOM     70  C   UNL A   1      48.032  27.509  31.134  1.00  0.00     0.059 A 
ATOM     71  F   UNL A   1      46.729  29.005  29.882  1.00  0.00    -0.206 F 
ATOM     72  C   UNL A   1      48.186  26.713  32.270  1.00  0.00     0.060 A 
BRANCH  72  73
ATOM     73  S   UNL A   1      49.697  25.760  32.525  1.00  0.00     0.124 S 
ATOM     74  O   UNL A   1      50.488  26.681  33.337  1.00  0.00    -0.237 OA
ATOM     75  O   UNL A   1      49.201  24.573  33.219  1.00  0.00    -0.237 OA
ATOM     76  O   UNL A   1      50.190  25.533  31.174  1.00  0.00    -0.744 OA
ENDBRANCH  72  73
ENDBRANCH  51  65
BRANCH  52  77
ATOM     77  C   UNL A   1      37.151  32.735  30.004  1.00  0.00     0.058 A 
ATOM     78  C   UNL A   1      35.988  32.462  30.737  1.00  0.00     0.135 A 
ATOM     79  C   UNL A   1      37.071  33.693  28.981  1.00  0.00     0.135 A 
ATOM     80  F   UNL A   1      36.013  31.547  31.718  1.00  0.00    -0.206 F 
ATOM     81  C   UNL A   1      34.785  33.103  30.461  1.00  0.00     0.059 A 
ATOM     82  C   UNL A   1      35.884  34.362  28.700  1.00  0.00     0.059 A 
ATOM     83  F   UNL A   1      38.160  33.998  28.258  1.00  0.00    -0.206 F 
ATOM     84  C   UNL A   1      34.743  34.054  29.440  1.00  0.00     0.060 A 
BRANCH  84  85
ATOM     85  S   UNL A   1      33.186  34.910  29.120  1.00  0.00     0.124 S 
ATOM     86  O   UNL A   1      33.655  36.185  28.591  1.00  0.00    -0.237 OA
ATOM     87  O   UNL A   1      32.537  34.019  28.162  1.00  0.00    -0.237 OA
ATOM     88  O   UNL A   1      32.557  34.966  30.436  1.00  0.00    -0.744 OA
ENDBRANCH  84  85
ENDBRANCH  52  77
BRANCH  64  89
ATOM     89  C   UNL A   1      42.879  34.526  33.566  1.00  0.00     0.058 A 
ATOM     90  C   UNL A   1      42.706  34.636  34.953  1.00  0.00     0.135 A 
ATOM     91  C   UNL A   1      43.526  35.580  32.898  1.00  0.00     0.135 A 
ATOM     92  F   UNL A   1      42.089  33.659  35.637  1.00  0.00    -0.206 F 
ATOM     93  C   UNL A   1      43.158  35.749  35.655  1.00  0.00     0.059 A 
ATOM     94  C   UNL A   1      44.005  36.693  33.583  1.00  0.00     0.059 A 
ATOM     95  F   UNL A   1      43.723  35.520  31.572  1.00  0.00    -0.206 F 
ATOM     96  C   UNL A   1      43.814  36.769  34.962  1.00  0.00     0.060 A 
BRANCH  96  97
ATOM     97  S   UNL A   1      44.454  38.175  35.897  1.00  0.00     0.124 S 
ATOM     98  O   UNL A   1      45.890  37.924  35.863  1.00  0.00    -0.237 OA
ATOM     99  O   UNL A   1      43.991  39.312  35.107  1.00  0.00    -0.237 OA
ATOM    100  O   UNL A   1      43.821  38.031  37.205  1.00  0.00    -0.744 OA
ENDBRANCH  96  97
ENDBRANCH  64  89
ENDBRANCH  38  39
ENDBRANCH  30  33
ENDBRANCH  28  29
ENDBRANCH  27  28
ENDBRANCH   1  27
TORSDOF 18
ENDMDL
MODEL 3
REMARK VINA RESULT:     -11.1      0.945      2.950
REMARK SMILES CC1(C)CCC[C@@H]1Nc1nc2c(cc1C(=O)NCCCCCCNC(=O)c1ccc(-c3c4nc(c(-c5c(F)cc(S(=O)(=O)[O-])cc5F)c5ccc([nH]5)c(-c5c(F)cc(S(=O)(=O)[O-])cc5F)c5nc(c(-c6c(F)cc(S(=O)(=O)[O-])cc6F)c6ccc3[nH]6)C=C5)C=C4)cc1)CCC2
REMARK SMILES IDX 21 1 20 2 19 3 18 4 17 5 15 6 16 7 14 9 9 10 10 11 11 12
REMARK SMILES IDX 13 13 12 14 95 15 93 16 94 17 8 18 7 20 1 21 2 22 3 23 4 24
REMARK SMILES IDX 5 25 6 26 22 27 23 28 24 29 25 30 26 32 27 33 28 34 92 35
REMARK SMILES IDX 29 36 91 37 30 38 31 39 32 40 85 41 33 42 90 43 84 44 86 45
REMARK SMILES IDX 34 46 89 47 83 48 82 49 35 51 69 52 48 53 68 54 49 55 52 56
REMARK SMILES IDX 67 57 87 58 50 59 51 60 66 62 88 63 53 64 36 65 37 66 46 67
REMARK SMILES IDX 38 68 39 69 45 70 47 71 40 72 41 73 42 74 43 75 44 76 70 77
REMARK SMILES IDX 71 78 80 79 72 80 73 81 79 82 81 83 74 84 75 85 76 86 77 87
REMARK SMILES IDX 78 88 54 89 55 90 64 91 56 92 57 93 63 94 65 95 58 96 59 97
REMARK SMILES IDX 60 98 61 99 62 100
REMARK H PARENT 17 8 8 19 24 31 86 50 52 61
REMARK Flexibility Score: inf
ROOT
ATOM      1  C   UNL A   1      31.694  26.780  26.706  1.00  0.00     0.002 C 
ENDROOT
BRANCH   1   2
ATOM      2  C   UNL A   1      32.044  25.319  26.369  1.00  0.00     0.002 C 
BRANCH   2   3
ATOM      3  C   UNL A   1      30.998  24.188  26.445  1.00  0.00     0.021 C 
BRANCH   3   4
ATOM      4  C   UNL A   1      30.649  23.419  25.172  1.00  0.00     0.116 C 
BRANCH   4   5
ATOM      5  N   UNL A   1      31.466  23.619  24.004  1.00  0.00    -0.352 N 
ATOM      6  C   UNL A   1      32.224  22.708  23.292  1.00  0.00     0.255 C 
ATOM      7  O   UNL A   1      32.531  23.059  22.145  1.00  0.00    -0.269 OA
ATOM      8  H   UNL A   1      31.490  24.542  23.662  1.00  0.00     0.163 HD
BRANCH   6   9
ATOM      9  C   UNL A   1      32.827  21.429  23.806  1.00  0.00     0.082 A 
ATOM     10  C   UNL A   1      33.719  21.178  24.863  1.00  0.00     0.139 A 
ATOM     11  N   UNL A   1      34.210  19.931  25.122  1.00  0.00    -0.235 NA
ATOM     12  C   UNL A   1      33.764  18.905  24.396  1.00  0.00     0.046 A 
ATOM     13  C   UNL A   1      32.373  20.291  23.077  1.00  0.00     0.023 A 
ATOM     14  C   UNL A   1      32.842  19.026  23.384  1.00  0.00    -0.025 A 
ATOM     15  C   UNL A   1      34.137  17.474  24.644  1.00  0.00     0.057 C 
ATOM     16  C   UNL A   1      32.473  17.687  22.837  1.00  0.00     0.038 C 
ATOM     17  C   UNL A   1      33.635  16.817  23.351  1.00  0.00     0.011 C 
BRANCH  10  18
ATOM     18  N   UNL A   1      34.250  21.998  25.808  1.00  0.00    -0.366 N 
ATOM     19  H   UNL A   1      33.607  22.382  26.447  1.00  0.00     0.162 HD
BRANCH  18  20
ATOM     20  C   UNL A   1      35.621  22.377  26.001  1.00  0.00     0.086 C 
ATOM     21  C   UNL A   1      35.233  24.841  25.325  1.00  0.00     0.013 C 
ATOM     22  C   UNL A   1      36.002  23.550  25.051  1.00  0.00    -0.015 C 
ATOM     23  C   UNL A   1      35.802  23.264  23.545  1.00  0.00     0.013 C 
ATOM     24  C   UNL A   1      37.503  23.621  25.369  1.00  0.00     0.008 C 
ATOM     25  C   UNL A   1      37.944  22.147  25.424  1.00  0.00     0.003 C 
ATOM     26  C   UNL A   1      36.669  21.320  25.677  1.00  0.00     0.025 C 
ENDBRANCH  18  20
ENDBRANCH  10  18
ENDBRANCH   6   9
ENDBRANCH   4   5
ENDBRANCH   3   4
ENDBRANCH   2   3
ENDBRANCH   1   2
BRANCH   1  27
ATOM     27  C   UNL A   1      32.531  27.975  26.217  1.00  0.00     0.021 C 
BRANCH  27  28
ATOM     28  C   UNL A   1      33.795  28.374  26.979  1.00  0.00     0.116 C 
BRANCH  28  29
ATOM     29  N   UNL A   1      33.717  29.747  27.449  1.00  0.00    -0.352 N 
ATOM     30  C   UNL A   1      34.620  30.452  28.210  1.00  0.00     0.251 C 
ATOM     31  H   UNL A   1      32.906  30.240  27.187  1.00  0.00     0.163 HD
ATOM     32  O   UNL A   1      34.264  31.493  28.760  1.00  0.00    -0.269 OA
BRANCH  30  33
ATOM     33  C   UNL A   1      36.019  29.984  28.372  1.00  0.00     0.039 A 
ATOM     34  C   UNL A   1      36.432  29.484  29.613  1.00  0.00     0.014 A 
ATOM     35  C   UNL A   1      36.953  30.131  27.340  1.00  0.00     0.014 A 
ATOM     36  C   UNL A   1      37.768  29.111  29.812  1.00  0.00     0.010 A 
ATOM     37  C   UNL A   1      38.282  29.736  27.534  1.00  0.00     0.010 A 
ATOM     38  C   UNL A   1      38.706  29.232  28.774  1.00  0.00    -0.014 A 
BRANCH  38  39
ATOM     39  C   UNL A   1      40.135  28.876  28.995  1.00  0.00     0.031 A 
ATOM     40  C   UNL A   1      41.079  29.878  29.607  1.00  0.00     0.074 A 
ATOM     41  C   UNL A   1      40.590  27.658  28.641  1.00  0.00     0.049 A 
ATOM     42  N   UNL A   1      42.354  29.754  29.876  1.00  0.00    -0.248 NA
ATOM     43  C   UNL A   1      40.518  31.193  29.953  1.00  0.00     0.031 C 
ATOM     44  C   UNL A   1      39.783  26.600  28.032  1.00  0.00     0.029 A 
ATOM     45  N   UNL A   1      41.843  27.103  28.743  1.00  0.00    -0.354 N 
ATOM     46  C   UNL A   1      42.745  30.964  30.438  1.00  0.00     0.074 A 
ATOM     47  C   UNL A   1      41.584  31.829  30.420  1.00  0.00     0.031 C 
ATOM     48  C   UNL A   1      40.557  25.518  27.832  1.00  0.00     0.029 A 
ATOM     49  C   UNL A   1      41.917  25.811  28.276  1.00  0.00     0.049 A 
ATOM     50  H   UNL A   1      42.617  27.585  29.116  1.00  0.00     0.167 HD
ATOM     51  C   UNL A   1      43.950  31.315  30.949  1.00  0.00     0.037 A 
ATOM     52  C   UNL A   1      42.961  24.959  28.216  1.00  0.00     0.037 A 
ATOM     53  C   UNL A   1      45.106  30.455  30.970  1.00  0.00     0.049 A 
ATOM     54  C   UNL A   1      44.306  25.391  28.740  1.00  0.00     0.074 A 
ATOM     55  C   UNL A   1      46.365  30.721  31.478  1.00  0.00     0.029 A 
ATOM     56  N   UNL A   1      45.144  29.164  30.466  1.00  0.00    -0.354 N 
ATOM     57  N   UNL A   1      44.645  26.528  29.298  1.00  0.00    -0.248 NA
ATOM     58  C   UNL A   1      45.408  24.425  28.629  1.00  0.00     0.031 C 
ATOM     59  C   UNL A   1      47.175  29.604  31.251  1.00  0.00     0.029 A 
ATOM     60  C   UNL A   1      46.408  28.626  30.639  1.00  0.00     0.049 A 
ATOM     61  H   UNL A   1      44.384  28.698  30.047  1.00  0.00     0.167 HD
ATOM     62  C   UNL A   1      45.988  26.401  29.635  1.00  0.00     0.074 A 
ATOM     63  C   UNL A   1      46.402  25.076  29.221  1.00  0.00     0.031 C 
ATOM     64  C   UNL A   1      46.804  27.299  30.238  1.00  0.00     0.037 A 
BRANCH  51  65
ATOM     65  C   UNL A   1      44.083  32.686  31.552  1.00  0.00     0.058 A 
ATOM     66  C   UNL A   1      44.378  33.803  30.754  1.00  0.00     0.135 A 
ATOM     67  C   UNL A   1      43.846  32.901  32.919  1.00  0.00     0.135 A 
ATOM     68  F   UNL A   1      44.626  33.651  29.443  1.00  0.00    -0.206 F 
ATOM     69  C   UNL A   1      44.449  35.083  31.293  1.00  0.00     0.059 A 
ATOM     70  C   UNL A   1      43.888  34.176  33.475  1.00  0.00     0.059 A 
ATOM     71  F   UNL A   1      43.558  31.867  33.725  1.00  0.00    -0.206 F 
ATOM     72  C   UNL A   1      44.199  35.261  32.655  1.00  0.00     0.060 A 
BRANCH  72  73
ATOM     73  S   UNL A   1      44.272  36.933  33.333  1.00  0.00     0.124 S 
ATOM     74  O   UNL A   1      44.753  37.691  32.181  1.00  0.00    -0.237 OA
ATOM     75  O   UNL A   1      42.881  37.174  33.711  1.00  0.00    -0.237 OA
ATOM     76  O   UNL A   1      45.208  36.812  34.440  1.00  0.00    -0.744 OA
ENDBRANCH  72  73
ENDBRANCH  51  65
BRANCH  52  77
ATOM     77  C   UNL A   1      42.772  23.588  27.670  1.00  0.00     0.058 A 
ATOM     78  C   UNL A   1      42.911  23.337  26.297  1.00  0.00     0.135 A 
ATOM     79  C   UNL A   1      42.450  22.505  28.503  1.00  0.00     0.135 A 
ATOM     80  F   UNL A   1      43.208  24.343  25.460  1.00  0.00    -0.206 F 
ATOM     81  C   UNL A   1      42.726  22.066  25.765  1.00  0.00     0.059 A 
ATOM     82  C   UNL A   1      42.281  21.220  27.998  1.00  0.00     0.059 A 
ATOM     83  F   UNL A   1      42.317  22.690  29.826  1.00  0.00    -0.206 F 
ATOM     84  C   UNL A   1      42.412  21.012  26.625  1.00  0.00     0.060 A 
BRANCH  84  85
ATOM     85  S   UNL A   1      42.217  19.357  25.928  1.00  0.00     0.124 S 
ATOM     86  O   UNL A   1      42.748  18.523  26.999  1.00  0.00    -0.237 OA
ATOM     87  O   UNL A   1      40.775  19.283  25.713  1.00  0.00    -0.237 OA
ATOM     88  O   UNL A   1      43.022  19.410  24.711  1.00  0.00    -0.744 OA
ENDBRANCH  84  85
ENDBRANCH  52  77
BRANCH  64  89
ATOM     89  C   UNL A   1      48.221  26.885  30.521  1.00  0.00     0.058 A 
ATOM     90  C   UNL A   1      49.264  27.179  29.632  1.00  0.00     0.135 A 
ATOM     91  C   UNL A   1      48.551  26.270  31.741  1.00  0.00     0.135 A 
ATOM     92  F   UNL A   1      49.002  27.761  28.451  1.00  0.00    -0.206 F 
ATOM     93  C   UNL A   1      50.587  26.876  29.939  1.00  0.00     0.059 A 
ATOM     94  C   UNL A   1      49.868  25.977  32.078  1.00  0.00     0.059 A 
ATOM     95  F   UNL A   1      47.589  25.975  32.630  1.00  0.00    -0.206 F 
ATOM     96  C   UNL A   1      50.880  26.282  31.169  1.00  0.00     0.060 A 
BRANCH  96  97
ATOM     97  S   UNL A   1      52.608  25.956  31.580  1.00  0.00     0.124 S 
ATOM     98  O   UNL A   1      52.538  24.592  32.091  1.00  0.00    -0.237 OA
ATOM     99  O   UNL A   1      53.271  26.115  30.289  1.00  0.00    -0.237 OA
ATOM    100  O   UNL A   1      52.923  26.983  32.569  1.00  0.00    -0.744 OA
ENDBRANCH  96  97
ENDBRANCH  64  89
ENDBRANCH  38  39
ENDBRANCH  30  33
ENDBRANCH  28  29
ENDBRANCH  27  28
ENDBRANCH   1  27
TORSDOF 18
ENDMDL
