MODEL 1
REMARK VINA RESULT:     -11.4      0.000      0.000
REMARK SMILES O=C(CCN1C(=O)/C(=C/c2cc(Br)cc(Br)c2O)SC1=S)NCCCCCCNC(=O)c1ccc(-c2c3nc(c(-c4c(F)cc(S(=O)(=O)[O-])cc4F)c4ccc([nH]4)c(-c4c(F)cc(S(=O)(=O)[O-])cc4F)c4nc(c(-c5c(F)cc(S(=O)(=O)[O-])cc5F)c5ccc2[nH]5)C=C4)C=C3)cc1
REMARK SMILES IDX 25 1 24 2 23 3 22 4 1 5 2 6 3 8 4 9 5 10 6 11 20 12 7 13
REMARK SMILES IDX 8 14 19 15 21 16 9 17 10 18 11 19 17 20 12 21 15 22 13 23
REMARK SMILES IDX 14 24 16 25 18 26 26 28 27 29 28 30 29 31 30 32 31 34 32 35
REMARK SMILES IDX 33 36 97 37 34 38 96 39 35 40 36 41 37 42 90 43 38 44 95 45
REMARK SMILES IDX 89 46 91 47 39 48 94 49 88 50 87 51 40 53 74 54 53 55 73 56
REMARK SMILES IDX 54 57 57 58 72 59 92 60 55 61 56 62 71 64 93 65 58 66 41 67
REMARK SMILES IDX 42 68 51 69 43 70 44 71 50 72 52 73 45 74 46 75 47 76 48 77
REMARK SMILES IDX 49 78 75 79 76 80 85 81 77 82 78 83 84 84 86 85 79 86 80 87
REMARK SMILES IDX 81 88 82 89 83 90 59 91 60 92 69 93 61 94 62 95 68 96 70 97
REMARK SMILES IDX 63 98 64 99 65 100 66 101 67 102
REMARK H PARENT 22 7 18 27 29 33 91 52 57 63
REMARK Flexibility Score: inf
ROOT
ATOM      1  C   UNL A   1      39.993  22.049  26.809  1.00  0.00     0.002 C 
ENDROOT
BRANCH   1   2
ATOM      2  C   UNL A   1      39.188  23.336  27.038  1.00  0.00     0.021 C 
BRANCH   2   3
ATOM      3  C   UNL A   1      38.048  23.577  26.043  1.00  0.00     0.116 C 
BRANCH   3   4
ATOM      4  N   UNL A   1      37.090  22.485  26.052  1.00  0.00    -0.356 N 
ATOM      5  O   UNL A   1      37.371  21.878  23.866  1.00  0.00    -0.275 OA
ATOM      6  C   UNL A   1      36.792  21.741  24.939  1.00  0.00     0.221 C 
ATOM      7  H   UNL A   1      36.633  22.269  26.898  1.00  0.00     0.163 HD
BRANCH   6   8
ATOM      8  C   UNL A   1      35.589  20.826  25.059  1.00  0.00     0.122 C 
BRANCH   8   9
ATOM      9  C   UNL A   1      34.252  21.325  24.507  1.00  0.00     0.137 C 
BRANCH   9  10
ATOM     10  N   UNL A   1      33.743  22.633  24.953  1.00  0.00    -0.292 N 
ATOM     11  C   UNL A   1      33.928  23.721  24.108  1.00  0.00     0.266 C 
ATOM     12  C   UNL A   1      33.297  22.956  26.218  1.00  0.00     0.148 C 
ATOM     13  O   UNL A   1      34.535  23.718  23.042  1.00  0.00    -0.268 OA
ATOM     14  C   UNL A   1      33.292  24.943  24.671  1.00  0.00     0.081 C 
ATOM     15  S   UNL A   1      32.597  24.566  26.191  1.00  0.00    -0.054 SA
ATOM     16  S   UNL A   1      33.342  22.059  27.619  1.00  0.00    -0.052 S 
ATOM     17  C   UNL A   1      33.266  26.102  23.991  1.00  0.00     0.033 C 
BRANCH  17  18
ATOM     18  C   UNL A   1      32.450  27.299  24.296  1.00  0.00     0.020 A 
ATOM     19  C   UNL A   1      31.321  27.623  23.525  1.00  0.00     0.027 A 
ATOM     20  C   UNL A   1      32.814  28.182  25.335  1.00  0.00     0.137 A 
ATOM     21  C   UNL A   1      30.663  28.843  23.696  1.00  0.00     0.019 A 
ATOM     22  C   UNL A   1      32.124  29.391  25.517  1.00  0.00     0.061 A 
ATOM     23  Br  UNL A   1      29.233  29.298  22.545  1.00  0.00    -0.051 Br
ATOM     24  C   UNL A   1      31.067  29.737  24.678  1.00  0.00     0.035 A 
ATOM     25  Br  UNL A   1      32.615  30.618  26.881  1.00  0.00    -0.047 Br
BRANCH  20  26
ATOM     26  O   UNL A   1      33.856  27.922  26.190  1.00  0.00    -0.506 OA
ATOM     27  H   UNL A   1      34.425  28.616  26.460  1.00  0.00     0.293 HD
ENDBRANCH  20  26
ENDBRANCH  17  18
ENDBRANCH   9  10
ENDBRANCH   8   9
ENDBRANCH   6   8
ENDBRANCH   3   4
ENDBRANCH   2   3
ENDBRANCH   1   2
BRANCH   1  28
ATOM     28  C   UNL A   1      41.005  21.697  27.903  1.00  0.00     0.002 C 
BRANCH  28  29
ATOM     29  C   UNL A   1      42.472  21.857  27.504  1.00  0.00     0.021 C 
BRANCH  29  30
ATOM     30  C   UNL A   1      42.996  23.290  27.540  1.00  0.00     0.116 C 
BRANCH  30  31
ATOM     31  N   UNL A   1      42.746  24.010  26.302  1.00  0.00    -0.352 N 
ATOM     32  C   UNL A   1      42.231  25.273  26.122  1.00  0.00     0.251 C 
ATOM     33  H   UNL A   1      42.977  23.526  25.477  1.00  0.00     0.163 HD
ATOM     34  O   UNL A   1      41.947  25.660  24.996  1.00  0.00    -0.269 OA
BRANCH  32  35
ATOM     35  C   UNL A   1      41.998  26.151  27.294  1.00  0.00     0.039 A 
ATOM     36  C   UNL A   1      42.843  27.246  27.495  1.00  0.00     0.014 A 
ATOM     37  C   UNL A   1      40.962  25.893  28.196  1.00  0.00     0.014 A 
ATOM     38  C   UNL A   1      42.616  28.111  28.570  1.00  0.00     0.010 A 
ATOM     39  C   UNL A   1      40.694  26.795  29.225  1.00  0.00     0.010 A 
ATOM     40  C   UNL A   1      41.523  27.909  29.428  1.00  0.00    -0.014 A 
BRANCH  40  41
ATOM     41  C   UNL A   1      41.250  28.831  30.562  1.00  0.00     0.031 A 
ATOM     42  C   UNL A   1      42.069  28.734  31.824  1.00  0.00     0.074 A 
ATOM     43  C   UNL A   1      40.238  29.720  30.482  1.00  0.00     0.049 A 
ATOM     44  N   UNL A   1      41.932  29.383  32.951  1.00  0.00    -0.248 NA
ATOM     45  C   UNL A   1      43.171  27.757  31.824  1.00  0.00     0.031 C 
ATOM     46  C   UNL A   1      39.340  29.881  29.335  1.00  0.00     0.029 A 
ATOM     47  N   UNL A   1      39.786  30.647  31.387  1.00  0.00    -0.354 N 
ATOM     48  C   UNL A   1      42.923  28.893  33.794  1.00  0.00     0.074 A 
ATOM     49  C   UNL A   1      43.614  27.847  33.070  1.00  0.00     0.031 C 
ATOM     50  C   UNL A   1      38.455  30.855  29.602  1.00  0.00     0.029 A 
ATOM     51  C   UNL A   1      38.700  31.367  30.947  1.00  0.00     0.049 A 
ATOM     52  H   UNL A   1      40.201  30.783  32.270  1.00  0.00     0.167 HD
ATOM     53  C   UNL A   1      43.252  29.296  35.045  1.00  0.00     0.037 A 
ATOM     54  C   UNL A   1      37.980  32.328  31.560  1.00  0.00     0.037 A 
ATOM     55  C   UNL A   1      42.580  30.354  35.755  1.00  0.00     0.049 A 
ATOM     56  C   UNL A   1      38.377  32.770  32.945  1.00  0.00     0.074 A 
ATOM     57  C   UNL A   1      42.840  30.843  37.023  1.00  0.00     0.029 A 
ATOM     58  N   UNL A   1      41.524  31.098  35.249  1.00  0.00    -0.354 N 
ATOM     59  N   UNL A   1      39.335  32.312  33.714  1.00  0.00    -0.248 NA
ATOM     60  C   UNL A   1      37.605  33.872  33.537  1.00  0.00     0.031 C 
ATOM     61  C   UNL A   1      41.932  31.871  37.292  1.00  0.00     0.029 A 
ATOM     62  C   UNL A   1      41.131  32.049  36.176  1.00  0.00     0.049 A 
ATOM     63  H   UNL A   1      41.116  30.969  34.363  1.00  0.00     0.167 HD
ATOM     64  C   UNL A   1      39.306  33.095  34.864  1.00  0.00     0.074 A 
ATOM     65  C   UNL A   1      38.241  34.060  34.685  1.00  0.00     0.031 C 
ATOM     66  C   UNL A   1      40.089  33.022  35.968  1.00  0.00     0.037 A 
BRANCH  53  67
ATOM     67  C   UNL A   1      44.409  28.610  35.717  1.00  0.00     0.058 A 
ATOM     68  C   UNL A   1      44.214  27.474  36.520  1.00  0.00     0.135 A 
ATOM     69  C   UNL A   1      45.725  29.057  35.525  1.00  0.00     0.135 A 
ATOM     70  F   UNL A   1      42.973  27.014  36.752  1.00  0.00    -0.206 F 
ATOM     71  C   UNL A   1      45.280  26.819  37.126  1.00  0.00     0.059 A 
ATOM     72  C   UNL A   1      46.810  28.401  36.100  1.00  0.00     0.059 A 
ATOM     73  F   UNL A   1      45.968  30.139  34.768  1.00  0.00    -0.206 F 
ATOM     74  C   UNL A   1      46.576  27.290  36.908  1.00  0.00     0.060 A 
BRANCH  74  75
ATOM     75  S   UNL A   1      47.950  26.414  37.686  1.00  0.00     0.124 S 
ATOM     76  O   UNL A   1      49.096  27.162  37.178  1.00  0.00    -0.237 OA
ATOM     77  O   UNL A   1      47.665  26.583  39.108  1.00  0.00    -0.237 OA
ATOM     78  O   UNL A   1      47.815  25.052  37.179  1.00  0.00    -0.744 OA
ENDBRANCH  74  75
ENDBRANCH  53  67
BRANCH  54  79
ATOM     79  C   UNL A   1      36.820  32.954  30.871  1.00  0.00     0.058 A 
ATOM     80  C   UNL A   1      37.005  33.954  29.903  1.00  0.00     0.135 A 
ATOM     81  C   UNL A   1      35.504  32.587  31.185  1.00  0.00     0.135 A 
ATOM     82  F   UNL A   1      38.246  34.341  29.569  1.00  0.00    -0.206 F 
ATOM     83  C   UNL A   1      35.928  34.596  29.302  1.00  0.00     0.059 A 
ATOM     84  C   UNL A   1      34.410  33.195  30.577  1.00  0.00     0.059 A 
ATOM     85  F   UNL A   1      35.271  31.621  32.088  1.00  0.00    -0.206 F 
ATOM     86  C   UNL A   1      34.632  34.213  29.651  1.00  0.00     0.060 A 
BRANCH  86  87
ATOM     87  S   UNL A   1      33.237  35.046  28.863  1.00  0.00     0.124 S 
ATOM     88  O   UNL A   1      32.419  35.399  30.018  1.00  0.00    -0.237 OA
ATOM     89  O   UNL A   1      33.887  36.158  28.178  1.00  0.00    -0.237 OA
ATOM     90  O   UNL A   1      32.684  34.017  27.988  1.00  0.00    -0.744 OA
ENDBRANCH  86  87
ENDBRANCH  54  79
BRANCH  66  91
ATOM     91  C   UNL A   1      39.872  34.054  37.039  1.00  0.00     0.058 A 
ATOM     92  C   UNL A   1      40.401  35.350  36.941  1.00  0.00     0.135 A 
ATOM     93  C   UNL A   1      39.088  33.747  38.164  1.00  0.00     0.135 A 
ATOM     94  F   UNL A   1      41.160  35.692  35.888  1.00  0.00    -0.206 F 
ATOM     95  C   UNL A   1      40.189  36.297  37.938  1.00  0.00     0.059 A 
ATOM     96  C   UNL A   1      38.841  34.688  39.160  1.00  0.00     0.059 A 
ATOM     97  F   UNL A   1      38.548  32.526  38.299  1.00  0.00    -0.206 F 
ATOM     98  C   UNL A   1      39.409  35.956  39.045  1.00  0.00     0.060 A 
BRANCH  98  99
ATOM     99  S   UNL A   1      39.123  37.198  40.323  1.00  0.00     0.124 S 
ATOM    100  O   UNL A   1      40.479  37.674  40.577  1.00  0.00    -0.237 OA
ATOM    101  O   UNL A   1      38.237  38.143  39.650  1.00  0.00    -0.237 OA
ATOM    102  O   UNL A   1      38.511  36.436  41.406  1.00  0.00    -0.744 OA
ENDBRANCH  98  99
ENDBRANCH  66  91
ENDBRANCH  40  41
ENDBRANCH  32  35
ENDBRANCH  30  31
ENDBRANCH  29  30
ENDBRANCH  28  29
ENDBRANCH   1  28
TORSDOF 20
ENDMDL
MODEL 2
REMARK VINA RESULT:     -11.2      6.095      8.488
REMARK SMILES O=C(CCN1C(=O)/C(=C/c2cc(Br)cc(Br)c2O)SC1=S)NCCCCCCNC(=O)c1ccc(-c2c3nc(c(-c4c(F)cc(S(=O)(=O)[O-])cc4F)c4ccc([nH]4)c(-c4c(F)cc(S(=O)(=O)[O-])cc4F)c4nc(c(-c5c(F)cc(S(=O)(=O)[O-])cc5F)c5ccc2[nH]5)C=C4)C=C3)cc1
REMARK SMILES IDX 25 1 24 2 23 3 22 4 1 5 2 6 3 8 4 9 5 10 6 11 20 12 7 13
REMARK SMILES IDX 8 14 19 15 21 16 9 17 10 18 11 19 17 20 12 21 15 22 13 23
REMARK SMILES IDX 14 24 16 25 18 26 26 28 27 29 28 30 29 31 30 32 31 34 32 35
REMARK SMILES IDX 33 36 97 37 34 38 96 39 35 40 36 41 37 42 90 43 38 44 95 45
REMARK SMILES IDX 89 46 91 47 39 48 94 49 88 50 87 51 40 53 74 54 53 55 73 56
REMARK SMILES IDX 54 57 57 58 72 59 92 60 55 61 56 62 71 64 93 65 58 66 41 67
REMARK SMILES IDX 42 68 51 69 43 70 44 71 50 72 52 73 45 74 46 75 47 76 48 77
REMARK SMILES IDX 49 78 75 79 76 80 85 81 77 82 78 83 84 84 86 85 79 86 80 87
REMARK SMILES IDX 81 88 82 89 83 90 59 91 60 92 69 93 61 94 62 95 68 96 70 97
REMARK SMILES IDX 63 98 64 99 65 100 66 101 67 102
REMARK H PARENT 22 7 18 27 29 33 91 52 57 63
REMARK Flexibility Score: inf
ROOT
ATOM      1  C   UNL A   1      40.547  22.330  26.701  1.00  0.00     0.002 C 
ENDROOT
BRANCH   1   2
ATOM      2  C   UNL A   1      39.493  23.344  27.165  1.00  0.00     0.021 C 
BRANCH   2   3
ATOM      3  C   UNL A   1      38.373  23.628  26.160  1.00  0.00     0.116 C 
BRANCH   3   4
ATOM      4  N   UNL A   1      37.386  22.561  26.144  1.00  0.00    -0.356 N 
ATOM      5  O   UNL A   1      37.406  22.227  23.882  1.00  0.00    -0.275 OA
ATOM      6  C   UNL A   1      36.944  21.969  24.989  1.00  0.00     0.221 C 
ATOM      7  H   UNL A   1      37.018  22.250  27.003  1.00  0.00     0.163 HD
BRANCH   6   8
ATOM      8  C   UNL A   1      35.731  21.068  25.132  1.00  0.00     0.122 C 
BRANCH   8   9
ATOM      9  C   UNL A   1      34.405  21.556  24.545  1.00  0.00     0.137 C 
BRANCH   9  10
ATOM     10  N   UNL A   1      33.923  22.900  24.903  1.00  0.00    -0.292 N 
ATOM     11  C   UNL A   1      34.122  23.924  23.983  1.00  0.00     0.266 C 
ATOM     12  C   UNL A   1      33.488  23.318  26.144  1.00  0.00     0.148 C 
ATOM     13  O   UNL A   1      34.724  23.836  22.918  1.00  0.00    -0.268 OA
ATOM     14  C   UNL A   1      33.512  25.194  24.463  1.00  0.00     0.081 C 
ATOM     15  S   UNL A   1      32.818  24.935  26.008  1.00  0.00    -0.054 SA
ATOM     16  S   UNL A   1      33.524  22.519  27.603  1.00  0.00    -0.052 S 
ATOM     17  C   UNL A   1      33.503  26.303  23.705  1.00  0.00     0.033 C 
BRANCH  17  18
ATOM     18  C   UNL A   1      32.710  27.533  23.930  1.00  0.00     0.020 A 
ATOM     19  C   UNL A   1      32.977  28.380  25.018  1.00  0.00     0.027 A 
ATOM     20  C   UNL A   1      31.626  27.863  23.089  1.00  0.00     0.137 A 
ATOM     21  C   UNL A   1      32.118  29.434  25.333  1.00  0.00     0.019 A 
ATOM     22  C   UNL A   1      30.787  28.945  23.399  1.00  0.00     0.061 A 
ATOM     23  Br  UNL A   1      32.440  30.465  26.886  1.00  0.00    -0.051 Br
ATOM     24  C   UNL A   1      31.014  29.714  24.539  1.00  0.00     0.035 A 
ATOM     25  Br  UNL A   1      29.296  29.390  22.309  1.00  0.00    -0.047 Br
BRANCH  20  26
ATOM     26  O   UNL A   1      31.324  27.141  21.960  1.00  0.00    -0.506 OA
ATOM     27  H   UNL A   1      31.787  27.305  21.162  1.00  0.00     0.293 HD
ENDBRANCH  20  26
ENDBRANCH  17  18
ENDBRANCH   9  10
ENDBRANCH   8   9
ENDBRANCH   6   8
ENDBRANCH   3   4
ENDBRANCH   2   3
ENDBRANCH   1   2
BRANCH   1  28
ATOM     28  C   UNL A   1      41.151  21.451  27.799  1.00  0.00     0.002 C 
BRANCH  28  29
ATOM     29  C   UNL A   1      41.482  20.019  27.376  1.00  0.00     0.021 C 
BRANCH  29  30
ATOM     30  C   UNL A   1      41.385  19.753  25.876  1.00  0.00     0.116 C 
BRANCH  30  31
ATOM     31  N   UNL A   1      42.595  19.157  25.334  1.00  0.00    -0.352 N 
ATOM     32  C   UNL A   1      43.793  19.758  25.021  1.00  0.00     0.251 C 
ATOM     33  H   UNL A   1      42.552  18.188  25.168  1.00  0.00     0.163 HD
ATOM     34  O   UNL A   1      44.656  19.123  24.428  1.00  0.00    -0.269 OA
BRANCH  32  35
ATOM     35  C   UNL A   1      44.025  21.178  25.378  1.00  0.00     0.039 A 
ATOM     36  C   UNL A   1      44.594  21.478  26.618  1.00  0.00     0.014 A 
ATOM     37  C   UNL A   1      43.672  22.210  24.504  1.00  0.00     0.014 A 
ATOM     38  C   UNL A   1      44.860  22.808  26.958  1.00  0.00     0.010 A 
ATOM     39  C   UNL A   1      44.003  23.529  24.814  1.00  0.00     0.010 A 
ATOM     40  C   UNL A   1      44.592  23.843  26.048  1.00  0.00    -0.014 A 
BRANCH  40  41
ATOM     41  C   UNL A   1      44.889  25.262  26.380  1.00  0.00     0.031 A 
ATOM     42  C   UNL A   1      46.295  25.787  26.240  1.00  0.00     0.074 A 
ATOM     43  C   UNL A   1      43.914  26.063  26.855  1.00  0.00     0.049 A 
ATOM     44  N   UNL A   1      46.775  26.961  26.560  1.00  0.00    -0.248 NA
ATOM     45  C   UNL A   1      47.298  24.858  25.691  1.00  0.00     0.031 C 
ATOM     46  C   UNL A   1      42.523  25.663  27.083  1.00  0.00     0.029 A 
ATOM     47  N   UNL A   1      43.946  27.379  27.243  1.00  0.00    -0.354 N 
ATOM     48  C   UNL A   1      48.132  26.911  26.257  1.00  0.00     0.074 A 
ATOM     49  C   UNL A   1      48.411  25.571  25.787  1.00  0.00     0.031 C 
ATOM     50  C   UNL A   1      41.835  26.713  27.559  1.00  0.00     0.029 A 
ATOM     51  C   UNL A   1      42.737  27.851  27.699  1.00  0.00     0.049 A 
ATOM     52  H   UNL A   1      44.759  27.933  27.200  1.00  0.00     0.167 HD
ATOM     53  C   UNL A   1      49.056  27.898  26.332  1.00  0.00     0.037 A 
ATOM     54  C   UNL A   1      42.397  29.063  28.181  1.00  0.00     0.037 A 
ATOM     55  C   UNL A   1      48.772  29.238  26.776  1.00  0.00     0.049 A 
ATOM     56  C   UNL A   1      43.440  30.150  28.238  1.00  0.00     0.074 A 
ATOM     57  C   UNL A   1      49.637  30.314  26.881  1.00  0.00     0.029 A 
ATOM     58  N   UNL A   1      47.522  29.691  27.171  1.00  0.00    -0.354 N 
ATOM     59  N   UNL A   1      44.711  30.090  27.921  1.00  0.00    -0.248 NA
ATOM     60  C   UNL A   1      42.998  31.472  28.701  1.00  0.00     0.031 C 
ATOM     61  C   UNL A   1      48.914  31.413  27.357  1.00  0.00     0.029 A 
ATOM     62  C   UNL A   1      47.591  31.032  27.510  1.00  0.00     0.049 A 
ATOM     63  H   UNL A   1      46.707  29.141  27.205  1.00  0.00     0.167 HD
ATOM     64  C   UNL A   1      45.210  31.374  28.110  1.00  0.00     0.074 A 
ATOM     65  C   UNL A   1      44.103  32.191  28.560  1.00  0.00     0.031 C 
ATOM     66  C   UNL A   1      46.471  31.837  27.926  1.00  0.00     0.037 A 
BRANCH  53  67
ATOM     67  C   UNL A   1      50.459  27.574  25.897  1.00  0.00     0.058 A 
ATOM     68  C   UNL A   1      51.447  27.223  26.830  1.00  0.00     0.135 A 
ATOM     69  C   UNL A   1      50.811  27.570  24.538  1.00  0.00     0.135 A 
ATOM     70  F   UNL A   1      51.169  27.228  28.144  1.00  0.00    -0.206 F 
ATOM     71  C   UNL A   1      52.739  26.898  26.435  1.00  0.00     0.059 A 
ATOM     72  C   UNL A   1      52.092  27.222  24.117  1.00  0.00     0.059 A 
ATOM     73  F   UNL A   1      49.906  27.899  23.603  1.00  0.00    -0.206 F 
ATOM     74  C   UNL A   1      53.052  26.899  25.075  1.00  0.00     0.060 A 
BRANCH  74  75
ATOM     75  S   UNL A   1      54.730  26.455  24.578  1.00  0.00     0.124 S 
ATOM     76  O   UNL A   1      54.788  25.051  24.973  1.00  0.00    -0.237 OA
ATOM     77  O   UNL A   1      54.709  26.707  23.141  1.00  0.00    -0.237 OA
ATOM     78  O   UNL A   1      55.567  27.361  25.359  1.00  0.00    -0.744 OA
ENDBRANCH  74  75
ENDBRANCH  53  67
BRANCH  54  79
ATOM     79  C   UNL A   1      41.005  29.328  28.635  1.00  0.00     0.058 A 
ATOM     80  C   UNL A   1      40.695  29.432  29.999  1.00  0.00     0.135 A 
ATOM     81  C   UNL A   1      39.953  29.454  27.716  1.00  0.00     0.135 A 
ATOM     82  F   UNL A   1      41.666  29.317  30.919  1.00  0.00    -0.206 F 
ATOM     83  C   UNL A   1      39.387  29.610  30.440  1.00  0.00     0.059 A 
ATOM     84  C   UNL A   1      38.641  29.660  28.130  1.00  0.00     0.059 A 
ATOM     85  F   UNL A   1      40.199  29.384  26.398  1.00  0.00    -0.206 F 
ATOM     86  C   UNL A   1      38.365  29.716  29.495  1.00  0.00     0.060 A 
BRANCH  86  87
ATOM     87  S   UNL A   1      36.670  29.953  30.071  1.00  0.00     0.124 S 
ATOM     88  O   UNL A   1      35.904  29.480  28.924  1.00  0.00    -0.237 OA
ATOM     89  O   UNL A   1      36.626  29.108  31.260  1.00  0.00    -0.237 OA
ATOM     90  O   UNL A   1      36.602  31.388  30.329  1.00  0.00    -0.744 OA
ENDBRANCH  86  87
ENDBRANCH  54  79
BRANCH  66  91
ATOM     91  C   UNL A   1      46.708  33.305  28.146  1.00  0.00     0.058 A 
ATOM     92  C   UNL A   1      47.112  33.814  29.390  1.00  0.00     0.135 A 
ATOM     93  C   UNL A   1      46.565  34.209  27.081  1.00  0.00     0.135 A 
ATOM     94  F   UNL A   1      47.260  32.992  30.441  1.00  0.00    -0.206 F 
ATOM     95  C   UNL A   1      47.332  35.175  29.580  1.00  0.00     0.059 A 
ATOM     96  C   UNL A   1      46.806  35.570  27.242  1.00  0.00     0.059 A 
ATOM     97  F   UNL A   1      46.194  33.771  25.868  1.00  0.00    -0.206 F 
ATOM     98  C   UNL A   1      47.174  36.045  28.500  1.00  0.00     0.060 A 
BRANCH  98  99
ATOM     99  S   UNL A   1      47.482  37.806  28.751  1.00  0.00     0.124 S 
ATOM    100  O   UNL A   1      48.616  38.035  27.861  1.00  0.00    -0.237 OA
ATOM    101  O   UNL A   1      46.219  38.409  28.335  1.00  0.00    -0.237 OA
ATOM    102  O   UNL A   1      47.774  37.900  30.178  1.00  0.00    -0.744 OA
ENDBRANCH  98  99
ENDBRANCH  66  91
ENDBRANCH  40  41
ENDBRANCH  32  35
ENDBRANCH  30  31
ENDBRANCH  29  30
ENDBRANCH  28  29
ENDBRANCH   1  28
TORSDOF 20
ENDMDL
MODEL 3
REMARK VINA RESULT:     -11.1      3.123      9.385
REMARK SMILES O=C(CCN1C(=O)/C(=C/c2cc(Br)cc(Br)c2O)SC1=S)NCCCCCCNC(=O)c1ccc(-c2c3nc(c(-c4c(F)cc(S(=O)(=O)[O-])cc4F)c4ccc([nH]4)c(-c4c(F)cc(S(=O)(=O)[O-])cc4F)c4nc(c(-c5c(F)cc(S(=O)(=O)[O-])cc5F)c5ccc2[nH]5)C=C4)C=C3)cc1
REMARK SMILES IDX 25 1 24 2 23 3 22 4 1 5 2 6 3 8 4 9 5 10 6 11 20 12 7 13
REMARK SMILES IDX 8 14 19 15 21 16 9 17 10 18 11 19 17 20 12 21 15 22 13 23
REMARK SMILES IDX 14 24 16 25 18 26 26 28 27 29 28 30 29 31 30 32 31 34 32 35
REMARK SMILES IDX 33 36 97 37 34 38 96 39 35 40 36 41 37 42 90 43 38 44 95 45
REMARK SMILES IDX 89 46 91 47 39 48 94 49 88 50 87 51 40 53 74 54 53 55 73 56
REMARK SMILES IDX 54 57 57 58 72 59 92 60 55 61 56 62 71 64 93 65 58 66 41 67
REMARK SMILES IDX 42 68 51 69 43 70 44 71 50 72 52 73 45 74 46 75 47 76 48 77
REMARK SMILES IDX 49 78 75 79 76 80 85 81 77 82 78 83 84 84 86 85 79 86 80 87
REMARK SMILES IDX 81 88 82 89 83 90 59 91 60 92 69 93 61 94 62 95 68 96 70 97
REMARK SMILES IDX 63 98 64 99 65 100 66 101 67 102
REMARK H PARENT 22 7 18 27 29 33 91 52 57 63
REMARK Flexibility Score: inf
ROOT
ATOM      1  C   UNL A   1      34.330  32.032  28.651  1.00  0.00     0.002 C 
ENDROOT
BRANCH   1   2
ATOM      2  C   UNL A   1      35.043  31.144  27.622  1.00  0.00     0.021 C 
BRANCH   2   3
ATOM      3  C   UNL A   1      34.988  29.640  27.909  1.00  0.00     0.116 C 
BRANCH   3   4
ATOM      4  N   UNL A   1      33.673  29.090  27.629  1.00  0.00    -0.356 N 
ATOM      5  O   UNL A   1      33.673  29.547  25.389  1.00  0.00    -0.275 OA
ATOM      6  C   UNL A   1      33.094  29.127  26.386  1.00  0.00     0.221 C 
ATOM      7  H   UNL A   1      33.173  28.671  28.368  1.00  0.00     0.163 HD
BRANCH   6   8
ATOM      8  C   UNL A   1      31.626  28.751  26.330  1.00  0.00     0.122 C 
BRANCH   8   9
ATOM      9  C   UNL A   1      31.190  27.725  25.283  1.00  0.00     0.137 C 
BRANCH   9  10
ATOM     10  N   UNL A   1      32.064  26.571  25.013  1.00  0.00    -0.292 N 
ATOM     11  C   UNL A   1      32.233  25.637  26.029  1.00  0.00     0.266 C 
ATOM     12  C   UNL A   1      32.918  26.415  23.941  1.00  0.00     0.148 C 
ATOM     13  O   UNL A   1      31.775  25.708  27.165  1.00  0.00    -0.268 OA
ATOM     14  C   UNL A   1      33.079  24.502  25.570  1.00  0.00     0.081 C 
ATOM     15  S   UNL A   1      33.576  24.787  23.956  1.00  0.00    -0.054 SA
ATOM     16  S   UNL A   1      33.336  27.504  22.754  1.00  0.00    -0.052 S 
ATOM     17  C   UNL A   1      33.312  23.434  26.352  1.00  0.00     0.033 C 
BRANCH  17  18
ATOM     18  C   UNL A   1      33.893  22.135  25.942  1.00  0.00     0.020 A 
ATOM     19  C   UNL A   1      35.282  21.966  25.825  1.00  0.00     0.027 A 
ATOM     20  C   UNL A   1      33.064  21.044  25.602  1.00  0.00     0.137 A 
ATOM     21  C   UNL A   1      35.817  20.805  25.265  1.00  0.00     0.019 A 
ATOM     22  C   UNL A   1      33.618  19.869  25.068  1.00  0.00     0.061 A 
ATOM     23  Br  UNL A   1      37.686  20.675  25.001  1.00  0.00    -0.051 Br
ATOM     24  C   UNL A   1      34.993  19.759  24.871  1.00  0.00     0.035 A 
ATOM     25  Br  UNL A   1      32.527  18.398  24.564  1.00  0.00    -0.047 Br
BRANCH  20  26
ATOM     26  O   UNL A   1      31.700  21.082  25.747  1.00  0.00    -0.506 OA
ATOM     27  H   UNL A   1      31.152  21.193  24.996  1.00  0.00     0.293 HD
ENDBRANCH  20  26
ENDBRANCH  17  18
ENDBRANCH   9  10
ENDBRANCH   8   9
ENDBRANCH   6   8
ENDBRANCH   3   4
ENDBRANCH   2   3
ENDBRANCH   1   2
BRANCH   1  28
ATOM     28  C   UNL A   1      34.533  33.540  28.480  1.00  0.00     0.002 C 
BRANCH  28  29
ATOM     29  C   UNL A   1      33.253  34.375  28.526  1.00  0.00     0.021 C 
BRANCH  29  30
ATOM     30  C   UNL A   1      33.431  35.796  29.052  1.00  0.00     0.116 C 
BRANCH  30  31
ATOM     31  N   UNL A   1      32.591  36.077  30.205  1.00  0.00    -0.352 N 
ATOM     32  C   UNL A   1      32.718  35.629  31.500  1.00  0.00     0.251 C 
ATOM     33  H   UNL A   1      31.824  36.670  30.035  1.00  0.00     0.163 HD
ATOM     34  O   UNL A   1      31.826  35.847  32.309  1.00  0.00    -0.269 OA
BRANCH  32  35
ATOM     35  C   UNL A   1      33.921  34.862  31.903  1.00  0.00     0.039 A 
ATOM     36  C   UNL A   1      35.138  35.537  32.035  1.00  0.00     0.014 A 
ATOM     37  C   UNL A   1      33.856  33.486  32.139  1.00  0.00     0.014 A 
ATOM     38  C   UNL A   1      36.276  34.841  32.455  1.00  0.00     0.010 A 
ATOM     39  C   UNL A   1      34.973  32.809  32.626  1.00  0.00     0.010 A 
ATOM     40  C   UNL A   1      36.197  33.477  32.780  1.00  0.00    -0.014 A 
BRANCH  40  41
ATOM     41  C   UNL A   1      37.391  32.725  33.252  1.00  0.00     0.031 A 
ATOM     42  C   UNL A   1      38.042  33.095  34.561  1.00  0.00     0.074 A 
ATOM     43  C   UNL A   1      37.920  31.749  32.488  1.00  0.00     0.049 A 
ATOM     44  N   UNL A   1      39.135  32.622  35.103  1.00  0.00    -0.248 NA
ATOM     45  C   UNL A   1      37.390  34.154  35.350  1.00  0.00     0.031 C 
ATOM     46  C   UNL A   1      37.413  31.328  31.179  1.00  0.00     0.029 A 
ATOM     47  N   UNL A   1      39.009  30.940  32.694  1.00  0.00    -0.354 N 
ATOM     48  C   UNL A   1      39.304  33.327  36.290  1.00  0.00     0.074 A 
ATOM     49  C   UNL A   1      38.237  34.302  36.358  1.00  0.00     0.031 C 
ATOM     50  C   UNL A   1      38.182  30.333  30.707  1.00  0.00     0.029 A 
ATOM     51  C   UNL A   1      39.253  30.065  31.661  1.00  0.00     0.049 A 
ATOM     52  H   UNL A   1      39.564  30.983  33.506  1.00  0.00     0.167 HD
ATOM     53  C   UNL A   1      40.243  33.159  37.252  1.00  0.00     0.037 A 
ATOM     54  C   UNL A   1      40.233  29.153  31.500  1.00  0.00     0.037 A 
ATOM     55  C   UNL A   1      41.289  32.171  37.194  1.00  0.00     0.049 A 
ATOM     56  C   UNL A   1      41.255  28.973  32.593  1.00  0.00     0.074 A 
ATOM     57  C   UNL A   1      42.285  31.914  38.120  1.00  0.00     0.029 A 
ATOM     58  N   UNL A   1      41.464  31.264  36.159  1.00  0.00    -0.354 N 
ATOM     59  N   UNL A   1      41.381  29.631  33.720  1.00  0.00    -0.248 NA
ATOM     60  C   UNL A   1      42.256  27.915  32.400  1.00  0.00     0.031 C 
ATOM     61  C   UNL A   1      43.073  30.864  37.638  1.00  0.00     0.029 A 
ATOM     62  C   UNL A   1      42.544  30.441  36.430  1.00  0.00     0.049 A 
ATOM     63  H   UNL A   1      40.904  31.214  35.352  1.00  0.00     0.167 HD
ATOM     64  C   UNL A   1      42.450  29.041  34.386  1.00  0.00     0.074 A 
ATOM     65  C   UNL A   1      42.929  27.969  33.540  1.00  0.00     0.031 C 
ATOM     66  C   UNL A   1      42.987  29.358  35.590  1.00  0.00     0.037 A 
BRANCH  53  67
ATOM     67  C   UNL A   1      40.164  34.043  38.465  1.00  0.00     0.058 A 
ATOM     68  C   UNL A   1      40.836  35.276  38.511  1.00  0.00     0.135 A 
ATOM     69  C   UNL A   1      39.378  33.684  39.571  1.00  0.00     0.135 A 
ATOM     70  F   UNL A   1      41.616  35.660  37.487  1.00  0.00    -0.206 F 
ATOM     71  C   UNL A   1      40.749  36.111  39.619  1.00  0.00     0.059 A 
ATOM     72  C   UNL A   1      39.255  34.517  40.680  1.00  0.00     0.059 A 
ATOM     73  F   UNL A   1      38.716  32.517  39.581  1.00  0.00    -0.206 F 
ATOM     74  C   UNL A   1      39.955  35.723  40.699  1.00  0.00     0.060 A 
BRANCH  74  75
ATOM     75  S   UNL A   1      39.837  36.830  42.120  1.00  0.00     0.124 S 
ATOM     76  O   UNL A   1      41.223  36.869  42.574  1.00  0.00    -0.237 OA
ATOM     77  O   UNL A   1      39.334  38.062  41.518  1.00  0.00    -0.237 OA
ATOM     78  O   UNL A   1      38.904  36.144  43.009  1.00  0.00    -0.744 OA
ENDBRANCH  74  75
ENDBRANCH  53  67
BRANCH  54  79
ATOM     79  C   UNL A   1      40.293  28.324  30.266  1.00  0.00     0.058 A 
ATOM     80  C   UNL A   1      39.438  27.226  30.088  1.00  0.00     0.135 A 
ATOM     81  C   UNL A   1      41.225  28.594  29.254  1.00  0.00     0.135 A 
ATOM     82  F   UNL A   1      38.529  26.924  31.029  1.00  0.00    -0.206 F 
ATOM     83  C   UNL A   1      39.530  26.401  28.972  1.00  0.00     0.059 A 
ATOM     84  C   UNL A   1      41.319  27.801  28.115  1.00  0.00     0.059 A 
ATOM     85  F   UNL A   1      42.053  29.645  29.365  1.00  0.00    -0.206 F 
ATOM     86  C   UNL A   1      40.480  26.694  27.992  1.00  0.00     0.060 A 
BRANCH  86  87
ATOM     87  S   UNL A   1      40.593  25.624  26.542  1.00  0.00     0.124 S 
ATOM     88  O   UNL A   1      39.255  25.047  26.501  1.00  0.00    -0.237 OA
ATOM     89  O   UNL A   1      40.911  26.574  25.481  1.00  0.00    -0.237 OA
ATOM     90  O   UNL A   1      41.670  24.702  26.890  1.00  0.00    -0.744 OA
ENDBRANCH  86  87
ENDBRANCH  54  79
BRANCH  66  91
ATOM     91  C   UNL A   1      44.109  28.494  36.096  1.00  0.00     0.058 A 
ATOM     92  C   UNL A   1      43.871  27.326  36.838  1.00  0.00     0.135 A 
ATOM     93  C   UNL A   1      45.441  28.823  35.799  1.00  0.00     0.135 A 
ATOM     94  F   UNL A   1      42.615  26.969  37.151  1.00  0.00    -0.206 F 
ATOM     95  C   UNL A   1      44.917  26.533  37.297  1.00  0.00     0.059 A 
ATOM     96  C   UNL A   1      46.502  28.029  36.225  1.00  0.00     0.059 A 
ATOM     97  F   UNL A   1      45.722  29.923  35.082  1.00  0.00    -0.206 F 
ATOM     98  C   UNL A   1      46.230  26.894  36.987  1.00  0.00     0.060 A 
BRANCH  98  99
ATOM     99  S   UNL A   1      47.580  25.847  37.570  1.00  0.00     0.124 S 
ATOM    100  O   UNL A   1      47.332  25.825  39.008  1.00  0.00    -0.237 OA
ATOM    101  O   UNL A   1      47.332  24.593  36.865  1.00  0.00    -0.237 OA
ATOM    102  O   UNL A   1      48.776  26.570  37.149  1.00  0.00    -0.744 OA
ENDBRANCH  98  99
ENDBRANCH  66  91
ENDBRANCH  40  41
ENDBRANCH  32  35
ENDBRANCH  30  31
ENDBRANCH  29  30
ENDBRANCH  28  29
ENDBRANCH   1  28
TORSDOF 20
ENDMDL
