MODEL 1
REMARK VINA RESULT:     -11.3      0.000      0.000
REMARK SMILES O=C(CSc1nc2cccnc2n1CC(F)(F)F)NCCCCCCNC(=O)c1ccc(-c2c3nc(c(-c4c(F)cc(S(=O)(=O)[O-])cc4F)c4ccc([nH]4)c(-c4c(F)cc(S(=O)(=O)[O-])cc4F)c4nc(c(-c5c(F)cc(S(=O)(=O)[O-])cc5F)c5ccc2[nH]5)C=C4)C=C3)cc1
REMARK SMILES IDX 22 1 21 2 20 3 19 4 1 5 2 6 3 8 4 9 5 10 6 11 13 12 7 13
REMARK SMILES IDX 12 14 8 15 11 16 9 17 10 18 14 19 15 20 16 21 17 22 18 23
REMARK SMILES IDX 23 24 24 25 25 26 26 27 27 28 28 30 29 31 30 32 94 33 31 34
REMARK SMILES IDX 93 35 32 36 33 37 34 38 87 39 35 40 92 41 86 42 88 43 36 44
REMARK SMILES IDX 91 45 85 46 84 47 37 49 71 50 50 51 70 52 51 53 54 54 69 55
REMARK SMILES IDX 89 56 52 57 53 58 68 60 90 61 55 62 38 63 39 64 48 65 40 66
REMARK SMILES IDX 41 67 47 68 49 69 42 70 43 71 44 72 45 73 46 74 72 75 73 76
REMARK SMILES IDX 82 77 74 78 75 79 81 80 83 81 76 82 77 83 78 84 79 85 80 86
REMARK SMILES IDX 56 87 57 88 66 89 58 90 59 91 65 92 67 93 60 94 61 95 62 96
REMARK SMILES IDX 63 97 64 98
REMARK H PARENT 19 7 26 29 88 48 54 59
REMARK Flexibility Score: inf
ROOT
ATOM      1  C   UNL A   1      40.028  20.876  26.593  1.00  0.00     0.002 C 
ENDROOT
BRANCH   1   2
ATOM      2  C   UNL A   1      39.395  22.216  26.201  1.00  0.00     0.021 C 
BRANCH   2   3
ATOM      3  C   UNL A   1      38.081  22.085  25.449  1.00  0.00     0.116 C 
BRANCH   3   4
ATOM      4  N   UNL A   1      36.934  22.311  26.303  1.00  0.00    -0.355 N 
ATOM      5  O   UNL A   1      36.110  24.131  25.192  1.00  0.00    -0.274 OA
ATOM      6  C   UNL A   1      35.979  23.273  26.058  1.00  0.00     0.230 C 
ATOM      7  H   UNL A   1      36.830  21.745  27.102  1.00  0.00     0.163 HD
BRANCH   6   8
ATOM      8  C   UNL A   1      34.718  23.167  26.903  1.00  0.00     0.178 C 
BRANCH   8   9
ATOM      9  S   UNL A   1      33.228  23.516  25.933  1.00  0.00    -0.078 SA
BRANCH   9  10
ATOM     10  C   UNL A   1      32.616  22.010  25.320  1.00  0.00     0.171 A 
ATOM     11  N   UNL A   1      32.708  20.923  26.066  1.00  0.00    -0.221 NA
ATOM     12  N   UNL A   1      32.326  21.689  24.012  1.00  0.00    -0.294 N 
ATOM     13  C   UNL A   1      32.623  19.870  25.197  1.00  0.00     0.109 A 
ATOM     14  C   UNL A   1      32.407  20.322  23.907  1.00  0.00     0.160 A 
ATOM     15  C   UNL A   1      32.762  18.492  25.387  1.00  0.00     0.034 A 
ATOM     16  N   UNL A   1      32.322  19.595  22.778  1.00  0.00    -0.237 NA
ATOM     17  C   UNL A   1      32.701  17.683  24.248  1.00  0.00     0.022 A 
ATOM     18  C   UNL A   1      32.488  18.272  23.004  1.00  0.00     0.113 A 
BRANCH  12  19
ATOM     19  C   UNL A   1      32.026  22.506  22.861  1.00  0.00     0.241 C 
BRANCH  19  20
ATOM     20  C   UNL A   1      33.230  23.283  22.383  1.00  0.00     0.406 C 
ATOM     21  F   UNL A   1      33.249  24.538  22.883  1.00  0.00    -0.169 F 
ATOM     22  F   UNL A   1      34.371  22.666  22.760  1.00  0.00    -0.169 F 
ATOM     23  F   UNL A   1      33.261  23.388  21.036  1.00  0.00    -0.169 F 
ENDBRANCH  19  20
ENDBRANCH  12  19
ENDBRANCH   9  10
ENDBRANCH   8   9
ENDBRANCH   6   8
ENDBRANCH   3   4
ENDBRANCH   2   3
ENDBRANCH   1   2
BRANCH   1  24
ATOM     24  C   UNL A   1      41.245  20.951  27.528  1.00  0.00     0.002 C 
BRANCH  24  25
ATOM     25  C   UNL A   1      42.412  20.009  27.206  1.00  0.00     0.021 C 
BRANCH  25  26
ATOM     26  C   UNL A   1      42.408  19.499  25.774  1.00  0.00     0.116 C 
BRANCH  26  27
ATOM     27  N   UNL A   1      43.743  19.518  25.182  1.00  0.00    -0.352 N 
ATOM     28  C   UNL A   1      44.499  20.606  24.798  1.00  0.00     0.251 C 
ATOM     29  H   UNL A   1      44.158  18.637  25.039  1.00  0.00     0.163 HD
ATOM     30  O   UNL A   1      45.405  20.473  23.991  1.00  0.00    -0.269 OA
BRANCH  28  31
ATOM     31  C   UNL A   1      44.209  21.924  25.393  1.00  0.00     0.039 A 
ATOM     32  C   UNL A   1      43.219  22.755  24.858  1.00  0.00     0.014 A 
ATOM     33  C   UNL A   1      44.980  22.343  26.475  1.00  0.00     0.014 A 
ATOM     34  C   UNL A   1      42.993  23.995  25.448  1.00  0.00     0.010 A 
ATOM     35  C   UNL A   1      44.660  23.491  27.147  1.00  0.00     0.010 A 
ATOM     36  C   UNL A   1      43.725  24.349  26.589  1.00  0.00    -0.014 A 
BRANCH  36  37
ATOM     37  C   UNL A   1      43.508  25.615  27.264  1.00  0.00     0.031 A 
ATOM     38  C   UNL A   1      44.513  26.661  26.950  1.00  0.00     0.074 A 
ATOM     39  C   UNL A   1      42.353  25.886  27.908  1.00  0.00     0.049 A 
ATOM     40  N   UNL A   1      45.441  27.123  27.719  1.00  0.00    -0.248 NA
ATOM     41  C   UNL A   1      44.602  27.134  25.559  1.00  0.00     0.031 C 
ATOM     42  C   UNL A   1      41.132  25.075  27.983  1.00  0.00     0.029 A 
ATOM     43  N   UNL A   1      41.996  27.019  28.562  1.00  0.00    -0.354 N 
ATOM     44  C   UNL A   1      46.075  28.124  26.985  1.00  0.00     0.074 A 
ATOM     45  C   UNL A   1      45.675  27.925  25.616  1.00  0.00     0.031 C 
ATOM     46  C   UNL A   1      40.115  25.831  28.454  1.00  0.00     0.029 A 
ATOM     47  C   UNL A   1      40.643  27.117  28.867  1.00  0.00     0.049 A 
ATOM     48  H   UNL A   1      42.645  27.719  28.804  1.00  0.00     0.167 HD
ATOM     49  C   UNL A   1      46.667  29.186  27.599  1.00  0.00     0.037 A 
ATOM     50  C   UNL A   1      40.017  28.203  29.388  1.00  0.00     0.037 A 
ATOM     51  C   UNL A   1      46.823  28.941  29.013  1.00  0.00     0.049 A 
ATOM     52  C   UNL A   1      41.078  29.039  30.019  1.00  0.00     0.074 A 
ATOM     53  C   UNL A   1      47.482  27.987  29.765  1.00  0.00     0.029 A 
ATOM     54  N   UNL A   1      45.906  29.516  29.862  1.00  0.00    -0.354 N 
ATOM     55  N   UNL A   1      41.782  28.662  31.053  1.00  0.00    -0.248 NA
ATOM     56  C   UNL A   1      41.676  30.088  29.208  1.00  0.00     0.031 C 
ATOM     57  C   UNL A   1      46.604  27.704  30.853  1.00  0.00     0.029 A 
ATOM     58  C   UNL A   1      45.498  28.550  30.748  1.00  0.00     0.049 A 
ATOM     59  H   UNL A   1      45.598  30.450  29.839  1.00  0.00     0.167 HD
ATOM     60  C   UNL A   1      43.070  29.110  30.793  1.00  0.00     0.074 A 
ATOM     61  C   UNL A   1      42.926  30.050  29.683  1.00  0.00     0.031 C 
ATOM     62  C   UNL A   1      44.163  28.469  31.305  1.00  0.00     0.037 A 
BRANCH  49  63
ATOM     63  C   UNL A   1      46.773  30.574  27.010  1.00  0.00     0.058 A 
ATOM     64  C   UNL A   1      48.017  31.237  27.031  1.00  0.00     0.135 A 
ATOM     65  C   UNL A   1      45.663  31.381  26.669  1.00  0.00     0.135 A 
ATOM     66  F   UNL A   1      49.141  30.573  27.347  1.00  0.00    -0.206 F 
ATOM     67  C   UNL A   1      48.139  32.609  26.804  1.00  0.00     0.059 A 
ATOM     68  C   UNL A   1      45.770  32.736  26.382  1.00  0.00     0.059 A 
ATOM     69  F   UNL A   1      44.407  30.923  26.695  1.00  0.00    -0.206 F 
ATOM     70  C   UNL A   1      47.006  33.353  26.493  1.00  0.00     0.060 A 
BRANCH  70  71
ATOM     71  S   UNL A   1      47.141  35.137  26.305  1.00  0.00     0.124 S 
ATOM     72  O   UNL A   1      45.770  35.498  25.965  1.00  0.00    -0.237 OA
ATOM     73  O   UNL A   1      47.602  35.545  27.628  1.00  0.00    -0.237 OA
ATOM     74  O   UNL A   1      48.120  35.289  25.232  1.00  0.00    -0.744 OA
ENDBRANCH  70  71
ENDBRANCH  49  63
BRANCH  50  75
ATOM     75  C   UNL A   1      38.669  28.740  29.056  1.00  0.00     0.058 A 
ATOM     76  C   UNL A   1      37.708  28.953  30.062  1.00  0.00     0.135 A 
ATOM     77  C   UNL A   1      38.399  29.336  27.807  1.00  0.00     0.135 A 
ATOM     78  F   UNL A   1      37.889  28.433  31.286  1.00  0.00    -0.206 F 
ATOM     79  C   UNL A   1      36.586  29.766  29.865  1.00  0.00     0.059 A 
ATOM     80  C   UNL A   1      37.282  30.142  27.584  1.00  0.00     0.059 A 
ATOM     81  F   UNL A   1      39.265  29.232  26.788  1.00  0.00    -0.206 F 
ATOM     82  C   UNL A   1      36.396  30.379  28.628  1.00  0.00     0.060 A 
BRANCH  82  83
ATOM     83  S   UNL A   1      35.058  31.582  28.430  1.00  0.00     0.124 S 
ATOM     84  O   UNL A   1      35.702  32.623  27.637  1.00  0.00    -0.237 OA
ATOM     85  O   UNL A   1      34.038  30.796  27.745  1.00  0.00    -0.237 OA
ATOM     86  O   UNL A   1      34.733  31.955  29.804  1.00  0.00    -0.744 OA
ENDBRANCH  82  83
ENDBRANCH  50  75
BRANCH  62  87
ATOM     87  C   UNL A   1      43.946  27.433  32.384  1.00  0.00     0.058 A 
ATOM     88  C   UNL A   1      43.919  26.043  32.164  1.00  0.00     0.135 A 
ATOM     89  C   UNL A   1      43.936  27.864  33.718  1.00  0.00     0.135 A 
ATOM     90  F   UNL A   1      44.022  25.538  30.928  1.00  0.00    -0.206 F 
ATOM     91  C   UNL A   1      43.852  25.129  33.218  1.00  0.00     0.059 A 
ATOM     92  C   UNL A   1      43.902  26.971  34.787  1.00  0.00     0.059 A 
ATOM     93  F   UNL A   1      44.021  29.174  34.000  1.00  0.00    -0.206 F 
ATOM     94  C   UNL A   1      43.850  25.603  34.529  1.00  0.00     0.060 A 
BRANCH  94  95
ATOM     95  S   UNL A   1      43.847  24.419  35.894  1.00  0.00     0.124 S 
ATOM     96  O   UNL A   1      45.237  23.977  35.923  1.00  0.00    -0.237 OA
ATOM     97  O   UNL A   1      43.418  25.240  37.023  1.00  0.00    -0.237 OA
ATOM     98  O   UNL A   1      42.880  23.409  35.467  1.00  0.00    -0.744 OA
ENDBRANCH  94  95
ENDBRANCH  62  87
ENDBRANCH  36  37
ENDBRANCH  28  31
ENDBRANCH  26  27
ENDBRANCH  25  26
ENDBRANCH  24  25
ENDBRANCH   1  24
TORSDOF 20
ENDMDL
MODEL 2
REMARK VINA RESULT:     -11.3      3.065      4.472
REMARK SMILES O=C(CSc1nc2cccnc2n1CC(F)(F)F)NCCCCCCNC(=O)c1ccc(-c2c3nc(c(-c4c(F)cc(S(=O)(=O)[O-])cc4F)c4ccc([nH]4)c(-c4c(F)cc(S(=O)(=O)[O-])cc4F)c4nc(c(-c5c(F)cc(S(=O)(=O)[O-])cc5F)c5ccc2[nH]5)C=C4)C=C3)cc1
REMARK SMILES IDX 22 1 21 2 20 3 19 4 1 5 2 6 3 8 4 9 5 10 6 11 13 12 7 13
REMARK SMILES IDX 12 14 8 15 11 16 9 17 10 18 14 19 15 20 16 21 17 22 18 23
REMARK SMILES IDX 23 24 24 25 25 26 26 27 27 28 28 30 29 31 30 32 94 33 31 34
REMARK SMILES IDX 93 35 32 36 33 37 34 38 87 39 35 40 92 41 86 42 88 43 36 44
REMARK SMILES IDX 91 45 85 46 84 47 37 49 71 50 50 51 70 52 51 53 54 54 69 55
REMARK SMILES IDX 89 56 52 57 53 58 68 60 90 61 55 62 38 63 39 64 48 65 40 66
REMARK SMILES IDX 41 67 47 68 49 69 42 70 43 71 44 72 45 73 46 74 72 75 73 76
REMARK SMILES IDX 82 77 74 78 75 79 81 80 83 81 76 82 77 83 78 84 79 85 80 86
REMARK SMILES IDX 56 87 57 88 66 89 58 90 59 91 65 92 67 93 60 94 61 95 62 96
REMARK SMILES IDX 63 97 64 98
REMARK H PARENT 19 7 26 29 88 48 54 59
REMARK Flexibility Score: inf
ROOT
ATOM      1  C   UNL A   1      36.746  22.972  25.535  1.00  0.00     0.002 C 
ENDROOT
BRANCH   1   2
ATOM      2  C   UNL A   1      36.249  21.533  25.360  1.00  0.00     0.021 C 
BRANCH   2   3
ATOM      3  C   UNL A   1      34.910  21.421  24.651  1.00  0.00     0.116 C 
BRANCH   3   4
ATOM      4  N   UNL A   1      34.451  22.694  24.136  1.00  0.00    -0.355 N 
ATOM      5  O   UNL A   1      32.730  21.881  22.871  1.00  0.00    -0.274 OA
ATOM      6  C   UNL A   1      33.332  22.837  23.345  1.00  0.00     0.230 C 
ATOM      7  H   UNL A   1      34.966  23.501  24.364  1.00  0.00     0.163 HD
BRANCH   6   8
ATOM      8  C   UNL A   1      32.859  24.269  23.143  1.00  0.00     0.178 C 
BRANCH   8   9
ATOM      9  S   UNL A   1      31.951  24.887  24.584  1.00  0.00    -0.078 SA
BRANCH   9  10
ATOM     10  C   UNL A   1      32.456  26.523  24.882  1.00  0.00     0.171 A 
ATOM     11  N   UNL A   1      33.547  26.742  25.595  1.00  0.00    -0.221 NA
ATOM     12  N   UNL A   1      31.705  27.671  24.759  1.00  0.00    -0.294 N 
ATOM     13  C   UNL A   1      33.427  28.020  26.068  1.00  0.00     0.109 A 
ATOM     14  C   UNL A   1      32.276  28.612  25.579  1.00  0.00     0.160 A 
ATOM     15  C   UNL A   1      34.213  28.762  26.956  1.00  0.00     0.034 A 
ATOM     16  N   UNL A   1      31.792  29.836  25.860  1.00  0.00    -0.237 NA
ATOM     17  C   UNL A   1      33.751  30.036  27.302  1.00  0.00     0.022 A 
ATOM     18  C   UNL A   1      32.567  30.508  26.742  1.00  0.00     0.113 A 
BRANCH  12  19
ATOM     19  C   UNL A   1      30.511  27.968  24.004  1.00  0.00     0.241 C 
BRANCH  19  20
ATOM     20  C   UNL A   1      30.811  28.246  22.550  1.00  0.00     0.406 C 
ATOM     21  F   UNL A   1      31.042  27.110  21.859  1.00  0.00    -0.169 F 
ATOM     22  F   UNL A   1      29.772  28.885  21.967  1.00  0.00    -0.169 F 
ATOM     23  F   UNL A   1      31.898  29.035  22.401  1.00  0.00    -0.169 F 
ENDBRANCH  19  20
ENDBRANCH  12  19
ENDBRANCH   9  10
ENDBRANCH   8   9
ENDBRANCH   6   8
ENDBRANCH   3   4
ENDBRANCH   2   3
ENDBRANCH   1   2
BRANCH   1  24
ATOM     24  C   UNL A   1      38.150  23.133  26.140  1.00  0.00     0.002 C 
BRANCH  24  25
ATOM     25  C   UNL A   1      39.070  21.909  26.065  1.00  0.00     0.021 C 
BRANCH  25  26
ATOM     26  C   UNL A   1      40.295  22.009  26.959  1.00  0.00     0.116 C 
BRANCH  26  27
ATOM     27  N   UNL A   1      41.534  22.040  26.189  1.00  0.00    -0.352 N 
ATOM     28  C   UNL A   1      42.232  23.136  25.722  1.00  0.00     0.251 C 
ATOM     29  H   UNL A   1      41.925  21.162  25.974  1.00  0.00     0.163 HD
ATOM     30  O   UNL A   1      43.017  23.019  24.795  1.00  0.00    -0.269 OA
BRANCH  28  31
ATOM     31  C   UNL A   1      42.028  24.443  26.376  1.00  0.00     0.039 A 
ATOM     32  C   UNL A   1      41.208  25.417  25.799  1.00  0.00     0.014 A 
ATOM     33  C   UNL A   1      42.714  24.701  27.561  1.00  0.00     0.014 A 
ATOM     34  C   UNL A   1      41.060  26.639  26.448  1.00  0.00     0.010 A 
ATOM     35  C   UNL A   1      42.454  25.838  28.275  1.00  0.00     0.010 A 
ATOM     36  C   UNL A   1      41.693  26.835  27.684  1.00  0.00    -0.014 A 
BRANCH  36  37
ATOM     37  C   UNL A   1      41.547  28.077  28.420  1.00  0.00     0.031 A 
ATOM     38  C   UNL A   1      42.624  29.068  28.176  1.00  0.00     0.074 A 
ATOM     39  C   UNL A   1      40.400  28.391  29.060  1.00  0.00     0.049 A 
ATOM     40  N   UNL A   1      43.566  29.428  28.982  1.00  0.00    -0.248 NA
ATOM     41  C   UNL A   1      42.769  29.604  26.813  1.00  0.00     0.031 C 
ATOM     42  C   UNL A   1      39.127  27.660  29.074  1.00  0.00     0.029 A 
ATOM     43  N   UNL A   1      40.106  29.510  29.767  1.00  0.00    -0.354 N 
ATOM     44  C   UNL A   1      44.277  30.420  28.311  1.00  0.00     0.074 A 
ATOM     45  C   UNL A   1      43.890  30.318  26.927  1.00  0.00     0.031 C 
ATOM     46  C   UNL A   1      38.153  28.456  29.568  1.00  0.00     0.029 A 
ATOM     47  C   UNL A   1      38.757  29.682  30.055  1.00  0.00     0.049 A 
ATOM     48  H   UNL A   1      40.795  30.152  30.054  1.00  0.00     0.167 HD
ATOM     49  C   UNL A   1      44.926  31.407  28.988  1.00  0.00     0.037 A 
ATOM     50  C   UNL A   1      38.194  30.779  30.623  1.00  0.00     0.037 A 
ATOM     51  C   UNL A   1      45.040  31.082  30.390  1.00  0.00     0.049 A 
ATOM     52  C   UNL A   1      39.295  31.509  31.313  1.00  0.00     0.074 A 
ATOM     53  C   UNL A   1      45.621  30.049  31.101  1.00  0.00     0.029 A 
ATOM     54  N   UNL A   1      44.146  31.672  31.254  1.00  0.00    -0.354 N 
ATOM     55  N   UNL A   1      39.954  31.034  32.335  1.00  0.00    -0.248 NA
ATOM     56  C   UNL A   1      39.976  32.557  30.566  1.00  0.00     0.031 C 
ATOM     57  C   UNL A   1      44.706  29.770  32.159  1.00  0.00     0.029 A 
ATOM     58  C   UNL A   1      43.660  30.691  32.081  1.00  0.00     0.049 A 
ATOM     59  H   UNL A   1      43.901  32.625  31.275  1.00  0.00     0.167 HD
ATOM     60  C   UNL A   1      41.273  31.408  32.119  1.00  0.00     0.074 A 
ATOM     61  C   UNL A   1      41.211  32.411  31.057  1.00  0.00     0.031 C 
ATOM     62  C   UNL A   1      42.312  30.671  32.613  1.00  0.00     0.037 A 
BRANCH  49  63
ATOM     63  C   UNL A   1      45.133  32.814  28.474  1.00  0.00     0.058 A 
ATOM     64  C   UNL A   1      46.446  33.309  28.337  1.00  0.00     0.135 A 
ATOM     65  C   UNL A   1      44.107  33.780  28.362  1.00  0.00     0.135 A 
ATOM     66  F   UNL A   1      47.503  32.485  28.430  1.00  0.00    -0.206 F 
ATOM     67  C   UNL A   1      46.722  34.668  28.176  1.00  0.00     0.059 A 
ATOM     68  C   UNL A   1      44.357  35.129  28.143  1.00  0.00     0.059 A 
ATOM     69  F   UNL A   1      42.818  33.485  28.560  1.00  0.00    -0.206 F 
ATOM     70  C   UNL A   1      45.668  35.573  28.093  1.00  0.00     0.060 A 
BRANCH  70  71
ATOM     71  S   UNL A   1      46.019  37.335  27.993  1.00  0.00     0.124 S 
ATOM     72  O   UNL A   1      44.978  37.888  28.851  1.00  0.00    -0.237 OA
ATOM     73  O   UNL A   1      47.380  37.401  28.515  1.00  0.00    -0.237 OA
ATOM     74  O   UNL A   1      45.886  37.624  26.568  1.00  0.00    -0.744 OA
ENDBRANCH  70  71
ENDBRANCH  49  63
BRANCH  50  75
ATOM     75  C   UNL A   1      36.890  31.421  30.299  1.00  0.00     0.058 A 
ATOM     76  C   UNL A   1      36.056  31.916  31.318  1.00  0.00     0.135 A 
ATOM     77  C   UNL A   1      36.576  31.833  28.988  1.00  0.00     0.135 A 
ATOM     78  F   UNL A   1      36.287  31.585  32.598  1.00  0.00    -0.206 F 
ATOM     79  C   UNL A   1      35.019  32.821  31.063  1.00  0.00     0.059 A 
ATOM     80  C   UNL A   1      35.542  32.727  28.708  1.00  0.00     0.059 A 
ATOM     81  F   UNL A   1      37.329  31.455  27.943  1.00  0.00    -0.206 F 
ATOM     82  C   UNL A   1      34.787  33.242  29.755  1.00  0.00     0.060 A 
BRANCH  82  83
ATOM     83  S   UNL A   1      33.581  34.556  29.446  1.00  0.00     0.124 S 
ATOM     84  O   UNL A   1      32.601  33.876  28.607  1.00  0.00    -0.237 OA
ATOM     85  O   UNL A   1      33.142  34.893  30.796  1.00  0.00    -0.237 OA
ATOM     86  O   UNL A   1      34.369  35.588  28.776  1.00  0.00    -0.744 OA
ENDBRANCH  82  83
ENDBRANCH  50  75
BRANCH  62  87
ATOM     87  C   UNL A   1      42.008  29.598  33.634  1.00  0.00     0.058 A 
ATOM     88  C   UNL A   1      41.735  28.253  33.322  1.00  0.00     0.135 A 
ATOM     89  C   UNL A   1      42.169  29.915  34.990  1.00  0.00     0.135 A 
ATOM     90  F   UNL A   1      41.661  27.841  32.050  1.00  0.00    -0.206 F 
ATOM     91  C   UNL A   1      41.597  27.278  34.313  1.00  0.00     0.059 A 
ATOM     92  C   UNL A   1      42.066  28.954  35.994  1.00  0.00     0.059 A 
ATOM     93  F   UNL A   1      42.489  31.167  35.353  1.00  0.00    -0.206 F 
ATOM     94  C   UNL A   1      41.771  27.638  35.649  1.00  0.00     0.060 A 
BRANCH  94  95
ATOM     95  S   UNL A   1      41.673  26.362  36.925  1.00  0.00     0.124 S 
ATOM     96  O   UNL A   1      41.669  25.136  36.135  1.00  0.00    -0.237 OA
ATOM     97  O   UNL A   1      42.879  26.607  37.710  1.00  0.00    -0.237 OA
ATOM     98  O   UNL A   1      40.419  26.664  37.613  1.00  0.00    -0.744 OA
ENDBRANCH  94  95
ENDBRANCH  62  87
ENDBRANCH  36  37
ENDBRANCH  28  31
ENDBRANCH  26  27
ENDBRANCH  25  26
ENDBRANCH  24  25
ENDBRANCH   1  24
TORSDOF 20
ENDMDL
MODEL 3
REMARK VINA RESULT:     -11.2      1.697      2.669
REMARK SMILES O=C(CSc1nc2cccnc2n1CC(F)(F)F)NCCCCCCNC(=O)c1ccc(-c2c3nc(c(-c4c(F)cc(S(=O)(=O)[O-])cc4F)c4ccc([nH]4)c(-c4c(F)cc(S(=O)(=O)[O-])cc4F)c4nc(c(-c5c(F)cc(S(=O)(=O)[O-])cc5F)c5ccc2[nH]5)C=C4)C=C3)cc1
REMARK SMILES IDX 22 1 21 2 20 3 19 4 1 5 2 6 3 8 4 9 5 10 6 11 13 12 7 13
REMARK SMILES IDX 12 14 8 15 11 16 9 17 10 18 14 19 15 20 16 21 17 22 18 23
REMARK SMILES IDX 23 24 24 25 25 26 26 27 27 28 28 30 29 31 30 32 94 33 31 34
REMARK SMILES IDX 93 35 32 36 33 37 34 38 87 39 35 40 92 41 86 42 88 43 36 44
REMARK SMILES IDX 91 45 85 46 84 47 37 49 71 50 50 51 70 52 51 53 54 54 69 55
REMARK SMILES IDX 89 56 52 57 53 58 68 60 90 61 55 62 38 63 39 64 48 65 40 66
REMARK SMILES IDX 41 67 47 68 49 69 42 70 43 71 44 72 45 73 46 74 72 75 73 76
REMARK SMILES IDX 82 77 74 78 75 79 81 80 83 81 76 82 77 83 78 84 79 85 80 86
REMARK SMILES IDX 56 87 57 88 66 89 58 90 59 91 65 92 67 93 60 94 61 95 62 96
REMARK SMILES IDX 63 97 64 98
REMARK H PARENT 19 7 26 29 88 48 54 59
REMARK Flexibility Score: inf
ROOT
ATOM      1  C   UNL A   1      40.778  21.889  27.102  1.00  0.00     0.002 C 
ENDROOT
BRANCH   1   2
ATOM      2  C   UNL A   1      39.393  21.892  26.445  1.00  0.00     0.021 C 
BRANCH   2   3
ATOM      3  C   UNL A   1      38.765  23.270  26.326  1.00  0.00     0.116 C 
BRANCH   3   4
ATOM      4  N   UNL A   1      37.319  23.221  26.363  1.00  0.00    -0.355 N 
ATOM      5  O   UNL A   1      36.972  23.438  24.114  1.00  0.00    -0.274 OA
ATOM      6  C   UNL A   1      36.527  23.223  25.236  1.00  0.00     0.230 C 
ATOM      7  H   UNL A   1      36.876  23.184  27.242  1.00  0.00     0.163 HD
BRANCH   6   8
ATOM      8  C   UNL A   1      35.062  22.885  25.470  1.00  0.00     0.178 C 
BRANCH   8   9
ATOM      9  S   UNL A   1      34.203  22.509  23.920  1.00  0.00    -0.078 SA
BRANCH   9  10
ATOM     10  C   UNL A   1      33.406  23.954  23.378  1.00  0.00     0.171 A 
ATOM     11  N   UNL A   1      34.087  24.840  22.672  1.00  0.00    -0.221 NA
ATOM     12  N   UNL A   1      32.229  24.494  23.847  1.00  0.00    -0.294 N 
ATOM     13  C   UNL A   1      33.410  26.021  22.810  1.00  0.00     0.109 A 
ATOM     14  C   UNL A   1      32.260  25.836  23.557  1.00  0.00     0.160 A 
ATOM     15  C   UNL A   1      33.705  27.319  22.384  1.00  0.00     0.034 A 
ATOM     16  N   UNL A   1      31.368  26.765  23.949  1.00  0.00    -0.237 NA
ATOM     17  C   UNL A   1      32.825  28.333  22.776  1.00  0.00     0.022 A 
ATOM     18  C   UNL A   1      31.706  28.008  23.538  1.00  0.00     0.113 A 
BRANCH  12  19
ATOM     19  C   UNL A   1      31.116  23.912  24.559  1.00  0.00     0.241 C 
BRANCH  19  20
ATOM     20  C   UNL A   1      31.380  23.807  26.042  1.00  0.00     0.406 C 
ATOM     21  F   UNL A   1      30.280  24.099  26.770  1.00  0.00    -0.169 F 
ATOM     22  F   UNL A   1      31.774  22.555  26.365  1.00  0.00    -0.169 F 
ATOM     23  F   UNL A   1      32.360  24.648  26.441  1.00  0.00    -0.169 F 
ENDBRANCH  19  20
ENDBRANCH  12  19
ENDBRANCH   9  10
ENDBRANCH   8   9
ENDBRANCH   6   8
ENDBRANCH   3   4
ENDBRANCH   2   3
ENDBRANCH   1   2
BRANCH   1  24
ATOM     24  C   UNL A   1      41.160  20.613  27.868  1.00  0.00     0.002 C 
BRANCH  24  25
ATOM     25  C   UNL A   1      42.187  19.694  27.195  1.00  0.00     0.021 C 
BRANCH  25  26
ATOM     26  C   UNL A   1      42.147  19.742  25.676  1.00  0.00     0.116 C 
BRANCH  26  27
ATOM     27  N   UNL A   1      43.484  19.723  25.092  1.00  0.00    -0.352 N 
ATOM     28  C   UNL A   1      44.326  20.786  24.831  1.00  0.00     0.251 C 
ATOM     29  H   UNL A   1      43.833  18.834  24.853  1.00  0.00     0.163 HD
ATOM     30  O   UNL A   1      45.227  20.672  24.016  1.00  0.00    -0.269 OA
BRANCH  28  31
ATOM     31  C   UNL A   1      44.131  22.048  25.568  1.00  0.00     0.039 A 
ATOM     32  C   UNL A   1      44.695  22.239  26.833  1.00  0.00     0.014 A 
ATOM     33  C   UNL A   1      43.328  23.031  24.992  1.00  0.00     0.014 A 
ATOM     34  C   UNL A   1      44.469  23.443  27.493  1.00  0.00     0.010 A 
ATOM     35  C   UNL A   1      43.230  24.267  25.568  1.00  0.00     0.010 A 
ATOM     36  C   UNL A   1      43.731  24.446  26.849  1.00  0.00    -0.014 A 
BRANCH  36  37
ATOM     37  C   UNL A   1      43.493  25.732  27.476  1.00  0.00     0.031 A 
ATOM     38  C   UNL A   1      44.491  26.776  27.137  1.00  0.00     0.074 A 
ATOM     39  C   UNL A   1      42.327  26.014  28.095  1.00  0.00     0.049 A 
ATOM     40  N   UNL A   1      45.405  27.275  27.901  1.00  0.00    -0.248 NA
ATOM     41  C   UNL A   1      44.593  27.201  25.732  1.00  0.00     0.031 C 
ATOM     42  C   UNL A   1      41.113  25.193  28.183  1.00  0.00     0.029 A 
ATOM     43  N   UNL A   1      41.950  27.165  28.704  1.00  0.00    -0.354 N 
ATOM     44  C   UNL A   1      46.038  28.255  27.140  1.00  0.00     0.074 A 
ATOM     45  C   UNL A   1      45.658  28.005  25.775  1.00  0.00     0.031 C 
ATOM     46  C   UNL A   1      40.082  25.954  28.614  1.00  0.00     0.029 A 
ATOM     47  C   UNL A   1      40.592  27.260  28.988  1.00  0.00     0.049 A 
ATOM     48  H   UNL A   1      42.589  27.880  28.929  1.00  0.00     0.167 HD
ATOM     49  C   UNL A   1      46.611  29.344  27.724  1.00  0.00     0.037 A 
ATOM     50  C   UNL A   1      39.949  28.357  29.463  1.00  0.00     0.037 A 
ATOM     51  C   UNL A   1      46.752  29.151  29.148  1.00  0.00     0.049 A 
ATOM     52  C   UNL A   1      40.993  29.225  30.077  1.00  0.00     0.074 A 
ATOM     53  C   UNL A   1      47.411  28.231  29.941  1.00  0.00     0.029 A 
ATOM     54  N   UNL A   1      45.818  29.746  29.964  1.00  0.00    -0.354 N 
ATOM     55  N   UNL A   1      41.688  28.892  31.132  1.00  0.00    -0.248 NA
ATOM     56  C   UNL A   1      41.592  30.252  29.237  1.00  0.00     0.031 C 
ATOM     57  C   UNL A   1      46.521  27.978  31.028  1.00  0.00     0.029 A 
ATOM     58  C   UNL A   1      45.408  28.808  30.878  1.00  0.00     0.049 A 
ATOM     59  H   UNL A   1      45.502  30.676  29.905  1.00  0.00     0.167 HD
ATOM     60  C   UNL A   1      42.974  29.344  30.873  1.00  0.00     0.074 A 
ATOM     61  C   UNL A   1      42.835  30.243  29.728  1.00  0.00     0.031 C 
ATOM     62  C   UNL A   1      44.067  28.732  31.421  1.00  0.00     0.037 A 
BRANCH  49  63
ATOM     63  C   UNL A   1      46.711  30.712  27.088  1.00  0.00     0.058 A 
ATOM     64  C   UNL A   1      47.961  31.365  27.053  1.00  0.00     0.135 A 
ATOM     65  C   UNL A   1      45.599  31.517  26.752  1.00  0.00     0.135 A 
ATOM     66  F   UNL A   1      49.088  30.702  27.359  1.00  0.00    -0.206 F 
ATOM     67  C   UNL A   1      48.087  32.728  26.779  1.00  0.00     0.059 A 
ATOM     68  C   UNL A   1      45.709  32.861  26.418  1.00  0.00     0.059 A 
ATOM     69  F   UNL A   1      44.340  31.071  26.828  1.00  0.00    -0.206 F 
ATOM     70  C   UNL A   1      46.951  33.471  26.475  1.00  0.00     0.060 A 
BRANCH  70  71
ATOM     71  S   UNL A   1      47.095  35.247  26.226  1.00  0.00     0.124 S 
ATOM     72  O   UNL A   1      47.450  35.701  27.565  1.00  0.00    -0.237 OA
ATOM     73  O   UNL A   1      48.150  35.326  25.222  1.00  0.00    -0.237 OA
ATOM     74  O   UNL A   1      45.764  35.630  25.761  1.00  0.00    -0.744 OA
ENDBRANCH  70  71
ENDBRANCH  49  63
BRANCH  50  75
ATOM     75  C   UNL A   1      38.600  28.868  29.094  1.00  0.00     0.058 A 
ATOM     76  C   UNL A   1      37.606  29.052  30.073  1.00  0.00     0.135 A 
ATOM     77  C   UNL A   1      38.354  29.469  27.843  1.00  0.00     0.135 A 
ATOM     78  F   UNL A   1      37.761  28.525  31.297  1.00  0.00    -0.206 F 
ATOM     79  C   UNL A   1      36.472  29.842  29.849  1.00  0.00     0.059 A 
ATOM     80  C   UNL A   1      37.227  30.253  27.593  1.00  0.00     0.059 A 
ATOM     81  F   UNL A   1      39.253  29.392  26.849  1.00  0.00    -0.206 F 
ATOM     82  C   UNL A   1      36.306  30.462  28.612  1.00  0.00     0.060 A 
BRANCH  82  83
ATOM     83  S   UNL A   1      34.949  31.638  28.384  1.00  0.00     0.124 S 
ATOM     84  O   UNL A   1      33.942  30.814  27.726  1.00  0.00    -0.237 OA
ATOM     85  O   UNL A   1      34.653  32.034  29.756  1.00  0.00    -0.237 OA
ATOM     86  O   UNL A   1      35.542  32.682  27.552  1.00  0.00    -0.744 OA
ENDBRANCH  82  83
ENDBRANCH  50  75
BRANCH  62  87
ATOM     87  C   UNL A   1      43.846  27.733  32.533  1.00  0.00     0.058 A 
ATOM     88  C   UNL A   1      43.825  26.336  32.360  1.00  0.00     0.135 A 
ATOM     89  C   UNL A   1      43.825  28.209  33.852  1.00  0.00     0.135 A 
ATOM     90  F   UNL A   1      43.939  25.790  31.143  1.00  0.00    -0.206 F 
ATOM     91  C   UNL A   1      43.755  25.458  33.445  1.00  0.00     0.059 A 
ATOM     92  C   UNL A   1      43.786  27.353  34.950  1.00  0.00     0.059 A 
ATOM     93  F   UNL A   1      43.903  29.528  34.089  1.00  0.00    -0.206 F 
ATOM     94  C   UNL A   1      43.742  25.977  34.739  1.00  0.00     0.060 A 
BRANCH  94  95
ATOM     95  S   UNL A   1      43.733  24.840  36.143  1.00  0.00     0.124 S 
ATOM     96  O   UNL A   1      43.429  25.731  37.258  1.00  0.00    -0.237 OA
ATOM     97  O   UNL A   1      42.680  23.896  35.779  1.00  0.00    -0.237 OA
ATOM     98  O   UNL A   1      45.084  24.283  36.140  1.00  0.00    -0.744 OA
ENDBRANCH  94  95
ENDBRANCH  62  87
ENDBRANCH  36  37
ENDBRANCH  28  31
ENDBRANCH  26  27
ENDBRANCH  25  26
ENDBRANCH  24  25
ENDBRANCH   1  24
TORSDOF 20
ENDMDL
