MODEL 1
REMARK VINA RESULT:     -11.3      0.000      0.000
REMARK SMILES C[C@@H](C(=O)NCCCCCCNC(=O)c1ccc(-c2c3nc(c(-c4c(F)cc(S(=O)(=O)[O-])cc4F)c4ccc([nH]4)c(-c4c(F)cc(S(=O)(=O)[O-])cc4F)c4nc(c(-c5c(F)cc(S(=O)(=O)[O-])cc5F)c5ccc2[nH]5)C=C4)C=C3)cc1)c1ccc(C[C@H]2CCC[C@@H]2O)cc1F
REMARK SMILES IDX 8 1 7 2 6 3 5 4 3 5 4 6 2 8 1 9 81 10 82 11 93 12 83 13
REMARK SMILES IDX 92 14 94 15 84 16 85 17 86 18 87 19 90 20 88 21 89 22 91 23
REMARK SMILES IDX 9 25 10 26 11 27 12 28 13 29 14 31 15 32 16 33 80 34 17 35
REMARK SMILES IDX 79 36 18 37 19 38 20 39 73 40 21 41 78 42 72 43 74 44 22 45
REMARK SMILES IDX 77 46 71 47 70 48 23 50 57 51 36 52 56 53 37 54 40 55 55 56
REMARK SMILES IDX 75 57 38 58 39 59 54 61 76 62 41 63 24 64 25 65 34 66 26 67
REMARK SMILES IDX 27 68 33 69 35 70 28 71 29 72 30 73 31 74 32 75 58 76 59 77
REMARK SMILES IDX 68 78 60 79 61 80 67 81 69 82 62 83 63 84 64 85 65 86 66 87
REMARK SMILES IDX 42 88 43 89 52 90 44 91 45 92 51 93 53 94 46 95 47 96 48 97
REMARK SMILES IDX 49 98 50 99
REMARK H PARENT 5 7 91 24 12 30 74 49 40 60
REMARK Flexibility Score: inf
ROOT
ATOM      1  C   UNL A   1      31.575  29.511  25.150  1.00  0.00     0.002 C 
ENDROOT
BRANCH   1   2
ATOM      2  C   UNL A   1      30.798  28.207  24.921  1.00  0.00     0.021 C 
BRANCH   2   3
ATOM      3  C   UNL A   1      30.533  27.890  23.447  1.00  0.00     0.116 C 
BRANCH   3   4
ATOM      4  N   UNL A   1      30.279  26.477  23.277  1.00  0.00    -0.356 N 
ATOM      5  C   UNL A   1      31.147  25.430  23.202  1.00  0.00     0.227 C 
ATOM      6  O   UNL A   1      30.653  24.332  22.928  1.00  0.00    -0.274 OA
ATOM      7  H   UNL A   1      29.328  26.231  23.204  1.00  0.00     0.163 HD
BRANCH   5   8
ATOM      8  C   UNL A   1      32.646  25.636  23.500  1.00  0.00     0.108 C 
ATOM      9  C   UNL A   1      33.434  26.226  22.328  1.00  0.00     0.023 C 
BRANCH   8  10
ATOM     10  C   UNL A   1      33.327  24.343  23.924  1.00  0.00    -0.000 A 
ATOM     11  C   UNL A   1      34.038  23.562  22.999  1.00  0.00     0.008 A 
ATOM     12  C   UNL A   1      33.276  23.910  25.249  1.00  0.00     0.127 A 
ATOM     13  C   UNL A   1      34.626  22.359  23.384  1.00  0.00     0.004 A 
ATOM     14  C   UNL A   1      33.854  22.704  25.638  1.00  0.00     0.043 A 
ATOM     15  F   UNL A   1      32.653  24.651  26.176  1.00  0.00    -0.207 F 
ATOM     16  C   UNL A   1      34.499  21.892  24.695  1.00  0.00    -0.045 A 
BRANCH  16  17
ATOM     17  C   UNL A   1      34.994  20.518  25.074  1.00  0.00     0.041 C 
BRANCH  17  18
ATOM     18  C   UNL A   1      34.101  19.344  24.625  1.00  0.00     0.022 C 
ATOM     19  C   UNL A   1      34.823  18.004  24.399  1.00  0.00     0.007 C 
ATOM     20  C   UNL A   1      32.929  19.000  25.553  1.00  0.00     0.117 C 
ATOM     21  C   UNL A   1      33.868  16.915  24.895  1.00  0.00     0.003 C 
ATOM     22  C   UNL A   1      32.531  17.605  25.101  1.00  0.00     0.032 C 
BRANCH  20  23
ATOM     23  O   UNL A   1      31.849  19.902  25.392  1.00  0.00    -0.393 OA
ATOM     24  H   UNL A   1      31.556  19.894  24.467  1.00  0.00     0.210 HD
ENDBRANCH  20  23
ENDBRANCH  17  18
ENDBRANCH  16  17
ENDBRANCH   8  10
ENDBRANCH   5   8
ENDBRANCH   3   4
ENDBRANCH   2   3
ENDBRANCH   1   2
BRANCH   1  25
ATOM     25  C   UNL A   1      33.086  29.413  24.922  1.00  0.00     0.002 C 
BRANCH  25  26
ATOM     26  C   UNL A   1      33.802  28.380  25.796  1.00  0.00     0.021 C 
BRANCH  26  27
ATOM     27  C   UNL A   1      33.586  28.564  27.295  1.00  0.00     0.116 C 
BRANCH  27  28
ATOM     28  N   UNL A   1      33.583  29.968  27.676  1.00  0.00    -0.352 N 
ATOM     29  C   UNL A   1      34.569  30.707  28.281  1.00  0.00     0.251 C 
ATOM     30  H   UNL A   1      32.756  30.459  27.470  1.00  0.00     0.163 HD
ATOM     31  O   UNL A   1      34.314  31.825  28.723  1.00  0.00    -0.269 OA
BRANCH  29  32
ATOM     32  C   UNL A   1      35.928  30.144  28.423  1.00  0.00     0.039 A 
ATOM     33  C   UNL A   1      36.788  30.167  27.324  1.00  0.00     0.014 A 
ATOM     34  C   UNL A   1      36.359  29.611  29.642  1.00  0.00     0.014 A 
ATOM     35  C   UNL A   1      38.106  29.730  27.468  1.00  0.00     0.010 A 
ATOM     36  C   UNL A   1      37.692  29.238  29.802  1.00  0.00     0.010 A 
ATOM     37  C   UNL A   1      38.583  29.309  28.721  1.00  0.00    -0.014 A 
BRANCH  37  38
ATOM     38  C   UNL A   1      40.024  29.003  28.929  1.00  0.00     0.031 A 
ATOM     39  C   UNL A   1      40.583  27.656  28.559  1.00  0.00     0.074 A 
ATOM     40  C   UNL A   1      40.810  29.924  29.522  1.00  0.00     0.049 A 
ATOM     41  N   UNL A   1      41.795  27.195  28.731  1.00  0.00    -0.248 NA
ATOM     42  C   UNL A   1      39.661  26.694  27.933  1.00  0.00     0.031 C 
ATOM     43  C   UNL A   1      40.369  31.247  29.976  1.00  0.00     0.029 A 
ATOM     44  N   UNL A   1      42.140  29.890  29.863  1.00  0.00    -0.354 N 
ATOM     45  C   UNL A   1      41.780  25.891  28.251  1.00  0.00     0.074 A 
ATOM     46  C   UNL A   1      40.429  25.620  27.810  1.00  0.00     0.031 C 
ATOM     47  C   UNL A   1      41.407  31.898  30.521  1.00  0.00     0.029 A 
ATOM     48  C   UNL A   1      42.578  31.028  30.501  1.00  0.00     0.049 A 
ATOM     49  H   UNL A   1      42.725  29.123  29.668  1.00  0.00     0.167 HD
ATOM     50  C   UNL A   1      42.804  25.009  28.172  1.00  0.00     0.037 A 
ATOM     51  C   UNL A   1      43.778  31.329  31.035  1.00  0.00     0.037 A 
ATOM     52  C   UNL A   1      44.153  25.298  28.585  1.00  0.00     0.049 A 
ATOM     53  C   UNL A   1      44.894  30.321  30.940  1.00  0.00     0.074 A 
ATOM     54  C   UNL A   1      45.278  24.500  28.459  1.00  0.00     0.029 A 
ATOM     55  N   UNL A   1      44.562  26.466  29.212  1.00  0.00    -0.354 N 
ATOM     56  N   UNL A   1      44.884  29.130  30.389  1.00  0.00    -0.248 NA
ATOM     57  C   UNL A   1      46.183  30.695  31.539  1.00  0.00     0.031 C 
ATOM     58  C   UNL A   1      46.351  25.156  29.068  1.00  0.00     0.029 A 
ATOM     59  C   UNL A   1      45.911  26.389  29.519  1.00  0.00     0.049 A 
ATOM     60  H   UNL A   1      43.980  27.234  29.410  1.00  0.00     0.167 HD
ATOM     61  C   UNL A   1      46.168  28.624  30.558  1.00  0.00     0.074 A 
ATOM     62  C   UNL A   1      46.936  29.646  31.237  1.00  0.00     0.031 C 
ATOM     63  C   UNL A   1      46.665  27.417  30.191  1.00  0.00     0.037 A 
BRANCH  50  64
ATOM     64  C   UNL A   1      42.530  23.638  27.616  1.00  0.00     0.058 A 
ATOM     65  C   UNL A   1      42.553  23.383  26.237  1.00  0.00     0.135 A 
ATOM     66  C   UNL A   1      42.358  22.545  28.482  1.00  0.00     0.135 A 
ATOM     67  F   UNL A   1      42.699  24.392  25.364  1.00  0.00    -0.206 F 
ATOM     68  C   UNL A   1      42.418  22.092  25.735  1.00  0.00     0.059 A 
ATOM     69  C   UNL A   1      42.246  21.244  28.004  1.00  0.00     0.059 A 
ATOM     70  F   UNL A   1      42.324  22.736  29.811  1.00  0.00    -0.206 F 
ATOM     71  C   UNL A   1      42.277  21.027  26.627  1.00  0.00     0.060 A 
BRANCH  71  72
ATOM     72  S   UNL A   1      42.171  19.353  25.959  1.00  0.00     0.124 S 
ATOM     73  O   UNL A   1      42.710  18.563  27.062  1.00  0.00    -0.237 OA
ATOM     74  O   UNL A   1      40.740  19.207  25.715  1.00  0.00    -0.237 OA
ATOM     75  O   UNL A   1      43.006  19.409  24.763  1.00  0.00    -0.744 OA
ENDBRANCH  71  72
ENDBRANCH  50  64
BRANCH  51  76
ATOM     76  C   UNL A   1      43.992  32.629  31.729  1.00  0.00     0.058 A 
ATOM     77  C   UNL A   1      43.764  32.765  33.107  1.00  0.00     0.135 A 
ATOM     78  C   UNL A   1      44.390  33.773  31.019  1.00  0.00     0.135 A 
ATOM     79  F   UNL A   1      43.378  31.704  33.831  1.00  0.00    -0.206 F 
ATOM     80  C   UNL A   1      43.883  33.994  33.749  1.00  0.00     0.059 A 
ATOM     81  C   UNL A   1      44.549  35.005  31.644  1.00  0.00     0.059 A 
ATOM     82  F   UNL A   1      44.640  33.697  29.702  1.00  0.00    -0.206 F 
ATOM     83  C   UNL A   1      44.271  35.110  33.006  1.00  0.00     0.060 A 
BRANCH  83  84
ATOM     84  S   UNL A   1      44.422  36.702  33.845  1.00  0.00     0.124 S 
ATOM     85  O   UNL A   1      44.854  36.290  35.176  1.00  0.00    -0.237 OA
ATOM     86  O   UNL A   1      45.422  37.385  33.031  1.00  0.00    -0.237 OA
ATOM     87  O   UNL A   1      43.073  37.254  33.761  1.00  0.00    -0.744 OA
ENDBRANCH  83  84
ENDBRANCH  51  76
BRANCH  63  88
ATOM     88  C   UNL A   1      48.111  27.139  30.500  1.00  0.00     0.058 A 
ATOM     89  C   UNL A   1      48.497  26.464  31.669  1.00  0.00     0.135 A 
ATOM     90  C   UNL A   1      49.118  27.506  29.593  1.00  0.00     0.135 A 
ATOM     91  F   UNL A   1      47.576  26.099  32.574  1.00  0.00    -0.206 F 
ATOM     92  C   UNL A   1      49.832  26.183  31.937  1.00  0.00     0.059 A 
ATOM     93  C   UNL A   1      50.456  27.206  29.826  1.00  0.00     0.059 A 
ATOM     94  F   UNL A   1      48.803  28.146  28.455  1.00  0.00    -0.206 F 
ATOM     95  C   UNL A   1      50.805  26.553  31.007  1.00  0.00     0.060 A 
BRANCH  95  96
ATOM     96  S   UNL A   1      52.528  26.144  31.352  1.00  0.00     0.124 S 
ATOM     97  O   UNL A   1      52.403  24.815  31.943  1.00  0.00    -0.237 OA
ATOM     98  O   UNL A   1      53.133  26.194  30.025  1.00  0.00    -0.237 OA
ATOM     99  O   UNL A   1      52.951  27.200  32.269  1.00  0.00    -0.744 OA
ENDBRANCH  95  96
ENDBRANCH  63  88
ENDBRANCH  37  38
ENDBRANCH  29  32
ENDBRANCH  27  28
ENDBRANCH  26  27
ENDBRANCH  25  26
ENDBRANCH   1  25
TORSDOF 20
ENDMDL
MODEL 2
REMARK VINA RESULT:     -11.1      4.598      6.985
REMARK SMILES C[C@@H](C(=O)NCCCCCCNC(=O)c1ccc(-c2c3nc(c(-c4c(F)cc(S(=O)(=O)[O-])cc4F)c4ccc([nH]4)c(-c4c(F)cc(S(=O)(=O)[O-])cc4F)c4nc(c(-c5c(F)cc(S(=O)(=O)[O-])cc5F)c5ccc2[nH]5)C=C4)C=C3)cc1)c1ccc(C[C@H]2CCC[C@@H]2O)cc1F
REMARK SMILES IDX 8 1 7 2 6 3 5 4 3 5 4 6 2 8 1 9 81 10 82 11 93 12 83 13
REMARK SMILES IDX 92 14 94 15 84 16 85 17 86 18 87 19 90 20 88 21 89 22 91 23
REMARK SMILES IDX 9 25 10 26 11 27 12 28 13 29 14 31 15 32 16 33 80 34 17 35
REMARK SMILES IDX 79 36 18 37 19 38 20 39 73 40 21 41 78 42 72 43 74 44 22 45
REMARK SMILES IDX 77 46 71 47 70 48 23 50 57 51 36 52 56 53 37 54 40 55 55 56
REMARK SMILES IDX 75 57 38 58 39 59 54 61 76 62 41 63 24 64 25 65 34 66 26 67
REMARK SMILES IDX 27 68 33 69 35 70 28 71 29 72 30 73 31 74 32 75 58 76 59 77
REMARK SMILES IDX 68 78 60 79 61 80 67 81 69 82 62 83 63 84 64 85 65 86 66 87
REMARK SMILES IDX 42 88 43 89 52 90 44 91 45 92 51 93 53 94 46 95 47 96 48 97
REMARK SMILES IDX 49 98 50 99
REMARK H PARENT 5 7 91 24 12 30 74 49 40 60
REMARK Flexibility Score: inf
ROOT
ATOM      1  C   UNL A   1      32.385  29.323  25.578  1.00  0.00     0.002 C 
ENDROOT
BRANCH   1   2
ATOM      2  C   UNL A   1      33.727  28.583  25.650  1.00  0.00     0.021 C 
BRANCH   2   3
ATOM      3  C   UNL A   1      33.599  27.058  25.674  1.00  0.00     0.116 C 
BRANCH   3   4
ATOM      4  N   UNL A   1      34.072  26.496  24.428  1.00  0.00    -0.356 N 
ATOM      5  C   UNL A   1      33.535  25.523  23.641  1.00  0.00     0.227 C 
ATOM      6  O   UNL A   1      34.225  25.153  22.687  1.00  0.00    -0.274 OA
ATOM      7  H   UNL A   1      34.915  26.879  24.094  1.00  0.00     0.163 HD
BRANCH   5   8
ATOM      8  C   UNL A   1      32.121  24.977  23.931  1.00  0.00     0.108 C 
ATOM      9  C   UNL A   1      31.788  23.691  23.172  1.00  0.00     0.023 C 
BRANCH   8  10
ATOM     10  C   UNL A   1      31.040  26.002  23.621  1.00  0.00    -0.000 A 
ATOM     11  C   UNL A   1      31.229  26.977  22.629  1.00  0.00     0.008 A 
ATOM     12  C   UNL A   1      29.825  25.988  24.306  1.00  0.00     0.127 A 
ATOM     13  C   UNL A   1      30.252  27.938  22.376  1.00  0.00     0.004 A 
ATOM     14  C   UNL A   1      28.847  26.950  24.065  1.00  0.00     0.043 A 
ATOM     15  F   UNL A   1      29.581  25.042  25.224  1.00  0.00    -0.207 F 
ATOM     16  C   UNL A   1      29.071  27.965  23.125  1.00  0.00    -0.045 A 
BRANCH  16  17
ATOM     17  C   UNL A   1      28.086  29.097  22.965  1.00  0.00     0.041 C 
BRANCH  17  18
ATOM     18  C   UNL A   1      28.659  30.395  22.362  1.00  0.00     0.022 C 
ATOM     19  C   UNL A   1      28.066  30.819  21.007  1.00  0.00     0.007 C 
ATOM     20  C   UNL A   1      28.552  31.647  23.240  1.00  0.00     0.117 C 
ATOM     21  C   UNL A   1      27.972  32.347  21.040  1.00  0.00     0.003 C 
ATOM     22  C   UNL A   1      28.778  32.781  22.253  1.00  0.00     0.032 C 
BRANCH  20  23
ATOM     23  O   UNL A   1      29.541  31.666  24.253  1.00  0.00    -0.393 OA
ATOM     24  H   UNL A   1      29.616  32.562  24.616  1.00  0.00     0.210 HD
ENDBRANCH  20  23
ENDBRANCH  17  18
ENDBRANCH  16  17
ENDBRANCH   8  10
ENDBRANCH   5   8
ENDBRANCH   3   4
ENDBRANCH   2   3
ENDBRANCH   1   2
BRANCH   1  25
ATOM     25  C   UNL A   1      31.970  30.037  26.868  1.00  0.00     0.002 C 
BRANCH  25  26
ATOM     26  C   UNL A   1      31.848  31.558  26.750  1.00  0.00     0.021 C 
BRANCH  26  27
ATOM     27  C   UNL A   1      32.981  32.336  27.411  1.00  0.00     0.116 C 
BRANCH  27  28
ATOM     28  N   UNL A   1      32.628  33.729  27.633  1.00  0.00    -0.352 N 
ATOM     29  C   UNL A   1      33.108  34.610  28.569  1.00  0.00     0.251 C 
ATOM     30  H   UNL A   1      31.946  34.094  27.023  1.00  0.00     0.163 HD
ATOM     31  O   UNL A   1      32.542  35.685  28.749  1.00  0.00    -0.269 OA
BRANCH  29  32
ATOM     32  C   UNL A   1      34.293  34.251  29.378  1.00  0.00     0.039 A 
ATOM     33  C   UNL A   1      34.104  33.636  30.617  1.00  0.00     0.014 A 
ATOM     34  C   UNL A   1      35.585  34.503  28.908  1.00  0.00     0.014 A 
ATOM     35  C   UNL A   1      35.211  33.201  31.349  1.00  0.00     0.010 A 
ATOM     36  C   UNL A   1      36.685  34.010  29.606  1.00  0.00     0.010 A 
ATOM     37  C   UNL A   1      36.508  33.339  30.826  1.00  0.00    -0.014 A 
BRANCH  37  38
ATOM     38  C   UNL A   1      37.679  32.731  31.512  1.00  0.00     0.031 A 
ATOM     39  C   UNL A   1      38.365  31.524  30.934  1.00  0.00     0.074 A 
ATOM     40  C   UNL A   1      38.074  33.232  32.701  1.00  0.00     0.049 A 
ATOM     41  N   UNL A   1      39.354  30.826  31.430  1.00  0.00    -0.248 NA
ATOM     42  C   UNL A   1      37.866  31.021  29.643  1.00  0.00     0.031 C 
ATOM     43  C   UNL A   1      37.452  34.367  33.389  1.00  0.00     0.029 A 
ATOM     44  N   UNL A   1      39.081  32.847  33.552  1.00  0.00    -0.354 N 
ATOM     45  C   UNL A   1      39.588  29.797  30.525  1.00  0.00     0.074 A 
ATOM     46  C   UNL A   1      38.615  29.940  29.464  1.00  0.00     0.031 C 
ATOM     47  C   UNL A   1      38.095  34.592  34.545  1.00  0.00     0.029 A 
ATOM     48  C   UNL A   1      39.146  33.593  34.707  1.00  0.00     0.049 A 
ATOM     49  H   UNL A   1      39.698  32.107  33.353  1.00  0.00     0.167 HD
ATOM     50  C   UNL A   1      40.538  28.834  30.569  1.00  0.00     0.037 A 
ATOM     51  C   UNL A   1      39.942  33.471  35.787  1.00  0.00     0.037 A 
ATOM     52  C   UNL A   1      41.522  28.718  31.614  1.00  0.00     0.049 A 
ATOM     53  C   UNL A   1      40.982  32.382  35.810  1.00  0.00     0.074 A 
ATOM     54  C   UNL A   1      42.582  27.829  31.698  1.00  0.00     0.029 A 
ATOM     55  N   UNL A   1      41.567  29.500  32.759  1.00  0.00    -0.354 N 
ATOM     56  N   UNL A   1      41.252  31.481  34.894  1.00  0.00    -0.248 NA
ATOM     57  C   UNL A   1      41.824  32.288  37.011  1.00  0.00     0.031 C 
ATOM     58  C   UNL A   1      43.226  28.030  32.922  1.00  0.00     0.029 A 
ATOM     59  C   UNL A   1      42.607  29.084  33.574  1.00  0.00     0.049 A 
ATOM     60  H   UNL A   1      40.950  30.239  32.962  1.00  0.00     0.167 HD
ATOM     61  C   UNL A   1      42.307  30.730  35.401  1.00  0.00     0.074 A 
ATOM     62  C   UNL A   1      42.644  31.297  36.690  1.00  0.00     0.031 C 
ATOM     63  C   UNL A   1      42.935  29.661  34.853  1.00  0.00     0.037 A 
BRANCH  50  64
ATOM     64  C   UNL A   1      40.581  27.816  29.462  1.00  0.00     0.058 A 
ATOM     65  C   UNL A   1      41.567  27.852  28.465  1.00  0.00     0.135 A 
ATOM     66  C   UNL A   1      39.694  26.726  29.468  1.00  0.00     0.135 A 
ATOM     67  F   UNL A   1      42.431  28.877  28.403  1.00  0.00    -0.206 F 
ATOM     68  C   UNL A   1      41.675  26.841  27.515  1.00  0.00     0.059 A 
ATOM     69  C   UNL A   1      39.799  25.693  28.543  1.00  0.00     0.059 A 
ATOM     70  F   UNL A   1      38.728  26.647  30.398  1.00  0.00    -0.206 F 
ATOM     71  C   UNL A   1      40.794  25.759  27.569  1.00  0.00     0.060 A 
BRANCH  71  72
ATOM     72  S   UNL A   1      40.993  24.427  26.368  1.00  0.00     0.124 S 
ATOM     73  O   UNL A   1      41.130  25.175  25.121  1.00  0.00    -0.237 OA
ATOM     74  O   UNL A   1      42.200  23.759  26.842  1.00  0.00    -0.237 OA
ATOM     75  O   UNL A   1      39.759  23.658  26.503  1.00  0.00    -0.744 OA
ENDBRANCH  71  72
ENDBRANCH  50  64
BRANCH  51  76
ATOM     76  C   UNL A   1      39.781  34.386  36.951  1.00  0.00     0.058 A 
ATOM     77  C   UNL A   1      38.947  34.053  38.029  1.00  0.00     0.135 A 
ATOM     78  C   UNL A   1      40.428  35.632  36.989  1.00  0.00     0.135 A 
ATOM     79  F   UNL A   1      38.302  32.877  38.040  1.00  0.00    -0.206 F 
ATOM     80  C   UNL A   1      38.727  34.936  39.082  1.00  0.00     0.059 A 
ATOM     81  C   UNL A   1      40.252  36.517  38.047  1.00  0.00     0.059 A 
ATOM     82  F   UNL A   1      41.253  35.995  35.993  1.00  0.00    -0.206 F 
ATOM     83  C   UNL A   1      39.381  36.169  39.078  1.00  0.00     0.060 A 
BRANCH  83  84
ATOM     84  S   UNL A   1      39.090  37.310  40.447  1.00  0.00     0.124 S 
ATOM     85  O   UNL A   1      40.436  37.809  40.702  1.00  0.00    -0.237 OA
ATOM     86  O   UNL A   1      38.155  38.264  39.859  1.00  0.00    -0.237 OA
ATOM     87  O   UNL A   1      38.527  36.451  41.486  1.00  0.00    -0.744 OA
ENDBRANCH  83  84
ENDBRANCH  51  76
BRANCH  63  88
ATOM     88  C   UNL A   1      44.062  29.043  35.635  1.00  0.00     0.058 A 
ATOM     89  C   UNL A   1      45.382  29.506  35.513  1.00  0.00     0.135 A 
ATOM     90  C   UNL A   1      43.812  28.011  36.555  1.00  0.00     0.135 A 
ATOM     91  F   UNL A   1      45.678  30.483  34.642  1.00  0.00    -0.206 F 
ATOM     92  C   UNL A   1      46.417  28.952  36.260  1.00  0.00     0.059 A 
ATOM     93  C   UNL A   1      44.826  27.466  37.335  1.00  0.00     0.059 A 
ATOM     94  F   UNL A   1      42.566  27.537  36.717  1.00  0.00    -0.206 F 
ATOM     95  C   UNL A   1      46.128  27.935  37.172  1.00  0.00     0.060 A 
BRANCH  95  96
ATOM     96  S   UNL A   1      47.476  27.257  38.161  1.00  0.00     0.124 S 
ATOM     97  O   UNL A   1      46.982  27.469  39.518  1.00  0.00    -0.237 OA
ATOM     98  O   UNL A   1      47.525  25.869  37.712  1.00  0.00    -0.237 OA
ATOM     99  O   UNL A   1      48.624  28.075  37.778  1.00  0.00    -0.744 OA
ENDBRANCH  95  96
ENDBRANCH  63  88
ENDBRANCH  37  38
ENDBRANCH  29  32
ENDBRANCH  27  28
ENDBRANCH  26  27
ENDBRANCH  25  26
ENDBRANCH   1  25
TORSDOF 20
ENDMDL
MODEL 3
REMARK VINA RESULT:     -10.9      2.858      8.688
REMARK SMILES C[C@@H](C(=O)NCCCCCCNC(=O)c1ccc(-c2c3nc(c(-c4c(F)cc(S(=O)(=O)[O-])cc4F)c4ccc([nH]4)c(-c4c(F)cc(S(=O)(=O)[O-])cc4F)c4nc(c(-c5c(F)cc(S(=O)(=O)[O-])cc5F)c5ccc2[nH]5)C=C4)C=C3)cc1)c1ccc(C[C@H]2CCC[C@@H]2O)cc1F
REMARK SMILES IDX 8 1 7 2 6 3 5 4 3 5 4 6 2 8 1 9 81 10 82 11 93 12 83 13
REMARK SMILES IDX 92 14 94 15 84 16 85 17 86 18 87 19 90 20 88 21 89 22 91 23
REMARK SMILES IDX 9 25 10 26 11 27 12 28 13 29 14 31 15 32 16 33 80 34 17 35
REMARK SMILES IDX 79 36 18 37 19 38 20 39 73 40 21 41 78 42 72 43 74 44 22 45
REMARK SMILES IDX 77 46 71 47 70 48 23 50 57 51 36 52 56 53 37 54 40 55 55 56
REMARK SMILES IDX 75 57 38 58 39 59 54 61 76 62 41 63 24 64 25 65 34 66 26 67
REMARK SMILES IDX 27 68 33 69 35 70 28 71 29 72 30 73 31 74 32 75 58 76 59 77
REMARK SMILES IDX 68 78 60 79 61 80 67 81 69 82 62 83 63 84 64 85 65 86 66 87
REMARK SMILES IDX 42 88 43 89 52 90 44 91 45 92 51 93 53 94 46 95 47 96 48 97
REMARK SMILES IDX 49 98 50 99
REMARK H PARENT 5 7 91 24 12 30 74 49 40 60
REMARK Flexibility Score: inf
ROOT
ATOM      1  C   UNL A   1      31.851  29.442  27.154  1.00  0.00     0.002 C 
ENDROOT
BRANCH   1   2
ATOM      2  C   UNL A   1      31.827  27.923  27.374  1.00  0.00     0.021 C 
BRANCH   2   3
ATOM      3  C   UNL A   1      31.282  27.129  26.184  1.00  0.00     0.116 C 
BRANCH   3   4
ATOM      4  N   UNL A   1      31.738  27.713  24.942  1.00  0.00    -0.356 N 
ATOM      5  C   UNL A   1      31.560  27.297  23.657  1.00  0.00     0.227 C 
ATOM      6  O   UNL A   1      32.172  27.930  22.791  1.00  0.00    -0.274 OA
ATOM      7  H   UNL A   1      32.259  28.542  25.039  1.00  0.00     0.163 HD
BRANCH   5   8
ATOM      8  C   UNL A   1      30.599  26.132  23.340  1.00  0.00     0.108 C 
ATOM      9  C   UNL A   1      29.252  26.230  24.058  1.00  0.00     0.023 C 
BRANCH   8  10
ATOM     10  C   UNL A   1      31.214  24.780  23.670  1.00  0.00    -0.000 A 
ATOM     11  C   UNL A   1      30.754  24.022  24.758  1.00  0.00     0.008 A 
ATOM     12  C   UNL A   1      32.241  24.252  22.889  1.00  0.00     0.127 A 
ATOM     13  C   UNL A   1      31.346  22.803  25.081  1.00  0.00     0.004 A 
ATOM     14  C   UNL A   1      32.844  23.038  23.210  1.00  0.00     0.043 A 
ATOM     15  F   UNL A   1      32.675  24.917  21.809  1.00  0.00    -0.207 F 
ATOM     16  C   UNL A   1      32.429  22.320  24.341  1.00  0.00    -0.045 A 
BRANCH  16  17
ATOM     17  C   UNL A   1      33.174  21.085  24.783  1.00  0.00     0.041 C 
BRANCH  17  18
ATOM     18  C   UNL A   1      32.484  19.744  24.465  1.00  0.00     0.022 C 
ATOM     19  C   UNL A   1      32.450  19.348  22.978  1.00  0.00     0.007 C 
ATOM     20  C   UNL A   1      33.048  18.512  25.181  1.00  0.00     0.117 C 
ATOM     21  C   UNL A   1      32.652  17.831  22.935  1.00  0.00     0.003 C 
ATOM     22  C   UNL A   1      32.489  17.355  24.369  1.00  0.00     0.032 C 
BRANCH  20  23
ATOM     23  O   UNL A   1      32.606  18.435  26.524  1.00  0.00    -0.393 OA
ATOM     24  H   UNL A   1      31.768  17.950  26.561  1.00  0.00     0.210 HD
ENDBRANCH  20  23
ENDBRANCH  17  18
ENDBRANCH  16  17
ENDBRANCH   8  10
ENDBRANCH   5   8
ENDBRANCH   3   4
ENDBRANCH   2   3
ENDBRANCH   1   2
BRANCH   1  25
ATOM     25  C   UNL A   1      33.243  30.042  26.937  1.00  0.00     0.002 C 
BRANCH  25  26
ATOM     26  C   UNL A   1      34.406  29.119  27.309  1.00  0.00     0.021 C 
BRANCH  26  27
ATOM     27  C   UNL A   1      35.635  29.840  27.856  1.00  0.00     0.116 C 
BRANCH  27  28
ATOM     28  N   UNL A   1      35.491  30.166  29.266  1.00  0.00    -0.352 N 
ATOM     29  C   UNL A   1      36.433  30.146  30.264  1.00  0.00     0.251 C 
ATOM     30  H   UNL A   1      34.588  30.441  29.545  1.00  0.00     0.163 HD
ATOM     31  O   UNL A   1      36.086  30.245  31.438  1.00  0.00    -0.269 OA
BRANCH  29  32
ATOM     32  C   UNL A   1      37.862  29.978  29.923  1.00  0.00     0.039 A 
ATOM     33  C   UNL A   1      38.768  29.673  30.940  1.00  0.00     0.014 A 
ATOM     34  C   UNL A   1      38.303  30.105  28.602  1.00  0.00     0.014 A 
ATOM     35  C   UNL A   1      40.103  29.416  30.621  1.00  0.00     0.010 A 
ATOM     36  C   UNL A   1      39.619  29.782  28.278  1.00  0.00     0.010 A 
ATOM     37  C   UNL A   1      40.529  29.418  29.282  1.00  0.00    -0.014 A 
BRANCH  37  38
ATOM     38  C   UNL A   1      41.901  28.981  28.914  1.00  0.00     0.031 A 
ATOM     39  C   UNL A   1      43.032  29.971  28.854  1.00  0.00     0.074 A 
ATOM     40  C   UNL A   1      42.106  27.695  28.561  1.00  0.00     0.049 A 
ATOM     41  N   UNL A   1      44.273  29.779  28.489  1.00  0.00    -0.248 NA
ATOM     42  C   UNL A   1      42.729  31.361  29.235  1.00  0.00     0.031 C 
ATOM     43  C   UNL A   1      41.075  26.653  28.526  1.00  0.00     0.029 A 
ATOM     44  N   UNL A   1      43.242  27.043  28.148  1.00  0.00    -0.354 N 
ATOM     45  C   UNL A   1      44.896  31.018  28.581  1.00  0.00     0.074 A 
ATOM     46  C   UNL A   1      43.887  31.965  29.004  1.00  0.00     0.031 C 
ATOM     47  C   UNL A   1      41.627  25.497  28.128  1.00  0.00     0.029 A 
ATOM     48  C   UNL A   1      43.038  25.719  27.834  1.00  0.00     0.049 A 
ATOM     49  H   UNL A   1      44.121  27.483  28.084  1.00  0.00     0.167 HD
ATOM     50  C   UNL A   1      46.192  31.331  28.347  1.00  0.00     0.037 A 
ATOM     51  C   UNL A   1      43.883  24.793  27.339  1.00  0.00     0.037 A 
ATOM     52  C   UNL A   1      47.196  30.375  27.956  1.00  0.00     0.049 A 
ATOM     53  C   UNL A   1      45.317  25.176  27.080  1.00  0.00     0.074 A 
ATOM     54  C   UNL A   1      48.555  30.581  27.785  1.00  0.00     0.029 A 
ATOM     55  N   UNL A   1      46.955  29.041  27.662  1.00  0.00    -0.354 N 
ATOM     56  N   UNL A   1      45.908  26.332  27.272  1.00  0.00    -0.248 NA
ATOM     57  C   UNL A   1      46.199  24.133  26.538  1.00  0.00     0.031 C 
ATOM     58  C   UNL A   1      49.124  29.390  27.326  1.00  0.00     0.029 A 
ATOM     59  C   UNL A   1      48.132  28.425  27.269  1.00  0.00     0.049 A 
ATOM     60  H   UNL A   1      46.079  28.598  27.724  1.00  0.00     0.167 HD
ATOM     61  C   UNL A   1      47.233  26.147  26.893  1.00  0.00     0.074 A 
ATOM     62  C   UNL A   1      47.364  24.763  26.487  1.00  0.00     0.031 C 
ATOM     63  C   UNL A   1      48.250  27.044  26.873  1.00  0.00     0.037 A 
BRANCH  50  64
ATOM     64  C   UNL A   1      46.625  32.763  28.507  1.00  0.00     0.058 A 
ATOM     65  C   UNL A   1      47.129  33.250  29.723  1.00  0.00     0.135 A 
ATOM     66  C   UNL A   1      46.644  33.624  27.398  1.00  0.00     0.135 A 
ATOM     67  F   UNL A   1      47.120  32.475  30.819  1.00  0.00    -0.206 F 
ATOM     68  C   UNL A   1      47.639  34.540  29.832  1.00  0.00     0.059 A 
ATOM     69  C   UNL A   1      47.173  34.908  27.477  1.00  0.00     0.059 A 
ATOM     70  F   UNL A   1      46.169  33.208  26.212  1.00  0.00    -0.206 F 
ATOM     71  C   UNL A   1      47.669  35.357  28.700  1.00  0.00     0.060 A 
BRANCH  71  72
ATOM     72  S   UNL A   1      48.396  37.003  28.847  1.00  0.00     0.124 S 
ATOM     73  O   UNL A   1      49.489  36.757  29.783  1.00  0.00    -0.237 OA
ATOM     74  O   UNL A   1      48.791  37.292  27.473  1.00  0.00    -0.237 OA
ATOM     75  O   UNL A   1      47.300  37.816  29.366  1.00  0.00    -0.744 OA
ENDBRANCH  71  72
ENDBRANCH  50  64
BRANCH  51  76
ATOM     76  C   UNL A   1      43.401  23.418  27.030  1.00  0.00     0.058 A 
ATOM     77  C   UNL A   1      43.202  22.470  28.044  1.00  0.00     0.135 A 
ATOM     78  C   UNL A   1      43.169  23.013  25.705  1.00  0.00     0.135 A 
ATOM     79  F   UNL A   1      43.415  22.805  29.326  1.00  0.00    -0.206 F 
ATOM     80  C   UNL A   1      42.830  21.160  27.757  1.00  0.00     0.059 A 
ATOM     81  C   UNL A   1      42.763  21.720  25.396  1.00  0.00     0.059 A 
ATOM     82  F   UNL A   1      43.325  23.884  24.696  1.00  0.00    -0.206 F 
ATOM     83  C   UNL A   1      42.618  20.794  26.427  1.00  0.00     0.060 A 
BRANCH  83  84
ATOM     84  S   UNL A   1      42.137  19.093  26.062  1.00  0.00     0.124 S 
ATOM     85  O   UNL A   1      42.551  18.404  27.279  1.00  0.00    -0.237 OA
ATOM     86  O   UNL A   1      40.697  19.218  25.857  1.00  0.00    -0.237 OA
ATOM     87  O   UNL A   1      42.908  18.776  24.863  1.00  0.00    -0.744 OA
ENDBRANCH  83  84
ENDBRANCH  51  76
BRANCH  63  88
ATOM     88  C   UNL A   1      49.597  26.556  26.415  1.00  0.00     0.058 A 
ATOM     89  C   UNL A   1      50.031  26.729  25.092  1.00  0.00     0.135 A 
ATOM     90  C   UNL A   1      50.485  25.956  27.323  1.00  0.00     0.135 A 
ATOM     91  F   UNL A   1      49.219  27.289  24.182  1.00  0.00    -0.206 F 
ATOM     92  C   UNL A   1      51.290  26.304  24.679  1.00  0.00     0.059 A 
ATOM     93  C   UNL A   1      51.760  25.553  26.939  1.00  0.00     0.059 A 
ATOM     94  F   UNL A   1      50.124  25.775  28.603  1.00  0.00    -0.206 F 
ATOM     95  C   UNL A   1      52.149  25.721  25.611  1.00  0.00     0.060 A 
BRANCH  95  96
ATOM     96  S   UNL A   1      53.793  25.213  25.068  1.00  0.00     0.124 S 
ATOM     97  O   UNL A   1      54.610  25.575  26.221  1.00  0.00    -0.237 OA
ATOM     98  O   UNL A   1      53.617  23.782  24.839  1.00  0.00    -0.237 OA
ATOM     99  O   UNL A   1      54.016  26.011  23.866  1.00  0.00    -0.744 OA
ENDBRANCH  95  96
ENDBRANCH  63  88
ENDBRANCH  37  38
ENDBRANCH  29  32
ENDBRANCH  27  28
ENDBRANCH  26  27
ENDBRANCH  25  26
ENDBRANCH   1  25
TORSDOF 20
ENDMDL
