MODEL 1
REMARK VINA RESULT:     -10.7      0.000      0.000
REMARK SMILES NC(=O)C[C@H](NC(=O)[C@@H]1CC(=O)N(CC2CC2)C1)C(=O)NCCCCCCNC(=O)c1ccc(-c2c3nc(c(-c4c(F)cc(S(=O)(=O)[O-])cc4F)c4ccc([nH]4)c(-c4c(F)cc(S(=O)(=O)[O-])cc4F)c4nc(c(-c5c(F)cc(S(=O)(=O)[O-])cc5F)c5ccc2[nH]5)C=C4)C=C3)cc1
REMARK SMILES IDX 24 1 23 2 22 3 21 4 19 5 20 6 5 8 4 9 2 10 1 11 3 14 6 15
REMARK SMILES IDX 7 16 8 18 9 19 10 20 18 21 11 22 13 23 12 24 14 25 15 26
REMARK SMILES IDX 16 27 17 28 25 29 26 30 27 31 28 32 29 33 30 35 31 36 32 37
REMARK SMILES IDX 96 38 33 39 95 40 34 41 35 42 36 43 89 44 37 45 94 46 88 47
REMARK SMILES IDX 90 48 38 49 93 50 87 51 86 52 39 54 73 55 52 56 72 57 53 58
REMARK SMILES IDX 56 59 71 60 91 61 54 62 55 63 70 65 92 66 57 67 40 68 41 69
REMARK SMILES IDX 50 70 42 71 43 72 49 73 51 74 44 75 45 76 46 77 47 78 48 79
REMARK SMILES IDX 74 80 75 81 84 82 76 83 77 84 83 85 85 86 78 87 79 88 80 89
REMARK SMILES IDX 81 90 82 91 58 92 59 93 68 94 60 95 61 96 67 97 69 98 62 99
REMARK SMILES IDX 63 100 64 101 65 102 66 103
REMARK H PARENT 21 7 1 12 1 13 6 17 28 34 90 53 56 64
REMARK Flexibility Score: inf
ROOT
ATOM      1  C   UNL A   1      32.787  29.735  27.228  1.00  0.00     0.002 C 
ENDROOT
BRANCH   1   2
ATOM      2  C   UNL A   1      34.015  29.109  26.561  1.00  0.00     0.021 C 
BRANCH   2   3
ATOM      3  C   UNL A   1      33.884  27.615  26.291  1.00  0.00     0.116 C 
BRANCH   3   4
ATOM      4  N   UNL A   1      32.557  27.109  26.628  1.00  0.00    -0.354 N 
ATOM      5  C   UNL A   1      31.468  26.865  25.830  1.00  0.00     0.243 C 
ATOM      6  O   UNL A   1      30.462  26.384  26.350  1.00  0.00    -0.273 OA
ATOM      7  H   UNL A   1      32.422  26.910  27.582  1.00  0.00     0.163 HD
BRANCH   5   8
ATOM      8  C   UNL A   1      31.534  27.187  24.317  1.00  0.00     0.180 C 
BRANCH   8   9
ATOM      9  C   UNL A   1      30.930  28.565  24.065  1.00  0.00     0.134 C 
BRANCH   9  10
ATOM     10  C   UNL A   1      30.692  28.792  22.586  1.00  0.00     0.220 C 
ATOM     11  N   UNL A   1      31.472  29.730  21.982  1.00  0.00    -0.370 N 
ATOM     12  H   UNL A   1      31.361  29.919  21.022  1.00  0.00     0.159 HD
ATOM     13  H   UNL A   1      32.149  30.219  22.505  1.00  0.00     0.159 HD
ATOM     14  O   UNL A   1      29.868  28.155  21.941  1.00  0.00    -0.275 OA
ENDBRANCH   9  10
ENDBRANCH   8   9
BRANCH   8  15
ATOM     15  N   UNL A   1      30.906  26.002  23.694  1.00  0.00    -0.343 N 
ATOM     16  C   UNL A   1      31.209  24.776  23.256  1.00  0.00     0.226 C 
ATOM     17  H   UNL A   1      29.946  26.171  23.558  1.00  0.00     0.164 HD
ATOM     18  O   UNL A   1      30.215  24.056  23.065  1.00  0.00    -0.275 OA
BRANCH  16  19
ATOM     19  C   UNL A   1      32.550  24.215  22.860  1.00  0.00     0.107 C 
ATOM     20  C   UNL A   1      32.762  22.763  22.495  1.00  0.00     0.115 C 
ATOM     21  C   UNL A   1      33.524  24.495  23.996  1.00  0.00     0.133 C 
ATOM     22  C   UNL A   1      33.435  22.168  23.713  1.00  0.00     0.223 C 
ATOM     23  N   UNL A   1      33.845  23.200  24.534  1.00  0.00    -0.342 N 
ATOM     24  O   UNL A   1      33.578  20.976  23.910  1.00  0.00    -0.275 OA
BRANCH  23  25
ATOM     25  C   UNL A   1      34.491  23.011  25.823  1.00  0.00     0.123 C 
BRANCH  25  26
ATOM     26  C   UNL A   1      33.664  23.345  27.031  1.00  0.00     0.008 C 
ATOM     27  C   UNL A   1      32.189  23.056  27.173  1.00  0.00     0.006 C 
ATOM     28  C   UNL A   1      33.188  22.286  27.996  1.00  0.00     0.006 C 
ENDBRANCH  25  26
ENDBRANCH  23  25
ENDBRANCH  16  19
ENDBRANCH   8  15
ENDBRANCH   5   8
ENDBRANCH   3   4
ENDBRANCH   2   3
ENDBRANCH   1   2
BRANCH   1  29
ATOM     29  C   UNL A   1      32.045  30.776  26.383  1.00  0.00     0.002 C 
BRANCH  29  30
ATOM     30  C   UNL A   1      31.761  32.105  27.087  1.00  0.00     0.021 C 
BRANCH  30  31
ATOM     31  C   UNL A   1      32.996  32.834  27.604  1.00  0.00     0.116 C 
BRANCH  31  32
ATOM     32  N   UNL A   1      32.746  34.245  27.851  1.00  0.00    -0.352 N 
ATOM     33  C   UNL A   1      33.311  35.069  28.793  1.00  0.00     0.251 C 
ATOM     34  H   UNL A   1      32.080  34.667  27.261  1.00  0.00     0.163 HD
ATOM     35  O   UNL A   1      32.865  36.199  28.967  1.00  0.00    -0.269 OA
BRANCH  33  36
ATOM     36  C   UNL A   1      34.437  34.573  29.613  1.00  0.00     0.039 A 
ATOM     37  C   UNL A   1      34.169  34.038  30.874  1.00  0.00     0.014 A 
ATOM     38  C   UNL A   1      35.748  34.618  29.128  1.00  0.00     0.014 A 
ATOM     39  C   UNL A   1      35.212  33.490  31.624  1.00  0.00     0.010 A 
ATOM     40  C   UNL A   1      36.771  34.002  29.843  1.00  0.00     0.010 A 
ATOM     41  C   UNL A   1      36.514  33.434  31.100  1.00  0.00    -0.014 A 
BRANCH  41  42
ATOM     42  C   UNL A   1      37.619  32.784  31.852  1.00  0.00     0.031 A 
ATOM     43  C   UNL A   1      38.295  31.561  31.292  1.00  0.00     0.074 A 
ATOM     44  C   UNL A   1      37.981  33.268  33.057  1.00  0.00     0.049 A 
ATOM     45  N   UNL A   1      39.230  30.819  31.826  1.00  0.00    -0.248 NA
ATOM     46  C   UNL A   1      37.844  31.098  29.970  1.00  0.00     0.031 C 
ATOM     47  C   UNL A   1      37.377  34.427  33.721  1.00  0.00     0.029 A 
ATOM     48  N   UNL A   1      38.941  32.847  33.942  1.00  0.00    -0.354 N 
ATOM     49  C   UNL A   1      39.482  29.806  30.908  1.00  0.00     0.074 A 
ATOM     50  C   UNL A   1      38.553  29.988  29.814  1.00  0.00     0.031 C 
ATOM     51  C   UNL A   1      38.000  34.639  34.892  1.00  0.00     0.029 A 
ATOM     52  C   UNL A   1      39.015  33.609  35.086  1.00  0.00     0.049 A 
ATOM     53  H   UNL A   1      39.523  32.069  33.776  1.00  0.00     0.167 HD
ATOM     54  C   UNL A   1      40.423  28.833  30.955  1.00  0.00     0.037 A 
ATOM     55  C   UNL A   1      39.805  33.485  36.169  1.00  0.00     0.037 A 
ATOM     56  C   UNL A   1      41.353  28.665  32.040  1.00  0.00     0.049 A 
ATOM     57  C   UNL A   1      40.812  32.365  36.216  1.00  0.00     0.074 A 
ATOM     58  C   UNL A   1      42.360  27.724  32.172  1.00  0.00     0.029 A 
ATOM     59  N   UNL A   1      41.395  29.455  33.180  1.00  0.00    -0.354 N 
ATOM     60  N   UNL A   1      41.067  31.445  35.315  1.00  0.00    -0.248 NA
ATOM     61  C   UNL A   1      41.642  32.268  37.426  1.00  0.00     0.031 C 
ATOM     62  C   UNL A   1      42.980  27.916  33.410  1.00  0.00     0.029 A 
ATOM     63  C   UNL A   1      42.398  29.013  34.026  1.00  0.00     0.049 A 
ATOM     64  H   UNL A   1      40.799  30.218  33.360  1.00  0.00     0.167 HD
ATOM     65  C   UNL A   1      42.111  30.686  35.833  1.00  0.00     0.074 A 
ATOM     66  C   UNL A   1      42.448  31.261  37.118  1.00  0.00     0.031 C 
ATOM     67  C   UNL A   1      42.734  29.609  35.295  1.00  0.00     0.037 A 
BRANCH  54  68
ATOM     68  C   UNL A   1      40.507  27.884  29.790  1.00  0.00     0.058 A 
ATOM     69  C   UNL A   1      39.582  26.840  29.626  1.00  0.00     0.135 A 
ATOM     70  C   UNL A   1      41.488  28.048  28.798  1.00  0.00     0.135 A 
ATOM     71  F   UNL A   1      38.634  26.625  30.553  1.00  0.00    -0.206 F 
ATOM     72  C   UNL A   1      39.637  25.981  28.534  1.00  0.00     0.059 A 
ATOM     73  C   UNL A   1      41.543  27.220  27.681  1.00  0.00     0.059 A 
ATOM     74  F   UNL A   1      42.400  29.027  28.905  1.00  0.00    -0.206 F 
ATOM     75  C   UNL A   1      40.619  26.183  27.563  1.00  0.00     0.060 A 
BRANCH  75  76
ATOM     76  S   UNL A   1      40.658  25.073  26.140  1.00  0.00     0.124 S 
ATOM     77  O   UNL A   1      41.141  25.964  25.089  1.00  0.00    -0.237 OA
ATOM     78  O   UNL A   1      41.596  24.043  26.576  1.00  0.00    -0.237 OA
ATOM     79  O   UNL A   1      39.272  24.639  26.007  1.00  0.00    -0.744 OA
ENDBRANCH  75  76
ENDBRANCH  54  68
BRANCH  55  80
ATOM     80  C   UNL A   1      39.694  34.448  37.300  1.00  0.00     0.058 A 
ATOM     81  C   UNL A   1      40.359  35.683  37.263  1.00  0.00     0.135 A 
ATOM     82  C   UNL A   1      38.949  34.145  38.450  1.00  0.00     0.135 A 
ATOM     83  F   UNL A   1      41.089  36.020  36.188  1.00  0.00    -0.206 F 
ATOM     84  C   UNL A   1      40.323  36.565  38.339  1.00  0.00     0.059 A 
ATOM     85  C   UNL A   1      38.871  35.023  39.526  1.00  0.00     0.059 A 
ATOM     86  F   UNL A   1      38.277  32.985  38.530  1.00  0.00    -0.206 F 
ATOM     87  C   UNL A   1      39.578  36.223  39.468  1.00  0.00     0.060 A 
BRANCH  87  88
ATOM     88  S   UNL A   1      39.533  37.377  40.856  1.00  0.00     0.124 S 
ATOM     89  O   UNL A   1      38.815  36.601  41.859  1.00  0.00    -0.237 OA
ATOM     90  O   UNL A   1      40.952  37.600  41.115  1.00  0.00    -0.237 OA
ATOM     91  O   UNL A   1      38.815  38.526  40.312  1.00  0.00    -0.744 OA
ENDBRANCH  87  88
ENDBRANCH  55  80
BRANCH  67  92
ATOM     92  C   UNL A   1      43.876  29.009  36.069  1.00  0.00     0.058 A 
ATOM     93  C   UNL A   1      45.171  29.549  36.020  1.00  0.00     0.135 A 
ATOM     94  C   UNL A   1      43.659  27.905  36.910  1.00  0.00     0.135 A 
ATOM     95  F   UNL A   1      45.435  30.600  35.227  1.00  0.00    -0.206 F 
ATOM     96  C   UNL A   1      46.215  29.001  36.757  1.00  0.00     0.059 A 
ATOM     97  C   UNL A   1      44.681  27.360  37.680  1.00  0.00     0.059 A 
ATOM     98  F   UNL A   1      42.438  27.354  37.002  1.00  0.00    -0.206 F 
ATOM     99  C   UNL A   1      45.960  27.908  37.588  1.00  0.00     0.060 A 
BRANCH  99 100
ATOM    100  S   UNL A   1      47.317  27.230  38.566  1.00  0.00     0.124 S 
ATOM    101  O   UNL A   1      48.127  28.420  38.808  1.00  0.00    -0.237 OA
ATOM    102  O   UNL A   1      46.623  26.688  39.729  1.00  0.00    -0.237 OA
ATOM    103  O   UNL A   1      47.913  26.235  37.679  1.00  0.00    -0.744 OA
ENDBRANCH  99 100
ENDBRANCH  67  92
ENDBRANCH  41  42
ENDBRANCH  33  36
ENDBRANCH  31  32
ENDBRANCH  30  31
ENDBRANCH  29  30
ENDBRANCH   1  29
TORSDOF 22
ENDMDL
MODEL 2
REMARK VINA RESULT:     -10.5      1.600      8.332
REMARK SMILES NC(=O)C[C@H](NC(=O)[C@@H]1CC(=O)N(CC2CC2)C1)C(=O)NCCCCCCNC(=O)c1ccc(-c2c3nc(c(-c4c(F)cc(S(=O)(=O)[O-])cc4F)c4ccc([nH]4)c(-c4c(F)cc(S(=O)(=O)[O-])cc4F)c4nc(c(-c5c(F)cc(S(=O)(=O)[O-])cc5F)c5ccc2[nH]5)C=C4)C=C3)cc1
REMARK SMILES IDX 24 1 23 2 22 3 21 4 19 5 20 6 5 8 4 9 2 10 1 11 3 14 6 15
REMARK SMILES IDX 7 16 8 18 9 19 10 20 18 21 11 22 13 23 12 24 14 25 15 26
REMARK SMILES IDX 16 27 17 28 25 29 26 30 27 31 28 32 29 33 30 35 31 36 32 37
REMARK SMILES IDX 96 38 33 39 95 40 34 41 35 42 36 43 89 44 37 45 94 46 88 47
REMARK SMILES IDX 90 48 38 49 93 50 87 51 86 52 39 54 73 55 52 56 72 57 53 58
REMARK SMILES IDX 56 59 71 60 91 61 54 62 55 63 70 65 92 66 57 67 40 68 41 69
REMARK SMILES IDX 50 70 42 71 43 72 49 73 51 74 44 75 45 76 46 77 47 78 48 79
REMARK SMILES IDX 74 80 75 81 84 82 76 83 77 84 83 85 85 86 78 87 79 88 80 89
REMARK SMILES IDX 81 90 82 91 58 92 59 93 68 94 60 95 61 96 67 97 69 98 62 99
REMARK SMILES IDX 63 100 64 101 65 102 66 103
REMARK H PARENT 21 7 1 12 1 13 6 17 28 34 90 53 56 64
REMARK Flexibility Score: inf
ROOT
ATOM      1  C   UNL A   1      31.812  29.344  26.980  1.00  0.00     0.002 C 
ENDROOT
BRANCH   1   2
ATOM      2  C   UNL A   1      32.884  28.289  26.687  1.00  0.00     0.021 C 
BRANCH   2   3
ATOM      3  C   UNL A   1      32.341  26.873  26.544  1.00  0.00     0.116 C 
BRANCH   3   4
ATOM      4  N   UNL A   1      30.978  26.855  26.023  1.00  0.00    -0.354 N 
ATOM      5  C   UNL A   1      30.407  26.074  25.051  1.00  0.00     0.243 C 
ATOM      6  O   UNL A   1      29.207  26.216  24.821  1.00  0.00    -0.273 OA
ATOM      7  H   UNL A   1      30.370  27.508  26.438  1.00  0.00     0.163 HD
BRANCH   5   8
ATOM      8  C   UNL A   1      31.271  25.044  24.284  1.00  0.00     0.180 C 
BRANCH   8   9
ATOM      9  C   UNL A   1      31.109  25.262  22.783  1.00  0.00     0.134 C 
BRANCH   9  10
ATOM     10  C   UNL A   1      32.440  25.135  22.069  1.00  0.00     0.220 C 
ATOM     11  N   UNL A   1      32.410  25.222  20.710  1.00  0.00    -0.370 N 
ATOM     12  H   UNL A   1      33.245  25.147  20.194  1.00  0.00     0.159 HD
ATOM     13  H   UNL A   1      31.554  25.361  20.244  1.00  0.00     0.159 HD
ATOM     14  O   UNL A   1      33.501  24.992  22.663  1.00  0.00    -0.275 OA
ENDBRANCH   9  10
ENDBRANCH   8   9
BRANCH   8  15
ATOM     15  N   UNL A   1      30.853  23.753  24.872  1.00  0.00    -0.343 N 
ATOM     16  C   UNL A   1      31.326  22.532  25.140  1.00  0.00     0.226 C 
ATOM     17  H   UNL A   1      29.915  23.813  25.164  1.00  0.00     0.164 HD
ATOM     18  O   UNL A   1      30.613  21.883  25.924  1.00  0.00    -0.275 OA
BRANCH  16  19
ATOM     19  C   UNL A   1      32.509  21.820  24.537  1.00  0.00     0.107 C 
ATOM     20  C   UNL A   1      32.485  21.202  23.157  1.00  0.00     0.115 C 
ATOM     21  C   UNL A   1      32.901  20.691  25.481  1.00  0.00     0.133 C 
ATOM     22  C   UNL A   1      32.360  19.717  23.417  1.00  0.00     0.223 C 
ATOM     23  N   UNL A   1      32.604  19.485  24.756  1.00  0.00    -0.342 N 
ATOM     24  O   UNL A   1      32.090  18.888  22.568  1.00  0.00    -0.275 OA
BRANCH  23  25
ATOM     25  C   UNL A   1      32.526  18.175  25.386  1.00  0.00     0.123 C 
BRANCH  25  26
ATOM     26  C   UNL A   1      33.244  17.061  24.681  1.00  0.00     0.008 C 
ATOM     27  C   UNL A   1      34.713  17.066  24.332  1.00  0.00     0.006 C 
ATOM     28  C   UNL A   1      34.198  16.138  25.402  1.00  0.00     0.006 C 
ENDBRANCH  25  26
ENDBRANCH  23  25
ENDBRANCH  16  19
ENDBRANCH   8  15
ENDBRANCH   5   8
ENDBRANCH   3   4
ENDBRANCH   2   3
ENDBRANCH   1   2
BRANCH   1  29
ATOM     29  C   UNL A   1      31.901  30.617  26.133  1.00  0.00     0.002 C 
BRANCH  29  30
ATOM     30  C   UNL A   1      31.624  31.921  26.884  1.00  0.00     0.021 C 
BRANCH  30  31
ATOM     31  C   UNL A   1      32.868  32.662  27.364  1.00  0.00     0.116 C 
BRANCH  31  32
ATOM     32  N   UNL A   1      32.598  34.055  27.680  1.00  0.00    -0.352 N 
ATOM     33  C   UNL A   1      33.156  34.841  28.658  1.00  0.00     0.251 C 
ATOM     34  H   UNL A   1      31.923  34.494  27.115  1.00  0.00     0.163 HD
ATOM     35  O   UNL A   1      32.694  35.954  28.888  1.00  0.00    -0.269 OA
BRANCH  33  36
ATOM     36  C   UNL A   1      34.295  34.323  29.447  1.00  0.00     0.039 A 
ATOM     37  C   UNL A   1      34.036  33.644  30.639  1.00  0.00     0.014 A 
ATOM     38  C   UNL A   1      35.608  34.490  29.000  1.00  0.00     0.014 A 
ATOM     39  C   UNL A   1      35.094  33.078  31.352  1.00  0.00     0.010 A 
ATOM     40  C   UNL A   1      36.652  33.859  29.670  1.00  0.00     0.010 A 
ATOM     41  C   UNL A   1      36.406  33.148  30.854  1.00  0.00    -0.014 A 
BRANCH  41  42
ATOM     42  C   UNL A   1      37.533  32.483  31.559  1.00  0.00     0.031 A 
ATOM     43  C   UNL A   1      38.035  33.036  32.867  1.00  0.00     0.074 A 
ATOM     44  C   UNL A   1      38.132  31.412  31.001  1.00  0.00     0.049 A 
ATOM     45  N   UNL A   1      39.043  32.637  33.598  1.00  0.00    -0.248 NA
ATOM     46  C   UNL A   1      37.325  34.205  33.412  1.00  0.00     0.031 C 
ATOM     47  C   UNL A   1      37.759  30.805  29.720  1.00  0.00     0.029 A 
ATOM     48  N   UNL A   1      39.184  30.645  31.433  1.00  0.00    -0.354 N 
ATOM     49  C   UNL A   1      39.088  33.499  34.688  1.00  0.00     0.074 A 
ATOM     50  C   UNL A   1      38.049  34.486  34.486  1.00  0.00     0.031 C 
ATOM     51  C   UNL A   1      38.550  29.745  29.487  1.00  0.00     0.029 A 
ATOM     52  C   UNL A   1      39.514  29.621  30.575  1.00  0.00     0.049 A 
ATOM     53  H   UNL A   1      39.660  30.812  32.280  1.00  0.00     0.167 HD
ATOM     54  C   UNL A   1      39.898  33.455  35.772  1.00  0.00     0.037 A 
ATOM     55  C   UNL A   1      40.488  28.694  30.653  1.00  0.00     0.037 A 
ATOM     56  C   UNL A   1      40.921  32.463  35.972  1.00  0.00     0.049 A 
ATOM     57  C   UNL A   1      41.405  28.696  31.849  1.00  0.00     0.074 A 
ATOM     58  C   UNL A   1      41.779  32.318  37.049  1.00  0.00     0.029 A 
ATOM     59  N   UNL A   1      41.225  31.444  35.081  1.00  0.00    -0.354 N 
ATOM     60  N   UNL A   1      41.400  29.492  32.892  1.00  0.00    -0.248 NA
ATOM     61  C   UNL A   1      42.458  27.671  31.881  1.00  0.00     0.031 C 
ATOM     62  C   UNL A   1      42.631  31.240  36.788  1.00  0.00     0.029 A 
ATOM     63  C   UNL A   1      42.268  30.678  35.574  1.00  0.00     0.049 A 
ATOM     64  H   UNL A   1      40.767  31.289  34.223  1.00  0.00     0.167 HD
ATOM     65  C   UNL A   1      42.422  29.039  33.720  1.00  0.00     0.074 A 
ATOM     66  C   UNL A   1      43.015  27.894  33.063  1.00  0.00     0.031 C 
ATOM     67  C   UNL A   1      42.834  29.528  34.916  1.00  0.00     0.037 A 
BRANCH  54  68
ATOM     68  C   UNL A   1      39.698  34.498  36.838  1.00  0.00     0.058 A 
ATOM     69  C   UNL A   1      38.892  34.253  37.961  1.00  0.00     0.135 A 
ATOM     70  C   UNL A   1      40.360  35.735  36.767  1.00  0.00     0.135 A 
ATOM     71  F   UNL A   1      38.221  33.095  38.073  1.00  0.00    -0.206 F 
ATOM     72  C   UNL A   1      38.731  35.202  38.965  1.00  0.00     0.059 A 
ATOM     73  C   UNL A   1      40.239  36.687  37.775  1.00  0.00     0.059 A 
ATOM     74  F   UNL A   1      41.141  36.024  35.715  1.00  0.00    -0.206 F 
ATOM     75  C   UNL A   1      39.414  36.416  38.865  1.00  0.00     0.060 A 
BRANCH  75  76
ATOM     76  S   UNL A   1      39.212  37.625  40.190  1.00  0.00     0.124 S 
ATOM     77  O   UNL A   1      38.762  36.778  41.291  1.00  0.00    -0.237 OA
ATOM     78  O   UNL A   1      40.560  38.170  40.320  1.00  0.00    -0.237 OA
ATOM     79  O   UNL A   1      38.214  38.548  39.660  1.00  0.00    -0.744 OA
ENDBRANCH  75  76
ENDBRANCH  54  68
BRANCH  55  80
ATOM     80  C   UNL A   1      40.650  27.675  29.579  1.00  0.00     0.058 A 
ATOM     81  C   UNL A   1      39.772  26.585  29.482  1.00  0.00     0.135 A 
ATOM     82  C   UNL A   1      41.699  27.751  28.650  1.00  0.00     0.135 A 
ATOM     83  F   UNL A   1      38.754  26.463  30.349  1.00  0.00    -0.206 F 
ATOM     84  C   UNL A   1      39.948  25.587  28.529  1.00  0.00     0.059 A 
ATOM     85  C   UNL A   1      41.878  26.782  27.668  1.00  0.00     0.059 A 
ATOM     86  F   UNL A   1      42.557  28.782  28.685  1.00  0.00    -0.206 F 
ATOM     87  C   UNL A   1      41.009  25.693  27.628  1.00  0.00     0.060 A 
BRANCH  87  88
ATOM     88  S   UNL A   1      41.226  24.395  26.391  1.00  0.00     0.124 S 
ATOM     89  O   UNL A   1      39.853  23.955  26.185  1.00  0.00    -0.237 OA
ATOM     90  O   UNL A   1      41.838  25.125  25.286  1.00  0.00    -0.237 OA
ATOM     91  O   UNL A   1      42.103  23.439  27.063  1.00  0.00    -0.744 OA
ENDBRANCH  87  88
ENDBRANCH  55  80
BRANCH  67  92
ATOM     92  C   UNL A   1      43.948  28.799  35.617  1.00  0.00     0.058 A 
ATOM     93  C   UNL A   1      43.700  27.748  36.514  1.00  0.00     0.135 A 
ATOM     94  C   UNL A   1      45.288  29.127  35.349  1.00  0.00     0.135 A 
ATOM     95  F   UNL A   1      42.437  27.398  36.810  1.00  0.00    -0.206 F 
ATOM     96  C   UNL A   1      44.737  27.065  37.139  1.00  0.00     0.059 A 
ATOM     97  C   UNL A   1      46.342  28.437  35.938  1.00  0.00     0.059 A 
ATOM     98  F   UNL A   1      45.584  30.117  34.492  1.00  0.00    -0.206 F 
ATOM     99  C   UNL A   1      46.056  27.415  36.842  1.00  0.00     0.060 A 
BRANCH  99 100
ATOM    100  S   UNL A   1      47.393  26.496  37.634  1.00  0.00     0.124 S 
ATOM    101  O   UNL A   1      46.850  25.141  37.647  1.00  0.00    -0.237 OA
ATOM    102  O   UNL A   1      48.510  26.723  36.723  1.00  0.00    -0.237 OA
ATOM    103  O   UNL A   1      47.518  27.134  38.941  1.00  0.00    -0.744 OA
ENDBRANCH  99 100
ENDBRANCH  67  92
ENDBRANCH  41  42
ENDBRANCH  33  36
ENDBRANCH  31  32
ENDBRANCH  30  31
ENDBRANCH  29  30
ENDBRANCH   1  29
TORSDOF 22
ENDMDL
MODEL 3
REMARK VINA RESULT:     -10.5      2.458      8.965
REMARK SMILES NC(=O)C[C@H](NC(=O)[C@@H]1CC(=O)N(CC2CC2)C1)C(=O)NCCCCCCNC(=O)c1ccc(-c2c3nc(c(-c4c(F)cc(S(=O)(=O)[O-])cc4F)c4ccc([nH]4)c(-c4c(F)cc(S(=O)(=O)[O-])cc4F)c4nc(c(-c5c(F)cc(S(=O)(=O)[O-])cc5F)c5ccc2[nH]5)C=C4)C=C3)cc1
REMARK SMILES IDX 24 1 23 2 22 3 21 4 19 5 20 6 5 8 4 9 2 10 1 11 3 14 6 15
REMARK SMILES IDX 7 16 8 18 9 19 10 20 18 21 11 22 13 23 12 24 14 25 15 26
REMARK SMILES IDX 16 27 17 28 25 29 26 30 27 31 28 32 29 33 30 35 31 36 32 37
REMARK SMILES IDX 96 38 33 39 95 40 34 41 35 42 36 43 89 44 37 45 94 46 88 47
REMARK SMILES IDX 90 48 38 49 93 50 87 51 86 52 39 54 73 55 52 56 72 57 53 58
REMARK SMILES IDX 56 59 71 60 91 61 54 62 55 63 70 65 92 66 57 67 40 68 41 69
REMARK SMILES IDX 50 70 42 71 43 72 49 73 51 74 44 75 45 76 46 77 47 78 48 79
REMARK SMILES IDX 74 80 75 81 84 82 76 83 77 84 83 85 85 86 78 87 79 88 80 89
REMARK SMILES IDX 81 90 82 91 58 92 59 93 68 94 60 95 61 96 67 97 69 98 62 99
REMARK SMILES IDX 63 100 64 101 65 102 66 103
REMARK H PARENT 21 7 1 12 1 13 6 17 28 34 90 53 56 64
REMARK Flexibility Score: inf
ROOT
ATOM      1  C   UNL A   1      39.910  22.665  27.199  1.00  0.00     0.002 C 
ENDROOT
BRANCH   1   2
ATOM      2  C   UNL A   1      39.541  21.750  26.027  1.00  0.00     0.021 C 
BRANCH   2   3
ATOM      3  C   UNL A   1      38.046  21.676  25.742  1.00  0.00     0.116 C 
BRANCH   3   4
ATOM      4  N   UNL A   1      37.712  22.175  24.412  1.00  0.00    -0.354 N 
ATOM      5  C   UNL A   1      36.496  22.486  23.857  1.00  0.00     0.243 C 
ATOM      6  O   UNL A   1      36.478  22.944  22.716  1.00  0.00    -0.273 OA
ATOM      7  H   UNL A   1      38.484  22.312  23.818  1.00  0.00     0.163 HD
BRANCH   5   8
ATOM      8  C   UNL A   1      35.199  22.264  24.671  1.00  0.00     0.180 C 
BRANCH   8   9
ATOM      9  C   UNL A   1      34.876  20.774  24.715  1.00  0.00     0.134 C 
BRANCH   9  10
ATOM     10  C   UNL A   1      33.474  20.536  25.241  1.00  0.00     0.220 C 
ATOM     11  N   UNL A   1      33.008  19.259  25.172  1.00  0.00    -0.370 N 
ATOM     12  H   UNL A   1      32.105  19.047  25.500  1.00  0.00     0.159 HD
ATOM     13  H   UNL A   1      33.575  18.547  24.795  1.00  0.00     0.159 HD
ATOM     14  O   UNL A   1      32.792  21.425  25.735  1.00  0.00    -0.275 OA
ENDBRANCH   9  10
ENDBRANCH   8   9
BRANCH   8  15
ATOM     15  N   UNL A   1      34.239  23.190  24.031  1.00  0.00    -0.343 N 
ATOM     16  C   UNL A   1      33.673  24.386  24.212  1.00  0.00     0.226 C 
ATOM     17  H   UNL A   1      33.909  22.792  23.193  1.00  0.00     0.164 HD
ATOM     18  O   UNL A   1      33.121  24.835  23.193  1.00  0.00    -0.275 OA
BRANCH  16  19
ATOM     19  C   UNL A   1      33.516  25.180  25.483  1.00  0.00     0.107 C 
ATOM     20  C   UNL A   1      32.379  24.964  26.456  1.00  0.00     0.115 C 
ATOM     21  C   UNL A   1      33.454  26.654  25.105  1.00  0.00     0.133 C 
ATOM     22  C   UNL A   1      31.450  26.131  26.206  1.00  0.00     0.223 C 
ATOM     23  N   UNL A   1      32.113  27.060  25.429  1.00  0.00    -0.342 N 
ATOM     24  O   UNL A   1      30.313  26.212  26.632  1.00  0.00    -0.275 OA
BRANCH  23  25
ATOM     25  C   UNL A   1      31.518  28.297  24.947  1.00  0.00     0.123 C 
BRANCH  25  26
ATOM     26  C   UNL A   1      30.751  28.202  23.660  1.00  0.00     0.008 C 
ATOM     27  C   UNL A   1      30.921  27.108  22.633  1.00  0.00     0.006 C 
ATOM     28  C   UNL A   1      29.657  27.182  23.449  1.00  0.00     0.006 C 
ENDBRANCH  25  26
ENDBRANCH  23  25
ENDBRANCH  16  19
ENDBRANCH   8  15
ENDBRANCH   5   8
ENDBRANCH   3   4
ENDBRANCH   2   3
ENDBRANCH   1   2
BRANCH   1  29
ATOM     29  C   UNL A   1      41.055  22.161  28.083  1.00  0.00     0.002 C 
BRANCH  29  30
ATOM     30  C   UNL A   1      42.426  22.103  27.405  1.00  0.00     0.021 C 
BRANCH  30  31
ATOM     31  C   UNL A   1      43.140  23.445  27.286  1.00  0.00     0.116 C 
BRANCH  31  32
ATOM     32  N   UNL A   1      42.728  24.191  26.108  1.00  0.00    -0.352 N 
ATOM     33  C   UNL A   1      42.113  25.417  26.035  1.00  0.00     0.251 C 
ATOM     34  H   UNL A   1      42.916  23.758  25.245  1.00  0.00     0.163 HD
ATOM     35  O   UNL A   1      41.690  25.828  24.959  1.00  0.00    -0.269 OA
BRANCH  33  36
ATOM     36  C   UNL A   1      41.940  26.219  27.264  1.00  0.00     0.039 A 
ATOM     37  C   UNL A   1      42.838  27.256  27.525  1.00  0.00     0.014 A 
ATOM     38  C   UNL A   1      40.884  25.962  28.143  1.00  0.00     0.014 A 
ATOM     39  C   UNL A   1      42.639  28.075  28.638  1.00  0.00     0.010 A 
ATOM     40  C   UNL A   1      40.643  26.826  29.207  1.00  0.00     0.010 A 
ATOM     41  C   UNL A   1      41.519  27.891  29.467  1.00  0.00    -0.014 A 
BRANCH  41  42
ATOM     42  C   UNL A   1      41.250  28.802  30.610  1.00  0.00     0.031 A 
ATOM     43  C   UNL A   1      42.087  28.714  31.858  1.00  0.00     0.074 A 
ATOM     44  C   UNL A   1      40.224  29.674  30.541  1.00  0.00     0.049 A 
ATOM     45  N   UNL A   1      41.967  29.375  32.980  1.00  0.00    -0.248 NA
ATOM     46  C   UNL A   1      43.190  27.738  31.853  1.00  0.00     0.031 C 
ATOM     47  C   UNL A   1      39.319  29.829  29.399  1.00  0.00     0.029 A 
ATOM     48  N   UNL A   1      39.765  30.593  31.451  1.00  0.00    -0.354 N 
ATOM     49  C   UNL A   1      42.976  28.901  33.811  1.00  0.00     0.074 A 
ATOM     50  C   UNL A   1      43.655  27.846  33.089  1.00  0.00     0.031 C 
ATOM     51  C   UNL A   1      38.435  30.803  29.666  1.00  0.00     0.029 A 
ATOM     52  C   UNL A   1      38.677  31.313  31.011  1.00  0.00     0.049 A 
ATOM     53  H   UNL A   1      40.175  30.726  32.337  1.00  0.00     0.167 HD
ATOM     54  C   UNL A   1      43.326  29.325  35.048  1.00  0.00     0.037 A 
ATOM     55  C   UNL A   1      37.955  32.268  31.627  1.00  0.00     0.037 A 
ATOM     56  C   UNL A   1      42.654  30.383  35.756  1.00  0.00     0.049 A 
ATOM     57  C   UNL A   1      38.338  32.690  33.022  1.00  0.00     0.074 A 
ATOM     58  C   UNL A   1      42.947  30.904  37.005  1.00  0.00     0.029 A 
ATOM     59  N   UNL A   1      41.557  31.086  35.279  1.00  0.00    -0.354 N 
ATOM     60  N   UNL A   1      39.325  32.261  33.772  1.00  0.00    -0.248 NA
ATOM     61  C   UNL A   1      37.510  33.728  33.653  1.00  0.00     0.031 C 
ATOM     62  C   UNL A   1      42.000  31.889  37.302  1.00  0.00     0.029 A 
ATOM     63  C   UNL A   1      41.150  32.022  36.214  1.00  0.00     0.049 A 
ATOM     64  H   UNL A   1      41.130  30.940  34.404  1.00  0.00     0.167 HD
ATOM     65  C   UNL A   1      39.260  33.005  34.947  1.00  0.00     0.074 A 
ATOM     66  C   UNL A   1      38.145  33.917  34.802  1.00  0.00     0.031 C 
ATOM     67  C   UNL A   1      40.050  32.938  36.047  1.00  0.00     0.037 A 
BRANCH  54  68
ATOM     68  C   UNL A   1      44.501  28.659  35.711  1.00  0.00     0.058 A 
ATOM     69  C   UNL A   1      45.812  29.125  35.518  1.00  0.00     0.135 A 
ATOM     70  C   UNL A   1      44.315  27.579  36.590  1.00  0.00     0.135 A 
ATOM     71  F   UNL A   1      46.051  30.142  34.675  1.00  0.00    -0.206 F 
ATOM     72  C   UNL A   1      46.898  28.533  36.155  1.00  0.00     0.059 A 
ATOM     73  C   UNL A   1      45.383  26.992  37.262  1.00  0.00     0.059 A 
ATOM     74  F   UNL A   1      43.084  27.091  36.809  1.00  0.00    -0.206 F 
ATOM     75  C   UNL A   1      46.672  27.469  37.030  1.00  0.00     0.060 A 
BRANCH  75  76
ATOM     76  S   UNL A   1      48.091  26.730  37.865  1.00  0.00     0.124 S 
ATOM     77  O   UNL A   1      48.373  27.725  38.895  1.00  0.00    -0.237 OA
ATOM     78  O   UNL A   1      47.544  25.463  38.342  1.00  0.00    -0.237 OA
ATOM     79  O   UNL A   1      49.090  26.620  36.808  1.00  0.00    -0.744 OA
ENDBRANCH  75  76
ENDBRANCH  54  68
BRANCH  55  80
ATOM     80  C   UNL A   1      36.801  32.907  30.935  1.00  0.00     0.058 A 
ATOM     81  C   UNL A   1      37.004  33.848  29.914  1.00  0.00     0.135 A 
ATOM     82  C   UNL A   1      35.477  32.616  31.298  1.00  0.00     0.135 A 
ATOM     83  F   UNL A   1      38.251  34.165  29.531  1.00  0.00    -0.206 F 
ATOM     84  C   UNL A   1      35.941  34.506  29.304  1.00  0.00     0.059 A 
ATOM     85  C   UNL A   1      34.395  33.237  30.682  1.00  0.00     0.059 A 
ATOM     86  F   UNL A   1      35.225  31.710  32.255  1.00  0.00    -0.206 F 
ATOM     87  C   UNL A   1      34.638  34.196  29.699  1.00  0.00     0.060 A 
BRANCH  87  88
ATOM     88  S   UNL A   1      33.265  35.051  28.898  1.00  0.00     0.124 S 
ATOM     89  O   UNL A   1      32.436  35.409  30.042  1.00  0.00    -0.237 OA
ATOM     90  O   UNL A   1      33.942  36.155  28.226  1.00  0.00    -0.237 OA
ATOM     91  O   UNL A   1      32.710  34.032  28.011  1.00  0.00    -0.744 OA
ENDBRANCH  87  88
ENDBRANCH  55  80
BRANCH  67  92
ATOM     92  C   UNL A   1      39.770  33.908  37.162  1.00  0.00     0.058 A 
ATOM     93  C   UNL A   1      39.020  33.545  38.292  1.00  0.00     0.135 A 
ATOM     94  C   UNL A   1      40.304  35.207  37.121  1.00  0.00     0.135 A 
ATOM     95  F   UNL A   1      38.482  32.317  38.379  1.00  0.00    -0.206 F 
ATOM     96  C   UNL A   1      38.787  34.442  39.328  1.00  0.00     0.059 A 
ATOM     97  C   UNL A   1      40.110  36.111  38.160  1.00  0.00     0.059 A 
ATOM     98  F   UNL A   1      41.037  35.604  36.069  1.00  0.00    -0.206 F 
ATOM     99  C   UNL A   1      39.339  35.722  39.255  1.00  0.00     0.060 A 
BRANCH  99 100
ATOM    100  S   UNL A   1      39.058  36.863  40.625  1.00  0.00     0.124 S 
ATOM    101  O   UNL A   1      38.301  36.029  41.552  1.00  0.00    -0.237 OA
ATOM    102  O   UNL A   1      40.417  37.196  41.038  1.00  0.00    -0.237 OA
ATOM    103  O   UNL A   1      38.310  37.956  40.011  1.00  0.00    -0.744 OA
ENDBRANCH  99 100
ENDBRANCH  67  92
ENDBRANCH  41  42
ENDBRANCH  33  36
ENDBRANCH  31  32
ENDBRANCH  30  31
ENDBRANCH  29  30
ENDBRANCH   1  29
TORSDOF 22
ENDMDL
