MODEL 1
REMARK VINA RESULT:      -8.8      0.000      0.000
REMARK SMILES Cc1ccc(S(=O)(=O)n2cc(C(=O)C(=O)N[C@@H](Cc3c[nH]c4ccccc34)C(=O)NCCCCCCNC(=O)c3ccc(-c4c5nc(c(-c6c(F)cc(S(=O)(=O)[O-])cc6F)c6ccc([nH]6)c(-c6c(F)cc(S(=O)(=O)[O-])cc6F)c6nc(c(-c7c(F)cc(S(=O)(=O)[O-])cc7F)c7ccc4[nH]7)C=C6)C=C5)cc3)c3ccccc32)cc1
REMARK SMILES IDX 32 1 31 2 30 3 28 4 29 5 17 7 16 8 14 9 15 10 12 12 13 13
REMARK SMILES IDX 11 14 9 15 10 16 111 17 106 18 110 19 107 20 109 21 108 22
REMARK SMILES IDX 6 23 7 24 8 25 5 26 1 27 2 28 3 29 113 30 4 31 112 32 18 33
REMARK SMILES IDX 19 34 20 35 27 36 21 37 22 38 26 39 23 41 25 42 24 43 33 44
REMARK SMILES IDX 34 45 35 46 36 47 37 48 38 49 39 51 40 52 41 53 105 54 42 55
REMARK SMILES IDX 104 56 43 57 44 58 45 59 98 60 46 61 103 62 97 63 99 64
REMARK SMILES IDX 47 65 102 66 96 67 95 68 48 70 82 71 61 72 81 73 62 74 65 75
REMARK SMILES IDX 80 76 100 77 63 78 64 79 79 81 101 82 66 83 49 84 50 85
REMARK SMILES IDX 59 86 51 87 52 88 58 89 60 90 53 91 54 92 55 93 56 94 57 95
REMARK SMILES IDX 83 96 84 97 93 98 85 99 86 100 92 101 94 102 87 103 88 104
REMARK SMILES IDX 89 105 90 106 91 107 67 108 68 109 77 110 69 111 70 112
REMARK SMILES IDX 76 113 78 114 71 115 72 116 73 117 74 118 75 119
REMARK H PARENT 30 6 16 11 21 40 37 50 99 69 65 80
REMARK Flexibility Score: inf
ROOT
ATOM      1  C   UNL A   1      39.470  34.700  29.979  1.00  0.00     0.021 C 
ENDROOT
BRANCH   1   2
ATOM      2  C   UNL A   1      38.551  33.601  29.460  1.00  0.00     0.116 C 
BRANCH   2   3
ATOM      3  N   UNL A   1      37.263  34.013  28.948  1.00  0.00    -0.354 N 
ATOM      4  C   UNL A   1      36.034  33.822  29.523  1.00  0.00     0.242 C 
ATOM      5  O   UNL A   1      35.192  34.710  29.334  1.00  0.00    -0.273 OA
ATOM      6  H   UNL A   1      37.270  34.488  28.086  1.00  0.00     0.163 HD
BRANCH   4   7
ATOM      7  C   UNL A   1      35.698  32.645  30.494  1.00  0.00     0.176 C 
BRANCH   7   8
ATOM      8  N   UNL A   1      34.535  32.824  31.391  1.00  0.00    -0.337 N 
ATOM      9  C   UNL A   1      34.460  33.358  32.675  1.00  0.00     0.293 C 
ATOM     10  O   UNL A   1      33.430  33.253  33.334  1.00  0.00    -0.265 OA
ATOM     11  H   UNL A   1      33.676  32.517  31.021  1.00  0.00     0.164 HD
BRANCH   9  12
ATOM     12  C   UNL A   1      35.654  34.107  33.282  1.00  0.00     0.252 C 
ATOM     13  O   UNL A   1      35.905  35.205  32.785  1.00  0.00    -0.283 OA
BRANCH  12  14
ATOM     14  C   UNL A   1      36.541  33.519  34.313  1.00  0.00     0.054 A 
ATOM     15  N   UNL A   1      37.624  32.877  36.204  1.00  0.00    -0.240 N 
ATOM     16  C   UNL A   1      36.591  33.676  35.707  1.00  0.00     0.117 A 
ATOM     17  C   UNL A   1      38.090  32.080  35.144  1.00  0.00     0.065 A 
ATOM     18  C   UNL A   1      37.674  32.713  33.977  1.00  0.00     0.012 A 
ATOM     19  C   UNL A   1      39.045  31.042  35.117  1.00  0.00     0.028 A 
ATOM     20  C   UNL A   1      38.371  32.437  32.780  1.00  0.00     0.011 A 
ATOM     21  C   UNL A   1      39.756  30.832  33.938  1.00  0.00     0.002 A 
ATOM     22  C   UNL A   1      39.454  31.553  32.792  1.00  0.00     0.001 A 
BRANCH  15  23
ATOM     23  S   UNL A   1      38.933  33.388  37.247  1.00  0.00     0.268 S 
ATOM     24  O   UNL A   1      39.359  32.149  37.876  1.00  0.00    -0.201 OA
ATOM     25  O   UNL A   1      38.310  34.447  38.036  1.00  0.00    -0.201 OA
BRANCH  23  26
ATOM     26  C   UNL A   1      40.417  34.184  36.745  1.00  0.00     0.088 A 
ATOM     27  C   UNL A   1      44.493  35.200  35.714  1.00  0.00     0.044 C 
ATOM     28  C   UNL A   1      43.058  34.884  36.031  1.00  0.00    -0.051 A 
ATOM     29  C   UNL A   1      42.668  33.554  35.982  1.00  0.00     0.005 A 
ATOM     30  C   UNL A   1      42.113  35.858  36.424  1.00  0.00     0.005 A 
ATOM     31  C   UNL A   1      41.369  33.219  36.321  1.00  0.00     0.022 A 
ATOM     32  C   UNL A   1      40.783  35.517  36.790  1.00  0.00     0.022 A 
ENDBRANCH  23  26
ENDBRANCH  15  23
ENDBRANCH  12  14
ENDBRANCH   9  12
ENDBRANCH   7   8
BRANCH   7  33
ATOM     33  C   UNL A   1      35.751  31.246  29.802  1.00  0.00     0.072 C 
BRANCH  33  34
ATOM     34  C   UNL A   1      36.532  30.139  30.464  1.00  0.00    -0.020 A 
ATOM     35  C   UNL A   1      36.483  29.807  31.809  1.00  0.00     0.087 A 
ATOM     36  C   UNL A   1      37.471  29.231  29.863  1.00  0.00     0.003 A 
ATOM     37  N   UNL A   1      37.419  28.836  32.056  1.00  0.00    -0.361 N 
ATOM     38  C   UNL A   1      38.095  28.531  30.899  1.00  0.00     0.046 A 
ATOM     39  C   UNL A   1      37.924  29.005  28.548  1.00  0.00     0.010 A 
ATOM     40  H   UNL A   1      37.582  28.419  32.933  1.00  0.00     0.166 HD
ATOM     41  C   UNL A   1      39.212  27.710  30.700  1.00  0.00     0.026 A 
ATOM     42  C   UNL A   1      39.053  28.209  28.331  1.00  0.00     0.001 A 
ATOM     43  C   UNL A   1      39.701  27.589  29.396  1.00  0.00     0.002 A 
ENDBRANCH  33  34
ENDBRANCH   7  33
ENDBRANCH   4   7
ENDBRANCH   2   3
ENDBRANCH   1   2
BRANCH   1  44
ATOM     44  C   UNL A   1      40.783  34.287  30.654  1.00  0.00     0.002 C 
BRANCH  44  45
ATOM     45  C   UNL A   1      42.029  34.057  29.784  1.00  0.00     0.002 C 
BRANCH  45  46
ATOM     46  C   UNL A   1      42.558  35.230  28.959  1.00  0.00     0.021 C 
BRANCH  46  47
ATOM     47  C   UNL A   1      43.572  36.123  29.664  1.00  0.00     0.116 C 
BRANCH  47  48
ATOM     48  N   UNL A   1      44.809  36.297  28.917  1.00  0.00    -0.352 N 
ATOM     49  C   UNL A   1      46.098  36.021  29.356  1.00  0.00     0.251 C 
ATOM     50  H   UNL A   1      44.723  36.647  28.001  1.00  0.00     0.163 HD
ATOM     51  O   UNL A   1      47.091  36.486  28.836  1.00  0.00    -0.269 OA
BRANCH  49  52
ATOM     52  C   UNL A   1      46.210  34.997  30.419  1.00  0.00     0.039 A 
ATOM     53  C   UNL A   1      46.728  33.751  30.048  1.00  0.00     0.014 A 
ATOM     54  C   UNL A   1      45.540  35.174  31.624  1.00  0.00     0.014 A 
ATOM     55  C   UNL A   1      46.414  32.628  30.808  1.00  0.00     0.010 A 
ATOM     56  C   UNL A   1      45.157  34.049  32.327  1.00  0.00     0.010 A 
ATOM     57  C   UNL A   1      45.555  32.774  31.896  1.00  0.00    -0.014 A 
BRANCH  57  58
ATOM     58  C   UNL A   1      44.949  31.653  32.602  1.00  0.00     0.031 A 
ATOM     59  C   UNL A   1      45.442  31.256  33.938  1.00  0.00     0.074 A 
ATOM     60  C   UNL A   1      43.856  31.039  32.099  1.00  0.00     0.049 A 
ATOM     61  N   UNL A   1      45.221  30.106  34.479  1.00  0.00    -0.248 NA
ATOM     62  C   UNL A   1      46.265  32.128  34.768  1.00  0.00     0.031 C 
ATOM     63  C   UNL A   1      42.919  30.183  32.823  1.00  0.00     0.029 A 
ATOM     64  N   UNL A   1      43.483  30.905  30.762  1.00  0.00    -0.354 N 
ATOM     65  C   UNL A   1      45.591  30.182  35.801  1.00  0.00     0.074 A 
ATOM     66  C   UNL A   1      46.294  31.441  35.914  1.00  0.00     0.031 C 
ATOM     67  C   UNL A   1      42.245  29.428  31.944  1.00  0.00     0.029 A 
ATOM     68  C   UNL A   1      42.831  29.664  30.638  1.00  0.00     0.049 A 
ATOM     69  H   UNL A   1      43.645  31.555  30.041  1.00  0.00     0.167 HD
ATOM     70  C   UNL A   1      45.141  29.237  36.678  1.00  0.00     0.037 A 
ATOM     71  C   UNL A   1      43.317  28.683  29.824  1.00  0.00     0.037 A 
ATOM     72  C   UNL A   1      44.357  28.207  35.994  1.00  0.00     0.049 A 
ATOM     73  C   UNL A   1      43.667  27.392  30.529  1.00  0.00     0.074 A 
ATOM     74  C   UNL A   1      42.996  27.973  35.873  1.00  0.00     0.029 A 
ATOM     75  N   UNL A   1      44.972  27.375  35.064  1.00  0.00    -0.354 N 
ATOM     76  N   UNL A   1      43.792  27.256  31.820  1.00  0.00    -0.248 NA
ATOM     77  C   UNL A   1      43.919  26.149  29.817  1.00  0.00     0.031 C 
ATOM     78  C   UNL A   1      42.799  26.971  34.889  1.00  0.00     0.029 A 
ATOM     79  C   UNL A   1      44.039  26.599  34.402  1.00  0.00     0.049 A 
ATOM     80  H   UNL A   1      45.943  27.344  34.899  1.00  0.00     0.167 HD
ATOM     81  C   UNL A   1      44.180  25.967  32.126  1.00  0.00     0.074 A 
ATOM     82  C   UNL A   1      44.202  25.313  30.831  1.00  0.00     0.031 C 
ATOM     83  C   UNL A   1      44.459  25.598  33.421  1.00  0.00     0.037 A 
BRANCH  70  84
ATOM     84  C   UNL A   1      45.175  29.409  38.186  1.00  0.00     0.058 A 
ATOM     85  C   UNL A   1      44.623  30.556  38.801  1.00  0.00     0.135 A 
ATOM     86  C   UNL A   1      45.783  28.506  39.079  1.00  0.00     0.135 A 
ATOM     87  F   UNL A   1      43.909  31.453  38.111  1.00  0.00    -0.206 F 
ATOM     88  C   UNL A   1      44.786  30.846  40.157  1.00  0.00     0.059 A 
ATOM     89  C   UNL A   1      46.011  28.800  40.429  1.00  0.00     0.059 A 
ATOM     90  F   UNL A   1      46.143  27.277  38.685  1.00  0.00    -0.206 F 
ATOM     91  C   UNL A   1      45.521  29.986  40.957  1.00  0.00     0.060 A 
BRANCH  91  92
ATOM     92  S   UNL A   1      45.819  30.438  42.677  1.00  0.00     0.124 S 
ATOM     93  O   UNL A   1      44.799  31.456  42.909  1.00  0.00    -0.237 OA
ATOM     94  O   UNL A   1      45.617  29.169  43.366  1.00  0.00    -0.237 OA
ATOM     95  O   UNL A   1      47.193  30.934  42.664  1.00  0.00    -0.744 OA
ENDBRANCH  91  92
ENDBRANCH  70  84
BRANCH  71  96
ATOM     96  C   UNL A   1      43.989  29.215  28.608  1.00  0.00     0.058 A 
ATOM     97  C   UNL A   1      43.170  29.757  27.598  1.00  0.00     0.135 A 
ATOM     98  C   UNL A   1      45.332  29.614  28.641  1.00  0.00     0.135 A 
ATOM     99  F   UNL A   1      41.881  29.390  27.511  1.00  0.00    -0.206 F 
ATOM    100  C   UNL A   1      43.613  30.785  26.774  1.00  0.00     0.059 A 
ATOM    101  C   UNL A   1      45.800  30.638  27.815  1.00  0.00     0.059 A 
ATOM    102  F   UNL A   1      46.160  29.124  29.575  1.00  0.00    -0.206 F 
ATOM    103  C   UNL A   1      44.909  31.266  26.942  1.00  0.00     0.060 A 
BRANCH 103 104
ATOM    104  S   UNL A   1      45.338  32.829  26.139  1.00  0.00     0.124 S 
ATOM    105  O   UNL A   1      44.808  33.811  27.078  1.00  0.00    -0.237 OA
ATOM    106  O   UNL A   1      46.797  32.742  26.073  1.00  0.00    -0.237 OA
ATOM    107  O   UNL A   1      44.648  32.747  24.856  1.00  0.00    -0.744 OA
ENDBRANCH 103 104
ENDBRANCH  71  96
BRANCH  83 108
ATOM    108  C   UNL A   1      45.076  24.295  33.957  1.00  0.00     0.058 A 
ATOM    109  C   UNL A   1      46.443  24.039  34.150  1.00  0.00     0.135 A 
ATOM    110  C   UNL A   1      44.232  23.221  34.372  1.00  0.00     0.135 A 
ATOM    111  F   UNL A   1      47.387  24.940  33.873  1.00  0.00    -0.206 F 
ATOM    112  C   UNL A   1      46.934  22.835  34.674  1.00  0.00     0.059 A 
ATOM    113  C   UNL A   1      44.695  22.030  34.933  1.00  0.00     0.059 A 
ATOM    114  F   UNL A   1      42.898  23.280  34.266  1.00  0.00    -0.206 F 
ATOM    115  C   UNL A   1      46.055  21.836  35.067  1.00  0.00     0.060 A 
BRANCH 115 116
ATOM    116  S   UNL A   1      46.703  20.322  35.794  1.00  0.00     0.124 S 
ATOM    117  O   UNL A   1      46.257  20.446  37.178  1.00  0.00    -0.237 OA
ATOM    118  O   UNL A   1      46.036  19.289  35.006  1.00  0.00    -0.237 OA
ATOM    119  O   UNL A   1      48.143  20.428  35.583  1.00  0.00    -0.744 OA
ENDBRANCH 115 116
ENDBRANCH  83 108
ENDBRANCH  57  58
ENDBRANCH  49  52
ENDBRANCH  47  48
ENDBRANCH  46  47
ENDBRANCH  45  46
ENDBRANCH  44  45
ENDBRANCH   1  44
TORSDOF 23
ENDMDL
MODEL 2
REMARK VINA RESULT:      -8.6      4.508     11.571
REMARK SMILES Cc1ccc(S(=O)(=O)n2cc(C(=O)C(=O)N[C@@H](Cc3c[nH]c4ccccc34)C(=O)NCCCCCCNC(=O)c3ccc(-c4c5nc(c(-c6c(F)cc(S(=O)(=O)[O-])cc6F)c6ccc([nH]6)c(-c6c(F)cc(S(=O)(=O)[O-])cc6F)c6nc(c(-c7c(F)cc(S(=O)(=O)[O-])cc7F)c7ccc4[nH]7)C=C6)C=C5)cc3)c3ccccc32)cc1
REMARK SMILES IDX 32 1 31 2 30 3 28 4 29 5 17 7 16 8 14 9 15 10 12 12 13 13
REMARK SMILES IDX 11 14 9 15 10 16 111 17 106 18 110 19 107 20 109 21 108 22
REMARK SMILES IDX 6 23 7 24 8 25 5 26 1 27 2 28 3 29 113 30 4 31 112 32 18 33
REMARK SMILES IDX 19 34 20 35 27 36 21 37 22 38 26 39 23 41 25 42 24 43 33 44
REMARK SMILES IDX 34 45 35 46 36 47 37 48 38 49 39 51 40 52 41 53 105 54 42 55
REMARK SMILES IDX 104 56 43 57 44 58 45 59 98 60 46 61 103 62 97 63 99 64
REMARK SMILES IDX 47 65 102 66 96 67 95 68 48 70 82 71 61 72 81 73 62 74 65 75
REMARK SMILES IDX 80 76 100 77 63 78 64 79 79 81 101 82 66 83 49 84 50 85
REMARK SMILES IDX 59 86 51 87 52 88 58 89 60 90 53 91 54 92 55 93 56 94 57 95
REMARK SMILES IDX 83 96 84 97 93 98 85 99 86 100 92 101 94 102 87 103 88 104
REMARK SMILES IDX 89 105 90 106 91 107 67 108 68 109 77 110 69 111 70 112
REMARK SMILES IDX 76 113 78 114 71 115 72 116 73 117 74 118 75 119
REMARK H PARENT 30 6 16 11 21 40 37 50 99 69 65 80
REMARK Flexibility Score: inf
ROOT
ATOM      1  C   UNL A   1      44.945  29.749  33.999  1.00  0.00     0.021 C 
ENDROOT
BRANCH   1   2
ATOM      2  C   UNL A   1      45.393  28.594  33.112  1.00  0.00     0.116 C 
BRANCH   2   3
ATOM      3  N   UNL A   1      45.993  27.457  33.773  1.00  0.00    -0.354 N 
ATOM      4  C   UNL A   1      45.678  26.133  33.612  1.00  0.00     0.242 C 
ATOM      5  O   UNL A   1      46.613  25.327  33.718  1.00  0.00    -0.273 OA
ATOM      6  H   UNL A   1      46.713  27.657  34.414  1.00  0.00     0.163 HD
BRANCH   4   7
ATOM      7  C   UNL A   1      44.270  25.617  33.173  1.00  0.00     0.176 C 
BRANCH   7   8
ATOM      8  N   UNL A   1      44.223  24.688  32.023  1.00  0.00    -0.337 N 
ATOM      9  C   UNL A   1      44.053  24.943  30.665  1.00  0.00     0.293 C 
ATOM     10  O   UNL A   1      43.855  24.021  29.878  1.00  0.00    -0.265 OA
ATOM     11  H   UNL A   1      44.331  23.737  32.254  1.00  0.00     0.164 HD
BRANCH   9  12
ATOM     12  C   UNL A   1      44.129  26.376  30.122  1.00  0.00     0.252 C 
ATOM     13  O   UNL A   1      45.259  26.793  29.871  1.00  0.00    -0.283 OA
BRANCH  12  14
ATOM     14  C   UNL A   1      42.950  27.266  30.013  1.00  0.00     0.054 A 
ATOM     15  N   UNL A   1      41.233  28.723  30.318  1.00  0.00    -0.240 N 
ATOM     16  C   UNL A   1      42.295  28.075  30.955  1.00  0.00     0.117 A 
ATOM     17  C   UNL A   1      41.345  28.465  28.941  1.00  0.00     0.065 A 
ATOM     18  C   UNL A   1      42.154  27.339  28.826  1.00  0.00     0.012 A 
ATOM     19  C   UNL A   1      40.601  28.950  27.845  1.00  0.00     0.028 A 
ATOM     20  C   UNL A   1      42.066  26.568  27.647  1.00  0.00     0.011 A 
ATOM     21  C   UNL A   1      40.485  28.140  26.717  1.00  0.00     0.002 A 
ATOM     22  C   UNL A   1      41.174  26.940  26.636  1.00  0.00     0.001 A 
BRANCH  15  23
ATOM     23  S   UNL A   1      39.561  28.746  30.834  1.00  0.00     0.268 S 
ATOM     24  O   UNL A   1      39.656  29.029  32.256  1.00  0.00    -0.201 OA
ATOM     25  O   UNL A   1      39.070  27.454  30.364  1.00  0.00    -0.201 OA
BRANCH  23  26
ATOM     26  C   UNL A   1      38.299  29.813  30.235  1.00  0.00     0.088 A 
ATOM     27  C   UNL A   1      35.118  31.710  28.002  1.00  0.00     0.044 C 
ATOM     28  C   UNL A   1      36.200  31.073  28.827  1.00  0.00    -0.051 A 
ATOM     29  C   UNL A   1      36.380  29.703  28.701  1.00  0.00     0.005 A 
ATOM     30  C   UNL A   1      37.068  31.800  29.673  1.00  0.00     0.005 A 
ATOM     31  C   UNL A   1      37.403  29.090  29.403  1.00  0.00     0.022 A 
ATOM     32  C   UNL A   1      38.130  31.177  30.382  1.00  0.00     0.022 A 
ENDBRANCH  23  26
ENDBRANCH  15  23
ENDBRANCH  12  14
ENDBRANCH   9  12
ENDBRANCH   7   8
BRANCH   7  33
ATOM     33  C   UNL A   1      43.378  25.177  34.376  1.00  0.00     0.072 C 
BRANCH  33  34
ATOM     34  C   UNL A   1      44.018  24.422  35.515  1.00  0.00    -0.020 A 
ATOM     35  C   UNL A   1      44.174  24.893  36.810  1.00  0.00     0.087 A 
ATOM     36  C   UNL A   1      44.592  23.105  35.498  1.00  0.00     0.003 A 
ATOM     37  N   UNL A   1      44.907  23.979  37.523  1.00  0.00    -0.361 N 
ATOM     38  C   UNL A   1      45.248  22.919  36.718  1.00  0.00     0.046 A 
ATOM     39  C   UNL A   1      44.705  22.089  34.527  1.00  0.00     0.010 A 
ATOM     40  H   UNL A   1      45.152  24.070  38.473  1.00  0.00     0.166 HD
ATOM     41  C   UNL A   1      46.094  21.832  36.971  1.00  0.00     0.026 A 
ATOM     42  C   UNL A   1      45.565  21.008  34.751  1.00  0.00     0.001 A 
ATOM     43  C   UNL A   1      46.266  20.895  35.948  1.00  0.00     0.002 A 
ENDBRANCH  33  34
ENDBRANCH   7  33
ENDBRANCH   4   7
ENDBRANCH   2   3
ENDBRANCH   1   2
BRANCH   1  44
ATOM     44  C   UNL A   1      44.701  31.113  33.343  1.00  0.00     0.002 C 
BRANCH  44  45
ATOM     45  C   UNL A   1      43.684  32.075  33.978  1.00  0.00     0.002 C 
BRANCH  45  46
ATOM     46  C   UNL A   1      42.474  31.474  34.692  1.00  0.00     0.021 C 
BRANCH  46  47
ATOM     47  C   UNL A   1      41.154  31.562  33.935  1.00  0.00     0.116 C 
BRANCH  47  48
ATOM     48  N   UNL A   1      40.136  32.334  34.633  1.00  0.00    -0.352 N 
ATOM     49  C   UNL A   1      39.912  33.702  34.541  1.00  0.00     0.251 C 
ATOM     50  H   UNL A   1      39.541  31.832  35.236  1.00  0.00     0.163 HD
ATOM     51  O   UNL A   1      39.292  34.332  35.372  1.00  0.00    -0.269 OA
BRANCH  49  52
ATOM     52  C   UNL A   1      40.351  34.342  33.281  1.00  0.00     0.039 A 
ATOM     53  C   UNL A   1      39.597  34.070  32.134  1.00  0.00     0.014 A 
ATOM     54  C   UNL A   1      41.618  34.910  33.197  1.00  0.00     0.014 A 
ATOM     55  C   UNL A   1      40.188  34.200  30.881  1.00  0.00     0.010 A 
ATOM     56  C   UNL A   1      42.231  34.954  31.961  1.00  0.00     0.010 A 
ATOM     57  C   UNL A   1      41.533  34.558  30.809  1.00  0.00    -0.014 A 
BRANCH  57  58
ATOM     58  C   UNL A   1      42.328  34.472  29.590  1.00  0.00     0.031 A 
ATOM     59  C   UNL A   1      43.246  33.333  29.375  1.00  0.00     0.074 A 
ATOM     60  C   UNL A   1      42.150  35.368  28.594  1.00  0.00     0.049 A 
ATOM     61  N   UNL A   1      44.218  33.338  28.527  1.00  0.00    -0.248 NA
ATOM     62  C   UNL A   1      43.158  32.092  30.135  1.00  0.00     0.031 C 
ATOM     63  C   UNL A   1      42.564  35.222  27.201  1.00  0.00     0.029 A 
ATOM     64  N   UNL A   1      41.730  36.693  28.694  1.00  0.00    -0.354 N 
ATOM     65  C   UNL A   1      44.680  32.049  28.407  1.00  0.00     0.074 A 
ATOM     66  C   UNL A   1      44.030  31.323  29.476  1.00  0.00     0.031 C 
ATOM     67  C   UNL A   1      42.619  36.435  26.632  1.00  0.00     0.029 A 
ATOM     68  C   UNL A   1      42.389  37.411  27.678  1.00  0.00     0.049 A 
ATOM     69  H   UNL A   1      41.094  37.058  29.350  1.00  0.00     0.167 HD
ATOM     70  C   UNL A   1      45.453  31.712  27.333  1.00  0.00     0.037 A 
ATOM     71  C   UNL A   1      43.236  38.441  27.970  1.00  0.00     0.037 A 
ATOM     72  C   UNL A   1      45.729  32.876  26.489  1.00  0.00     0.049 A 
ATOM     73  C   UNL A   1      44.655  38.248  27.488  1.00  0.00     0.074 A 
ATOM     74  C   UNL A   1      45.200  33.327  25.290  1.00  0.00     0.029 A 
ATOM     75  N   UNL A   1      46.488  33.928  26.991  1.00  0.00    -0.354 N 
ATOM     76  N   UNL A   1      45.160  37.115  27.085  1.00  0.00    -0.248 NA
ATOM     77  C   UNL A   1      45.625  39.331  27.439  1.00  0.00     0.031 C 
ATOM     78  C   UNL A   1      45.673  34.643  25.057  1.00  0.00     0.029 A 
ATOM     79  C   UNL A   1      46.484  35.001  26.119  1.00  0.00     0.049 A 
ATOM     80  H   UNL A   1      46.965  33.910  27.853  1.00  0.00     0.167 HD
ATOM     81  C   UNL A   1      46.496  37.273  26.775  1.00  0.00     0.074 A 
ATOM     82  C   UNL A   1      46.715  38.694  26.978  1.00  0.00     0.031 C 
ATOM     83  C   UNL A   1      47.271  36.201  26.405  1.00  0.00     0.037 A 
BRANCH  70  84
ATOM     84  C   UNL A   1      45.713  30.279  26.904  1.00  0.00     0.058 A 
ATOM     85  C   UNL A   1      44.646  29.406  26.591  1.00  0.00     0.135 A 
ATOM     86  C   UNL A   1      46.989  29.686  26.832  1.00  0.00     0.135 A 
ATOM     87  F   UNL A   1      43.384  29.840  26.499  1.00  0.00    -0.206 F 
ATOM     88  C   UNL A   1      44.820  28.039  26.367  1.00  0.00     0.059 A 
ATOM     89  C   UNL A   1      47.186  28.309  26.668  1.00  0.00     0.059 A 
ATOM     90  F   UNL A   1      48.103  30.430  26.872  1.00  0.00    -0.206 F 
ATOM     91  C   UNL A   1      46.089  27.488  26.452  1.00  0.00     0.060 A 
BRANCH  91  92
ATOM     92  S   UNL A   1      46.275  25.704  26.276  1.00  0.00     0.124 S 
ATOM     93  O   UNL A   1      45.075  25.201  26.940  1.00  0.00    -0.237 OA
ATOM     94  O   UNL A   1      46.313  25.542  24.827  1.00  0.00    -0.237 OA
ATOM     95  O   UNL A   1      47.528  25.423  26.972  1.00  0.00    -0.744 OA
ENDBRANCH  91  92
ENDBRANCH  70  84
BRANCH  71  96
ATOM     96  C   UNL A   1      42.828  39.205  29.180  1.00  0.00     0.058 A 
ATOM     97  C   UNL A   1      43.602  39.038  30.344  1.00  0.00     0.135 A 
ATOM     98  C   UNL A   1      42.056  40.369  29.073  1.00  0.00     0.135 A 
ATOM     99  F   UNL A   1      44.343  37.929  30.505  1.00  0.00    -0.206 F 
ATOM    100  C   UNL A   1      43.748  40.060  31.275  1.00  0.00     0.059 A 
ATOM    101  C   UNL A   1      42.180  41.404  30.002  1.00  0.00     0.059 A 
ATOM    102  F   UNL A   1      41.292  40.577  27.990  1.00  0.00    -0.206 F 
ATOM    103  C   UNL A   1      43.088  41.266  31.054  1.00  0.00     0.060 A 
BRANCH 103 104
ATOM    104  S   UNL A   1      43.580  42.692  32.053  1.00  0.00     0.124 S 
ATOM    105  O   UNL A   1      44.204  43.559  31.061  1.00  0.00    -0.237 OA
ATOM    106  O   UNL A   1      42.292  43.153  32.572  1.00  0.00    -0.237 OA
ATOM    107  O   UNL A   1      44.482  42.113  33.042  1.00  0.00    -0.744 OA
ENDBRANCH 103 104
ENDBRANCH  71  96
BRANCH  83 108
ATOM    108  C   UNL A   1      48.793  36.115  26.201  1.00  0.00     0.058 A 
ATOM    109  C   UNL A   1      49.694  35.356  26.966  1.00  0.00     0.135 A 
ATOM    110  C   UNL A   1      49.410  36.804  25.114  1.00  0.00     0.135 A 
ATOM    111  F   UNL A   1      49.303  34.601  27.993  1.00  0.00    -0.206 F 
ATOM    112  C   UNL A   1      51.071  35.301  26.704  1.00  0.00     0.059 A 
ATOM    113  C   UNL A   1      50.771  36.733  24.809  1.00  0.00     0.059 A 
ATOM    114  F   UNL A   1      48.713  37.579  24.272  1.00  0.00    -0.206 F 
ATOM    115  C   UNL A   1      51.602  35.988  25.621  1.00  0.00     0.060 A 
BRANCH 115 116
ATOM    116  S   UNL A   1      53.361  35.855  25.266  1.00  0.00     0.124 S 
ATOM    117  O   UNL A   1      53.541  36.913  24.276  1.00  0.00    -0.237 OA
ATOM    118  O   UNL A   1      53.962  36.106  26.573  1.00  0.00    -0.237 OA
ATOM    119  O   UNL A   1      53.509  34.493  24.767  1.00  0.00    -0.744 OA
ENDBRANCH 115 116
ENDBRANCH  83 108
ENDBRANCH  57  58
ENDBRANCH  49  52
ENDBRANCH  47  48
ENDBRANCH  46  47
ENDBRANCH  45  46
ENDBRANCH  44  45
ENDBRANCH   1  44
TORSDOF 23
ENDMDL
MODEL 3
REMARK VINA RESULT:      -8.5      3.755     10.690
REMARK SMILES Cc1ccc(S(=O)(=O)n2cc(C(=O)C(=O)N[C@@H](Cc3c[nH]c4ccccc34)C(=O)NCCCCCCNC(=O)c3ccc(-c4c5nc(c(-c6c(F)cc(S(=O)(=O)[O-])cc6F)c6ccc([nH]6)c(-c6c(F)cc(S(=O)(=O)[O-])cc6F)c6nc(c(-c7c(F)cc(S(=O)(=O)[O-])cc7F)c7ccc4[nH]7)C=C6)C=C5)cc3)c3ccccc32)cc1
REMARK SMILES IDX 32 1 31 2 30 3 28 4 29 5 17 7 16 8 14 9 15 10 12 12 13 13
REMARK SMILES IDX 11 14 9 15 10 16 111 17 106 18 110 19 107 20 109 21 108 22
REMARK SMILES IDX 6 23 7 24 8 25 5 26 1 27 2 28 3 29 113 30 4 31 112 32 18 33
REMARK SMILES IDX 19 34 20 35 27 36 21 37 22 38 26 39 23 41 25 42 24 43 33 44
REMARK SMILES IDX 34 45 35 46 36 47 37 48 38 49 39 51 40 52 41 53 105 54 42 55
REMARK SMILES IDX 104 56 43 57 44 58 45 59 98 60 46 61 103 62 97 63 99 64
REMARK SMILES IDX 47 65 102 66 96 67 95 68 48 70 82 71 61 72 81 73 62 74 65 75
REMARK SMILES IDX 80 76 100 77 63 78 64 79 79 81 101 82 66 83 49 84 50 85
REMARK SMILES IDX 59 86 51 87 52 88 58 89 60 90 53 91 54 92 55 93 56 94 57 95
REMARK SMILES IDX 83 96 84 97 93 98 85 99 86 100 92 101 94 102 87 103 88 104
REMARK SMILES IDX 89 105 90 106 91 107 67 108 68 109 77 110 69 111 70 112
REMARK SMILES IDX 76 113 78 114 71 115 72 116 73 117 74 118 75 119
REMARK H PARENT 30 6 16 11 21 40 37 50 99 69 65 80
REMARK Flexibility Score: inf
ROOT
ATOM      1  C   UNL A   1      41.787  36.042  28.776  1.00  0.00     0.021 C 
ENDROOT
BRANCH   1   2
ATOM      2  C   UNL A   1      42.949  36.157  27.797  1.00  0.00     0.116 C 
BRANCH   2   3
ATOM      3  N   UNL A   1      44.257  36.399  28.362  1.00  0.00    -0.354 N 
ATOM      4  C   UNL A   1      45.264  35.491  28.560  1.00  0.00     0.242 C 
ATOM      5  O   UNL A   1      46.422  35.914  28.436  1.00  0.00    -0.273 OA
ATOM      6  H   UNL A   1      44.448  37.325  28.635  1.00  0.00     0.163 HD
BRANCH   4   7
ATOM      7  C   UNL A   1      45.029  33.962  28.785  1.00  0.00     0.176 C 
BRANCH   7   8
ATOM      8  N   UNL A   1      44.915  33.115  27.578  1.00  0.00    -0.337 N 
ATOM      9  C   UNL A   1      45.895  32.662  26.699  1.00  0.00     0.293 C 
ATOM     10  O   UNL A   1      45.582  32.118  25.644  1.00  0.00    -0.265 OA
ATOM     11  H   UNL A   1      44.000  32.823  27.362  1.00  0.00     0.164 HD
BRANCH   9  12
ATOM     12  C   UNL A   1      47.384  32.814  27.039  1.00  0.00     0.252 C 
ATOM     13  O   UNL A   1      47.813  33.968  27.053  1.00  0.00    -0.283 OA
BRANCH  12  14
ATOM     14  C   UNL A   1      48.297  31.663  27.222  1.00  0.00     0.054 A 
ATOM     15  N   UNL A   1      49.993  30.151  27.207  1.00  0.00    -0.240 N 
ATOM     16  C   UNL A   1      49.569  31.382  26.698  1.00  0.00     0.117 A 
ATOM     17  C   UNL A   1      49.071  29.759  28.191  1.00  0.00     0.065 A 
ATOM     18  C   UNL A   1      47.912  30.489  27.944  1.00  0.00     0.012 A 
ATOM     19  C   UNL A   1      49.072  28.660  29.075  1.00  0.00     0.028 A 
ATOM     20  C   UNL A   1      46.687  29.990  28.438  1.00  0.00     0.011 A 
ATOM     21  C   UNL A   1      47.845  28.155  29.500  1.00  0.00     0.002 A 
ATOM     22  C   UNL A   1      46.661  28.787  29.149  1.00  0.00     0.001 A 
BRANCH  15  23
ATOM     23  S   UNL A   1      50.569  28.780  26.283  1.00  0.00     0.268 S 
ATOM     24  O   UNL A   1      51.265  27.979  27.276  1.00  0.00    -0.201 OA
ATOM     25  O   UNL A   1      51.303  29.420  25.196  1.00  0.00    -0.201 OA
BRANCH  23  26
ATOM     26  C   UNL A   1      49.579  27.641  25.382  1.00  0.00     0.088 A 
ATOM     27  C   UNL A   1      47.320  24.219  24.005  1.00  0.00     0.044 C 
ATOM     28  C   UNL A   1      48.067  25.443  24.455  1.00  0.00    -0.051 A 
ATOM     29  C   UNL A   1      48.274  25.602  25.818  1.00  0.00     0.005 A 
ATOM     30  C   UNL A   1      48.609  26.399  23.566  1.00  0.00     0.005 A 
ATOM     31  C   UNL A   1      49.006  26.688  26.266  1.00  0.00     0.022 A 
ATOM     32  C   UNL A   1      49.376  27.505  24.021  1.00  0.00     0.022 A 
ENDBRANCH  23  26
ENDBRANCH  15  23
ENDBRANCH  12  14
ENDBRANCH   9  12
ENDBRANCH   7   8
BRANCH   7  33
ATOM     33  C   UNL A   1      45.948  33.359  29.895  1.00  0.00     0.072 C 
BRANCH  33  34
ATOM     34  C   UNL A   1      45.873  33.934  31.288  1.00  0.00    -0.020 A 
ATOM     35  C   UNL A   1      46.932  34.041  32.176  1.00  0.00     0.087 A 
ATOM     36  C   UNL A   1      44.725  34.463  31.971  1.00  0.00     0.003 A 
ATOM     37  N   UNL A   1      46.453  34.495  33.378  1.00  0.00    -0.361 N 
ATOM     38  C   UNL A   1      45.093  34.676  33.302  1.00  0.00     0.046 A 
ATOM     39  C   UNL A   1      43.380  34.689  31.614  1.00  0.00     0.010 A 
ATOM     40  H   UNL A   1      47.003  34.665  34.176  1.00  0.00     0.166 HD
ATOM     41  C   UNL A   1      44.170  34.992  34.308  1.00  0.00     0.026 A 
ATOM     42  C   UNL A   1      42.439  34.980  32.608  1.00  0.00     0.001 A 
ATOM     43  C   UNL A   1      42.827  35.107  33.939  1.00  0.00     0.002 A 
ENDBRANCH  33  34
ENDBRANCH   7  33
ENDBRANCH   4   7
ENDBRANCH   2   3
ENDBRANCH   1   2
BRANCH   1  44
ATOM     44  C   UNL A   1      41.007  34.723  28.823  1.00  0.00     0.002 C 
BRANCH  44  45
ATOM     45  C   UNL A   1      39.700  34.658  29.629  1.00  0.00     0.002 C 
BRANCH  45  46
ATOM     46  C   UNL A   1      38.458  34.091  28.942  1.00  0.00     0.021 C 
BRANCH  46  47
ATOM     47  C   UNL A   1      38.181  32.615  29.200  1.00  0.00     0.116 C 
BRANCH  47  48
ATOM     48  N   UNL A   1      36.763  32.299  29.298  1.00  0.00    -0.352 N 
ATOM     49  C   UNL A   1      36.135  31.129  28.891  1.00  0.00     0.251 C 
ATOM     50  H   UNL A   1      36.187  32.990  29.697  1.00  0.00     0.163 HD
ATOM     51  O   UNL A   1      34.941  31.051  28.689  1.00  0.00    -0.269 OA
BRANCH  49  52
ATOM     52  C   UNL A   1      36.989  29.921  28.853  1.00  0.00     0.039 A 
ATOM     53  C   UNL A   1      37.137  29.211  30.050  1.00  0.00     0.014 A 
ATOM     54  C   UNL A   1      37.837  29.705  27.773  1.00  0.00     0.014 A 
ATOM     55  C   UNL A   1      38.257  28.406  30.232  1.00  0.00     0.010 A 
ATOM     56  C   UNL A   1      38.992  28.978  27.986  1.00  0.00     0.010 A 
ATOM     57  C   UNL A   1      39.224  28.366  29.228  1.00  0.00    -0.014 A 
BRANCH  57  58
ATOM     58  C   UNL A   1      40.547  27.781  29.403  1.00  0.00     0.031 A 
ATOM     59  C   UNL A   1      40.835  26.420  28.900  1.00  0.00     0.074 A 
ATOM     60  C   UNL A   1      41.556  28.515  29.920  1.00  0.00     0.049 A 
ATOM     61  N   UNL A   1      41.827  25.698  29.295  1.00  0.00    -0.248 NA
ATOM     62  C   UNL A   1      39.993  25.745  27.919  1.00  0.00     0.031 C 
ATOM     63  C   UNL A   1      42.986  28.233  29.819  1.00  0.00     0.029 A 
ATOM     64  N   UNL A   1      41.475  29.572  30.826  1.00  0.00    -0.354 N 
ATOM     65  C   UNL A   1      41.938  24.627  28.440  1.00  0.00     0.074 A 
ATOM     66  C   UNL A   1      40.734  24.669  27.640  1.00  0.00     0.031 C 
ATOM     67  C   UNL A   1      43.633  28.901  30.786  1.00  0.00     0.029 A 
ATOM     68  C   UNL A   1      42.628  29.513  31.632  1.00  0.00     0.049 A 
ATOM     69  H   UNL A   1      40.749  30.234  30.889  1.00  0.00     0.167 HD
ATOM     70  C   UNL A   1      43.099  23.909  28.413  1.00  0.00     0.037 A 
ATOM     71  C   UNL A   1      42.543  29.333  32.981  1.00  0.00     0.037 A 
ATOM     72  C   UNL A   1      44.049  24.394  29.416  1.00  0.00     0.049 A 
ATOM     73  C   UNL A   1      43.235  28.093  33.498  1.00  0.00     0.074 A 
ATOM     74  C   UNL A   1      45.173  25.202  29.346  1.00  0.00     0.029 A 
ATOM     75  N   UNL A   1      43.744  24.277  30.768  1.00  0.00    -0.354 N 
ATOM     76  N   UNL A   1      43.641  27.100  32.756  1.00  0.00    -0.248 NA
ATOM     77  C   UNL A   1      43.509  27.873  34.909  1.00  0.00     0.031 C 
ATOM     78  C   UNL A   1      45.563  25.542  30.667  1.00  0.00     0.029 A 
ATOM     79  C   UNL A   1      44.671  24.950  31.543  1.00  0.00     0.049 A 
ATOM     80  H   UNL A   1      42.971  23.782  31.125  1.00  0.00     0.167 HD
ATOM     81  C   UNL A   1      44.172  26.102  33.548  1.00  0.00     0.074 A 
ATOM     82  C   UNL A   1      44.098  26.666  34.883  1.00  0.00     0.031 C 
ATOM     83  C   UNL A   1      44.593  24.912  33.003  1.00  0.00     0.037 A 
BRANCH  70  84
ATOM     84  C   UNL A   1      43.472  22.961  27.287  1.00  0.00     0.058 A 
ATOM     85  C   UNL A   1      42.779  21.744  27.099  1.00  0.00     0.135 A 
ATOM     86  C   UNL A   1      44.538  23.166  26.390  1.00  0.00     0.135 A 
ATOM     87  F   UNL A   1      41.671  21.449  27.790  1.00  0.00    -0.206 F 
ATOM     88  C   UNL A   1      43.194  20.760  26.199  1.00  0.00     0.059 A 
ATOM     89  C   UNL A   1      45.011  22.175  25.521  1.00  0.00     0.059 A 
ATOM     90  F   UNL A   1      45.139  24.361  26.288  1.00  0.00    -0.206 F 
ATOM     91  C   UNL A   1      44.339  20.963  25.445  1.00  0.00     0.060 A 
BRANCH  91  92
ATOM     92  S   UNL A   1      44.925  19.634  24.377  1.00  0.00     0.124 S 
ATOM     93  O   UNL A   1      46.366  19.664  24.611  1.00  0.00    -0.237 OA
ATOM     94  O   UNL A   1      44.219  18.477  24.915  1.00  0.00    -0.237 OA
ATOM     95  O   UNL A   1      44.507  20.061  23.044  1.00  0.00    -0.744 OA
ENDBRANCH  91  92
ENDBRANCH  70  84
BRANCH  71  96
ATOM     96  C   UNL A   1      41.334  29.963  33.578  1.00  0.00     0.058 A 
ATOM     97  C   UNL A   1      41.396  31.339  33.872  1.00  0.00     0.135 A 
ATOM     98  C   UNL A   1      40.066  29.388  33.417  1.00  0.00     0.135 A 
ATOM     99  F   UNL A   1      42.587  31.932  34.057  1.00  0.00    -0.206 F 
ATOM    100  C   UNL A   1      40.266  32.146  33.826  1.00  0.00     0.059 A 
ATOM    101  C   UNL A   1      38.916  30.179  33.377  1.00  0.00     0.059 A 
ATOM    102  F   UNL A   1      39.946  28.080  33.145  1.00  0.00    -0.206 F 
ATOM    103  C   UNL A   1      39.041  31.565  33.505  1.00  0.00     0.060 A 
BRANCH 103 104
ATOM    104  S   UNL A   1      37.671  32.666  33.081  1.00  0.00     0.124 S 
ATOM    105  O   UNL A   1      38.364  33.797  32.475  1.00  0.00    -0.237 OA
ATOM    106  O   UNL A   1      36.892  31.837  32.161  1.00  0.00    -0.237 OA
ATOM    107  O   UNL A   1      37.041  32.929  34.370  1.00  0.00    -0.744 OA
ENDBRANCH 103 104
ENDBRANCH  71  96
BRANCH  83 108
ATOM    108  C   UNL A   1      45.035  23.615  33.703  1.00  0.00     0.058 A 
ATOM    109  C   UNL A   1      46.354  23.241  34.008  1.00  0.00     0.135 A 
ATOM    110  C   UNL A   1      44.058  22.683  34.166  1.00  0.00     0.135 A 
ATOM    111  F   UNL A   1      47.403  24.006  33.705  1.00  0.00    -0.206 F 
ATOM    112  C   UNL A   1      46.682  22.054  34.678  1.00  0.00     0.059 A 
ATOM    113  C   UNL A   1      44.358  21.515  34.869  1.00  0.00     0.059 A 
ATOM    114  F   UNL A   1      42.746  22.868  33.969  1.00  0.00    -0.206 F 
ATOM    115  C   UNL A   1      45.679  21.197  35.110  1.00  0.00     0.060 A 
BRANCH 115 116
ATOM    116  S   UNL A   1      46.118  19.709  36.021  1.00  0.00     0.124 S 
ATOM    117  O   UNL A   1      47.569  19.684  35.862  1.00  0.00    -0.237 OA
ATOM    118  O   UNL A   1      45.636  20.014  37.365  1.00  0.00    -0.237 OA
ATOM    119  O   UNL A   1      45.390  18.653  35.327  1.00  0.00    -0.744 OA
ENDBRANCH 115 116
ENDBRANCH  83 108
ENDBRANCH  57  58
ENDBRANCH  49  52
ENDBRANCH  47  48
ENDBRANCH  46  47
ENDBRANCH  45  46
ENDBRANCH  44  45
ENDBRANCH   1  44
TORSDOF 23
ENDMDL
