MODEL 1
REMARK VINA RESULT:     -13.2      0.000      0.000
REMARK SMILES COc1cc(C)cc2c1[C@@H](C)[C@@H](CC(=O)N[C@@H](Cc1c[nH]c3ccccc13)C(=O)NCCCCCCNC(=O)c1ccc(-c3c4nc(c(-c5c(F)cc(S(=O)(=O)[O-])cc5F)c5ccc([nH]5)c(-c5c(F)cc(S(=O)(=O)[O-])cc5F)c5nc(c(-c6c(F)cc(S(=O)(=O)[O-])cc6F)c6ccc3[nH]6)C=C5)C=C4)cc1)C(=O)O2
REMARK SMILES IDX 33 1 32 2 31 3 30 4 28 5 29 6 17 8 16 9 14 10 15 11 13 13
REMARK SMILES IDX 12 14 3 15 4 16 9 17 5 18 8 19 10 20 6 21 7 22 108 23 11 24
REMARK SMILES IDX 106 25 107 26 2 27 1 28 18 29 19 30 20 31 27 32 21 33 22 34
REMARK SMILES IDX 26 35 23 37 25 38 24 39 34 40 35 41 36 42 37 43 38 44 39 46
REMARK SMILES IDX 40 47 41 48 105 49 42 50 104 51 43 52 44 53 45 54 98 55
REMARK SMILES IDX 46 56 103 57 97 58 99 59 47 60 102 61 96 62 95 63 48 65
REMARK SMILES IDX 82 66 61 67 81 68 62 69 65 70 80 71 100 72 63 73 64 74 79 76
REMARK SMILES IDX 101 77 66 78 49 79 50 80 59 81 51 82 52 83 58 84 60 85 53 86
REMARK SMILES IDX 54 87 55 88 56 89 57 90 83 91 84 92 93 93 85 94 86 95 92 96
REMARK SMILES IDX 94 97 87 98 88 99 89 100 90 101 91 102 67 103 68 104 77 105
REMARK SMILES IDX 69 106 70 107 76 108 78 109 71 110 72 111 73 112 74 113
REMARK SMILES IDX 75 114
REMARK H PARENT 30 7 16 12 21 36 37 45 99 64 65 75
REMARK Flexibility Score: inf
ROOT
ATOM      1  C   UNL A   1      39.561  21.498  26.307  1.00  0.00     0.002 C 
ENDROOT
BRANCH   1   2
ATOM      2  C   UNL A   1      38.492  22.090  25.383  1.00  0.00     0.021 C 
BRANCH   2   3
ATOM      3  C   UNL A   1      37.187  21.306  25.432  1.00  0.00     0.116 C 
BRANCH   3   4
ATOM      4  N   UNL A   1      36.282  21.924  26.364  1.00  0.00    -0.354 N 
ATOM      5  C   UNL A   1      35.145  22.608  26.105  1.00  0.00     0.242 C 
ATOM      6  O   UNL A   1      34.739  23.357  27.004  1.00  0.00    -0.273 OA
ATOM      7  H   UNL A   1      36.523  21.839  27.315  1.00  0.00     0.163 HD
BRANCH   5   8
ATOM      8  C   UNL A   1      34.336  22.477  24.792  1.00  0.00     0.175 C 
BRANCH   8   9
ATOM      9  N   UNL A   1      34.641  23.449  23.758  1.00  0.00    -0.344 N 
ATOM     10  C   UNL A   1      33.912  24.562  23.450  1.00  0.00     0.221 C 
ATOM     11  O   UNL A   1      33.940  25.005  22.303  1.00  0.00    -0.275 OA
ATOM     12  H   UNL A   1      35.455  23.291  23.226  1.00  0.00     0.164 HD
BRANCH  10  13
ATOM     13  C   UNL A   1      33.214  25.316  24.571  1.00  0.00     0.116 C 
BRANCH  13  14
ATOM     14  C   UNL A   1      31.745  24.958  24.909  1.00  0.00     0.116 C 
ATOM     15  C   UNL A   1      30.773  28.584  24.433  1.00  0.00     0.126 A 
ATOM     16  C   UNL A   1      31.231  29.756  25.057  1.00  0.00     0.050 A 
ATOM     17  C   UNL A   1      31.019  27.335  25.006  1.00  0.00     0.041 A 
ATOM     18  C   UNL A   1      31.947  29.707  26.264  1.00  0.00    -0.044 A 
ATOM     19  C   UNL A   1      31.613  27.330  26.280  1.00  0.00     0.138 A 
ATOM     20  C   UNL A   1      30.717  25.985  24.359  1.00  0.00     0.038 C 
ATOM     21  C   UNL A   1      32.470  30.962  26.897  1.00  0.00     0.044 C 
ATOM     22  C   UNL A   1      32.101  28.480  26.896  1.00  0.00     0.051 A 
ATOM     23  O   UNL A   1      31.725  26.149  27.032  1.00  0.00    -0.426 OA
ATOM     24  C   UNL A   1      30.691  25.922  22.827  1.00  0.00     0.014 C 
ATOM     25  C   UNL A   1      31.409  24.975  26.383  1.00  0.00     0.315 C 
ATOM     26  O   UNL A   1      30.884  24.039  26.975  1.00  0.00    -0.251 OA
BRANCH  15  27
ATOM     27  O   UNL A   1      29.975  28.635  23.323  1.00  0.00    -0.496 OA
ATOM     28  C   UNL A   1      29.789  29.947  22.806  1.00  0.00     0.278 C 
ENDBRANCH  15  27
ENDBRANCH  13  14
ENDBRANCH  10  13
ENDBRANCH   8   9
BRANCH   8  29
ATOM     29  C   UNL A   1      33.779  21.166  24.247  1.00  0.00     0.072 C 
BRANCH  29  30
ATOM     30  C   UNL A   1      33.592  19.850  24.956  1.00  0.00    -0.020 A 
ATOM     31  C   UNL A   1      33.059  19.873  26.240  1.00  0.00     0.087 A 
ATOM     32  C   UNL A   1      33.690  18.454  24.597  1.00  0.00     0.003 A 
ATOM     33  N   UNL A   1      32.748  18.609  26.625  1.00  0.00    -0.361 N 
ATOM     34  C   UNL A   1      33.146  17.721  25.662  1.00  0.00     0.046 A 
ATOM     35  C   UNL A   1      34.133  17.700  23.488  1.00  0.00     0.010 A 
ATOM     36  H   UNL A   1      32.304  18.368  27.470  1.00  0.00     0.166 HD
ATOM     37  C   UNL A   1      33.024  16.325  25.670  1.00  0.00     0.026 A 
ATOM     38  C   UNL A   1      34.041  16.298  23.488  1.00  0.00     0.001 A 
ATOM     39  C   UNL A   1      33.493  15.620  24.567  1.00  0.00     0.002 A 
ENDBRANCH  29  30
ENDBRANCH   8  29
ENDBRANCH   5   8
ENDBRANCH   3   4
ENDBRANCH   2   3
ENDBRANCH   1   2
BRANCH   1  40
ATOM     40  C   UNL A   1      40.170  22.506  27.292  1.00  0.00     0.002 C 
BRANCH  40  41
ATOM     41  C   UNL A   1      41.555  22.121  27.814  1.00  0.00     0.021 C 
BRANCH  41  42
ATOM     42  C   UNL A   1      42.539  23.283  27.849  1.00  0.00     0.116 C 
BRANCH  42  43
ATOM     43  N   UNL A   1      42.653  23.926  26.547  1.00  0.00    -0.352 N 
ATOM     44  C   UNL A   1      42.237  25.179  26.172  1.00  0.00     0.251 C 
ATOM     45  H   UNL A   1      43.085  23.391  25.843  1.00  0.00     0.163 HD
ATOM     46  O   UNL A   1      42.188  25.490  24.986  1.00  0.00    -0.269 OA
BRANCH  44  47
ATOM     47  C   UNL A   1      41.835  26.134  27.220  1.00  0.00     0.039 A 
ATOM     48  C   UNL A   1      42.608  27.275  27.450  1.00  0.00     0.014 A 
ATOM     49  C   UNL A   1      40.715  25.863  28.007  1.00  0.00     0.014 A 
ATOM     50  C   UNL A   1      42.356  28.057  28.568  1.00  0.00     0.010 A 
ATOM     51  C   UNL A   1      40.410  26.705  29.078  1.00  0.00     0.010 A 
ATOM     52  C   UNL A   1      41.253  27.783  29.393  1.00  0.00    -0.014 A 
BRANCH  52  53
ATOM     53  C   UNL A   1      41.007  28.637  30.582  1.00  0.00     0.031 A 
ATOM     54  C   UNL A   1      41.902  28.553  31.787  1.00  0.00     0.074 A 
ATOM     55  C   UNL A   1      40.001  29.532  30.542  1.00  0.00     0.049 A 
ATOM     56  N   UNL A   1      41.834  29.220  32.910  1.00  0.00    -0.248 NA
ATOM     57  C   UNL A   1      43.017  27.594  31.730  1.00  0.00     0.031 C 
ATOM     58  C   UNL A   1      39.081  29.715  29.416  1.00  0.00     0.029 A 
ATOM     59  N   UNL A   1      39.596  30.471  31.455  1.00  0.00    -0.354 N 
ATOM     60  C   UNL A   1      42.879  28.752  33.698  1.00  0.00     0.074 A 
ATOM     61  C   UNL A   1      43.550  27.721  32.937  1.00  0.00     0.031 C 
ATOM     62  C   UNL A   1      38.258  30.739  29.681  1.00  0.00     0.029 A 
ATOM     63  C   UNL A   1      38.541  31.239  31.022  1.00  0.00     0.049 A 
ATOM     64  H   UNL A   1      40.020  30.585  32.336  1.00  0.00     0.167 HD
ATOM     65  C   UNL A   1      43.251  29.156  34.936  1.00  0.00     0.037 A 
ATOM     66  C   UNL A   1      37.862  32.223  31.640  1.00  0.00     0.037 A 
ATOM     67  C   UNL A   1      42.587  30.199  35.677  1.00  0.00     0.049 A 
ATOM     68  C   UNL A   1      38.263  32.617  33.033  1.00  0.00     0.074 A 
ATOM     69  C   UNL A   1      42.895  30.692  36.932  1.00  0.00     0.029 A 
ATOM     70  N   UNL A   1      41.481  30.910  35.229  1.00  0.00    -0.354 N 
ATOM     71  N   UNL A   1      39.250  32.158  33.765  1.00  0.00    -0.248 NA
ATOM     72  C   UNL A   1      37.452  33.650  33.689  1.00  0.00     0.031 C 
ATOM     73  C   UNL A   1      41.951  31.671  37.261  1.00  0.00     0.029 A 
ATOM     74  C   UNL A   1      41.083  31.822  36.192  1.00  0.00     0.049 A 
ATOM     75  H   UNL A   1      41.045  30.784  34.355  1.00  0.00     0.167 HD
ATOM     76  C   UNL A   1      39.184  32.852  34.967  1.00  0.00     0.074 A 
ATOM     77  C   UNL A   1      38.073  33.777  34.854  1.00  0.00     0.031 C 
ATOM     78  C   UNL A   1      39.969  32.730  36.065  1.00  0.00     0.037 A 
BRANCH  65  79
ATOM     79  C   UNL A   1      44.423  28.465  35.578  1.00  0.00     0.058 A 
ATOM     80  C   UNL A   1      44.289  27.220  36.214  1.00  0.00     0.135 A 
ATOM     81  C   UNL A   1      45.708  29.031  35.517  1.00  0.00     0.135 A 
ATOM     82  F   UNL A   1      43.082  26.640  36.317  1.00  0.00    -0.206 F 
ATOM     83  C   UNL A   1      45.381  26.572  36.783  1.00  0.00     0.059 A 
ATOM     84  C   UNL A   1      46.818  28.389  36.058  1.00  0.00     0.059 A 
ATOM     85  F   UNL A   1      45.893  30.220  34.922  1.00  0.00    -0.206 F 
ATOM     86  C   UNL A   1      46.642  27.164  36.699  1.00  0.00     0.060 A 
BRANCH  86  87
ATOM     87  S   UNL A   1      48.046  26.305  37.441  1.00  0.00     0.124 S 
ATOM     88  O   UNL A   1      47.609  26.178  38.828  1.00  0.00    -0.237 OA
ATOM     89  O   UNL A   1      48.089  25.064  36.674  1.00  0.00    -0.237 OA
ATOM     90  O   UNL A   1      49.163  27.217  37.216  1.00  0.00    -0.744 OA
ENDBRANCH  86  87
ENDBRANCH  65  79
BRANCH  66  91
ATOM     91  C   UNL A   1      36.738  32.892  30.937  1.00  0.00     0.058 A 
ATOM     92  C   UNL A   1      35.408  32.609  31.273  1.00  0.00     0.135 A 
ATOM     93  C   UNL A   1      36.972  33.868  29.955  1.00  0.00     0.135 A 
ATOM     94  F   UNL A   1      35.133  31.680  32.202  1.00  0.00    -0.206 F 
ATOM     95  C   UNL A   1      34.346  33.269  30.662  1.00  0.00     0.059 A 
ATOM     96  C   UNL A   1      35.930  34.561  29.349  1.00  0.00     0.059 A 
ATOM     97  F   UNL A   1      38.230  34.186  29.609  1.00  0.00    -0.206 F 
ATOM     98  C   UNL A   1      34.620  34.252  29.708  1.00  0.00     0.060 A 
BRANCH  98  99
ATOM     99  S   UNL A   1      33.237  35.154  28.977  1.00  0.00     0.124 S 
ATOM    100  O   UNL A   1      32.419  35.437  30.151  1.00  0.00    -0.237 OA
ATOM    101  O   UNL A   1      33.906  36.300  28.372  1.00  0.00    -0.237 OA
ATOM    102  O   UNL A   1      32.672  34.196  28.031  1.00  0.00    -0.744 OA
ENDBRANCH  98  99
ENDBRANCH  66  91
BRANCH  78 103
ATOM    103  C   UNL A   1      39.662  33.624  37.233  1.00  0.00     0.058 A 
ATOM    104  C   UNL A   1      38.816  33.206  38.272  1.00  0.00     0.135 A 
ATOM    105  C   UNL A   1      40.268  34.885  37.346  1.00  0.00     0.135 A 
ATOM    106  F   UNL A   1      38.205  32.013  38.207  1.00  0.00    -0.206 F 
ATOM    107  C   UNL A   1      38.567  34.015  39.375  1.00  0.00     0.059 A 
ATOM    108  C   UNL A   1      40.055  35.700  38.453  1.00  0.00     0.059 A 
ATOM    109  F   UNL A   1      41.094  35.328  36.384  1.00  0.00    -0.206 F 
ATOM    110  C   UNL A   1      39.197  35.259  39.459  1.00  0.00     0.060 A 
BRANCH 110 111
ATOM    111  S   UNL A   1      38.896  36.280  40.917  1.00  0.00     0.124 S 
ATOM    112  O   UNL A   1      37.718  35.636  41.489  1.00  0.00    -0.237 OA
ATOM    113  O   UNL A   1      40.135  36.117  41.671  1.00  0.00    -0.237 OA
ATOM    114  O   UNL A   1      38.677  37.612  40.362  1.00  0.00    -0.744 OA
ENDBRANCH 110 111
ENDBRANCH  78 103
ENDBRANCH  52  53
ENDBRANCH  44  47
ENDBRANCH  42  43
ENDBRANCH  41  42
ENDBRANCH  40  41
ENDBRANCH   1  40
TORSDOF 22
ENDMDL
MODEL 2
REMARK VINA RESULT:     -13.0      0.398      7.642
REMARK SMILES COc1cc(C)cc2c1[C@@H](C)[C@@H](CC(=O)N[C@@H](Cc1c[nH]c3ccccc13)C(=O)NCCCCCCNC(=O)c1ccc(-c3c4nc(c(-c5c(F)cc(S(=O)(=O)[O-])cc5F)c5ccc([nH]5)c(-c5c(F)cc(S(=O)(=O)[O-])cc5F)c5nc(c(-c6c(F)cc(S(=O)(=O)[O-])cc6F)c6ccc3[nH]6)C=C5)C=C4)cc1)C(=O)O2
REMARK SMILES IDX 33 1 32 2 31 3 30 4 28 5 29 6 17 8 16 9 14 10 15 11 13 13
REMARK SMILES IDX 12 14 3 15 4 16 9 17 5 18 8 19 10 20 6 21 7 22 108 23 11 24
REMARK SMILES IDX 106 25 107 26 2 27 1 28 18 29 19 30 20 31 27 32 21 33 22 34
REMARK SMILES IDX 26 35 23 37 25 38 24 39 34 40 35 41 36 42 37 43 38 44 39 46
REMARK SMILES IDX 40 47 41 48 105 49 42 50 104 51 43 52 44 53 45 54 98 55
REMARK SMILES IDX 46 56 103 57 97 58 99 59 47 60 102 61 96 62 95 63 48 65
REMARK SMILES IDX 82 66 61 67 81 68 62 69 65 70 80 71 100 72 63 73 64 74 79 76
REMARK SMILES IDX 101 77 66 78 49 79 50 80 59 81 51 82 52 83 58 84 60 85 53 86
REMARK SMILES IDX 54 87 55 88 56 89 57 90 83 91 84 92 93 93 85 94 86 95 92 96
REMARK SMILES IDX 94 97 87 98 88 99 89 100 90 101 91 102 67 103 68 104 77 105
REMARK SMILES IDX 69 106 70 107 76 108 78 109 71 110 72 111 73 112 74 113
REMARK SMILES IDX 75 114
REMARK H PARENT 30 7 16 12 21 36 37 45 99 64 65 75
REMARK Flexibility Score: inf
ROOT
ATOM      1  C   UNL A   1      39.526  21.570  26.407  1.00  0.00     0.002 C 
ENDROOT
BRANCH   1   2
ATOM      2  C   UNL A   1      38.477  22.021  25.385  1.00  0.00     0.021 C 
BRANCH   2   3
ATOM      3  C   UNL A   1      37.183  21.225  25.496  1.00  0.00     0.116 C 
BRANCH   3   4
ATOM      4  N   UNL A   1      36.286  21.879  26.411  1.00  0.00    -0.354 N 
ATOM      5  C   UNL A   1      35.174  22.596  26.131  1.00  0.00     0.242 C 
ATOM      6  O   UNL A   1      34.781  23.365  27.019  1.00  0.00    -0.273 OA
ATOM      7  H   UNL A   1      36.511  21.793  27.365  1.00  0.00     0.163 HD
BRANCH   5   8
ATOM      8  C   UNL A   1      34.380  22.481  24.808  1.00  0.00     0.175 C 
BRANCH   8   9
ATOM      9  N   UNL A   1      34.708  23.455  23.782  1.00  0.00    -0.344 N 
ATOM     10  C   UNL A   1      33.984  24.567  23.457  1.00  0.00     0.221 C 
ATOM     11  O   UNL A   1      34.040  25.011  22.312  1.00  0.00    -0.275 OA
ATOM     12  H   UNL A   1      35.535  23.298  23.270  1.00  0.00     0.164 HD
BRANCH  10  13
ATOM     13  C   UNL A   1      33.258  25.319  24.563  1.00  0.00     0.116 C 
BRANCH  13  14
ATOM     14  C   UNL A   1      31.822  24.880  24.943  1.00  0.00     0.116 C 
ATOM     15  C   UNL A   1      30.576  28.369  24.169  1.00  0.00     0.126 A 
ATOM     16  C   UNL A   1      30.945  29.622  24.688  1.00  0.00     0.050 A 
ATOM     17  C   UNL A   1      30.917  27.195  24.844  1.00  0.00     0.041 A 
ATOM     18  C   UNL A   1      31.666  29.730  25.888  1.00  0.00    -0.044 A 
ATOM     19  C   UNL A   1      31.514  27.344  26.108  1.00  0.00     0.138 A 
ATOM     20  C   UNL A   1      30.718  25.776  24.317  1.00  0.00     0.038 C 
ATOM     21  C   UNL A   1      32.094  31.069  26.408  1.00  0.00     0.044 C 
ATOM     22  C   UNL A   1      31.915  28.576  26.621  1.00  0.00     0.051 A 
ATOM     23  O   UNL A   1      31.717  26.244  26.957  1.00  0.00    -0.426 OA
ATOM     24  C   UNL A   1      30.692  25.582  22.796  1.00  0.00     0.014 C 
ATOM     25  C   UNL A   1      31.489  24.997  26.413  1.00  0.00     0.315 C 
ATOM     26  O   UNL A   1      31.038  24.078  27.086  1.00  0.00    -0.251 OA
BRANCH  15  27
ATOM     27  O   UNL A   1      29.774  28.265  23.066  1.00  0.00    -0.496 OA
ATOM     28  C   UNL A   1      29.575  29.495  22.380  1.00  0.00     0.278 C 
ENDBRANCH  15  27
ENDBRANCH  13  14
ENDBRANCH  10  13
ENDBRANCH   8   9
BRANCH   8  29
ATOM     29  C   UNL A   1      33.814  21.180  24.250  1.00  0.00     0.072 C 
BRANCH  29  30
ATOM     30  C   UNL A   1      33.604  19.862  24.951  1.00  0.00    -0.020 A 
ATOM     31  C   UNL A   1      33.047  19.886  26.225  1.00  0.00     0.087 A 
ATOM     32  C   UNL A   1      33.695  18.467  24.588  1.00  0.00     0.003 A 
ATOM     33  N   UNL A   1      32.719  18.622  26.600  1.00  0.00    -0.361 N 
ATOM     34  C   UNL A   1      33.126  17.735  25.641  1.00  0.00     0.046 A 
ATOM     35  C   UNL A   1      34.151  17.713  23.484  1.00  0.00     0.010 A 
ATOM     36  H   UNL A   1      32.258  18.382  27.435  1.00  0.00     0.166 HD
ATOM     37  C   UNL A   1      32.992  16.340  25.641  1.00  0.00     0.026 A 
ATOM     38  C   UNL A   1      34.047  16.312  23.477  1.00  0.00     0.001 A 
ATOM     39  C   UNL A   1      33.474  15.635  24.544  1.00  0.00     0.002 A 
ENDBRANCH  29  30
ENDBRANCH   8  29
ENDBRANCH   5   8
ENDBRANCH   3   4
ENDBRANCH   2   3
ENDBRANCH   1   2
BRANCH   1  40
ATOM     40  C   UNL A   1      40.053  22.698  27.306  1.00  0.00     0.002 C 
BRANCH  40  41
ATOM     41  C   UNL A   1      41.450  22.449  27.877  1.00  0.00     0.021 C 
BRANCH  41  42
ATOM     42  C   UNL A   1      42.345  23.681  27.860  1.00  0.00     0.116 C 
BRANCH  42  43
ATOM     43  N   UNL A   1      42.356  24.314  26.549  1.00  0.00    -0.352 N 
ATOM     44  C   UNL A   1      41.895  25.558  26.195  1.00  0.00     0.251 C 
ATOM     45  H   UNL A   1      42.745  23.780  25.820  1.00  0.00     0.163 HD
ATOM     46  O   UNL A   1      41.757  25.858  25.014  1.00  0.00    -0.269 OA
BRANCH  44  47
ATOM     47  C   UNL A   1      41.553  26.516  27.263  1.00  0.00     0.039 A 
ATOM     48  C   UNL A   1      42.317  27.675  27.422  1.00  0.00     0.014 A 
ATOM     49  C   UNL A   1      40.503  26.229  28.135  1.00  0.00     0.014 A 
ATOM     50  C   UNL A   1      42.134  28.463  28.549  1.00  0.00     0.010 A 
ATOM     51  C   UNL A   1      40.262  27.076  29.219  1.00  0.00     0.010 A 
ATOM     52  C   UNL A   1      41.104  28.174  29.458  1.00  0.00    -0.014 A 
BRANCH  52  53
ATOM     53  C   UNL A   1      40.930  29.036  30.655  1.00  0.00     0.031 A 
ATOM     54  C   UNL A   1      39.841  30.072  30.704  1.00  0.00     0.074 A 
ATOM     55  C   UNL A   1      41.729  28.836  31.722  1.00  0.00     0.049 A 
ATOM     56  N   UNL A   1      39.547  30.911  31.665  1.00  0.00    -0.248 NA
ATOM     57  C   UNL A   1      38.971  30.188  29.523  1.00  0.00     0.031 C 
ATOM     58  C   UNL A   1      42.806  27.845  31.793  1.00  0.00     0.029 A 
ATOM     59  N   UNL A   1      41.747  29.433  32.955  1.00  0.00    -0.354 N 
ATOM     60  C   UNL A   1      38.475  31.663  31.200  1.00  0.00     0.074 A 
ATOM     61  C   UNL A   1      38.187  31.204  29.859  1.00  0.00     0.031 C 
ATOM     62  C   UNL A   1      43.341  27.864  33.021  1.00  0.00     0.029 A 
ATOM     63  C   UNL A   1      42.698  28.915  33.802  1.00  0.00     0.049 A 
ATOM     64  H   UNL A   1      41.138  30.163  33.211  1.00  0.00     0.167 HD
ATOM     65  C   UNL A   1      37.786  32.637  31.841  1.00  0.00     0.037 A 
ATOM     66  C   UNL A   1      43.030  29.257  35.061  1.00  0.00     0.037 A 
ATOM     67  C   UNL A   1      38.068  33.073  33.185  1.00  0.00     0.049 A 
ATOM     68  C   UNL A   1      42.285  30.375  35.729  1.00  0.00     0.074 A 
ATOM     69  C   UNL A   1      37.419  34.043  33.929  1.00  0.00     0.029 A 
ATOM     70  N   UNL A   1      39.081  32.567  33.988  1.00  0.00    -0.354 N 
ATOM     71  N   UNL A   1      41.277  31.081  35.272  1.00  0.00    -0.248 NA
ATOM     72  C   UNL A   1      42.727  30.755  37.077  1.00  0.00     0.031 C 
ATOM     73  C   UNL A   1      38.067  34.153  35.165  1.00  0.00     0.029 A 
ATOM     74  C   UNL A   1      39.088  33.217  35.210  1.00  0.00     0.049 A 
ATOM     75  H   UNL A   1      39.702  31.849  33.727  1.00  0.00     0.167 HD
ATOM     76  C   UNL A   1      40.960  31.983  36.279  1.00  0.00     0.074 A 
ATOM     77  C   UNL A   1      41.868  31.719  37.378  1.00  0.00     0.031 C 
ATOM     78  C   UNL A   1      40.005  32.946  36.290  1.00  0.00     0.037 A 
BRANCH  65  79
ATOM     79  C   UNL A   1      36.664  33.311  31.096  1.00  0.00     0.058 A 
ATOM     80  C   UNL A   1      36.910  34.175  30.017  1.00  0.00     0.135 A 
ATOM     81  C   UNL A   1      35.326  33.054  31.436  1.00  0.00     0.135 A 
ATOM     82  F   UNL A   1      38.170  34.470  29.659  1.00  0.00    -0.206 F 
ATOM     83  C   UNL A   1      35.869  34.775  29.314  1.00  0.00     0.059 A 
ATOM     84  C   UNL A   1      34.269  33.623  30.732  1.00  0.00     0.059 A 
ATOM     85  F   UNL A   1      35.034  32.237  32.461  1.00  0.00    -0.206 F 
ATOM     86  C   UNL A   1      34.551  34.492  29.678  1.00  0.00     0.060 A 
BRANCH  86  87
ATOM     87  S   UNL A   1      33.215  35.277  28.752  1.00  0.00     0.124 S 
ATOM     88  O   UNL A   1      33.955  36.224  27.923  1.00  0.00    -0.237 OA
ATOM     89  O   UNL A   1      32.622  34.146  28.045  1.00  0.00    -0.237 OA
ATOM     90  O   UNL A   1      32.381  35.872  29.791  1.00  0.00    -0.744 OA
ENDBRANCH  86  87
ENDBRANCH  65  79
BRANCH  66  91
ATOM     91  C   UNL A   1      44.122  28.527  35.755  1.00  0.00     0.058 A 
ATOM     92  C   UNL A   1      43.872  27.320  36.421  1.00  0.00     0.135 A 
ATOM     93  C   UNL A   1      45.446  28.994  35.720  1.00  0.00     0.135 A 
ATOM     94  F   UNL A   1      42.622  26.837  36.488  1.00  0.00    -0.206 F 
ATOM     95  C   UNL A   1      44.895  26.598  37.027  1.00  0.00     0.059 A 
ATOM     96  C   UNL A   1      46.490  28.278  36.294  1.00  0.00     0.059 A 
ATOM     97  F   UNL A   1      45.740  30.138  35.081  1.00  0.00    -0.206 F 
ATOM     98  C   UNL A   1      46.203  27.081  36.949  1.00  0.00     0.060 A 
BRANCH  98  99
ATOM     99  S   UNL A   1      47.531  26.097  37.674  1.00  0.00     0.124 S 
ATOM    100  O   UNL A   1      47.249  26.228  39.099  1.00  0.00    -0.237 OA
ATOM    101  O   UNL A   1      47.288  24.781  37.092  1.00  0.00    -0.237 OA
ATOM    102  O   UNL A   1      48.741  26.767  37.207  1.00  0.00    -0.744 OA
ENDBRANCH  98  99
ENDBRANCH  66  91
BRANCH  78 103
ATOM    103  C   UNL A   1      39.887  33.784  37.532  1.00  0.00     0.058 A 
ATOM    104  C   UNL A   1      40.603  34.982  37.678  1.00  0.00     0.135 A 
ATOM    105  C   UNL A   1      39.003  33.417  38.559  1.00  0.00     0.135 A 
ATOM    106  F   UNL A   1      41.467  35.372  36.729  1.00  0.00    -0.206 F 
ATOM    107  C   UNL A   1      40.459  35.780  38.808  1.00  0.00     0.059 A 
ATOM    108  C   UNL A   1      38.822  34.212  39.685  1.00  0.00     0.059 A 
ATOM    109  F   UNL A   1      38.287  32.284  38.463  1.00  0.00    -0.206 F 
ATOM    110  C   UNL A   1      39.561  35.389  39.804  1.00  0.00     0.060 A 
BRANCH 110 111
ATOM    111  S   UNL A   1      39.355  36.457  41.244  1.00  0.00     0.124 S 
ATOM    112  O   UNL A   1      40.710  36.487  41.785  1.00  0.00    -0.237 OA
ATOM    113  O   UNL A   1      38.884  37.701  40.644  1.00  0.00    -0.237 OA
ATOM    114  O   UNL A   1      38.371  35.748  42.057  1.00  0.00    -0.744 OA
ENDBRANCH 110 111
ENDBRANCH  78 103
ENDBRANCH  52  53
ENDBRANCH  44  47
ENDBRANCH  42  43
ENDBRANCH  41  42
ENDBRANCH  40  41
ENDBRANCH   1  40
TORSDOF 22
ENDMDL
MODEL 3
REMARK VINA RESULT:     -12.7      2.524      9.461
REMARK SMILES COc1cc(C)cc2c1[C@@H](C)[C@@H](CC(=O)N[C@@H](Cc1c[nH]c3ccccc13)C(=O)NCCCCCCNC(=O)c1ccc(-c3c4nc(c(-c5c(F)cc(S(=O)(=O)[O-])cc5F)c5ccc([nH]5)c(-c5c(F)cc(S(=O)(=O)[O-])cc5F)c5nc(c(-c6c(F)cc(S(=O)(=O)[O-])cc6F)c6ccc3[nH]6)C=C5)C=C4)cc1)C(=O)O2
REMARK SMILES IDX 33 1 32 2 31 3 30 4 28 5 29 6 17 8 16 9 14 10 15 11 13 13
REMARK SMILES IDX 12 14 3 15 4 16 9 17 5 18 8 19 10 20 6 21 7 22 108 23 11 24
REMARK SMILES IDX 106 25 107 26 2 27 1 28 18 29 19 30 20 31 27 32 21 33 22 34
REMARK SMILES IDX 26 35 23 37 25 38 24 39 34 40 35 41 36 42 37 43 38 44 39 46
REMARK SMILES IDX 40 47 41 48 105 49 42 50 104 51 43 52 44 53 45 54 98 55
REMARK SMILES IDX 46 56 103 57 97 58 99 59 47 60 102 61 96 62 95 63 48 65
REMARK SMILES IDX 82 66 61 67 81 68 62 69 65 70 80 71 100 72 63 73 64 74 79 76
REMARK SMILES IDX 101 77 66 78 49 79 50 80 59 81 51 82 52 83 58 84 60 85 53 86
REMARK SMILES IDX 54 87 55 88 56 89 57 90 83 91 84 92 93 93 85 94 86 95 92 96
REMARK SMILES IDX 94 97 87 98 88 99 89 100 90 101 91 102 67 103 68 104 77 105
REMARK SMILES IDX 69 106 70 107 76 108 78 109 71 110 72 111 73 112 74 113
REMARK SMILES IDX 75 114
REMARK H PARENT 30 7 16 12 21 36 37 45 99 64 65 75
REMARK Flexibility Score: inf
ROOT
ATOM      1  C   UNL A   1      35.059  30.440  28.365  1.00  0.00     0.002 C 
ENDROOT
BRANCH   1   2
ATOM      2  C   UNL A   1      35.275  29.344  27.316  1.00  0.00     0.021 C 
BRANCH   2   3
ATOM      3  C   UNL A   1      33.961  28.816  26.754  1.00  0.00     0.116 C 
BRANCH   3   4
ATOM      4  N   UNL A   1      33.765  29.320  25.420  1.00  0.00    -0.354 N 
ATOM      5  C   UNL A   1      33.351  28.651  24.321  1.00  0.00     0.242 C 
ATOM      6  O   UNL A   1      33.612  29.177  23.229  1.00  0.00    -0.273 OA
ATOM      7  H   UNL A   1      33.957  30.277  25.292  1.00  0.00     0.163 HD
BRANCH   5   8
ATOM      8  C   UNL A   1      32.566  27.318  24.362  1.00  0.00     0.175 C 
BRANCH   8   9
ATOM      9  N   UNL A   1      32.345  26.750  25.680  1.00  0.00    -0.344 N 
ATOM     10  C   UNL A   1      32.364  25.424  26.005  1.00  0.00     0.221 C 
ATOM     11  O   UNL A   1      31.690  25.025  26.954  1.00  0.00    -0.275 OA
ATOM     12  H   UNL A   1      32.163  27.384  26.411  1.00  0.00     0.164 HD
BRANCH  10  13
ATOM     13  C   UNL A   1      33.342  24.506  25.288  1.00  0.00     0.116 C 
BRANCH  13  14
ATOM     14  C   UNL A   1      32.892  23.815  23.977  1.00  0.00     0.116 C 
ATOM     15  C   UNL A   1      34.803  20.708  24.983  1.00  0.00     0.126 A 
ATOM     16  C   UNL A   1      36.160  20.513  25.292  1.00  0.00     0.050 A 
ATOM     17  C   UNL A   1      34.390  21.857  24.306  1.00  0.00     0.041 A 
ATOM     18  C   UNL A   1      37.131  21.462  24.937  1.00  0.00    -0.044 A 
ATOM     19  C   UNL A   1      35.401  22.716  23.843  1.00  0.00     0.138 A 
ATOM     20  C   UNL A   1      32.941  22.264  24.049  1.00  0.00     0.038 C 
ATOM     21  C   UNL A   1      38.569  21.265  25.313  1.00  0.00     0.044 C 
ATOM     22  C   UNL A   1      36.746  22.554  24.169  1.00  0.00     0.051 A 
ATOM     23  O   UNL A   1      35.115  23.790  22.984  1.00  0.00    -0.426 OA
ATOM     24  C   UNL A   1      31.876  21.757  25.029  1.00  0.00     0.014 C 
ATOM     25  C   UNL A   1      33.782  24.077  22.782  1.00  0.00     0.315 C 
ATOM     26  O   UNL A   1      33.374  24.496  21.706  1.00  0.00    -0.251 OA
BRANCH  15  27
ATOM     27  O   UNL A   1      33.872  19.734  25.221  1.00  0.00    -0.496 OA
ATOM     28  C   UNL A   1      34.030  18.575  24.411  1.00  0.00     0.278 C 
ENDBRANCH  15  27
ENDBRANCH  13  14
ENDBRANCH  10  13
ENDBRANCH   8   9
BRANCH   8  29
ATOM     29  C   UNL A   1      31.514  26.903  23.338  1.00  0.00     0.072 C 
BRANCH  29  30
ATOM     30  C   UNL A   1      30.114  27.428  23.153  1.00  0.00    -0.020 A 
ATOM     31  C   UNL A   1      29.062  26.652  23.628  1.00  0.00     0.087 A 
ATOM     32  C   UNL A   1      29.520  28.669  22.713  1.00  0.00     0.003 A 
ATOM     33  N   UNL A   1      27.912  27.374  23.588  1.00  0.00    -0.361 N 
ATOM     34  C   UNL A   1      28.151  28.592  23.011  1.00  0.00     0.046 A 
ATOM     35  C   UNL A   1      29.961  29.878  22.132  1.00  0.00     0.010 A 
ATOM     36  H   UNL A   1      27.040  27.067  23.924  1.00  0.00     0.166 HD
ATOM     37  C   UNL A   1      27.238  29.628  22.769  1.00  0.00     0.026 A 
ATOM     38  C   UNL A   1      29.057  30.919  21.860  1.00  0.00     0.001 A 
ATOM     39  C   UNL A   1      27.712  30.792  22.176  1.00  0.00     0.002 A 
ENDBRANCH  29  30
ENDBRANCH   8  29
ENDBRANCH   5   8
ENDBRANCH   3   4
ENDBRANCH   2   3
ENDBRANCH   1   2
BRANCH   1  40
ATOM     40  C   UNL A   1      35.253  31.867  27.833  1.00  0.00     0.002 C 
BRANCH  40  41
ATOM     41  C   UNL A   1      34.003  32.746  27.913  1.00  0.00     0.021 C 
BRANCH  41  42
ATOM     42  C   UNL A   1      34.308  34.237  27.968  1.00  0.00     0.116 C 
BRANCH  42  43
ATOM     43  N   UNL A   1      33.353  34.946  28.807  1.00  0.00    -0.352 N 
ATOM     44  C   UNL A   1      33.239  34.932  30.175  1.00  0.00     0.251 C 
ATOM     45  H   UNL A   1      32.702  35.511  28.331  1.00  0.00     0.163 HD
ATOM     46  O   UNL A   1      32.241  35.391  30.722  1.00  0.00    -0.269 OA
BRANCH  44  47
ATOM     47  C   UNL A   1      34.330  34.338  30.970  1.00  0.00     0.039 A 
ATOM     48  C   UNL A   1      35.543  35.018  31.096  1.00  0.00     0.014 A 
ATOM     49  C   UNL A   1      34.156  33.079  31.545  1.00  0.00     0.014 A 
ATOM     50  C   UNL A   1      36.635  34.370  31.657  1.00  0.00     0.010 A 
ATOM     51  C   UNL A   1      35.232  32.466  32.190  1.00  0.00     0.010 A 
ATOM     52  C   UNL A   1      36.491  33.089  32.212  1.00  0.00    -0.014 A 
BRANCH  52  53
ATOM     53  C   UNL A   1      37.675  32.420  32.807  1.00  0.00     0.031 A 
ATOM     54  C   UNL A   1      38.404  31.339  32.057  1.00  0.00     0.074 A 
ATOM     55  C   UNL A   1      38.122  32.836  34.008  1.00  0.00     0.049 A 
ATOM     56  N   UNL A   1      39.452  30.647  32.425  1.00  0.00    -0.248 NA
ATOM     57  C   UNL A   1      37.890  30.982  30.725  1.00  0.00     0.031 C 
ATOM     58  C   UNL A   1      37.505  33.891  34.816  1.00  0.00     0.029 A 
ATOM     59  N   UNL A   1      39.208  32.446  34.747  1.00  0.00    -0.354 N 
ATOM     60  C   UNL A   1      39.713  29.765  31.383  1.00  0.00     0.074 A 
ATOM     61  C   UNL A   1      38.694  29.986  30.379  1.00  0.00     0.031 C 
ATOM     62  C   UNL A   1      38.251  34.102  35.910  1.00  0.00     0.029 A 
ATOM     63  C   UNL A   1      39.357  33.150  35.918  1.00  0.00     0.049 A 
ATOM     64  H   UNL A   1      39.823  31.730  34.467  1.00  0.00     0.167 HD
ATOM     65  C   UNL A   1      40.718  28.864  31.270  1.00  0.00     0.037 A 
ATOM     66  C   UNL A   1      40.270  33.035  36.901  1.00  0.00     0.037 A 
ATOM     67  C   UNL A   1      41.739  28.666  32.267  1.00  0.00     0.049 A 
ATOM     68  C   UNL A   1      41.344  31.993  36.774  1.00  0.00     0.074 A 
ATOM     69  C   UNL A   1      42.809  27.789  32.241  1.00  0.00     0.029 A 
ATOM     70  N   UNL A   1      41.819  29.357  33.469  1.00  0.00    -0.354 N 
ATOM     71  N   UNL A   1      41.571  31.162  35.784  1.00  0.00    -0.248 NA
ATOM     72  C   UNL A   1      42.276  31.861  37.900  1.00  0.00     0.031 C 
ATOM     73  C   UNL A   1      43.510  27.918  33.445  1.00  0.00     0.029 A 
ATOM     74  C   UNL A   1      42.907  28.911  34.201  1.00  0.00     0.049 A 
ATOM     75  H   UNL A   1      41.195  30.061  33.758  1.00  0.00     0.167 HD
ATOM     76  C   UNL A   1      42.677  30.413  36.165  1.00  0.00     0.074 A 
ATOM     77  C   UNL A   1      43.087  30.905  37.465  1.00  0.00     0.031 C 
ATOM     78  C   UNL A   1      43.295  29.407  35.498  1.00  0.00     0.037 A 
BRANCH  65  79
ATOM     79  C   UNL A   1      40.761  28.012  30.030  1.00  0.00     0.058 A 
ATOM     80  C   UNL A   1      41.755  28.181  29.052  1.00  0.00     0.135 A 
ATOM     81  C   UNL A   1      39.826  26.981  29.839  1.00  0.00     0.135 A 
ATOM     82  F   UNL A   1      42.665  29.162  29.175  1.00  0.00    -0.206 F 
ATOM     83  C   UNL A   1      41.808  27.373  27.920  1.00  0.00     0.059 A 
ATOM     84  C   UNL A   1      39.875  26.145  28.727  1.00  0.00     0.059 A 
ATOM     85  F   UNL A   1      38.854  26.775  30.741  1.00  0.00    -0.206 F 
ATOM     86  C   UNL A   1      40.863  26.356  27.767  1.00  0.00     0.060 A 
BRANCH  86  87
ATOM     87  S   UNL A   1      40.951  25.317  26.293  1.00  0.00     0.124 S 
ATOM     88  O   UNL A   1      42.030  24.400  26.649  1.00  0.00    -0.237 OA
ATOM     89  O   UNL A   1      39.615  24.734  26.246  1.00  0.00    -0.237 OA
ATOM     90  O   UNL A   1      41.259  26.263  25.225  1.00  0.00    -0.744 OA
ENDBRANCH  86  87
ENDBRANCH  65  79
BRANCH  66  91
ATOM     91  C   UNL A   1      40.195  33.932  38.082  1.00  0.00     0.058 A 
ATOM     92  C   UNL A   1      40.894  35.146  38.110  1.00  0.00     0.135 A 
ATOM     93  C   UNL A   1      39.379  33.620  39.181  1.00  0.00     0.135 A 
ATOM     94  F   UNL A   1      41.692  35.485  37.086  1.00  0.00    -0.206 F 
ATOM     95  C   UNL A   1      40.788  36.022  39.186  1.00  0.00     0.059 A 
ATOM     96  C   UNL A   1      39.234  34.491  40.255  1.00  0.00     0.059 A 
ATOM     97  F   UNL A   1      38.676  32.476  39.195  1.00  0.00    -0.206 F 
ATOM     98  C   UNL A   1      39.947  35.689  40.250  1.00  0.00     0.060 A 
BRANCH  98  99
ATOM     99  S   UNL A   1      39.760  36.868  41.604  1.00  0.00     0.124 S 
ATOM    100  O   UNL A   1      41.146  37.070  42.011  1.00  0.00    -0.237 OA
ATOM    101  O   UNL A   1      39.118  37.997  40.938  1.00  0.00    -0.237 OA
ATOM    102  O   UNL A   1      38.919  36.153  42.559  1.00  0.00    -0.744 OA
ENDBRANCH  98  99
ENDBRANCH  66  91
BRANCH  78 103
ATOM    103  C   UNL A   1      44.485  28.772  36.160  1.00  0.00     0.058 A 
ATOM    104  C   UNL A   1      45.778  29.293  35.997  1.00  0.00     0.135 A 
ATOM    105  C   UNL A   1      44.324  27.669  37.014  1.00  0.00     0.135 A 
ATOM    106  F   UNL A   1      45.986  30.341  35.185  1.00  0.00    -0.206 F 
ATOM    107  C   UNL A   1      46.873  28.733  36.645  1.00  0.00     0.059 A 
ATOM    108  C   UNL A   1      45.400  27.109  37.693  1.00  0.00     0.059 A 
ATOM    109  F   UNL A   1      43.106  27.138  37.211  1.00  0.00    -0.206 F 
ATOM    110  C   UNL A   1      46.673  27.644  37.497  1.00  0.00     0.060 A 
BRANCH 110 111
ATOM    111  S   UNL A   1      48.098  26.955  38.363  1.00  0.00     0.124 S 
ATOM    112  O   UNL A   1      49.188  27.764  37.827  1.00  0.00    -0.237 OA
ATOM    113  O   UNL A   1      47.758  27.196  39.762  1.00  0.00    -0.237 OA
ATOM    114  O   UNL A   1      48.099  25.552  37.957  1.00  0.00    -0.744 OA
ENDBRANCH 110 111
ENDBRANCH  78 103
ENDBRANCH  52  53
ENDBRANCH  44  47
ENDBRANCH  42  43
ENDBRANCH  41  42
ENDBRANCH  40  41
ENDBRANCH   1  40
TORSDOF 22
ENDMDL
