MODEL 1
REMARK VINA RESULT:     -12.9      0.000      0.000
REMARK SMILES O=C1[NH+]=C(Nc2ccc(C(=O)NCCCCCCNC(=O)c3ccc(-c4c5nc(c(-c6c(F)cc(S(=O)(=O)[O-])cc6F)c6ccc([nH]6)c(-c6c(F)cc(S(=O)(=O)[O-])cc6F)c6nc(c(-c7c(F)cc(S(=O)(=O)[O-])cc7F)c7ccc4[nH]7)C=C6)C=C5)cc3)c(O)c2)S/C1=C\c1ccc[nH]1
REMARK SMILES IDX 16 1 15 2 14 3 13 4 12 5 10 6 11 7 9 9 6 10 7 11 90 12 8 13
REMARK SMILES IDX 88 14 5 15 1 16 2 17 3 18 92 19 4 20 91 22 93 23 94 25 95 26
REMARK SMILES IDX 98 27 96 28 97 29 89 31 17 33 18 34 19 35 20 36 21 38 22 39
REMARK SMILES IDX 23 40 87 41 24 42 86 43 25 44 26 45 27 46 80 47 28 48 85 49
REMARK SMILES IDX 79 50 81 51 29 52 84 53 78 54 77 55 30 57 64 58 43 59 63 60
REMARK SMILES IDX 44 61 47 62 62 63 82 64 45 65 46 66 61 68 83 69 48 70 31 71
REMARK SMILES IDX 32 72 41 73 33 74 34 75 40 76 42 77 35 78 36 79 37 80 38 81
REMARK SMILES IDX 39 82 65 83 66 84 75 85 67 86 68 87 74 88 76 89 69 90 70 91
REMARK SMILES IDX 71 92 72 93 73 94 49 95 50 96 59 97 51 98 52 99 58 100
REMARK SMILES IDX 60 101 53 102 54 103 55 104 56 105 57 106
REMARK H PARENT 12 8 3 21 5 24 98 30 89 32 19 37 81 56 47 67
REMARK Flexibility Score: inf
ROOT
ATOM      1  C   UNL A   1      39.255  22.122  26.204  1.00  0.00     0.002 C 
ENDROOT
BRANCH   1   2
ATOM      2  C   UNL A   1      38.679  20.917  25.457  1.00  0.00     0.002 C 
BRANCH   2   3
ATOM      3  C   UNL A   1      37.362  21.132  24.704  1.00  0.00     0.021 C 
BRANCH   3   4
ATOM      4  C   UNL A   1      36.089  21.115  25.545  1.00  0.00     0.116 C 
BRANCH   4   5
ATOM      5  N   UNL A   1      35.156  20.057  25.196  1.00  0.00    -0.352 N 
ATOM      6  C   UNL A   1      33.885  20.129  24.677  1.00  0.00     0.255 C 
ATOM      7  O   UNL A   1      33.264  19.085  24.486  1.00  0.00    -0.269 OA
ATOM      8  H   UNL A   1      35.486  19.144  25.360  1.00  0.00     0.163 HD
BRANCH   6   9
ATOM      9  C   UNL A   1      33.219  21.426  24.395  1.00  0.00     0.081 A 
ATOM     10  C   UNL A   1      32.040  23.863  23.571  1.00  0.00     0.129 A 
ATOM     11  C   UNL A   1      33.304  23.488  23.108  1.00  0.00     0.053 A 
ATOM     12  C   UNL A   1      31.402  23.032  24.498  1.00  0.00     0.098 A 
ATOM     13  C   UNL A   1      33.892  22.287  23.517  1.00  0.00     0.022 A 
ATOM     14  C   UNL A   1      32.004  21.849  24.936  1.00  0.00     0.132 A 
BRANCH  10  15
ATOM     15  N   UNL A   1      31.364  24.986  23.080  1.00  0.00    -0.234 N 
ATOM     16  O   UNL A   1      32.236  28.643  25.842  1.00  0.00    -0.240 OA
ATOM     17  C   UNL A   1      31.721  27.996  24.938  1.00  0.00     0.346 C 
ATOM     18  N   UNL A   1      31.956  26.666  24.687  1.00  0.00    -0.199 N 
ATOM     19  C   UNL A   1      30.745  28.578  23.973  1.00  0.00     0.111 C 
ATOM     20  C   UNL A   1      31.322  26.220  23.654  1.00  0.00     0.322 C 
ATOM     21  H   UNL A   1      32.549  26.108  25.240  1.00  0.00     0.316 HD
ATOM     22  S   UNL A   1      30.288  27.371  22.838  1.00  0.00     0.006 SA
ATOM     23  C   UNL A   1      30.352  29.856  24.039  1.00  0.00     0.050 C 
ATOM     24  H   UNL A   1      30.871  24.872  22.235  1.00  0.00     0.313 HD
BRANCH  23  25
ATOM     25  C   UNL A   1      29.367  30.396  23.179  1.00  0.00     0.039 A 
ATOM     26  C   UNL A   1      28.001  30.568  23.286  1.00  0.00     0.027 A 
ATOM     27  N   UNL A   1      29.749  30.875  21.949  1.00  0.00    -0.362 N 
ATOM     28  C   UNL A   1      27.543  31.136  22.076  1.00  0.00     0.020 A 
ATOM     29  C   UNL A   1      28.641  31.308  21.265  1.00  0.00     0.083 A 
ATOM     30  H   UNL A   1      30.673  30.902  21.612  1.00  0.00     0.166 HD
ENDBRANCH  23  25
ENDBRANCH  10  15
BRANCH  14  31
ATOM     31  O   UNL A   1      31.335  21.190  25.929  1.00  0.00    -0.507 OA
ATOM     32  H   UNL A   1      31.722  20.439  26.336  1.00  0.00     0.293 HD
ENDBRANCH  14  31
ENDBRANCH   6   9
ENDBRANCH   4   5
ENDBRANCH   3   4
ENDBRANCH   2   3
ENDBRANCH   1   2
BRANCH   1  33
ATOM     33  C   UNL A   1      40.455  21.854  27.115  1.00  0.00     0.021 C 
BRANCH  33  34
ATOM     34  C   UNL A   1      41.373  23.043  27.377  1.00  0.00     0.116 C 
BRANCH  34  35
ATOM     35  N   UNL A   1      41.503  23.922  26.226  1.00  0.00    -0.352 N 
ATOM     36  C   UNL A   1      41.442  25.293  26.162  1.00  0.00     0.251 C 
ATOM     37  H   UNL A   1      41.658  23.468  25.367  1.00  0.00     0.163 HD
ATOM     38  O   UNL A   1      41.433  25.853  25.069  1.00  0.00    -0.269 OA
BRANCH  36  39
ATOM     39  C   UNL A   1      41.353  26.091  27.405  1.00  0.00     0.039 A 
ATOM     40  C   UNL A   1      42.410  26.944  27.734  1.00  0.00     0.014 A 
ATOM     41  C   UNL A   1      40.233  26.012  28.238  1.00  0.00     0.014 A 
ATOM     42  C   UNL A   1      42.310  27.773  28.854  1.00  0.00     0.010 A 
ATOM     43  C   UNL A   1      40.104  26.891  29.312  1.00  0.00     0.010 A 
ATOM     44  C   UNL A   1      41.136  27.787  29.626  1.00  0.00    -0.014 A 
BRANCH  44  45
ATOM     45  C   UNL A   1      40.960  28.756  30.741  1.00  0.00     0.031 A 
ATOM     46  C   UNL A   1      41.791  28.641  31.990  1.00  0.00     0.074 A 
ATOM     47  C   UNL A   1      40.001  29.700  30.652  1.00  0.00     0.049 A 
ATOM     48  N   UNL A   1      41.728  29.347  33.090  1.00  0.00    -0.248 NA
ATOM     49  C   UNL A   1      42.811  27.581  32.016  1.00  0.00     0.031 C 
ATOM     50  C   UNL A   1      39.102  29.885  29.510  1.00  0.00     0.029 A 
ATOM     51  N   UNL A   1      39.610  30.673  31.539  1.00  0.00    -0.354 N 
ATOM     52  C   UNL A   1      42.689  28.814  33.940  1.00  0.00     0.074 A 
ATOM     53  C   UNL A   1      43.287  27.693  33.249  1.00  0.00     0.031 C 
ATOM     54  C   UNL A   1      38.281  30.918  29.758  1.00  0.00     0.029 A 
ATOM     55  C   UNL A   1      38.559  31.439  31.092  1.00  0.00     0.049 A 
ATOM     56  H   UNL A   1      40.044  30.809  32.412  1.00  0.00     0.167 HD
ATOM     57  C   UNL A   1      43.054  29.234  35.176  1.00  0.00     0.037 A 
ATOM     58  C   UNL A   1      37.881  32.437  31.694  1.00  0.00     0.037 A 
ATOM     59  C   UNL A   1      42.462  30.361  35.851  1.00  0.00     0.049 A 
ATOM     60  C   UNL A   1      38.286  32.865  33.079  1.00  0.00     0.074 A 
ATOM     61  C   UNL A   1      42.801  30.901  37.079  1.00  0.00     0.029 A 
ATOM     62  N   UNL A   1      41.403  31.113  35.364  1.00  0.00    -0.354 N 
ATOM     63  N   UNL A   1      39.247  32.396  33.839  1.00  0.00    -0.248 NA
ATOM     64  C   UNL A   1      37.518  33.960  33.689  1.00  0.00     0.031 C 
ATOM     65  C   UNL A   1      41.909  31.939  37.363  1.00  0.00     0.029 A 
ATOM     66  C   UNL A   1      41.055  32.091  36.283  1.00  0.00     0.049 A 
ATOM     67  H   UNL A   1      40.964  30.974  34.495  1.00  0.00     0.167 HD
ATOM     68  C   UNL A   1      39.215  33.154  35.004  1.00  0.00     0.074 A 
ATOM     69  C   UNL A   1      38.151  34.123  34.843  1.00  0.00     0.031 C 
ATOM     70  C   UNL A   1      39.995  33.054  36.109  1.00  0.00     0.037 A 
BRANCH  57  71
ATOM     71  C   UNL A   1      44.143  28.474  35.885  1.00  0.00     0.058 A 
ATOM     72  C   UNL A   1      43.859  27.390  36.730  1.00  0.00     0.135 A 
ATOM     73  C   UNL A   1      45.493  28.800  35.673  1.00  0.00     0.135 A 
ATOM     74  F   UNL A   1      42.586  27.042  36.981  1.00  0.00    -0.206 F 
ATOM     75  C   UNL A   1      44.871  26.671  37.359  1.00  0.00     0.059 A 
ATOM     76  C   UNL A   1      46.523  28.074  36.265  1.00  0.00     0.059 A 
ATOM     77  F   UNL A   1      45.824  29.827  34.874  1.00  0.00    -0.206 F 
ATOM     78  C   UNL A   1      46.201  27.018  37.116  1.00  0.00     0.060 A 
BRANCH  78  79
ATOM     79  S   UNL A   1      47.501  26.063  37.927  1.00  0.00     0.124 S 
ATOM     80  O   UNL A   1      47.419  26.562  39.296  1.00  0.00    -0.237 OA
ATOM     81  O   UNL A   1      47.048  24.690  37.724  1.00  0.00    -0.237 OA
ATOM     82  O   UNL A   1      48.706  26.438  37.195  1.00  0.00    -0.744 OA
ENDBRANCH  78  79
ENDBRANCH  57  71
BRANCH  58  83
ATOM     83  C   UNL A   1      36.747  33.099  30.991  1.00  0.00     0.058 A 
ATOM     84  C   UNL A   1      36.973  33.987  29.929  1.00  0.00     0.135 A 
ATOM     85  C   UNL A   1      35.415  32.855  31.365  1.00  0.00     0.135 A 
ATOM     86  F   UNL A   1      38.226  34.261  29.539  1.00  0.00    -0.206 F 
ATOM     87  C   UNL A   1      35.923  34.626  29.277  1.00  0.00     0.059 A 
ATOM     88  C   UNL A   1      34.347  33.457  30.707  1.00  0.00     0.059 A 
ATOM     89  F   UNL A   1      35.142  32.001  32.364  1.00  0.00    -0.206 F 
ATOM     90  C   UNL A   1      34.612  34.351  29.672  1.00  0.00     0.060 A 
BRANCH  90  91
ATOM     91  S   UNL A   1      33.256  35.155  28.792  1.00  0.00     0.124 S 
ATOM     92  O   UNL A   1      32.403  35.585  29.895  1.00  0.00    -0.237 OA
ATOM     93  O   UNL A   1      33.948  36.217  28.069  1.00  0.00    -0.237 OA
ATOM     94  O   UNL A   1      32.716  34.086  27.957  1.00  0.00    -0.744 OA
ENDBRANCH  90  91
ENDBRANCH  58  83
BRANCH  70  95
ATOM     95  C   UNL A   1      39.752  34.035  37.225  1.00  0.00     0.058 A 
ATOM     96  C   UNL A   1      38.939  33.716  38.324  1.00  0.00     0.135 A 
ATOM     97  C   UNL A   1      40.390  35.286  37.224  1.00  0.00     0.135 A 
ATOM     98  F   UNL A   1      38.298  32.538  38.373  1.00  0.00    -0.206 F 
ATOM     99  C   UNL A   1      38.755  34.609  39.374  1.00  0.00     0.059 A 
ATOM    100  C   UNL A   1      40.246  36.182  38.278  1.00  0.00     0.059 A 
ATOM    101  F   UNL A   1      41.185  35.639  36.201  1.00  0.00    -0.206 F 
ATOM    102  C   UNL A   1      39.418  35.838  39.346  1.00  0.00     0.060 A 
BRANCH 102 103
ATOM    103  S   UNL A   1      39.205  36.967  40.738  1.00  0.00     0.124 S 
ATOM    104  O   UNL A   1      40.585  37.350  41.021  1.00  0.00    -0.237 OA
ATOM    105  O   UNL A   1      38.362  38.011  40.163  1.00  0.00    -0.237 OA
ATOM    106  O   UNL A   1      38.563  36.139  41.754  1.00  0.00    -0.744 OA
ENDBRANCH 102 103
ENDBRANCH  70  95
ENDBRANCH  44  45
ENDBRANCH  36  39
ENDBRANCH  34  35
ENDBRANCH  33  34
ENDBRANCH   1  33
TORSDOF 19
ENDMDL
MODEL 2
REMARK VINA RESULT:     -12.8      5.213      8.153
REMARK SMILES O=C1[NH+]=C(Nc2ccc(C(=O)NCCCCCCNC(=O)c3ccc(-c4c5nc(c(-c6c(F)cc(S(=O)(=O)[O-])cc6F)c6ccc([nH]6)c(-c6c(F)cc(S(=O)(=O)[O-])cc6F)c6nc(c(-c7c(F)cc(S(=O)(=O)[O-])cc7F)c7ccc4[nH]7)C=C6)C=C5)cc3)c(O)c2)S/C1=C\c1ccc[nH]1
REMARK SMILES IDX 16 1 15 2 14 3 13 4 12 5 10 6 11 7 9 9 6 10 7 11 90 12 8 13
REMARK SMILES IDX 88 14 5 15 1 16 2 17 3 18 92 19 4 20 91 22 93 23 94 25 95 26
REMARK SMILES IDX 98 27 96 28 97 29 89 31 17 33 18 34 19 35 20 36 21 38 22 39
REMARK SMILES IDX 23 40 87 41 24 42 86 43 25 44 26 45 27 46 80 47 28 48 85 49
REMARK SMILES IDX 79 50 81 51 29 52 84 53 78 54 77 55 30 57 64 58 43 59 63 60
REMARK SMILES IDX 44 61 47 62 62 63 82 64 45 65 46 66 61 68 83 69 48 70 31 71
REMARK SMILES IDX 32 72 41 73 33 74 34 75 40 76 42 77 35 78 36 79 37 80 38 81
REMARK SMILES IDX 39 82 65 83 66 84 75 85 67 86 68 87 74 88 76 89 69 90 70 91
REMARK SMILES IDX 71 92 72 93 73 94 49 95 50 96 59 97 51 98 52 99 58 100
REMARK SMILES IDX 60 101 53 102 54 103 55 104 56 105 57 106
REMARK H PARENT 12 8 3 21 5 24 98 30 89 32 19 37 81 56 47 67
REMARK Flexibility Score: inf
ROOT
ATOM      1  C   UNL A   1      42.264  20.642  26.101  1.00  0.00     0.002 C 
ENDROOT
BRANCH   1   2
ATOM      2  C   UNL A   1      42.326  19.161  26.482  1.00  0.00     0.002 C 
BRANCH   2   3
ATOM      3  C   UNL A   1      43.448  18.329  25.851  1.00  0.00     0.021 C 
BRANCH   3   4
ATOM      4  C   UNL A   1      43.959  18.799  24.493  1.00  0.00     0.116 C 
BRANCH   4   5
ATOM      5  N   UNL A   1      45.403  18.950  24.417  1.00  0.00    -0.352 N 
ATOM      6  C   UNL A   1      46.190  20.065  24.578  1.00  0.00     0.255 C 
ATOM      7  O   UNL A   1      47.407  19.955  24.438  1.00  0.00    -0.269 OA
ATOM      8  H   UNL A   1      45.894  18.121  24.215  1.00  0.00     0.163 HD
BRANCH   6   9
ATOM      9  C   UNL A   1      45.613  21.404  24.860  1.00  0.00     0.081 A 
ATOM     10  C   UNL A   1      44.767  24.015  25.550  1.00  0.00     0.129 A 
ATOM     11  C   UNL A   1      45.403  23.198  26.489  1.00  0.00     0.053 A 
ATOM     12  C   UNL A   1      44.505  23.485  24.281  1.00  0.00     0.098 A 
ATOM     13  C   UNL A   1      45.818  21.905  26.152  1.00  0.00     0.022 A 
ATOM     14  C   UNL A   1      44.887  22.181  23.955  1.00  0.00     0.132 A 
BRANCH  10  15
ATOM     15  N   UNL A   1      44.461  25.356  25.808  1.00  0.00    -0.234 N 
ATOM     16  O   UNL A   1      48.257  27.972  25.095  1.00  0.00    -0.240 OA
ATOM     17  C   UNL A   1      47.113  27.694  25.433  1.00  0.00     0.346 C 
ATOM     18  N   UNL A   1      46.565  26.434  25.403  1.00  0.00    -0.199 N 
ATOM     19  C   UNL A   1      46.143  28.708  25.937  1.00  0.00     0.111 C 
ATOM     20  C   UNL A   1      45.328  26.405  25.774  1.00  0.00     0.322 C 
ATOM     21  H   UNL A   1      47.067  25.633  25.128  1.00  0.00     0.316 HD
ATOM     22  S   UNL A   1      44.641  27.937  26.263  1.00  0.00     0.006 SA
ATOM     23  C   UNL A   1      46.466  30.001  26.069  1.00  0.00     0.050 C 
ATOM     24  H   UNL A   1      43.525  25.560  26.037  1.00  0.00     0.313 HD
BRANCH  23  25
ATOM     25  C   UNL A   1      45.580  30.955  26.622  1.00  0.00     0.039 A 
ATOM     26  C   UNL A   1      45.055  31.147  27.884  1.00  0.00     0.027 A 
ATOM     27  N   UNL A   1      45.075  31.941  25.809  1.00  0.00    -0.362 N 
ATOM     28  C   UNL A   1      44.186  32.260  27.824  1.00  0.00     0.020 A 
ATOM     29  C   UNL A   1      44.211  32.727  26.530  1.00  0.00     0.083 A 
ATOM     30  H   UNL A   1      45.298  32.064  24.859  1.00  0.00     0.166 HD
ENDBRANCH  23  25
ENDBRANCH  10  15
BRANCH  14  31
ATOM     31  O   UNL A   1      44.468  21.743  22.730  1.00  0.00    -0.507 OA
ATOM     32  H   UNL A   1      43.786  21.103  22.670  1.00  0.00     0.293 HD
ENDBRANCH  14  31
ENDBRANCH   6   9
ENDBRANCH   4   5
ENDBRANCH   3   4
ENDBRANCH   2   3
ENDBRANCH   1   2
BRANCH   1  33
ATOM     33  C   UNL A   1      42.054  21.635  27.246  1.00  0.00     0.021 C 
BRANCH  33  34
ATOM     34  C   UNL A   1      40.634  21.732  27.793  1.00  0.00     0.116 C 
BRANCH  34  35
ATOM     35  N   UNL A   1      39.635  21.899  26.750  1.00  0.00    -0.352 N 
ATOM     36  C   UNL A   1      38.947  23.026  26.372  1.00  0.00     0.251 C 
ATOM     37  H   UNL A   1      39.421  21.086  26.240  1.00  0.00     0.163 HD
ATOM     38  O   UNL A   1      38.032  22.939  25.557  1.00  0.00    -0.269 OA
BRANCH  36  39
ATOM     39  C   UNL A   1      39.284  24.338  26.969  1.00  0.00     0.039 A 
ATOM     40  C   UNL A   1      38.821  24.631  28.254  1.00  0.00     0.014 A 
ATOM     41  C   UNL A   1      40.060  25.272  26.275  1.00  0.00     0.014 A 
ATOM     42  C   UNL A   1      39.200  25.825  28.873  1.00  0.00     0.010 A 
ATOM     43  C   UNL A   1      40.497  26.427  26.921  1.00  0.00     0.010 A 
ATOM     44  C   UNL A   1      40.079  26.712  28.230  1.00  0.00    -0.014 A 
BRANCH  44  45
ATOM     45  C   UNL A   1      40.598  27.921  28.924  1.00  0.00     0.031 A 
ATOM     46  C   UNL A   1      41.995  27.939  29.482  1.00  0.00     0.074 A 
ATOM     47  C   UNL A   1      39.781  28.978  29.111  1.00  0.00     0.049 A 
ATOM     48  N   UNL A   1      42.593  28.872  30.178  1.00  0.00    -0.248 NA
ATOM     49  C   UNL A   1      42.822  26.746  29.246  1.00  0.00     0.031 C 
ATOM     50  C   UNL A   1      38.392  29.063  28.655  1.00  0.00     0.029 A 
ATOM     51  N   UNL A   1      39.994  30.179  29.743  1.00  0.00    -0.354 N 
ATOM     52  C   UNL A   1      43.858  28.378  30.471  1.00  0.00     0.074 A 
ATOM     53  C   UNL A   1      43.925  27.042  29.920  1.00  0.00     0.031 C 
ATOM     54  C   UNL A   1      37.885  30.255  29.005  1.00  0.00     0.029 A 
ATOM     55  C   UNL A   1      38.892  31.002  29.751  1.00  0.00     0.049 A 
ATOM     56  H   UNL A   1      40.854  30.426  30.152  1.00  0.00     0.167 HD
ATOM     57  C   UNL A   1      44.877  28.990  31.120  1.00  0.00     0.037 A 
ATOM     58  C   UNL A   1      38.706  32.215  30.310  1.00  0.00     0.037 A 
ATOM     59  C   UNL A   1      44.805  30.327  31.653  1.00  0.00     0.049 A 
ATOM     60  C   UNL A   1      39.844  32.861  31.052  1.00  0.00     0.074 A 
ATOM     61  C   UNL A   1      45.802  31.057  32.276  1.00  0.00     0.029 A 
ATOM     62  N   UNL A   1      43.675  31.131  31.637  1.00  0.00    -0.354 N 
ATOM     63  N   UNL A   1      41.059  32.408  31.255  1.00  0.00    -0.248 NA
ATOM     64  C   UNL A   1      39.591  34.184  31.640  1.00  0.00     0.031 C 
ATOM     65  C   UNL A   1      45.258  32.277  32.692  1.00  0.00     0.029 A 
ATOM     66  C   UNL A   1      43.940  32.335  32.269  1.00  0.00     0.049 A 
ATOM     67  H   UNL A   1      42.811  30.883  31.235  1.00  0.00     0.167 HD
ATOM     68  C   UNL A   1      41.720  33.400  31.971  1.00  0.00     0.074 A 
ATOM     69  C   UNL A   1      40.777  34.483  32.151  1.00  0.00     0.031 C 
ATOM     70  C   UNL A   1      42.993  33.410  32.439  1.00  0.00     0.037 A 
BRANCH  57  71
ATOM     71  C   UNL A   1      46.161  28.225  31.297  1.00  0.00     0.058 A 
ATOM     72  C   UNL A   1      47.192  28.281  30.346  1.00  0.00     0.135 A 
ATOM     73  C   UNL A   1      46.386  27.468  32.460  1.00  0.00     0.135 A 
ATOM     74  F   UNL A   1      47.028  28.976  29.209  1.00  0.00    -0.206 F 
ATOM     75  C   UNL A   1      48.390  27.597  30.528  1.00  0.00     0.059 A 
ATOM     76  C   UNL A   1      47.589  26.802  32.679  1.00  0.00     0.059 A 
ATOM     77  F   UNL A   1      45.436  27.379  33.403  1.00  0.00    -0.206 F 
ATOM     78  C   UNL A   1      48.581  26.863  31.701  1.00  0.00     0.060 A 
BRANCH  78  79
ATOM     79  S   UNL A   1      50.148  25.996  31.928  1.00  0.00     0.124 S 
ATOM     80  O   UNL A   1      51.091  27.109  31.985  1.00  0.00    -0.237 OA
ATOM     81  O   UNL A   1      49.929  25.286  33.184  1.00  0.00    -0.237 OA
ATOM     82  O   UNL A   1      50.246  25.152  30.742  1.00  0.00    -0.744 OA
ENDBRANCH  78  79
ENDBRANCH  57  71
BRANCH  58  83
ATOM     83  C   UNL A   1      37.387  32.896  30.191  1.00  0.00     0.058 A 
ATOM     84  C   UNL A   1      37.106  33.748  29.112  1.00  0.00     0.135 A 
ATOM     85  C   UNL A   1      36.380  32.708  31.152  1.00  0.00     0.135 A 
ATOM     86  F   UNL A   1      38.037  33.968  28.172  1.00  0.00    -0.206 F 
ATOM     87  C   UNL A   1      35.885  34.406  29.000  1.00  0.00     0.059 A 
ATOM     88  C   UNL A   1      35.139  33.330  31.045  1.00  0.00     0.059 A 
ATOM     89  F   UNL A   1      36.589  31.891  32.196  1.00  0.00    -0.206 F 
ATOM     90  C   UNL A   1      34.906  34.187  29.971  1.00  0.00     0.060 A 
BRANCH  90  91
ATOM     91  S   UNL A   1      33.311  35.013  29.794  1.00  0.00     0.124 S 
ATOM     92  O   UNL A   1      32.633  34.143  28.840  1.00  0.00    -0.237 OA
ATOM     93  O   UNL A   1      32.799  34.985  31.160  1.00  0.00    -0.237 OA
ATOM     94  O   UNL A   1      33.672  36.337  29.295  1.00  0.00    -0.744 OA
ENDBRANCH  90  91
ENDBRANCH  58  83
BRANCH  70  95
ATOM     95  C   UNL A   1      43.458  34.642  33.168  1.00  0.00     0.058 A 
ATOM     96  C   UNL A   1      43.944  35.766  32.482  1.00  0.00     0.135 A 
ATOM     97  C   UNL A   1      43.356  34.722  34.567  1.00  0.00     0.135 A 
ATOM     98  F   UNL A   1      44.070  35.742  31.146  1.00  0.00    -0.206 F 
ATOM     99  C   UNL A   1      44.328  36.919  33.158  1.00  0.00     0.059 A 
ATOM    100  C   UNL A   1      43.705  35.876  35.261  1.00  0.00     0.059 A 
ATOM    101  F   UNL A   1      42.890  33.678  35.272  1.00  0.00    -0.206 F 
ATOM    102  C   UNL A   1      44.199  36.967  34.548  1.00  0.00     0.060 A 
BRANCH 102 103
ATOM    103  S   UNL A   1      44.659  38.487  35.406  1.00  0.00     0.124 S 
ATOM    104  O   UNL A   1      44.188  39.507  34.474  1.00  0.00    -0.237 OA
ATOM    105  O   UNL A   1      43.910  38.376  36.655  1.00  0.00    -0.237 OA
ATOM    106  O   UNL A   1      46.108  38.379  35.539  1.00  0.00    -0.744 OA
ENDBRANCH 102 103
ENDBRANCH  70  95
ENDBRANCH  44  45
ENDBRANCH  36  39
ENDBRANCH  34  35
ENDBRANCH  33  34
ENDBRANCH   1  33
TORSDOF 19
ENDMDL
MODEL 3
REMARK VINA RESULT:     -12.7      6.374     12.393
REMARK SMILES O=C1[NH+]=C(Nc2ccc(C(=O)NCCCCCCNC(=O)c3ccc(-c4c5nc(c(-c6c(F)cc(S(=O)(=O)[O-])cc6F)c6ccc([nH]6)c(-c6c(F)cc(S(=O)(=O)[O-])cc6F)c6nc(c(-c7c(F)cc(S(=O)(=O)[O-])cc7F)c7ccc4[nH]7)C=C6)C=C5)cc3)c(O)c2)S/C1=C\c1ccc[nH]1
REMARK SMILES IDX 16 1 15 2 14 3 13 4 12 5 10 6 11 7 9 9 6 10 7 11 90 12 8 13
REMARK SMILES IDX 88 14 5 15 1 16 2 17 3 18 92 19 4 20 91 22 93 23 94 25 95 26
REMARK SMILES IDX 98 27 96 28 97 29 89 31 17 33 18 34 19 35 20 36 21 38 22 39
REMARK SMILES IDX 23 40 87 41 24 42 86 43 25 44 26 45 27 46 80 47 28 48 85 49
REMARK SMILES IDX 79 50 81 51 29 52 84 53 78 54 77 55 30 57 64 58 43 59 63 60
REMARK SMILES IDX 44 61 47 62 62 63 82 64 45 65 46 66 61 68 83 69 48 70 31 71
REMARK SMILES IDX 32 72 41 73 33 74 34 75 40 76 42 77 35 78 36 79 37 80 38 81
REMARK SMILES IDX 39 82 65 83 66 84 75 85 67 86 68 87 74 88 76 89 69 90 70 91
REMARK SMILES IDX 71 92 72 93 73 94 49 95 50 96 59 97 51 98 52 99 58 100
REMARK SMILES IDX 60 101 53 102 54 103 55 104 56 105 57 106
REMARK H PARENT 12 8 3 21 5 24 98 30 89 32 19 37 81 56 47 67
REMARK Flexibility Score: inf
ROOT
ATOM      1  C   UNL A   1      34.168  31.272  27.928  1.00  0.00     0.002 C 
ENDROOT
BRANCH   1   2
ATOM      2  C   UNL A   1      32.839  31.439  27.187  1.00  0.00     0.002 C 
BRANCH   2   3
ATOM      3  C   UNL A   1      32.158  30.160  26.688  1.00  0.00     0.021 C 
BRANCH   3   4
ATOM      4  C   UNL A   1      32.347  29.821  25.213  1.00  0.00     0.116 C 
BRANCH   4   5
ATOM      5  N   UNL A   1      31.133  29.903  24.419  1.00  0.00    -0.352 N 
ATOM      6  C   UNL A   1      30.386  28.911  23.831  1.00  0.00     0.255 C 
ATOM      7  O   UNL A   1      29.396  29.227  23.174  1.00  0.00    -0.269 OA
ATOM      8  H   UNL A   1      30.793  30.817  24.279  1.00  0.00     0.163 HD
BRANCH   6   9
ATOM      9  C   UNL A   1      30.768  27.479  23.918  1.00  0.00     0.081 A 
ATOM     10  C   UNL A   1      31.285  24.722  24.297  1.00  0.00     0.129 A 
ATOM     11  C   UNL A   1      31.066  25.566  25.390  1.00  0.00     0.053 A 
ATOM     12  C   UNL A   1      31.303  25.289  23.017  1.00  0.00     0.098 A 
ATOM     13  C   UNL A   1      30.815  26.929  25.206  1.00  0.00     0.022 A 
ATOM     14  C   UNL A   1      31.089  26.658  22.835  1.00  0.00     0.132 A 
BRANCH  10  15
ATOM     15  N   UNL A   1      31.404  23.335  24.432  1.00  0.00    -0.234 N 
ATOM     16  O   UNL A   1      35.917  22.191  24.728  1.00  0.00    -0.240 OA
ATOM     17  C   UNL A   1      34.706  22.032  24.638  1.00  0.00     0.346 C 
ATOM     18  N   UNL A   1      33.784  23.044  24.522  1.00  0.00    -0.199 N 
ATOM     19  C   UNL A   1      34.058  20.689  24.637  1.00  0.00     0.111 C 
ATOM     20  C   UNL A   1      32.564  22.622  24.480  1.00  0.00     0.322 C 
ATOM     21  H   UNL A   1      34.029  23.996  24.474  1.00  0.00     0.316 HD
ATOM     22  S   UNL A   1      32.353  20.886  24.538  1.00  0.00     0.006 SA
ATOM     23  C   UNL A   1      34.765  19.555  24.723  1.00  0.00     0.050 C 
ATOM     24  H   UNL A   1      30.565  22.823  24.500  1.00  0.00     0.313 HD
BRANCH  23  25
ATOM     25  C   UNL A   1      34.167  18.276  24.641  1.00  0.00     0.039 A 
ATOM     26  C   UNL A   1      34.223  17.257  23.712  1.00  0.00     0.027 A 
ATOM     27  N   UNL A   1      33.332  17.868  25.653  1.00  0.00    -0.362 N 
ATOM     28  C   UNL A   1      33.374  16.219  24.159  1.00  0.00     0.020 A 
ATOM     29  C   UNL A   1      32.830  16.626  25.356  1.00  0.00     0.083 A 
ATOM     30  H   UNL A   1      33.125  18.386  26.463  1.00  0.00     0.166 HD
ENDBRANCH  23  25
ENDBRANCH  10  15
BRANCH  14  31
ATOM     31  O   UNL A   1      31.251  27.105  21.554  1.00  0.00    -0.507 OA
ATOM     32  H   UNL A   1      32.066  27.484  21.290  1.00  0.00     0.293 HD
ENDBRANCH  14  31
ENDBRANCH   6   9
ENDBRANCH   4   5
ENDBRANCH   3   4
ENDBRANCH   2   3
ENDBRANCH   1   2
BRANCH   1  33
ATOM     33  C   UNL A   1      35.059  32.512  28.023  1.00  0.00     0.021 C 
BRANCH  33  34
ATOM     34  C   UNL A   1      36.027  32.549  29.200  1.00  0.00     0.116 C 
BRANCH  34  35
ATOM     35  N   UNL A   1      35.703  31.577  30.231  1.00  0.00    -0.352 N 
ATOM     36  C   UNL A   1      36.440  30.515  30.693  1.00  0.00     0.251 C 
ATOM     37  H   UNL A   1      34.826  31.698  30.660  1.00  0.00     0.163 HD
ATOM     38  O   UNL A   1      35.934  29.715  31.476  1.00  0.00    -0.269 OA
BRANCH  36  39
ATOM     39  C   UNL A   1      37.829  30.315  30.224  1.00  0.00     0.039 A 
ATOM     40  C   UNL A   1      38.867  30.344  31.160  1.00  0.00     0.014 A 
ATOM     41  C   UNL A   1      38.112  30.088  28.873  1.00  0.00     0.014 A 
ATOM     42  C   UNL A   1      40.175  30.070  30.754  1.00  0.00     0.010 A 
ATOM     43  C   UNL A   1      39.405  29.742  28.484  1.00  0.00     0.010 A 
ATOM     44  C   UNL A   1      40.449  29.720  29.421  1.00  0.00    -0.014 A 
BRANCH  44  45
ATOM     45  C   UNL A   1      41.811  29.296  29.000  1.00  0.00     0.031 A 
ATOM     46  C   UNL A   1      42.929  30.299  28.913  1.00  0.00     0.074 A 
ATOM     47  C   UNL A   1      42.021  28.016  28.631  1.00  0.00     0.049 A 
ATOM     48  N   UNL A   1      44.159  30.129  28.499  1.00  0.00    -0.248 NA
ATOM     49  C   UNL A   1      42.621  31.677  29.324  1.00  0.00     0.031 C 
ATOM     50  C   UNL A   1      41.005  26.960  28.630  1.00  0.00     0.029 A 
ATOM     51  N   UNL A   1      43.151  27.386  28.172  1.00  0.00    -0.354 N 
ATOM     52  C   UNL A   1      44.767  31.375  28.590  1.00  0.00     0.074 A 
ATOM     53  C   UNL A   1      43.757  32.303  29.051  1.00  0.00     0.031 C 
ATOM     54  C   UNL A   1      41.563  25.813  28.211  1.00  0.00     0.029 A 
ATOM     55  C   UNL A   1      42.960  26.058  27.868  1.00  0.00     0.049 A 
ATOM     56  H   UNL A   1      44.018  27.842  28.071  1.00  0.00     0.167 HD
ATOM     57  C   UNL A   1      46.054  31.710  28.333  1.00  0.00     0.037 A 
ATOM     58  C   UNL A   1      43.806  25.143  27.354  1.00  0.00     0.037 A 
ATOM     59  C   UNL A   1      47.056  30.776  27.888  1.00  0.00     0.049 A 
ATOM     60  C   UNL A   1      45.223  25.548  27.048  1.00  0.00     0.074 A 
ATOM     61  C   UNL A   1      48.401  31.005  27.656  1.00  0.00     0.029 A 
ATOM     62  N   UNL A   1      46.824  29.439  27.596  1.00  0.00    -0.354 N 
ATOM     63  N   UNL A   1      45.800  26.715  27.211  1.00  0.00    -0.248 NA
ATOM     64  C   UNL A   1      46.107  24.513  26.493  1.00  0.00     0.031 C 
ATOM     65  C   UNL A   1      48.969  29.825  27.166  1.00  0.00     0.029 A 
ATOM     66  C   UNL A   1      47.993  28.841  27.154  1.00  0.00     0.049 A 
ATOM     67  H   UNL A   1      45.957  28.983  27.690  1.00  0.00     0.167 HD
ATOM     68  C   UNL A   1      47.119  26.547  26.802  1.00  0.00     0.074 A 
ATOM     69  C   UNL A   1      47.258  25.163  26.401  1.00  0.00     0.031 C 
ATOM     70  C   UNL A   1      48.122  27.459  26.760  1.00  0.00     0.037 A 
BRANCH  57  71
ATOM     71  C   UNL A   1      46.460  33.147  28.524  1.00  0.00     0.058 A 
ATOM     72  C   UNL A   1      46.378  34.084  27.481  1.00  0.00     0.135 A 
ATOM     73  C   UNL A   1      46.883  33.608  29.783  1.00  0.00     0.135 A 
ATOM     74  F   UNL A   1      45.993  33.698  26.254  1.00  0.00    -0.206 F 
ATOM     75  C   UNL A   1      46.724  35.418  27.671  1.00  0.00     0.059 A 
ATOM     76  C   UNL A   1      47.203  34.944  30.004  1.00  0.00     0.059 A 
ATOM     77  F   UNL A   1      46.980  32.757  30.817  1.00  0.00    -0.206 F 
ATOM     78  C   UNL A   1      47.131  35.840  28.938  1.00  0.00     0.060 A 
BRANCH  78  79
ATOM     79  S   UNL A   1      47.559  37.578  29.170  1.00  0.00     0.124 S 
ATOM     80  O   UNL A   1      48.662  37.735  28.225  1.00  0.00    -0.237 OA
ATOM     81  O   UNL A   1      46.316  38.254  28.810  1.00  0.00    -0.237 OA
ATOM     82  O   UNL A   1      47.927  37.654  30.579  1.00  0.00    -0.744 OA
ENDBRANCH  78  79
ENDBRANCH  57  71
BRANCH  58  83
ATOM     83  C   UNL A   1      43.335  23.755  27.092  1.00  0.00     0.058 A 
ATOM     84  C   UNL A   1      43.179  22.834  28.139  1.00  0.00     0.135 A 
ATOM     85  C   UNL A   1      43.029  23.321  25.792  1.00  0.00     0.135 A 
ATOM     86  F   UNL A   1      43.467  23.195  29.398  1.00  0.00    -0.206 F 
ATOM     87  C   UNL A   1      42.759  21.528  27.905  1.00  0.00     0.059 A 
ATOM     88  C   UNL A   1      42.576  22.030  25.537  1.00  0.00     0.059 A 
ATOM     89  F   UNL A   1      43.144  24.166  24.756  1.00  0.00    -0.206 F 
ATOM     90  C   UNL A   1      42.456  21.137  26.599  1.00  0.00     0.060 A 
BRANCH  90  91
ATOM     91  S   UNL A   1      41.872  19.453  26.313  1.00  0.00     0.124 S 
ATOM     92  O   UNL A   1      42.579  19.101  25.086  1.00  0.00    -0.237 OA
ATOM     93  O   UNL A   1      42.313  18.767  27.523  1.00  0.00    -0.237 OA
ATOM     94  O   UNL A   1      40.427  19.616  26.184  1.00  0.00    -0.744 OA
ENDBRANCH  90  91
ENDBRANCH  58  83
BRANCH  70  95
ATOM     95  C   UNL A   1      49.473  26.988  26.291  1.00  0.00     0.058 A 
ATOM     96  C   UNL A   1      50.379  26.362  27.161  1.00  0.00     0.135 A 
ATOM     97  C   UNL A   1      49.838  27.108  24.940  1.00  0.00     0.135 A 
ATOM     98  F   UNL A   1      50.085  26.229  28.464  1.00  0.00    -0.206 F 
ATOM     99  C   UNL A   1      51.607  25.888  26.712  1.00  0.00     0.059 A 
ATOM    100  C   UNL A   1      51.047  26.613  24.463  1.00  0.00     0.059 A 
ATOM    101  F   UNL A   1      49.005  27.692  24.064  1.00  0.00    -0.206 F 
ATOM    102  C   UNL A   1      51.930  26.012  25.359  1.00  0.00     0.060 A 
BRANCH 102 103
ATOM    103  S   UNL A   1      53.507  25.349  24.783  1.00  0.00     0.124 S 
ATOM    104  O   UNL A   1      53.470  25.689  23.365  1.00  0.00    -0.237 OA
ATOM    105  O   UNL A   1      54.469  26.096  25.589  1.00  0.00    -0.237 OA
ATOM    106  O   UNL A   1      53.412  23.926  25.090  1.00  0.00    -0.744 OA
ENDBRANCH 102 103
ENDBRANCH  70  95
ENDBRANCH  44  45
ENDBRANCH  36  39
ENDBRANCH  34  35
ENDBRANCH  33  34
ENDBRANCH   1  33
TORSDOF 19
ENDMDL
