MODEL 1
REMARK VINA RESULT:     -10.6      0.000      0.000
REMARK SMILES C#CC[N@@H+](CC(=O)NCCCCCCNC(=O)c1ccc(-c2c3nc(c(-c4c(F)cc(S(=O)(=O)[O-])cc4F)c4ccc([nH]4)c(-c4c(F)cc(S(=O)(=O)[O-])cc4F)c4nc(c(-c5c(F)cc(S(=O)(=O)[O-])cc5F)c5ccc2[nH]5)C=C4)C=C3)cc1)Cc1ccc(C(C)C)cc1
REMARK SMILES IDX 11 1 10 2 9 3 8 4 6 5 7 6 5 8 4 9 3 11 2 12 1 13 84 14 85 15
REMARK SMILES IDX 86 16 93 17 87 18 92 19 88 20 89 21 90 22 91 23 12 24 13 25
REMARK SMILES IDX 14 26 15 27 16 28 17 30 18 31 19 32 83 33 20 34 82 35 21 36
REMARK SMILES IDX 22 37 23 38 76 39 24 40 81 41 75 42 77 43 25 44 80 45 74 46
REMARK SMILES IDX 73 47 26 49 60 50 39 51 59 52 40 53 43 54 58 55 78 56 41 57
REMARK SMILES IDX 42 58 57 60 79 61 44 62 27 63 28 64 37 65 29 66 30 67 36 68
REMARK SMILES IDX 38 69 31 70 32 71 33 72 34 73 35 74 61 75 62 76 71 77 63 78
REMARK SMILES IDX 64 79 70 80 72 81 65 82 66 83 67 84 68 85 69 86 45 87 46 88
REMARK SMILES IDX 55 89 47 90 48 91 54 92 56 93 49 94 50 95 51 96 52 97 53 98
REMARK H PARENT 8 7 4 10 15 29 77 48 43 59
REMARK Flexibility Score: inf
ROOT
ATOM      1  C   UNL A   1      36.159  22.896  24.122  1.00  0.00     0.002 C 
ENDROOT
BRANCH   1   2
ATOM      2  C   UNL A   1      35.004  21.927  24.352  1.00  0.00     0.021 C 
BRANCH   2   3
ATOM      3  C   UNL A   1      33.551  22.445  24.292  1.00  0.00     0.116 C 
BRANCH   3   4
ATOM      4  N   UNL A   1      33.356  23.625  23.450  1.00  0.00    -0.351 N 
ATOM      5  C   UNL A   1      32.302  24.409  23.066  1.00  0.00     0.275 C 
ATOM      6  O   UNL A   1      32.622  25.383  22.364  1.00  0.00    -0.269 OA
ATOM      7  H   UNL A   1      34.204  23.936  23.058  1.00  0.00     0.163 HD
BRANCH   5   8
ATOM      8  C   UNL A   1      30.809  24.224  23.419  1.00  0.00     0.364 C 
BRANCH   8   9
ATOM      9  N   UNL A   1      30.202  24.928  24.573  1.00  0.00    -0.313 N 
ATOM     10  H   UNL A   1      29.602  24.219  24.994  1.00  0.00     0.349 HD
BRANCH   9  11
ATOM     11  C   UNL A   1      29.350  25.995  24.140  1.00  0.00     0.354 C 
BRANCH  11  12
ATOM     12  C   UNL A   1      29.899  27.157  23.329  1.00  0.00    -0.047 C 
ATOM     13  C   UNL A   1      30.370  28.154  22.633  1.00  0.00     0.010 C 
ENDBRANCH  11  12
ENDBRANCH   9  11
BRANCH   9  14
ATOM     14  C   UNL A   1      30.951  25.093  25.833  1.00  0.00     0.300 C 
BRANCH  14  15
ATOM     15  C   UNL A   1      31.771  26.347  26.113  1.00  0.00     0.006 A 
ATOM     16  C   UNL A   1      33.127  26.410  25.846  1.00  0.00     0.010 A 
ATOM     17  C   UNL A   1      31.230  27.476  26.751  1.00  0.00     0.010 A 
ATOM     18  C   UNL A   1      33.915  27.526  26.075  1.00  0.00     0.004 A 
ATOM     19  C   UNL A   1      32.024  28.616  27.026  1.00  0.00     0.004 A 
ATOM     20  C   UNL A   1      33.379  28.656  26.669  1.00  0.00    -0.045 A 
BRANCH  20  21
ATOM     21  C   UNL A   1      34.275  29.859  26.878  1.00  0.00     0.013 C 
ATOM     22  C   UNL A   1      33.546  30.971  27.650  1.00  0.00     0.012 C 
ATOM     23  C   UNL A   1      35.544  29.446  27.639  1.00  0.00     0.012 C 
ENDBRANCH  20  21
ENDBRANCH  14  15
ENDBRANCH   9  14
ENDBRANCH   8   9
ENDBRANCH   5   8
ENDBRANCH   3   4
ENDBRANCH   2   3
ENDBRANCH   1   2
BRANCH   1  24
ATOM     24  C   UNL A   1      37.361  22.743  25.047  1.00  0.00     0.002 C 
BRANCH  24  25
ATOM     25  C   UNL A   1      37.714  23.969  25.895  1.00  0.00     0.021 C 
BRANCH  25  26
ATOM     26  C   UNL A   1      38.896  23.799  26.850  1.00  0.00     0.116 C 
BRANCH  26  27
ATOM     27  N   UNL A   1      40.174  23.970  26.179  1.00  0.00    -0.352 N 
ATOM     28  C   UNL A   1      41.100  24.976  26.309  1.00  0.00     0.251 C 
ATOM     29  H   UNL A   1      40.410  23.261  25.539  1.00  0.00     0.163 HD
ATOM     30  O   UNL A   1      42.006  25.083  25.489  1.00  0.00    -0.269 OA
BRANCH  28  31
ATOM     31  C   UNL A   1      40.999  25.933  27.432  1.00  0.00     0.039 A 
ATOM     32  C   UNL A   1      41.903  26.997  27.501  1.00  0.00     0.014 A 
ATOM     33  C   UNL A   1      40.037  25.763  28.431  1.00  0.00     0.014 A 
ATOM     34  C   UNL A   1      41.807  27.920  28.546  1.00  0.00     0.010 A 
ATOM     35  C   UNL A   1      39.901  26.719  29.434  1.00  0.00     0.010 A 
ATOM     36  C   UNL A   1      40.790  27.804  29.507  1.00  0.00    -0.014 A 
BRANCH  36  37
ATOM     37  C   UNL A   1      40.649  28.795  30.605  1.00  0.00     0.031 A 
ATOM     38  C   UNL A   1      41.515  28.687  31.833  1.00  0.00     0.074 A 
ATOM     39  C   UNL A   1      39.703  29.751  30.527  1.00  0.00     0.049 A 
ATOM     40  N   UNL A   1      41.492  29.406  32.926  1.00  0.00    -0.248 NA
ATOM     41  C   UNL A   1      42.522  27.613  31.843  1.00  0.00     0.031 C 
ATOM     42  C   UNL A   1      38.772  29.930  29.410  1.00  0.00     0.029 A 
ATOM     43  N   UNL A   1      39.356  30.744  31.408  1.00  0.00    -0.354 N 
ATOM     44  C   UNL A   1      42.464  28.862  33.757  1.00  0.00     0.074 A 
ATOM     45  C   UNL A   1      43.025  27.724  33.063  1.00  0.00     0.031 C 
ATOM     46  C   UNL A   1      37.974  30.978  29.666  1.00  0.00     0.029 A 
ATOM     47  C   UNL A   1      38.309  31.525  30.977  1.00  0.00     0.049 A 
ATOM     48  H   UNL A   1      39.814  30.886  32.268  1.00  0.00     0.167 HD
ATOM     49  C   UNL A   1      42.868  29.287  34.979  1.00  0.00     0.037 A 
ATOM     50  C   UNL A   1      37.683  32.558  31.576  1.00  0.00     0.037 A 
ATOM     51  C   UNL A   1      42.325  30.437  35.652  1.00  0.00     0.049 A 
ATOM     52  C   UNL A   1      38.155  33.016  32.930  1.00  0.00     0.074 A 
ATOM     53  C   UNL A   1      42.706  30.985  36.864  1.00  0.00     0.029 A 
ATOM     54  N   UNL A   1      41.285  31.220  35.170  1.00  0.00    -0.354 N 
ATOM     55  N   UNL A   1      39.117  32.528  33.675  1.00  0.00    -0.248 NA
ATOM     56  C   UNL A   1      37.463  34.170  33.520  1.00  0.00     0.031 C 
ATOM     57  C   UNL A   1      41.870  32.074  37.135  1.00  0.00     0.029 A 
ATOM     58  C   UNL A   1      41.000  32.234  36.069  1.00  0.00     0.049 A 
ATOM     59  H   UNL A   1      40.819  31.074  34.316  1.00  0.00     0.167 HD
ATOM     60  C   UNL A   1      39.165  33.331  34.809  1.00  0.00     0.074 A 
ATOM     61  C   UNL A   1      38.141  34.343  34.647  1.00  0.00     0.031 C 
ATOM     62  C   UNL A   1      39.982  33.240  35.887  1.00  0.00     0.037 A 
BRANCH  49  63
ATOM     63  C   UNL A   1      43.954  28.503  35.665  1.00  0.00     0.058 A 
ATOM     64  C   UNL A   1      43.659  27.471  36.571  1.00  0.00     0.135 A 
ATOM     65  C   UNL A   1      45.307  28.766  35.392  1.00  0.00     0.135 A 
ATOM     66  F   UNL A   1      42.384  27.187  36.880  1.00  0.00    -0.206 F 
ATOM     67  C   UNL A   1      44.665  26.748  37.204  1.00  0.00     0.059 A 
ATOM     68  C   UNL A   1      46.330  28.035  35.993  1.00  0.00     0.059 A 
ATOM     69  F   UNL A   1      45.647  29.741  34.535  1.00  0.00    -0.206 F 
ATOM     70  C   UNL A   1      45.998  27.039  36.909  1.00  0.00     0.060 A 
BRANCH  70  71
ATOM     71  S   UNL A   1      47.290  26.091  37.740  1.00  0.00     0.124 S 
ATOM     72  O   UNL A   1      47.036  26.415  39.140  1.00  0.00    -0.237 OA
ATOM     73  O   UNL A   1      46.982  24.722  37.339  1.00  0.00    -0.237 OA
ATOM     74  O   UNL A   1      48.524  26.640  37.184  1.00  0.00    -0.744 OA
ENDBRANCH  70  71
ENDBRANCH  49  63
BRANCH  50  75
ATOM     75  C   UNL A   1      36.558  33.244  30.886  1.00  0.00     0.058 A 
ATOM     76  C   UNL A   1      35.241  33.108  31.346  1.00  0.00     0.135 A 
ATOM     77  C   UNL A   1      36.778  34.060  29.766  1.00  0.00     0.135 A 
ATOM     78  F   UNL A   1      34.978  32.333  32.409  1.00  0.00    -0.206 F 
ATOM     79  C   UNL A   1      34.178  33.744  30.712  1.00  0.00     0.059 A 
ATOM     80  C   UNL A   1      35.736  34.726  29.130  1.00  0.00     0.059 A 
ATOM     81  F   UNL A   1      38.024  34.237  29.296  1.00  0.00    -0.206 F 
ATOM     82  C   UNL A   1      34.436  34.554  29.605  1.00  0.00     0.060 A 
BRANCH  82  83
ATOM     83  S   UNL A   1      33.057  35.418  28.822  1.00  0.00     0.124 S 
ATOM     84  O   UNL A   1      32.245  35.783  29.976  1.00  0.00    -0.237 OA
ATOM     85  O   UNL A   1      33.732  36.519  28.141  1.00  0.00    -0.237 OA
ATOM     86  O   UNL A   1      32.485  34.405  27.940  1.00  0.00    -0.744 OA
ENDBRANCH  82  83
ENDBRANCH  50  75
BRANCH  62  87
ATOM     87  C   UNL A   1      39.834  34.282  36.960  1.00  0.00     0.058 A 
ATOM     88  C   UNL A   1      39.029  34.068  38.090  1.00  0.00     0.135 A 
ATOM     89  C   UNL A   1      40.552  35.487  36.884  1.00  0.00     0.135 A 
ATOM     90  F   UNL A   1      38.317  32.936  38.208  1.00  0.00    -0.206 F 
ATOM     91  C   UNL A   1      38.924  35.021  39.098  1.00  0.00     0.059 A 
ATOM     92  C   UNL A   1      40.483  36.443  37.892  1.00  0.00     0.059 A 
ATOM     93  F   UNL A   1      41.343  35.736  35.829  1.00  0.00    -0.206 F 
ATOM     94  C   UNL A   1      39.658  36.205  38.990  1.00  0.00     0.060 A 
BRANCH  94  95
ATOM     95  S   UNL A   1      39.544  37.419  40.322  1.00  0.00     0.124 S 
ATOM     96  O   UNL A   1      38.819  36.668  41.342  1.00  0.00    -0.237 OA
ATOM     97  O   UNL A   1      40.948  37.694  40.616  1.00  0.00    -0.237 OA
ATOM     98  O   UNL A   1      38.810  38.524  39.713  1.00  0.00    -0.744 OA
ENDBRANCH  94  95
ENDBRANCH  62  87
ENDBRANCH  36  37
ENDBRANCH  28  31
ENDBRANCH  26  27
ENDBRANCH  25  26
ENDBRANCH  24  25
ENDBRANCH   1  24
TORSDOF 22
ENDMDL
MODEL 2
REMARK VINA RESULT:     -10.4      0.983      2.649
REMARK SMILES C#CC[N@@H+](CC(=O)NCCCCCCNC(=O)c1ccc(-c2c3nc(c(-c4c(F)cc(S(=O)(=O)[O-])cc4F)c4ccc([nH]4)c(-c4c(F)cc(S(=O)(=O)[O-])cc4F)c4nc(c(-c5c(F)cc(S(=O)(=O)[O-])cc5F)c5ccc2[nH]5)C=C4)C=C3)cc1)Cc1ccc(C(C)C)cc1
REMARK SMILES IDX 11 1 10 2 9 3 8 4 6 5 7 6 5 8 4 9 3 11 2 12 1 13 84 14 85 15
REMARK SMILES IDX 86 16 93 17 87 18 92 19 88 20 89 21 90 22 91 23 12 24 13 25
REMARK SMILES IDX 14 26 15 27 16 28 17 30 18 31 19 32 83 33 20 34 82 35 21 36
REMARK SMILES IDX 22 37 23 38 76 39 24 40 81 41 75 42 77 43 25 44 80 45 74 46
REMARK SMILES IDX 73 47 26 49 60 50 39 51 59 52 40 53 43 54 58 55 78 56 41 57
REMARK SMILES IDX 42 58 57 60 79 61 44 62 27 63 28 64 37 65 29 66 30 67 36 68
REMARK SMILES IDX 38 69 31 70 32 71 33 72 34 73 35 74 61 75 62 76 71 77 63 78
REMARK SMILES IDX 64 79 70 80 72 81 65 82 66 83 67 84 68 85 69 86 45 87 46 88
REMARK SMILES IDX 55 89 47 90 48 91 54 92 56 93 49 94 50 95 51 96 52 97 53 98
REMARK H PARENT 8 7 4 10 15 29 77 48 43 59
REMARK Flexibility Score: inf
ROOT
ATOM      1  C   UNL A   1      36.818  22.264  24.313  1.00  0.00     0.002 C 
ENDROOT
BRANCH   1   2
ATOM      2  C   UNL A   1      35.416  22.502  24.864  1.00  0.00     0.021 C 
BRANCH   2   3
ATOM      3  C   UNL A   1      34.187  22.127  24.008  1.00  0.00     0.116 C 
BRANCH   3   4
ATOM      4  N   UNL A   1      33.894  23.057  22.918  1.00  0.00    -0.351 N 
ATOM      5  C   UNL A   1      33.392  24.325  22.803  1.00  0.00     0.275 C 
ATOM      6  O   UNL A   1      33.375  24.761  21.640  1.00  0.00    -0.269 OA
ATOM      7  H   UNL A   1      34.114  22.671  22.041  1.00  0.00     0.163 HD
BRANCH   5   8
ATOM      8  C   UNL A   1      32.880  25.246  23.933  1.00  0.00     0.364 C 
BRANCH   8   9
ATOM      9  N   UNL A   1      33.621  26.469  24.320  1.00  0.00    -0.313 N 
ATOM     10  H   UNL A   1      34.523  26.355  23.857  1.00  0.00     0.349 HD
BRANCH   9  11
ATOM     11  C   UNL A   1      33.873  26.499  25.729  1.00  0.00     0.354 C 
BRANCH  11  12
ATOM     12  C   UNL A   1      33.995  27.817  26.476  1.00  0.00    -0.047 C 
ATOM     13  C   UNL A   1      34.100  28.948  27.117  1.00  0.00     0.010 C 
ENDBRANCH  11  12
ENDBRANCH   9  11
BRANCH   9  14
ATOM     14  C   UNL A   1      33.384  27.745  23.620  1.00  0.00     0.300 C 
BRANCH  14  15
ATOM     15  C   UNL A   1      31.979  28.317  23.459  1.00  0.00     0.006 A 
ATOM     16  C   UNL A   1      31.105  27.849  22.494  1.00  0.00     0.010 A 
ATOM     17  C   UNL A   1      31.520  29.414  24.206  1.00  0.00     0.010 A 
ATOM     18  C   UNL A   1      29.818  28.327  22.311  1.00  0.00     0.004 A 
ATOM     19  C   UNL A   1      30.220  29.942  24.014  1.00  0.00     0.004 A 
ATOM     20  C   UNL A   1      29.346  29.385  23.070  1.00  0.00    -0.045 A 
BRANCH  20  21
ATOM     21  C   UNL A   1      27.924  29.858  22.850  1.00  0.00     0.013 C 
ATOM     22  C   UNL A   1      26.907  28.773  23.242  1.00  0.00     0.012 C 
ATOM     23  C   UNL A   1      27.661  31.134  23.664  1.00  0.00     0.012 C 
ENDBRANCH  20  21
ENDBRANCH  14  15
ENDBRANCH   9  14
ENDBRANCH   8   9
ENDBRANCH   5   8
ENDBRANCH   3   4
ENDBRANCH   2   3
ENDBRANCH   1   2
BRANCH   1  24
ATOM     24  C   UNL A   1      37.941  22.178  25.340  1.00  0.00     0.002 C 
BRANCH  24  25
ATOM     25  C   UNL A   1      38.254  23.471  26.100  1.00  0.00     0.021 C 
BRANCH  25  26
ATOM     26  C   UNL A   1      39.536  23.459  26.934  1.00  0.00     0.116 C 
BRANCH  26  27
ATOM     27  N   UNL A   1      40.706  23.812  26.148  1.00  0.00    -0.352 N 
ATOM     28  C   UNL A   1      41.487  24.941  26.204  1.00  0.00     0.251 C 
ATOM     29  H   UNL A   1      40.979  23.144  25.478  1.00  0.00     0.163 HD
ATOM     30  O   UNL A   1      42.285  25.178  25.304  1.00  0.00    -0.269 OA
BRANCH  28  31
ATOM     31  C   UNL A   1      41.358  25.873  27.345  1.00  0.00     0.039 A 
ATOM     32  C   UNL A   1      42.245  26.948  27.447  1.00  0.00     0.014 A 
ATOM     33  C   UNL A   1      40.385  25.669  28.327  1.00  0.00     0.014 A 
ATOM     34  C   UNL A   1      42.122  27.849  28.510  1.00  0.00     0.010 A 
ATOM     35  C   UNL A   1      40.222  26.603  29.347  1.00  0.00     0.010 A 
ATOM     36  C   UNL A   1      41.094  27.698  29.455  1.00  0.00    -0.014 A 
BRANCH  36  37
ATOM     37  C   UNL A   1      40.925  28.664  30.570  1.00  0.00     0.031 A 
ATOM     38  C   UNL A   1      41.788  28.554  31.800  1.00  0.00     0.074 A 
ATOM     39  C   UNL A   1      39.956  29.598  30.506  1.00  0.00     0.049 A 
ATOM     40  N   UNL A   1      41.743  29.251  32.906  1.00  0.00    -0.248 NA
ATOM     41  C   UNL A   1      42.820  27.505  31.794  1.00  0.00     0.031 C 
ATOM     42  C   UNL A   1      39.026  29.776  29.388  1.00  0.00     0.029 A 
ATOM     43  N   UNL A   1      39.581  30.566  31.404  1.00  0.00    -0.354 N 
ATOM     44  C   UNL A   1      42.725  28.716  33.731  1.00  0.00     0.074 A 
ATOM     45  C   UNL A   1      43.316  27.605  33.018  1.00  0.00     0.031 C 
ATOM     46  C   UNL A   1      38.201  30.799  29.661  1.00  0.00     0.029 A 
ATOM     47  C   UNL A   1      38.517  31.329  30.983  1.00  0.00     0.049 A 
ATOM     48  H   UNL A   1      40.032  30.702  32.268  1.00  0.00     0.167 HD
ATOM     49  C   UNL A   1      43.113  29.126  34.963  1.00  0.00     0.037 A 
ATOM     50  C   UNL A   1      37.864  32.335  31.598  1.00  0.00     0.037 A 
ATOM     51  C   UNL A   1      42.540  30.250  35.655  1.00  0.00     0.049 A 
ATOM     52  C   UNL A   1      38.319  32.778  32.963  1.00  0.00     0.074 A 
ATOM     53  C   UNL A   1      42.902  30.783  36.879  1.00  0.00     0.029 A 
ATOM     54  N   UNL A   1      41.483  31.016  35.183  1.00  0.00    -0.354 N 
ATOM     55  N   UNL A   1      39.290  32.299  33.703  1.00  0.00    -0.248 NA
ATOM     56  C   UNL A   1      37.596  33.904  33.572  1.00  0.00     0.031 C 
ATOM     57  C   UNL A   1      42.039  31.847  37.167  1.00  0.00     0.029 A 
ATOM     58  C   UNL A   1      41.169  32.006  36.100  1.00  0.00     0.049 A 
ATOM     59  H   UNL A   1      41.023  30.876  34.324  1.00  0.00     0.167 HD
ATOM     60  C   UNL A   1      39.313  33.082  34.853  1.00  0.00     0.074 A 
ATOM     61  C   UNL A   1      38.266  34.071  34.705  1.00  0.00     0.031 C 
ATOM     62  C   UNL A   1      40.128  32.991  35.932  1.00  0.00     0.037 A 
BRANCH  49  63
ATOM     63  C   UNL A   1      44.215  28.357  35.639  1.00  0.00     0.058 A 
ATOM     64  C   UNL A   1      45.567  28.694  35.461  1.00  0.00     0.135 A 
ATOM     65  C   UNL A   1      43.916  27.289  36.502  1.00  0.00     0.135 A 
ATOM     66  F   UNL A   1      45.910  29.697  34.637  1.00  0.00    -0.206 F 
ATOM     67  C   UNL A   1      46.584  27.982  36.088  1.00  0.00     0.059 A 
ATOM     68  C   UNL A   1      44.917  26.580  37.162  1.00  0.00     0.059 A 
ATOM     69  F   UNL A   1      42.642  26.923  36.709  1.00  0.00    -0.206 F 
ATOM     70  C   UNL A   1      46.249  26.925  36.935  1.00  0.00     0.060 A 
BRANCH  70  71
ATOM     71  S   UNL A   1      47.581  26.011  37.741  1.00  0.00     0.124 S 
ATOM     72  O   UNL A   1      47.426  24.686  37.148  1.00  0.00    -0.237 OA
ATOM     73  O   UNL A   1      48.766  26.756  37.329  1.00  0.00    -0.237 OA
ATOM     74  O   UNL A   1      47.248  26.105  39.160  1.00  0.00    -0.744 OA
ENDBRANCH  70  71
ENDBRANCH  49  63
BRANCH  50  75
ATOM     75  C   UNL A   1      36.725  33.006  30.917  1.00  0.00     0.058 A 
ATOM     76  C   UNL A   1      35.402  32.751  31.303  1.00  0.00     0.135 A 
ATOM     77  C   UNL A   1      36.937  33.926  29.878  1.00  0.00     0.135 A 
ATOM     78  F   UNL A   1      35.147  31.875  32.286  1.00  0.00    -0.206 F 
ATOM     79  C   UNL A   1      34.326  33.373  30.676  1.00  0.00     0.059 A 
ATOM     80  C   UNL A   1      35.880  34.579  29.253  1.00  0.00     0.059 A 
ATOM     81  F   UNL A   1      38.186  34.218  29.482  1.00  0.00    -0.206 F 
ATOM     82  C   UNL A   1      34.576  34.288  29.652  1.00  0.00     0.060 A 
BRANCH  82  83
ATOM     83  S   UNL A   1      33.177  35.128  28.880  1.00  0.00     0.124 S 
ATOM     84  O   UNL A   1      32.721  34.124  27.926  1.00  0.00    -0.237 OA
ATOM     85  O   UNL A   1      32.298  35.372  30.019  1.00  0.00    -0.237 OA
ATOM     86  O   UNL A   1      33.782  36.323  28.300  1.00  0.00    -0.744 OA
ENDBRANCH  82  83
ENDBRANCH  50  75
BRANCH  62  87
ATOM     87  C   UNL A   1      39.949  34.008  37.024  1.00  0.00     0.058 A 
ATOM     88  C   UNL A   1      40.465  35.308  36.913  1.00  0.00     0.135 A 
ATOM     89  C   UNL A   1      39.204  33.692  38.173  1.00  0.00     0.135 A 
ATOM     90  F   UNL A   1      41.189  35.659  35.839  1.00  0.00    -0.206 F 
ATOM     91  C   UNL A   1      40.264  36.256  37.912  1.00  0.00     0.059 A 
ATOM     92  C   UNL A   1      38.969  34.632  39.171  1.00  0.00     0.059 A 
ATOM     93  F   UNL A   1      38.681  32.465  38.323  1.00  0.00    -0.206 F 
ATOM     94  C   UNL A   1      39.512  35.908  39.036  1.00  0.00     0.060 A 
BRANCH  94  95
ATOM     95  S   UNL A   1      39.227  37.158  40.308  1.00  0.00     0.124 S 
ATOM     96  O   UNL A   1      38.588  38.219  39.539  1.00  0.00    -0.237 OA
ATOM     97  O   UNL A   1      38.366  36.452  41.253  1.00  0.00    -0.237 OA
ATOM     98  O   UNL A   1      40.569  37.456  40.798  1.00  0.00    -0.744 OA
ENDBRANCH  94  95
ENDBRANCH  62  87
ENDBRANCH  36  37
ENDBRANCH  28  31
ENDBRANCH  26  27
ENDBRANCH  25  26
ENDBRANCH  24  25
ENDBRANCH   1  24
TORSDOF 22
ENDMDL
MODEL 3
REMARK VINA RESULT:     -10.3      2.224      8.792
REMARK SMILES C#CC[N@@H+](CC(=O)NCCCCCCNC(=O)c1ccc(-c2c3nc(c(-c4c(F)cc(S(=O)(=O)[O-])cc4F)c4ccc([nH]4)c(-c4c(F)cc(S(=O)(=O)[O-])cc4F)c4nc(c(-c5c(F)cc(S(=O)(=O)[O-])cc5F)c5ccc2[nH]5)C=C4)C=C3)cc1)Cc1ccc(C(C)C)cc1
REMARK SMILES IDX 11 1 10 2 9 3 8 4 6 5 7 6 5 8 4 9 3 11 2 12 1 13 84 14 85 15
REMARK SMILES IDX 86 16 93 17 87 18 92 19 88 20 89 21 90 22 91 23 12 24 13 25
REMARK SMILES IDX 14 26 15 27 16 28 17 30 18 31 19 32 83 33 20 34 82 35 21 36
REMARK SMILES IDX 22 37 23 38 76 39 24 40 81 41 75 42 77 43 25 44 80 45 74 46
REMARK SMILES IDX 73 47 26 49 60 50 39 51 59 52 40 53 43 54 58 55 78 56 41 57
REMARK SMILES IDX 42 58 57 60 79 61 44 62 27 63 28 64 37 65 29 66 30 67 36 68
REMARK SMILES IDX 38 69 31 70 32 71 33 72 34 73 35 74 61 75 62 76 71 77 63 78
REMARK SMILES IDX 64 79 70 80 72 81 65 82 66 83 67 84 68 85 69 86 45 87 46 88
REMARK SMILES IDX 55 89 47 90 48 91 54 92 56 93 49 94 50 95 51 96 52 97 53 98
REMARK H PARENT 8 7 4 10 15 29 77 48 43 59
REMARK Flexibility Score: inf
ROOT
ATOM      1  C   UNL A   1      32.111  30.347  26.717  1.00  0.00     0.002 C 
ENDROOT
BRANCH   1   2
ATOM      2  C   UNL A   1      31.767  29.023  26.043  1.00  0.00     0.021 C 
BRANCH   2   3
ATOM      3  C   UNL A   1      32.303  27.703  26.639  1.00  0.00     0.116 C 
BRANCH   3   4
ATOM      4  N   UNL A   1      31.303  26.647  26.785  1.00  0.00    -0.351 N 
ATOM      5  C   UNL A   1      30.359  26.056  25.990  1.00  0.00     0.275 C 
ATOM      6  O   UNL A   1      29.751  25.118  26.534  1.00  0.00    -0.269 OA
ATOM      7  H   UNL A   1      31.311  26.261  27.691  1.00  0.00     0.163 HD
BRANCH   5   8
ATOM      8  C   UNL A   1      29.995  26.410  24.531  1.00  0.00     0.364 C 
BRANCH   8   9
ATOM      9  N   UNL A   1      31.007  26.337  23.451  1.00  0.00    -0.313 N 
ATOM     10  H   UNL A   1      31.885  26.522  23.936  1.00  0.00     0.349 HD
BRANCH   9  11
ATOM     11  C   UNL A   1      30.824  27.390  22.497  1.00  0.00     0.354 C 
BRANCH  11  12
ATOM     12  C   UNL A   1      30.042  28.643  22.853  1.00  0.00    -0.047 C 
ATOM     13  C   UNL A   1      29.371  29.719  23.159  1.00  0.00     0.010 C 
ENDBRANCH  11  12
ENDBRANCH   9  11
BRANCH   9  14
ATOM     14  C   UNL A   1      31.505  25.033  22.973  1.00  0.00     0.300 C 
BRANCH  14  15
ATOM     15  C   UNL A   1      32.886  24.517  23.363  1.00  0.00     0.006 A 
ATOM     16  C   UNL A   1      33.630  25.106  24.369  1.00  0.00     0.010 A 
ATOM     17  C   UNL A   1      33.531  23.484  22.663  1.00  0.00     0.010 A 
ATOM     18  C   UNL A   1      34.885  24.673  24.766  1.00  0.00     0.004 A 
ATOM     19  C   UNL A   1      34.827  23.046  23.029  1.00  0.00     0.004 A 
ATOM     20  C   UNL A   1      35.510  23.630  24.105  1.00  0.00    -0.045 A 
BRANCH  20  21
ATOM     21  C   UNL A   1      36.871  23.176  24.590  1.00  0.00     0.013 C 
ATOM     22  C   UNL A   1      37.152  23.676  26.016  1.00  0.00     0.012 C 
ATOM     23  C   UNL A   1      36.962  21.643  24.550  1.00  0.00     0.012 C 
ENDBRANCH  20  21
ENDBRANCH  14  15
ENDBRANCH   9  14
ENDBRANCH   8   9
ENDBRANCH   5   8
ENDBRANCH   3   4
ENDBRANCH   2   3
ENDBRANCH   1   2
BRANCH   1  24
ATOM     24  C   UNL A   1      31.122  31.488  26.506  1.00  0.00     0.002 C 
BRANCH  24  25
ATOM     25  C   UNL A   1      31.719  32.898  26.487  1.00  0.00     0.021 C 
BRANCH  25  26
ATOM     26  C   UNL A   1      32.777  33.188  27.551  1.00  0.00     0.116 C 
BRANCH  26  27
ATOM     27  N   UNL A   1      32.816  34.592  27.921  1.00  0.00    -0.352 N 
ATOM     28  C   UNL A   1      33.530  35.214  28.916  1.00  0.00     0.251 C 
ATOM     29  H   UNL A   1      32.247  35.185  27.379  1.00  0.00     0.163 HD
ATOM     30  O   UNL A   1      33.256  36.365  29.239  1.00  0.00    -0.269 OA
BRANCH  28  31
ATOM     31  C   UNL A   1      34.624  34.493  29.602  1.00  0.00     0.039 A 
ATOM     32  C   UNL A   1      35.915  34.552  29.070  1.00  0.00     0.014 A 
ATOM     33  C   UNL A   1      34.370  33.733  30.747  1.00  0.00     0.014 A 
ATOM     34  C   UNL A   1      36.963  33.891  29.719  1.00  0.00     0.010 A 
ATOM     35  C   UNL A   1      35.425  33.130  31.428  1.00  0.00     0.010 A 
ATOM     36  C   UNL A   1      36.731  33.196  30.917  1.00  0.00    -0.014 A 
BRANCH  36  37
ATOM     37  C   UNL A   1      37.837  32.517  31.640  1.00  0.00     0.031 A 
ATOM     38  C   UNL A   1      38.300  33.043  32.973  1.00  0.00     0.074 A 
ATOM     39  C   UNL A   1      38.463  31.468  31.073  1.00  0.00     0.049 A 
ATOM     40  N   UNL A   1      39.294  32.638  33.721  1.00  0.00    -0.248 NA
ATOM     41  C   UNL A   1      37.566  34.194  33.524  1.00  0.00     0.031 C 
ATOM     42  C   UNL A   1      38.136  30.893  29.765  1.00  0.00     0.029 A 
ATOM     43  N   UNL A   1      39.516  30.705  31.514  1.00  0.00    -0.354 N 
ATOM     44  C   UNL A   1      39.315  33.491  34.818  1.00  0.00     0.074 A 
ATOM     45  C   UNL A   1      38.266  34.467  34.614  1.00  0.00     0.031 C 
ATOM     46  C   UNL A   1      38.959  29.862  29.520  1.00  0.00     0.029 A 
ATOM     47  C   UNL A   1      39.894  29.720  30.631  1.00  0.00     0.049 A 
ATOM     48  H   UNL A   1      39.959  30.849  32.381  1.00  0.00     0.167 HD
ATOM     49  C   UNL A   1      40.120  33.452  35.907  1.00  0.00     0.037 A 
ATOM     50  C   UNL A   1      40.888  28.813  30.705  1.00  0.00     0.037 A 
ATOM     51  C   UNL A   1      41.143  32.461  36.117  1.00  0.00     0.049 A 
ATOM     52  C   UNL A   1      41.765  28.784  31.928  1.00  0.00     0.074 A 
ATOM     53  C   UNL A   1      41.972  32.299  37.213  1.00  0.00     0.029 A 
ATOM     54  N   UNL A   1      41.476  31.462  35.213  1.00  0.00    -0.354 N 
ATOM     55  N   UNL A   1      41.731  29.561  32.985  1.00  0.00    -0.248 NA
ATOM     56  C   UNL A   1      42.808  27.751  31.974  1.00  0.00     0.031 C 
ATOM     57  C   UNL A   1      42.834  31.227  36.955  1.00  0.00     0.029 A 
ATOM     58  C   UNL A   1      42.510  30.691  35.719  1.00  0.00     0.049 A 
ATOM     59  H   UNL A   1      41.042  31.323  34.341  1.00  0.00     0.167 HD
ATOM     60  C   UNL A   1      42.729  29.094  33.833  1.00  0.00     0.074 A 
ATOM     61  C   UNL A   1      43.341  27.961  33.171  1.00  0.00     0.031 C 
ATOM     62  C   UNL A   1      43.103  29.559  35.050  1.00  0.00     0.037 A 
BRANCH  49  63
ATOM     63  C   UNL A   1      39.924  34.510  36.958  1.00  0.00     0.058 A 
ATOM     64  C   UNL A   1      40.647  35.714  36.937  1.00  0.00     0.135 A 
ATOM     65  C   UNL A   1      38.979  34.335  37.983  1.00  0.00     0.135 A 
ATOM     66  F   UNL A   1      41.574  35.929  35.989  1.00  0.00    -0.206 F 
ATOM     67  C   UNL A   1      40.465  36.691  37.909  1.00  0.00     0.059 A 
ATOM     68  C   UNL A   1      38.759  35.312  38.950  1.00  0.00     0.059 A 
ATOM     69  F   UNL A   1      38.259  33.204  38.052  1.00  0.00    -0.206 F 
ATOM     70  C   UNL A   1      39.518  36.480  38.914  1.00  0.00     0.060 A 
BRANCH  70  71
ATOM     71  S   UNL A   1      39.293  37.759  40.168  1.00  0.00     0.124 S 
ATOM     72  O   UNL A   1      40.570  38.462  40.100  1.00  0.00    -0.237 OA
ATOM     73  O   UNL A   1      38.138  38.494  39.662  1.00  0.00    -0.237 OA
ATOM     74  O   UNL A   1      39.060  36.998  41.392  1.00  0.00    -0.744 OA
ENDBRANCH  70  71
ENDBRANCH  49  63
BRANCH  50  75
ATOM     75  C   UNL A   1      41.090  27.842  29.597  1.00  0.00     0.058 A 
ATOM     76  C   UNL A   1      42.178  27.965  28.721  1.00  0.00     0.135 A 
ATOM     77  C   UNL A   1      40.211  26.766  29.401  1.00  0.00     0.135 A 
ATOM     78  F   UNL A   1      43.042  28.981  28.862  1.00  0.00    -0.206 F 
ATOM     79  C   UNL A   1      42.381  27.064  27.680  1.00  0.00     0.059 A 
ATOM     80  C   UNL A   1      40.407  25.838  28.383  1.00  0.00     0.059 A 
ATOM     81  F   UNL A   1      39.164  26.593  30.223  1.00  0.00    -0.206 F 
ATOM     82  C   UNL A   1      41.490  26.001  27.521  1.00  0.00     0.060 A 
BRANCH  82  83
ATOM     83  S   UNL A   1      41.792  24.807  26.200  1.00  0.00     0.124 S 
ATOM     84  O   UNL A   1      43.067  24.231  26.610  1.00  0.00    -0.237 OA
ATOM     85  O   UNL A   1      40.631  23.929  26.309  1.00  0.00    -0.237 OA
ATOM     86  O   UNL A   1      41.829  25.637  25.000  1.00  0.00    -0.744 OA
ENDBRANCH  82  83
ENDBRANCH  50  75
BRANCH  62  87
ATOM     87  C   UNL A   1      44.201  28.824  35.766  1.00  0.00     0.058 A 
ATOM     88  C   UNL A   1      43.934  27.726  36.598  1.00  0.00     0.135 A 
ATOM     89  C   UNL A   1      45.544  29.190  35.572  1.00  0.00     0.135 A 
ATOM     90  F   UNL A   1      42.668  27.340  36.821  1.00  0.00    -0.206 F 
ATOM     91  C   UNL A   1      44.958  27.027  37.228  1.00  0.00     0.059 A 
ATOM     92  C   UNL A   1      46.585  28.490  36.172  1.00  0.00     0.059 A 
ATOM     93  F   UNL A   1      45.853  30.227  34.778  1.00  0.00    -0.206 F 
ATOM     94  C   UNL A   1      46.281  27.416  37.007  1.00  0.00     0.060 A 
BRANCH  94  95
ATOM     95  S   UNL A   1      47.604  26.478  37.801  1.00  0.00     0.124 S 
ATOM     96  O   UNL A   1      47.123  26.399  39.176  1.00  0.00    -0.237 OA
ATOM     97  O   UNL A   1      47.593  25.225  37.052  1.00  0.00    -0.237 OA
ATOM     98  O   UNL A   1      48.783  27.313  37.594  1.00  0.00    -0.744 OA
ENDBRANCH  94  95
ENDBRANCH  62  87
ENDBRANCH  36  37
ENDBRANCH  28  31
ENDBRANCH  26  27
ENDBRANCH  25  26
ENDBRANCH  24  25
ENDBRANCH   1  24
TORSDOF 22
ENDMDL
