MODEL 1
REMARK VINA RESULT:     -11.7      0.000      0.000
REMARK SMILES O=C(NCCCCCCNC(=O)[C@@H]1[C@H](C(=O)Nc2ccccc2Cc2ccccc2)[C@H]2C=C[C@@H]1O2)c1ccc(-c2c3nc(c(-c4c(F)cc(S(=O)(=O)[O-])cc4F)c4ccc([nH]4)c(-c4c(F)cc(S(=O)(=O)[O-])cc4F)c4nc(c(-c5c(F)cc(S(=O)(=O)[O-])cc5F)c5ccc2[nH]5)C=C4)C=C3)cc1
REMARK SMILES IDX 7 1 6 2 5 3 4 4 3 5 1 6 2 7 36 9 37 10 101 11 38 12 100 13
REMARK SMILES IDX 39 14 40 15 41 16 94 17 42 18 99 19 93 20 95 21 43 22 98 23
REMARK SMILES IDX 92 24 91 25 44 27 78 28 57 29 77 30 58 31 61 32 76 33 96 34
REMARK SMILES IDX 59 35 60 36 75 38 97 39 62 40 45 41 46 42 55 43 47 44 48 45
REMARK SMILES IDX 54 46 56 47 49 48 50 49 51 50 52 51 53 52 79 53 80 54 89 55
REMARK SMILES IDX 81 56 82 57 88 58 90 59 83 60 84 61 85 62 86 63 87 64 63 65
REMARK SMILES IDX 64 66 73 67 65 68 66 69 72 70 74 71 67 72 68 73 69 74 70 75
REMARK SMILES IDX 71 76 8 77 9 78 10 79 11 80 12 82 13 83 14 84 34 85 31 86
REMARK SMILES IDX 33 87 35 88 32 89 15 90 16 91 17 92 18 94 19 95 23 96 20 97
REMARK SMILES IDX 22 98 21 99 24 100 25 101 26 102 30 103 27 104 29 105 28 106
REMARK H PARENT 3 8 95 26 61 37 10 81 17 93
REMARK Flexibility Score: inf
ROOT
ATOM      1  C   UNL A   1      31.070  27.905  26.300  1.00  0.00     0.002 C 
ENDROOT
BRANCH   1   2
ATOM      2  C   UNL A   1      32.306  27.880  27.199  1.00  0.00     0.002 C 
BRANCH   2   3
ATOM      3  C   UNL A   1      33.652  27.656  26.503  1.00  0.00     0.021 C 
BRANCH   3   4
ATOM      4  C   UNL A   1      34.405  28.920  26.093  1.00  0.00     0.116 C 
BRANCH   4   5
ATOM      5  N   UNL A   1      34.152  30.046  26.985  1.00  0.00    -0.352 N 
ATOM      6  O   UNL A   1      34.356  31.368  28.790  1.00  0.00    -0.269 OA
ATOM      7  C   UNL A   1      34.875  30.541  28.047  1.00  0.00     0.251 C 
ATOM      8  H   UNL A   1      33.320  30.536  26.795  1.00  0.00     0.163 HD
BRANCH   7   9
ATOM      9  C   UNL A   1      36.263  30.090  28.308  1.00  0.00     0.039 A 
ATOM     10  C   UNL A   1      37.252  30.218  27.336  1.00  0.00     0.014 A 
ATOM     11  C   UNL A   1      36.604  29.605  29.578  1.00  0.00     0.014 A 
ATOM     12  C   UNL A   1      38.532  29.726  27.574  1.00  0.00     0.010 A 
ATOM     13  C   UNL A   1      37.919  29.201  29.849  1.00  0.00     0.010 A 
ATOM     14  C   UNL A   1      38.892  29.235  28.841  1.00  0.00    -0.014 A 
BRANCH  14  15
ATOM     15  C   UNL A   1      40.314  28.865  29.087  1.00  0.00     0.031 A 
ATOM     16  C   UNL A   1      40.858  27.516  28.702  1.00  0.00     0.074 A 
ATOM     17  C   UNL A   1      41.134  29.800  29.610  1.00  0.00     0.049 A 
ATOM     18  N   UNL A   1      42.089  27.074  28.782  1.00  0.00    -0.248 NA
ATOM     19  C   UNL A   1      39.905  26.531  28.167  1.00  0.00     0.031 C 
ATOM     20  C   UNL A   1      40.713  31.134  30.051  1.00  0.00     0.029 A 
ATOM     21  N   UNL A   1      42.487  29.792  29.834  1.00  0.00    -0.354 N 
ATOM     22  C   UNL A   1      42.062  25.768  28.308  1.00  0.00     0.074 A 
ATOM     23  C   UNL A   1      40.684  25.472  27.978  1.00  0.00     0.031 C 
ATOM     24  C   UNL A   1      41.790  31.832  30.438  1.00  0.00     0.029 A 
ATOM     25  C   UNL A   1      42.967  30.979  30.338  1.00  0.00     0.049 A 
ATOM     26  H   UNL A   1      43.060  29.013  29.653  1.00  0.00     0.167 HD
ATOM     27  C   UNL A   1      43.094  24.902  28.150  1.00  0.00     0.037 A 
ATOM     28  C   UNL A   1      44.213  31.341  30.698  1.00  0.00     0.037 A 
ATOM     29  C   UNL A   1      44.465  25.208  28.481  1.00  0.00     0.049 A 
ATOM     30  C   UNL A   1      45.333  30.354  30.529  1.00  0.00     0.074 A 
ATOM     31  C   UNL A   1      45.584  24.401  28.345  1.00  0.00     0.029 A 
ATOM     32  N   UNL A   1      44.909  26.409  29.014  1.00  0.00    -0.354 N 
ATOM     33  N   UNL A   1      45.288  29.134  30.047  1.00  0.00    -0.248 NA
ATOM     34  C   UNL A   1      46.669  30.790  30.950  1.00  0.00     0.031 C 
ATOM     35  C   UNL A   1      46.692  25.099  28.835  1.00  0.00     0.029 A 
ATOM     36  C   UNL A   1      46.278  26.360  29.227  1.00  0.00     0.049 A 
ATOM     37  H   UNL A   1      44.334  27.184  29.212  1.00  0.00     0.167 HD
ATOM     38  C   UNL A   1      46.593  28.660  30.100  1.00  0.00     0.074 A 
ATOM     39  C   UNL A   1      47.407  29.738  30.624  1.00  0.00     0.031 C 
ATOM     40  C   UNL A   1      47.074  27.439  29.757  1.00  0.00     0.037 A 
BRANCH  27  41
ATOM     41  C   UNL A   1      42.794  23.536  27.590  1.00  0.00     0.058 A 
ATOM     42  C   UNL A   1      42.925  23.258  26.220  1.00  0.00     0.135 A 
ATOM     43  C   UNL A   1      42.458  22.470  28.441  1.00  0.00     0.135 A 
ATOM     44  F   UNL A   1      43.231  24.241  25.358  1.00  0.00    -0.206 F 
ATOM     45  C   UNL A   1      42.724  21.978  25.713  1.00  0.00     0.059 A 
ATOM     46  C   UNL A   1      42.276  21.176  27.960  1.00  0.00     0.059 A 
ATOM     47  F   UNL A   1      42.320  22.677  29.761  1.00  0.00    -0.206 F 
ATOM     48  C   UNL A   1      42.405  20.941  26.592  1.00  0.00     0.060 A 
BRANCH  48  49
ATOM     49  S   UNL A   1      42.186  19.279  25.920  1.00  0.00     0.124 S 
ATOM     50  O   UNL A   1      40.744  19.241  25.700  1.00  0.00    -0.237 OA
ATOM     51  O   UNL A   1      43.008  19.320  24.714  1.00  0.00    -0.237 OA
ATOM     52  O   UNL A   1      42.681  18.412  26.983  1.00  0.00    -0.744 OA
ENDBRANCH  48  49
ENDBRANCH  27  41
BRANCH  28  53
ATOM     53  C   UNL A   1      44.459  32.688  31.283  1.00  0.00     0.058 A 
ATOM     54  C   UNL A   1      44.802  33.784  30.479  1.00  0.00     0.135 A 
ATOM     55  C   UNL A   1      44.361  32.899  32.668  1.00  0.00     0.135 A 
ATOM     56  F   UNL A   1      44.910  33.635  29.149  1.00  0.00    -0.206 F 
ATOM     57  C   UNL A   1      45.071  35.034  31.029  1.00  0.00     0.059 A 
ATOM     58  C   UNL A   1      44.591  34.146  33.237  1.00  0.00     0.059 A 
ATOM     59  F   UNL A   1      44.016  31.888  33.481  1.00  0.00    -0.206 F 
ATOM     60  C   UNL A   1      44.965  35.204  32.410  1.00  0.00     0.060 A 
BRANCH  60  61
ATOM     61  S   UNL A   1      45.299  36.831  33.116  1.00  0.00     0.124 S 
ATOM     62  O   UNL A   1      44.840  36.652  34.489  1.00  0.00    -0.237 OA
ATOM     63  O   UNL A   1      46.742  36.954  32.936  1.00  0.00    -0.237 OA
ATOM     64  O   UNL A   1      44.494  37.725  32.291  1.00  0.00    -0.744 OA
ENDBRANCH  60  61
ENDBRANCH  28  53
BRANCH  40  65
ATOM     65  C   UNL A   1      48.553  27.220  29.922  1.00  0.00     0.058 A 
ATOM     66  C   UNL A   1      49.086  26.629  31.079  1.00  0.00     0.135 A 
ATOM     67  C   UNL A   1      49.449  27.607  28.913  1.00  0.00     0.135 A 
ATOM     68  F   UNL A   1      48.274  26.247  32.077  1.00  0.00    -0.206 F 
ATOM     69  C   UNL A   1      50.457  26.468  31.248  1.00  0.00     0.059 A 
ATOM     70  C   UNL A   1      50.822  27.427  29.047  1.00  0.00     0.059 A 
ATOM     71  F   UNL A   1      48.993  28.168  27.781  1.00  0.00    -0.206 F 
ATOM     72  C   UNL A   1      51.317  26.876  30.227  1.00  0.00     0.060 A 
BRANCH  72  73
ATOM     73  S   UNL A   1      53.095  26.666  30.460  1.00  0.00     0.124 S 
ATOM     74  O   UNL A   1      53.527  26.299  29.116  1.00  0.00    -0.237 OA
ATOM     75  O   UNL A   1      53.508  27.988  30.920  1.00  0.00    -0.237 OA
ATOM     76  O   UNL A   1      53.184  25.606  31.460  1.00  0.00    -0.744 OA
ENDBRANCH  72  73
ENDBRANCH  40  65
ENDBRANCH  14  15
ENDBRANCH   7   9
ENDBRANCH   4   5
ENDBRANCH   3   4
ENDBRANCH   2   3
ENDBRANCH   1   2
BRANCH   1  77
ATOM     77  C   UNL A   1      31.306  28.115  24.797  1.00  0.00     0.021 C 
BRANCH  77  78
ATOM     78  C   UNL A   1      30.216  27.706  23.780  1.00  0.00     0.116 C 
BRANCH  78  79
ATOM     79  N   UNL A   1      30.165  26.259  23.457  1.00  0.00    -0.356 N 
ATOM     80  C   UNL A   1      30.509  25.021  23.870  1.00  0.00     0.227 C 
ATOM     81  H   UNL A   1      29.691  26.165  22.599  1.00  0.00     0.163 HD
ATOM     82  O   UNL A   1      30.205  24.149  23.030  1.00  0.00    -0.275 OA
BRANCH  80  83
ATOM     83  C   UNL A   1      31.121  24.484  25.165  1.00  0.00     0.127 C 
ATOM     84  C   UNL A   1      32.579  24.406  25.565  1.00  0.00     0.127 C 
ATOM     85  C   UNL A   1      30.663  23.035  25.542  1.00  0.00     0.155 C 
ATOM     86  C   UNL A   1      32.715  23.055  26.265  1.00  0.00     0.155 C 
ATOM     87  C   UNL A   1      30.582  22.877  27.035  1.00  0.00     0.004 C 
ATOM     88  O   UNL A   1      31.897  22.274  25.369  1.00  0.00    -0.365 OA
ATOM     89  C   UNL A   1      31.845  22.943  27.485  1.00  0.00     0.004 C 
BRANCH  84  90
ATOM     90  C   UNL A   1      33.646  24.558  24.545  1.00  0.00     0.231 C 
ATOM     91  O   UNL A   1      33.476  25.466  23.708  1.00  0.00    -0.274 OA
ATOM     92  N   UNL A   1      34.848  23.972  24.454  1.00  0.00    -0.325 N 
ATOM     93  H   UNL A   1      35.370  24.541  23.842  1.00  0.00     0.169 HD
BRANCH  92  94
ATOM     94  C   UNL A   1      35.723  22.916  24.826  1.00  0.00     0.044 A 
ATOM     95  C   UNL A   1      36.940  23.495  25.277  1.00  0.00     0.026 A 
ATOM     96  C   UNL A   1      35.682  21.493  24.690  1.00  0.00    -0.020 A 
ATOM     97  C   UNL A   1      38.059  22.752  25.625  1.00  0.00     0.002 A 
ATOM     98  C   UNL A   1      36.838  20.767  25.072  1.00  0.00     0.006 A 
ATOM     99  C   UNL A   1      38.004  21.380  25.526  1.00  0.00     0.000 A 
BRANCH  96 100
ATOM    100  C   UNL A   1      34.510  20.641  24.241  1.00  0.00     0.073 C 
BRANCH 100 101
ATOM    101  C   UNL A   1      34.181  19.232  24.768  1.00  0.00    -0.044 A 
ATOM    102  C   UNL A   1      34.876  18.102  24.300  1.00  0.00     0.004 A 
ATOM    103  C   UNL A   1      33.026  18.984  25.526  1.00  0.00     0.004 A 
ATOM    104  C   UNL A   1      34.424  16.795  24.518  1.00  0.00     0.000 A 
ATOM    105  C   UNL A   1      32.582  17.673  25.773  1.00  0.00     0.000 A 
ATOM    106  C   UNL A   1      33.268  16.579  25.252  1.00  0.00     0.000 A 
ENDBRANCH 100 101
ENDBRANCH  96 100
ENDBRANCH  92  94
ENDBRANCH  84  90
ENDBRANCH  80  83
ENDBRANCH  78  79
ENDBRANCH  77  78
ENDBRANCH   1  77
TORSDOF 20
ENDMDL
MODEL 2
REMARK VINA RESULT:     -11.4      4.079     11.406
REMARK SMILES O=C(NCCCCCCNC(=O)[C@@H]1[C@H](C(=O)Nc2ccccc2Cc2ccccc2)[C@H]2C=C[C@@H]1O2)c1ccc(-c2c3nc(c(-c4c(F)cc(S(=O)(=O)[O-])cc4F)c4ccc([nH]4)c(-c4c(F)cc(S(=O)(=O)[O-])cc4F)c4nc(c(-c5c(F)cc(S(=O)(=O)[O-])cc5F)c5ccc2[nH]5)C=C4)C=C3)cc1
REMARK SMILES IDX 7 1 6 2 5 3 4 4 3 5 1 6 2 7 36 9 37 10 101 11 38 12 100 13
REMARK SMILES IDX 39 14 40 15 41 16 94 17 42 18 99 19 93 20 95 21 43 22 98 23
REMARK SMILES IDX 92 24 91 25 44 27 78 28 57 29 77 30 58 31 61 32 76 33 96 34
REMARK SMILES IDX 59 35 60 36 75 38 97 39 62 40 45 41 46 42 55 43 47 44 48 45
REMARK SMILES IDX 54 46 56 47 49 48 50 49 51 50 52 51 53 52 79 53 80 54 89 55
REMARK SMILES IDX 81 56 82 57 88 58 90 59 83 60 84 61 85 62 86 63 87 64 63 65
REMARK SMILES IDX 64 66 73 67 65 68 66 69 72 70 74 71 67 72 68 73 69 74 70 75
REMARK SMILES IDX 71 76 8 77 9 78 10 79 11 80 12 82 13 83 14 84 34 85 31 86
REMARK SMILES IDX 33 87 35 88 32 89 15 90 16 91 17 92 18 94 19 95 23 96 20 97
REMARK SMILES IDX 22 98 21 99 24 100 25 101 26 102 30 103 27 104 29 105 28 106
REMARK H PARENT 3 8 95 26 61 37 10 81 17 93
REMARK Flexibility Score: inf
ROOT
ATOM      1  C   UNL A   1      37.057  32.534  30.892  1.00  0.00     0.002 C 
ENDROOT
BRANCH   1   2
ATOM      2  C   UNL A   1      35.640  31.974  31.006  1.00  0.00     0.002 C 
BRANCH   2   3
ATOM      3  C   UNL A   1      34.545  32.730  30.248  1.00  0.00     0.021 C 
BRANCH   3   4
ATOM      4  C   UNL A   1      34.585  32.606  28.726  1.00  0.00     0.116 C 
BRANCH   4   5
ATOM      5  N   UNL A   1      33.933  31.398  28.237  1.00  0.00    -0.352 N 
ATOM      6  O   UNL A   1      33.722  29.385  27.261  1.00  0.00    -0.269 OA
ATOM      7  C   UNL A   1      34.449  30.184  27.845  1.00  0.00     0.251 C 
ATOM      8  H   UNL A   1      32.952  31.461  28.178  1.00  0.00     0.163 HD
BRANCH   7   9
ATOM      9  C   UNL A   1      35.864  29.829  28.110  1.00  0.00     0.039 A 
ATOM     10  C   UNL A   1      36.858  30.105  27.174  1.00  0.00     0.014 A 
ATOM     11  C   UNL A   1      36.218  29.283  29.351  1.00  0.00     0.014 A 
ATOM     12  C   UNL A   1      38.169  29.700  27.409  1.00  0.00     0.010 A 
ATOM     13  C   UNL A   1      37.556  28.967  29.627  1.00  0.00     0.010 A 
ATOM     14  C   UNL A   1      38.543  29.152  28.648  1.00  0.00    -0.014 A 
BRANCH  14  15
ATOM     15  C   UNL A   1      39.985  28.880  28.904  1.00  0.00     0.031 A 
ATOM     16  C   UNL A   1      40.875  29.894  29.571  1.00  0.00     0.074 A 
ATOM     17  C   UNL A   1      40.472  27.664  28.580  1.00  0.00     0.049 A 
ATOM     18  N   UNL A   1      42.130  29.775  29.930  1.00  0.00    -0.248 NA
ATOM     19  C   UNL A   1      40.293  31.211  29.870  1.00  0.00     0.031 C 
ATOM     20  C   UNL A   1      39.711  26.610  27.900  1.00  0.00     0.029 A 
ATOM     21  N   UNL A   1      41.699  27.093  28.798  1.00  0.00    -0.354 N 
ATOM     22  C   UNL A   1      42.486  30.992  30.496  1.00  0.00     0.074 A 
ATOM     23  C   UNL A   1      41.327  31.854  30.398  1.00  0.00     0.031 C 
ATOM     24  C   UNL A   1      40.468  25.507  27.809  1.00  0.00     0.029 A 
ATOM     25  C   UNL A   1      41.787  25.792  28.360  1.00  0.00     0.049 A 
ATOM     26  H   UNL A   1      42.447  27.569  29.227  1.00  0.00     0.167 HD
ATOM     27  C   UNL A   1      43.668  31.352  31.058  1.00  0.00     0.037 A 
ATOM     28  C   UNL A   1      42.816  24.925  28.381  1.00  0.00     0.037 A 
ATOM     29  C   UNL A   1      44.818  30.485  31.151  1.00  0.00     0.049 A 
ATOM     30  C   UNL A   1      44.118  25.358  28.992  1.00  0.00     0.074 A 
ATOM     31  C   UNL A   1      46.055  30.754  31.713  1.00  0.00     0.029 A 
ATOM     32  N   UNL A   1      44.877  29.184  30.672  1.00  0.00    -0.354 N 
ATOM     33  N   UNL A   1      44.422  26.506  29.551  1.00  0.00    -0.248 NA
ATOM     34  C   UNL A   1      45.214  24.383  28.977  1.00  0.00     0.031 C 
ATOM     35  C   UNL A   1      46.873  29.634  31.535  1.00  0.00     0.029 A 
ATOM     36  C   UNL A   1      46.132  28.646  30.910  1.00  0.00     0.049 A 
ATOM     37  H   UNL A   1      44.136  28.713  30.227  1.00  0.00     0.167 HD
ATOM     38  C   UNL A   1      45.744  26.386  29.962  1.00  0.00     0.074 A 
ATOM     39  C   UNL A   1      46.166  25.043  29.621  1.00  0.00     0.031 C 
ATOM     40  C   UNL A   1      46.541  27.308  30.558  1.00  0.00     0.037 A 
BRANCH  27  41
ATOM     41  C   UNL A   1      43.789  32.743  31.624  1.00  0.00     0.058 A 
ATOM     42  C   UNL A   1      43.405  33.036  32.942  1.00  0.00     0.135 A 
ATOM     43  C   UNL A   1      44.376  33.775  30.873  1.00  0.00     0.135 A 
ATOM     44  F   UNL A   1      42.826  32.092  33.703  1.00  0.00    -0.206 F 
ATOM     45  C   UNL A   1      43.589  34.301  33.491  1.00  0.00     0.059 A 
ATOM     46  C   UNL A   1      44.593  35.042  31.409  1.00  0.00     0.059 A 
ATOM     47  F   UNL A   1      44.764  33.552  29.606  1.00  0.00    -0.206 F 
ATOM     48  C   UNL A   1      44.189  35.297  32.719  1.00  0.00     0.060 A 
BRANCH  48  49
ATOM     49  S   UNL A   1      44.454  36.921  33.462  1.00  0.00     0.124 S 
ATOM     50  O   UNL A   1      43.092  37.442  33.518  1.00  0.00    -0.237 OA
ATOM     51  O   UNL A   1      45.054  36.581  34.749  1.00  0.00    -0.237 OA
ATOM     52  O   UNL A   1      45.342  37.589  32.517  1.00  0.00    -0.744 OA
ENDBRANCH  48  49
ENDBRANCH  27  41
BRANCH  28  53
ATOM     53  C   UNL A   1      42.665  23.573  27.775  1.00  0.00     0.058 A 
ATOM     54  C   UNL A   1      42.346  22.452  28.556  1.00  0.00     0.135 A 
ATOM     55  C   UNL A   1      42.846  23.378  26.397  1.00  0.00     0.135 A 
ATOM     56  F   UNL A   1      42.165  22.585  29.879  1.00  0.00    -0.206 F 
ATOM     57  C   UNL A   1      42.245  21.182  27.998  1.00  0.00     0.059 A 
ATOM     58  C   UNL A   1      42.715  22.125  25.810  1.00  0.00     0.059 A 
ATOM     59  F   UNL A   1      43.132  24.421  25.601  1.00  0.00    -0.206 F 
ATOM     60  C   UNL A   1      42.434  21.029  26.623  1.00  0.00     0.060 A 
BRANCH  60  61
ATOM     61  S   UNL A   1      42.283  19.381  25.901  1.00  0.00     0.124 S 
ATOM     62  O   UNL A   1      42.792  18.543  26.981  1.00  0.00    -0.237 OA
ATOM     63  O   UNL A   1      40.850  19.289  25.641  1.00  0.00    -0.237 OA
ATOM     64  O   UNL A   1      43.123  19.459  24.711  1.00  0.00    -0.744 OA
ENDBRANCH  60  61
ENDBRANCH  28  53
BRANCH  40  65
ATOM     65  C   UNL A   1      47.943  26.879  30.893  1.00  0.00     0.058 A 
ATOM     66  C   UNL A   1      48.286  26.413  32.172  1.00  0.00     0.135 A 
ATOM     67  C   UNL A   1      48.957  26.935  29.923  1.00  0.00     0.135 A 
ATOM     68  F   UNL A   1      47.356  26.346  33.139  1.00  0.00    -0.206 F 
ATOM     69  C   UNL A   1      49.593  26.059  32.491  1.00  0.00     0.059 A 
ATOM     70  C   UNL A   1      50.264  26.557  30.211  1.00  0.00     0.059 A 
ATOM     71  F   UNL A   1      48.682  27.364  28.681  1.00  0.00    -0.206 F 
ATOM     72  C   UNL A   1      50.576  26.139  31.504  1.00  0.00     0.060 A 
BRANCH  72  73
ATOM     73  S   UNL A   1      52.269  25.682  31.932  1.00  0.00     0.124 S 
ATOM     74  O   UNL A   1      52.130  24.254  32.195  1.00  0.00    -0.237 OA
ATOM     75  O   UNL A   1      53.004  26.034  30.722  1.00  0.00    -0.237 OA
ATOM     76  O   UNL A   1      52.560  26.510  33.098  1.00  0.00    -0.744 OA
ENDBRANCH  72  73
ENDBRANCH  40  65
ENDBRANCH  14  15
ENDBRANCH   7   9
ENDBRANCH   4   5
ENDBRANCH   3   4
ENDBRANCH   2   3
ENDBRANCH   1   2
BRANCH   1  77
ATOM     77  C   UNL A   1      37.647  33.198  32.144  1.00  0.00     0.021 C 
BRANCH  77  78
ATOM     78  C   UNL A   1      36.712  33.873  33.174  1.00  0.00     0.116 C 
BRANCH  78  79
ATOM     79  N   UNL A   1      37.009  33.565  34.594  1.00  0.00    -0.356 N 
ATOM     80  C   UNL A   1      37.957  33.589  35.555  1.00  0.00     0.227 C 
ATOM     81  H   UNL A   1      36.189  33.197  34.994  1.00  0.00     0.163 HD
ATOM     82  O   UNL A   1      37.552  33.079  36.620  1.00  0.00    -0.275 OA
BRANCH  80  83
ATOM     83  C   UNL A   1      39.371  34.170  35.614  1.00  0.00     0.127 C 
ATOM     84  C   UNL A   1      40.682  33.452  35.854  1.00  0.00     0.127 C 
ATOM     85  C   UNL A   1      39.535  35.366  36.611  1.00  0.00     0.155 C 
ATOM     86  C   UNL A   1      41.473  34.387  36.767  1.00  0.00     0.155 C 
ATOM     87  C   UNL A   1      40.545  36.352  36.093  1.00  0.00     0.004 C 
ATOM     88  O   UNL A   1      40.395  34.785  37.640  1.00  0.00    -0.365 OA
ATOM     89  C   UNL A   1      41.732  35.727  36.139  1.00  0.00     0.004 C 
BRANCH  84  90
ATOM     90  C   UNL A   1      40.693  32.075  36.407  1.00  0.00     0.231 C 
ATOM     91  O   UNL A   1      40.907  31.979  37.631  1.00  0.00    -0.274 OA
ATOM     92  N   UNL A   1      40.364  30.908  35.834  1.00  0.00    -0.325 N 
ATOM     93  H   UNL A   1      40.204  30.286  36.580  1.00  0.00     0.169 HD
BRANCH  92  94
ATOM     94  C   UNL A   1      40.139  30.148  34.654  1.00  0.00     0.044 A 
ATOM     95  C   UNL A   1      38.776  30.307  34.287  1.00  0.00     0.026 A 
ATOM     96  C   UNL A   1      40.913  29.198  33.917  1.00  0.00    -0.020 A 
ATOM     97  C   UNL A   1      38.180  29.623  33.237  1.00  0.00     0.002 A 
ATOM     98  C   UNL A   1      40.276  28.532  32.840  1.00  0.00     0.006 A 
ATOM     99  C   UNL A   1      38.938  28.735  32.506  1.00  0.00     0.000 A 
BRANCH  96 100
ATOM    100  C   UNL A   1      42.378  28.855  34.105  1.00  0.00     0.073 C 
BRANCH 100 101
ATOM    101  C   UNL A   1      42.945  27.432  34.259  1.00  0.00    -0.044 A 
ATOM    102  C   UNL A   1      43.918  26.938  33.371  1.00  0.00     0.004 A 
ATOM    103  C   UNL A   1      42.345  26.491  35.112  1.00  0.00     0.004 A 
ATOM    104  C   UNL A   1      44.242  25.579  33.286  1.00  0.00     0.000 A 
ATOM    105  C   UNL A   1      42.686  25.129  35.051  1.00  0.00     0.000 A 
ATOM    106  C   UNL A   1      43.619  24.669  34.125  1.00  0.00     0.000 A 
ENDBRANCH 100 101
ENDBRANCH  96 100
ENDBRANCH  92  94
ENDBRANCH  84  90
ENDBRANCH  80  83
ENDBRANCH  78  79
ENDBRANCH  77  78
ENDBRANCH   1  77
TORSDOF 20
ENDMDL
MODEL 3
REMARK VINA RESULT:     -11.3      5.323      7.351
REMARK SMILES O=C(NCCCCCCNC(=O)[C@@H]1[C@H](C(=O)Nc2ccccc2Cc2ccccc2)[C@H]2C=C[C@@H]1O2)c1ccc(-c2c3nc(c(-c4c(F)cc(S(=O)(=O)[O-])cc4F)c4ccc([nH]4)c(-c4c(F)cc(S(=O)(=O)[O-])cc4F)c4nc(c(-c5c(F)cc(S(=O)(=O)[O-])cc5F)c5ccc2[nH]5)C=C4)C=C3)cc1
REMARK SMILES IDX 7 1 6 2 5 3 4 4 3 5 1 6 2 7 36 9 37 10 101 11 38 12 100 13
REMARK SMILES IDX 39 14 40 15 41 16 94 17 42 18 99 19 93 20 95 21 43 22 98 23
REMARK SMILES IDX 92 24 91 25 44 27 78 28 57 29 77 30 58 31 61 32 76 33 96 34
REMARK SMILES IDX 59 35 60 36 75 38 97 39 62 40 45 41 46 42 55 43 47 44 48 45
REMARK SMILES IDX 54 46 56 47 49 48 50 49 51 50 52 51 53 52 79 53 80 54 89 55
REMARK SMILES IDX 81 56 82 57 88 58 90 59 83 60 84 61 85 62 86 63 87 64 63 65
REMARK SMILES IDX 64 66 73 67 65 68 66 69 72 70 74 71 67 72 68 73 69 74 70 75
REMARK SMILES IDX 71 76 8 77 9 78 10 79 11 80 12 82 13 83 14 84 34 85 31 86
REMARK SMILES IDX 33 87 35 88 32 89 15 90 16 91 17 92 18 94 19 95 23 96 20 97
REMARK SMILES IDX 22 98 21 99 24 100 25 101 26 102 30 103 27 104 29 105 28 106
REMARK H PARENT 3 8 95 26 61 37 10 81 17 93
REMARK Flexibility Score: inf
ROOT
ATOM      1  C   UNL A   1      33.756  31.622  27.708  1.00  0.00     0.002 C 
ENDROOT
BRANCH   1   2
ATOM      2  C   UNL A   1      34.202  32.927  28.367  1.00  0.00     0.002 C 
BRANCH   2   3
ATOM      3  C   UNL A   1      33.289  34.139  28.168  1.00  0.00     0.021 C 
BRANCH   3   4
ATOM      4  C   UNL A   1      33.674  35.394  28.947  1.00  0.00     0.116 C 
BRANCH   4   5
ATOM      5  N   UNL A   1      32.796  35.650  30.082  1.00  0.00    -0.352 N 
ATOM      6  O   UNL A   1      31.900  35.405  32.129  1.00  0.00    -0.269 OA
ATOM      7  C   UNL A   1      32.874  35.250  31.397  1.00  0.00     0.251 C 
ATOM      8  H   UNL A   1      32.010  36.204  29.872  1.00  0.00     0.163 HD
BRANCH   7   9
ATOM      9  C   UNL A   1      34.108  34.634  31.941  1.00  0.00     0.039 A 
ATOM     10  C   UNL A   1      34.204  33.254  32.110  1.00  0.00     0.014 A 
ATOM     11  C   UNL A   1      35.221  35.441  32.211  1.00  0.00     0.014 A 
ATOM     12  C   UNL A   1      35.342  32.701  32.687  1.00  0.00     0.010 A 
ATOM     13  C   UNL A   1      36.405  34.869  32.700  1.00  0.00     0.010 A 
ATOM     14  C   UNL A   1      36.469  33.494  32.965  1.00  0.00    -0.014 A 
BRANCH  14  15
ATOM     15  C   UNL A   1      37.715  32.827  33.438  1.00  0.00     0.031 A 
ATOM     16  C   UNL A   1      38.565  31.995  32.516  1.00  0.00     0.074 A 
ATOM     17  C   UNL A   1      38.107  33.038  34.711  1.00  0.00     0.049 A 
ATOM     18  N   UNL A   1      39.715  31.415  32.760  1.00  0.00    -0.248 NA
ATOM     19  C   UNL A   1      38.066  31.776  31.150  1.00  0.00     0.031 C 
ATOM     20  C   UNL A   1      37.348  33.802  35.707  1.00  0.00     0.029 A 
ATOM     21  N   UNL A   1      39.244  32.664  35.381  1.00  0.00    -0.354 N 
ATOM     22  C   UNL A   1      40.077  30.768  31.585  1.00  0.00     0.074 A 
ATOM     23  C   UNL A   1      39.006  30.991  30.637  1.00  0.00     0.031 C 
ATOM     24  C   UNL A   1      38.063  33.887  36.838  1.00  0.00     0.029 A 
ATOM     25  C   UNL A   1      39.297  33.130  36.675  1.00  0.00     0.049 A 
ATOM     26  H   UNL A   1      39.953  32.114  34.977  1.00  0.00     0.167 HD
ATOM     27  C   UNL A   1      41.206  30.064  31.318  1.00  0.00     0.037 A 
ATOM     28  C   UNL A   1      40.227  32.957  37.633  1.00  0.00     0.037 A 
ATOM     29  C   UNL A   1      42.269  29.847  32.271  1.00  0.00     0.049 A 
ATOM     30  C   UNL A   1      41.457  32.157  37.315  1.00  0.00     0.074 A 
ATOM     31  C   UNL A   1      43.458  29.159  32.092  1.00  0.00     0.029 A 
ATOM     32  N   UNL A   1      42.276  30.312  33.578  1.00  0.00    -0.354 N 
ATOM     33  N   UNL A   1      41.794  31.581  36.185  1.00  0.00    -0.248 NA
ATOM     34  C   UNL A   1      42.434  31.983  38.397  1.00  0.00     0.031 C 
ATOM     35  C   UNL A   1      44.160  29.170  33.301  1.00  0.00     0.029 A 
ATOM     36  C   UNL A   1      43.437  29.911  34.220  1.00  0.00     0.049 A 
ATOM     37  H   UNL A   1      41.560  30.847  33.990  1.00  0.00     0.167 HD
ATOM     38  C   UNL A   1      43.026  30.983  36.419  1.00  0.00     0.074 A 
ATOM     39  C   UNL A   1      43.391  31.301  37.785  1.00  0.00     0.031 C 
ATOM     40  C   UNL A   1      43.784  30.229  35.583  1.00  0.00     0.037 A 
BRANCH  27  41
ATOM     41  C   UNL A   1      41.365  29.473  29.942  1.00  0.00     0.058 A 
ATOM     42  C   UNL A   1      42.140  30.104  28.956  1.00  0.00     0.135 A 
ATOM     43  C   UNL A   1      40.811  28.220  29.631  1.00  0.00     0.135 A 
ATOM     44  F   UNL A   1      42.683  31.310  29.193  1.00  0.00    -0.206 F 
ATOM     45  C   UNL A   1      42.351  29.521  27.710  1.00  0.00     0.059 A 
ATOM     46  C   UNL A   1      41.029  27.606  28.400  1.00  0.00     0.059 A 
ATOM     47  F   UNL A   1      40.061  27.570  30.536  1.00  0.00    -0.206 F 
ATOM     48  C   UNL A   1      41.797  28.269  27.443  1.00  0.00     0.060 A 
BRANCH  48  49
ATOM     49  S   UNL A   1      42.114  27.511  25.835  1.00  0.00     0.124 S 
ATOM     50  O   UNL A   1      43.449  26.957  26.032  1.00  0.00    -0.237 OA
ATOM     51  O   UNL A   1      41.033  26.534  25.733  1.00  0.00    -0.237 OA
ATOM     52  O   UNL A   1      42.031  28.632  24.906  1.00  0.00    -0.744 OA
ENDBRANCH  48  49
ENDBRANCH  27  41
BRANCH  28  53
ATOM     53  C   UNL A   1      40.012  33.526  38.992  1.00  0.00     0.058 A 
ATOM     54  C   UNL A   1      39.073  32.977  39.877  1.00  0.00     0.135 A 
ATOM     55  C   UNL A   1      40.743  34.643  39.427  1.00  0.00     0.135 A 
ATOM     56  F   UNL A   1      38.347  31.910  39.508  1.00  0.00    -0.206 F 
ATOM     57  C   UNL A   1      38.843  33.533  41.131  1.00  0.00     0.059 A 
ATOM     58  C   UNL A   1      40.557  35.195  40.689  1.00  0.00     0.059 A 
ATOM     59  F   UNL A   1      41.669  35.196  38.627  1.00  0.00    -0.206 F 
ATOM     60  C   UNL A   1      39.588  34.645  41.527  1.00  0.00     0.060 A 
BRANCH  60  61
ATOM     61  S   UNL A   1      39.298  35.352  43.162  1.00  0.00     0.124 S 
ATOM     62  O   UNL A   1      40.068  36.588  43.085  1.00  0.00    -0.237 OA
ATOM     63  O   UNL A   1      37.846  35.504  43.178  1.00  0.00    -0.237 OA
ATOM     64  O   UNL A   1      39.823  34.335  44.065  1.00  0.00    -0.744 OA
ENDBRANCH  60  61
ENDBRANCH  28  53
BRANCH  40  65
ATOM     65  C   UNL A   1      45.090  29.717  36.126  1.00  0.00     0.058 A 
ATOM     66  C   UNL A   1      45.177  28.489  36.801  1.00  0.00     0.135 A 
ATOM     67  C   UNL A   1      46.269  30.463  35.970  1.00  0.00     0.135 A 
ATOM     68  F   UNL A   1      44.078  27.739  36.984  1.00  0.00    -0.206 F 
ATOM     69  C   UNL A   1      46.377  28.039  37.341  1.00  0.00     0.059 A 
ATOM     70  C   UNL A   1      47.487  30.018  36.474  1.00  0.00     0.059 A 
ATOM     71  F   UNL A   1      46.245  31.640  35.324  1.00  0.00    -0.206 F 
ATOM     72  C   UNL A   1      47.526  28.814  37.175  1.00  0.00     0.060 A 
BRANCH  72  73
ATOM     73  S   UNL A   1      49.077  28.222  37.884  1.00  0.00     0.124 S 
ATOM     74  O   UNL A   1      49.597  29.434  38.508  1.00  0.00    -0.237 OA
ATOM     75  O   UNL A   1      48.625  27.181  38.801  1.00  0.00    -0.237 OA
ATOM     76  O   UNL A   1      49.822  27.745  36.722  1.00  0.00    -0.744 OA
ENDBRANCH  72  73
ENDBRANCH  40  65
ENDBRANCH  14  15
ENDBRANCH   7   9
ENDBRANCH   4   5
ENDBRANCH   3   4
ENDBRANCH   2   3
ENDBRANCH   1   2
BRANCH   1  77
ATOM     77  C   UNL A   1      34.793  30.493  27.624  1.00  0.00     0.021 C 
BRANCH  77  78
ATOM     78  C   UNL A   1      34.351  29.065  27.232  1.00  0.00     0.116 C 
BRANCH  78  79
ATOM     79  N   UNL A   1      34.406  28.763  25.780  1.00  0.00    -0.356 N 
ATOM     80  C   UNL A   1      33.675  28.493  24.678  1.00  0.00     0.227 C 
ATOM     81  H   UNL A   1      35.354  28.759  25.516  1.00  0.00     0.163 HD
ATOM     82  O   UNL A   1      34.396  28.245  23.691  1.00  0.00    -0.275 OA
BRANCH  80  83
ATOM     83  C   UNL A   1      32.171  28.500  24.395  1.00  0.00     0.127 C 
ATOM     84  C   UNL A   1      31.030  28.125  25.317  1.00  0.00     0.127 C 
ATOM     85  C   UNL A   1      31.753  27.703  23.114  1.00  0.00     0.155 C 
ATOM     86  C   UNL A   1      30.053  27.357  24.428  1.00  0.00     0.155 C 
ATOM     87  C   UNL A   1      30.571  28.351  22.449  1.00  0.00     0.004 C 
ATOM     88  O   UNL A   1      31.016  26.579  23.686  1.00  0.00    -0.365 OA
ATOM     89  C   UNL A   1      29.535  28.184  23.286  1.00  0.00     0.004 C 
BRANCH  84  90
ATOM     90  C   UNL A   1      31.292  27.360  26.562  1.00  0.00     0.231 C 
ATOM     91  O   UNL A   1      31.268  28.015  27.621  1.00  0.00    -0.274 OA
ATOM     92  N   UNL A   1      31.409  26.039  26.759  1.00  0.00    -0.325 N 
ATOM     93  H   UNL A   1      31.270  25.906  27.724  1.00  0.00     0.169 HD
BRANCH  92  94
ATOM     94  C   UNL A   1      31.640  24.741  26.228  1.00  0.00     0.044 A 
ATOM     95  C   UNL A   1      30.499  23.943  26.514  1.00  0.00     0.026 A 
ATOM     96  C   UNL A   1      32.773  24.086  25.653  1.00  0.00    -0.020 A 
ATOM     97  C   UNL A   1      30.421  22.588  26.230  1.00  0.00     0.002 A 
ATOM     98  C   UNL A   1      32.650  22.705  25.359  1.00  0.00     0.006 A 
ATOM     99  C   UNL A   1      31.502  21.967  25.643  1.00  0.00     0.000 A 
BRANCH  96 100
ATOM    100  C   UNL A   1      34.095  24.711  25.249  1.00  0.00     0.073 C 
BRANCH 100 101
ATOM    101  C   UNL A   1      35.392  23.935  24.953  1.00  0.00    -0.044 A 
ATOM    102  C   UNL A   1      35.719  23.541  23.643  1.00  0.00     0.004 A 
ATOM    103  C   UNL A   1      36.160  23.372  25.984  1.00  0.00     0.004 A 
ATOM    104  C   UNL A   1      36.714  22.596  23.366  1.00  0.00     0.000 A 
ATOM    105  C   UNL A   1      37.180  22.443  25.711  1.00  0.00     0.000 A 
ATOM    106  C   UNL A   1      37.443  22.039  24.404  1.00  0.00     0.000 A 
ENDBRANCH 100 101
ENDBRANCH  96 100
ENDBRANCH  92  94
ENDBRANCH  84  90
ENDBRANCH  80  83
ENDBRANCH  78  79
ENDBRANCH  77  78
ENDBRANCH   1  77
TORSDOF 20
ENDMDL
