MODEL 1
REMARK VINA RESULT:     -12.6      0.000      0.000
REMARK SMILES Nc1c(C(=O)NCc2ccc3c(c2)OCO3)nsc1C(=O)NCCCCCCNC(=O)c1ccc(-c2c3nc(c(-c4c(F)cc(S(=O)(=O)[O-])cc4F)c4ccc([nH]4)c(-c4c(F)cc(S(=O)(=O)[O-])cc4F)c4nc(c(-c5c(F)cc(S(=O)(=O)[O-])cc5F)c5ccc2[nH]5)C=C4)C=C3)cc1
REMARK SMILES IDX 25 1 24 2 23 3 22 4 20 5 21 6 19 8 2 9 3 10 17 11 18 12 1 13
REMARK SMILES IDX 4 16 5 17 6 18 7 20 8 21 9 22 13 23 10 24 12 25 11 26 14 27
REMARK SMILES IDX 16 28 15 29 26 30 27 31 28 32 29 33 30 34 31 36 32 37 33 38
REMARK SMILES IDX 97 39 34 40 96 41 35 42 36 43 37 44 90 45 38 46 95 47 89 48
REMARK SMILES IDX 91 49 39 50 94 51 88 52 87 53 40 55 74 56 53 57 73 58 54 59
REMARK SMILES IDX 57 60 72 61 92 62 55 63 56 64 71 66 93 67 58 68 41 69 42 70
REMARK SMILES IDX 51 71 43 72 44 73 50 74 52 75 45 76 46 77 47 78 48 79 49 80
REMARK SMILES IDX 75 81 76 82 85 83 77 84 78 85 84 86 86 87 79 88 80 89 81 90
REMARK SMILES IDX 82 91 83 92 59 93 60 94 69 95 61 96 62 97 68 98 70 99 63 100
REMARK SMILES IDX 64 101 65 102 66 103 67 104
REMARK H PARENT 22 7 1 14 1 15 6 19 29 35 91 54 57 65
REMARK Flexibility Score: inf
ROOT
ATOM      1  C   UNL A   1      38.331  21.735  25.234  1.00  0.00     0.002 C 
ENDROOT
BRANCH   1   2
ATOM      2  C   UNL A   1      37.348  20.591  24.974  1.00  0.00     0.021 C 
BRANCH   2   3
ATOM      3  C   UNL A   1      35.879  20.874  25.263  1.00  0.00     0.116 C 
BRANCH   3   4
ATOM      4  N   UNL A   1      34.998  19.738  25.083  1.00  0.00    -0.351 N 
ATOM      5  C   UNL A   1      33.620  19.730  24.989  1.00  0.00     0.265 C 
ATOM      6  O   UNL A   1      33.082  18.631  24.837  1.00  0.00    -0.268 OA
ATOM      7  H   UNL A   1      35.439  18.859  25.019  1.00  0.00     0.163 HD
BRANCH   5   8
ATOM      8  C   UNL A   1      32.889  20.970  25.117  1.00  0.00     0.136 A 
ATOM      9  C   UNL A   1      32.550  21.792  26.184  1.00  0.00     0.089 A 
ATOM     10  C   UNL A   1      31.630  22.840  25.758  1.00  0.00     0.165 A 
ATOM     11  N   UNL A   1      31.472  22.899  24.425  1.00  0.00    -0.184 NA
ATOM     12  S   UNL A   1      32.303  21.691  23.688  1.00  0.00    -0.028 S 
BRANCH   9  13
ATOM     13  N   UNL A   1      33.057  21.619  27.429  1.00  0.00    -0.395 N 
ATOM     14  H   UNL A   1      33.678  20.878  27.607  1.00  0.00     0.156 HD
ATOM     15  H   UNL A   1      32.804  22.236  28.153  1.00  0.00     0.156 HD
ENDBRANCH   9  13
BRANCH  10  16
ATOM     16  C   UNL A   1      30.925  23.887  26.523  1.00  0.00     0.273 C 
ATOM     17  O   UNL A   1      29.963  23.620  27.252  1.00  0.00    -0.267 OA
ATOM     18  N   UNL A   1      31.312  25.205  26.537  1.00  0.00    -0.347 N 
ATOM     19  H   UNL A   1      30.815  25.746  27.192  1.00  0.00     0.164 HD
BRANCH  18  20
ATOM     20  C   UNL A   1      32.290  25.967  25.794  1.00  0.00     0.152 C 
BRANCH  20  21
ATOM     21  C   UNL A   1      31.657  26.747  24.651  1.00  0.00    -0.025 A 
ATOM     22  C   UNL A   1      31.622  26.246  23.322  1.00  0.00     0.009 A 
ATOM     23  C   UNL A   1      31.093  28.008  24.911  1.00  0.00     0.056 A 
ATOM     24  C   UNL A   1      31.067  26.984  22.274  1.00  0.00     0.051 A 
ATOM     25  C   UNL A   1      30.545  28.713  23.855  1.00  0.00     0.166 A 
ATOM     26  C   UNL A   1      30.535  28.216  22.573  1.00  0.00     0.165 A 
ATOM     27  O   UNL A   1      29.974  29.946  23.931  1.00  0.00    -0.454 OA
ATOM     28  O   UNL A   1      29.957  29.066  21.686  1.00  0.00    -0.454 OA
ATOM     29  C   UNL A   1      29.542  30.130  22.566  1.00  0.00     0.468 C 
ENDBRANCH  20  21
ENDBRANCH  18  20
ENDBRANCH  10  16
ENDBRANCH   5   8
ENDBRANCH   3   4
ENDBRANCH   2   3
ENDBRANCH   1   2
BRANCH   1  30
ATOM     30  C   UNL A   1      39.490  21.470  26.205  1.00  0.00     0.002 C 
BRANCH  30  31
ATOM     31  C   UNL A   1      40.204  20.115  26.118  1.00  0.00     0.021 C 
BRANCH  31  32
ATOM     32  C   UNL A   1      41.478  19.992  26.943  1.00  0.00     0.116 C 
BRANCH  32  33
ATOM     33  N   UNL A   1      42.644  19.620  26.151  1.00  0.00    -0.352 N 
ATOM     34  C   UNL A   1      43.520  20.458  25.480  1.00  0.00     0.251 C 
ATOM     35  H   UNL A   1      42.833  18.656  26.086  1.00  0.00     0.163 HD
ATOM     36  O   UNL A   1      44.211  20.030  24.570  1.00  0.00    -0.269 OA
BRANCH  34  37
ATOM     37  C   UNL A   1      43.591  21.879  25.875  1.00  0.00     0.039 A 
ATOM     38  C   UNL A   1      42.826  22.846  25.216  1.00  0.00     0.014 A 
ATOM     39  C   UNL A   1      44.420  22.236  26.936  1.00  0.00     0.014 A 
ATOM     40  C   UNL A   1      42.832  24.154  25.696  1.00  0.00     0.010 A 
ATOM     41  C   UNL A   1      44.324  23.492  27.489  1.00  0.00     0.010 A 
ATOM     42  C   UNL A   1      43.560  24.468  26.855  1.00  0.00    -0.014 A 
BRANCH  42  43
ATOM     43  C   UNL A   1      43.402  25.776  27.496  1.00  0.00     0.031 A 
ATOM     44  C   UNL A   1      44.468  26.757  27.143  1.00  0.00     0.074 A 
ATOM     45  C   UNL A   1      42.284  26.158  28.151  1.00  0.00     0.049 A 
ATOM     46  N   UNL A   1      45.384  27.243  27.912  1.00  0.00    -0.248 NA
ATOM     47  C   UNL A   1      44.630  27.126  25.726  1.00  0.00     0.031 C 
ATOM     48  C   UNL A   1      41.033  25.401  28.294  1.00  0.00     0.029 A 
ATOM     49  N   UNL A   1      41.976  27.354  28.732  1.00  0.00    -0.354 N 
ATOM     50  C   UNL A   1      46.072  28.175  27.137  1.00  0.00     0.074 A 
ATOM     51  C   UNL A   1      45.716  27.900  25.771  1.00  0.00     0.031 C 
ATOM     52  C   UNL A   1      40.044  26.227  28.697  1.00  0.00     0.029 A 
ATOM     53  C   UNL A   1      40.623  27.519  29.017  1.00  0.00     0.049 A 
ATOM     54  H   UNL A   1      42.653  28.041  28.933  1.00  0.00     0.167 HD
ATOM     55  C   UNL A   1      46.637  29.278  27.707  1.00  0.00     0.037 A 
ATOM     56  C   UNL A   1      40.006  28.633  29.482  1.00  0.00     0.037 A 
ATOM     57  C   UNL A   1      46.695  29.133  29.140  1.00  0.00     0.049 A 
ATOM     58  C   UNL A   1      41.044  29.457  30.144  1.00  0.00     0.074 A 
ATOM     59  C   UNL A   1      47.371  28.331  30.034  1.00  0.00     0.029 A 
ATOM     60  N   UNL A   1      45.631  29.680  29.810  1.00  0.00    -0.354 N 
ATOM     61  N   UNL A   1      41.680  29.086  31.221  1.00  0.00    -0.248 NA
ATOM     62  C   UNL A   1      41.648  30.563  29.415  1.00  0.00     0.031 C 
ATOM     63  C   UNL A   1      46.508  28.193  31.161  1.00  0.00     0.029 A 
ATOM     64  C   UNL A   1      45.359  28.954  30.938  1.00  0.00     0.049 A 
ATOM     65  H   UNL A   1      45.133  30.478  29.520  1.00  0.00     0.167 HD
ATOM     66  C   UNL A   1      42.956  29.595  31.061  1.00  0.00     0.074 A 
ATOM     67  C   UNL A   1      42.825  30.630  30.044  1.00  0.00     0.031 C 
ATOM     68  C   UNL A   1      44.039  28.916  31.538  1.00  0.00     0.037 A 
BRANCH  55  69
ATOM     69  C   UNL A   1      46.701  30.653  27.066  1.00  0.00     0.058 A 
ATOM     70  C   UNL A   1      47.935  31.344  27.043  1.00  0.00     0.135 A 
ATOM     71  C   UNL A   1      45.568  31.440  26.760  1.00  0.00     0.135 A 
ATOM     72  F   UNL A   1      49.081  30.703  27.326  1.00  0.00    -0.206 F 
ATOM     73  C   UNL A   1      48.025  32.718  26.809  1.00  0.00     0.059 A 
ATOM     74  C   UNL A   1      45.642  32.799  26.472  1.00  0.00     0.059 A 
ATOM     75  F   UNL A   1      44.322  30.960  26.821  1.00  0.00    -0.206 F 
ATOM     76  C   UNL A   1      46.867  33.439  26.538  1.00  0.00     0.060 A 
BRANCH  76  77
ATOM     77  S   UNL A   1      46.958  35.225  26.323  1.00  0.00     0.124 S 
ATOM     78  O   UNL A   1      47.422  35.653  27.637  1.00  0.00    -0.237 OA
ATOM     79  O   UNL A   1      47.918  35.350  25.230  1.00  0.00    -0.237 OA
ATOM     80  O   UNL A   1      45.585  35.590  25.987  1.00  0.00    -0.744 OA
ENDBRANCH  76  77
ENDBRANCH  55  69
BRANCH  56  81
ATOM     81  C   UNL A   1      38.635  29.132  29.205  1.00  0.00     0.058 A 
ATOM     82  C   UNL A   1      37.730  29.402  30.247  1.00  0.00     0.135 A 
ATOM     83  C   UNL A   1      38.287  29.630  27.934  1.00  0.00     0.135 A 
ATOM     84  F   UNL A   1      37.988  28.976  31.492  1.00  0.00    -0.206 F 
ATOM     85  C   UNL A   1      36.579  30.175  30.055  1.00  0.00     0.059 A 
ATOM     86  C   UNL A   1      37.140  30.394  27.715  1.00  0.00     0.059 A 
ATOM     87  F   UNL A   1      39.103  29.467  26.881  1.00  0.00    -0.206 F 
ATOM     88  C   UNL A   1      36.307  30.688  28.788  1.00  0.00     0.060 A 
BRANCH  88  89
ATOM     89  S   UNL A   1      34.934  31.848  28.577  1.00  0.00     0.124 S 
ATOM     90  O   UNL A   1      35.536  32.880  27.742  1.00  0.00    -0.237 OA
ATOM     91  O   UNL A   1      33.923  31.014  27.934  1.00  0.00    -0.237 OA
ATOM     92  O   UNL A   1      34.622  32.253  29.946  1.00  0.00    -0.744 OA
ENDBRANCH  88  89
ENDBRANCH  56  81
BRANCH  68  93
ATOM     93  C   UNL A   1      43.812  27.936  32.655  1.00  0.00     0.058 A 
ATOM     94  C   UNL A   1      43.550  28.278  33.993  1.00  0.00     0.135 A 
ATOM     95  C   UNL A   1      43.762  26.575  32.321  1.00  0.00     0.135 A 
ATOM     96  F   UNL A   1      43.494  29.560  34.380  1.00  0.00    -0.206 F 
ATOM     97  C   UNL A   1      43.288  27.306  34.960  1.00  0.00     0.059 A 
ATOM     98  C   UNL A   1      43.470  25.592  33.258  1.00  0.00     0.059 A 
ATOM     99  F   UNL A   1      43.955  26.189  31.048  1.00  0.00    -0.206 F 
ATOM    100  C   UNL A   1      43.247  25.964  34.582  1.00  0.00     0.060 A 
BRANCH 100 101
ATOM    101  S   UNL A   1      42.835  24.711  35.814  1.00  0.00     0.124 S 
ATOM    102  O   UNL A   1      44.153  24.256  36.243  1.00  0.00    -0.237 OA
ATOM    103  O   UNL A   1      42.075  25.474  36.800  1.00  0.00    -0.237 OA
ATOM    104  O   UNL A   1      42.053  23.734  35.059  1.00  0.00    -0.744 OA
ENDBRANCH 100 101
ENDBRANCH  68  93
ENDBRANCH  42  43
ENDBRANCH  34  37
ENDBRANCH  32  33
ENDBRANCH  31  32
ENDBRANCH  30  31
ENDBRANCH   1  30
TORSDOF 20
ENDMDL
MODEL 2
REMARK VINA RESULT:     -12.3      1.263      2.050
REMARK SMILES Nc1c(C(=O)NCc2ccc3c(c2)OCO3)nsc1C(=O)NCCCCCCNC(=O)c1ccc(-c2c3nc(c(-c4c(F)cc(S(=O)(=O)[O-])cc4F)c4ccc([nH]4)c(-c4c(F)cc(S(=O)(=O)[O-])cc4F)c4nc(c(-c5c(F)cc(S(=O)(=O)[O-])cc5F)c5ccc2[nH]5)C=C4)C=C3)cc1
REMARK SMILES IDX 25 1 24 2 23 3 22 4 20 5 21 6 19 8 2 9 3 10 17 11 18 12 1 13
REMARK SMILES IDX 4 16 5 17 6 18 7 20 8 21 9 22 13 23 10 24 12 25 11 26 14 27
REMARK SMILES IDX 16 28 15 29 26 30 27 31 28 32 29 33 30 34 31 36 32 37 33 38
REMARK SMILES IDX 97 39 34 40 96 41 35 42 36 43 37 44 90 45 38 46 95 47 89 48
REMARK SMILES IDX 91 49 39 50 94 51 88 52 87 53 40 55 74 56 53 57 73 58 54 59
REMARK SMILES IDX 57 60 72 61 92 62 55 63 56 64 71 66 93 67 58 68 41 69 42 70
REMARK SMILES IDX 51 71 43 72 44 73 50 74 52 75 45 76 46 77 47 78 48 79 49 80
REMARK SMILES IDX 75 81 76 82 85 83 77 84 78 85 84 86 86 87 79 88 80 89 81 90
REMARK SMILES IDX 82 91 83 92 59 93 60 94 69 95 61 96 62 97 68 98 70 99 63 100
REMARK SMILES IDX 64 101 65 102 66 103 67 104
REMARK H PARENT 22 7 1 14 1 15 6 19 29 35 91 54 57 65
REMARK Flexibility Score: inf
ROOT
ATOM      1  C   UNL A   1      39.872  21.333  26.534  1.00  0.00     0.002 C 
ENDROOT
BRANCH   1   2
ATOM      2  C   UNL A   1      39.482  22.813  26.535  1.00  0.00     0.021 C 
BRANCH   2   3
ATOM      3  C   UNL A   1      38.050  23.141  26.131  1.00  0.00     0.116 C 
BRANCH   3   4
ATOM      4  N   UNL A   1      37.824  23.196  24.701  1.00  0.00    -0.351 N 
ATOM      5  C   UNL A   1      36.641  23.003  24.014  1.00  0.00     0.265 C 
ATOM      6  O   UNL A   1      36.692  23.100  22.786  1.00  0.00    -0.268 OA
ATOM      7  H   UNL A   1      38.614  23.397  24.149  1.00  0.00     0.163 HD
BRANCH   5   8
ATOM      8  C   UNL A   1      35.440  22.659  24.742  1.00  0.00     0.136 A 
ATOM      9  C   UNL A   1      34.474  23.389  25.422  1.00  0.00     0.089 A 
ATOM     10  C   UNL A   1      33.565  22.503  26.138  1.00  0.00     0.165 A 
ATOM     11  N   UNL A   1      33.736  21.206  25.832  1.00  0.00    -0.184 NA
ATOM     12  S   UNL A   1      34.999  21.014  24.803  1.00  0.00    -0.028 S 
BRANCH   9  13
ATOM     13  N   UNL A   1      34.410  24.742  25.370  1.00  0.00    -0.395 N 
ATOM     14  H   UNL A   1      33.631  25.211  25.743  1.00  0.00     0.156 HD
ATOM     15  H   UNL A   1      35.145  25.253  24.959  1.00  0.00     0.156 HD
ENDBRANCH   9  13
BRANCH  10  16
ATOM     16  C   UNL A   1      32.448  22.791  27.060  1.00  0.00     0.273 C 
ATOM     17  O   UNL A   1      32.544  22.597  28.276  1.00  0.00    -0.267 OA
ATOM     18  N   UNL A   1      31.259  23.347  26.656  1.00  0.00    -0.347 N 
ATOM     19  H   UNL A   1      30.671  23.590  27.407  1.00  0.00     0.164 HD
BRANCH  18  20
ATOM     20  C   UNL A   1      30.684  23.650  25.365  1.00  0.00     0.152 C 
BRANCH  20  21
ATOM     21  C   UNL A   1      30.779  25.131  25.032  1.00  0.00    -0.025 A 
ATOM     22  C   UNL A   1      31.097  26.108  26.013  1.00  0.00     0.009 A 
ATOM     23  C   UNL A   1      30.540  25.554  23.712  1.00  0.00     0.056 A 
ATOM     24  C   UNL A   1      31.151  27.470  25.702  1.00  0.00     0.051 A 
ATOM     25  C   UNL A   1      30.607  26.906  23.433  1.00  0.00     0.166 A 
ATOM     26  C   UNL A   1      30.901  27.837  24.401  1.00  0.00     0.165 A 
ATOM     27  O   UNL A   1      30.390  27.481  22.218  1.00  0.00    -0.454 OA
ATOM     28  O   UNL A   1      30.911  29.108  23.921  1.00  0.00    -0.454 OA
ATOM     29  C   UNL A   1      30.655  28.867  22.522  1.00  0.00     0.468 C 
ENDBRANCH  20  21
ENDBRANCH  18  20
ENDBRANCH  10  16
ENDBRANCH   5   8
ENDBRANCH   3   4
ENDBRANCH   2   3
ENDBRANCH   1   2
BRANCH   1  30
ATOM     30  C   UNL A   1      40.876  20.863  27.596  1.00  0.00     0.002 C 
BRANCH  30  31
ATOM     31  C   UNL A   1      41.904  19.798  27.191  1.00  0.00     0.021 C 
BRANCH  31  32
ATOM     32  C   UNL A   1      42.082  19.596  25.693  1.00  0.00     0.116 C 
BRANCH  32  33
ATOM     33  N   UNL A   1      43.470  19.702  25.258  1.00  0.00    -0.352 N 
ATOM     34  C   UNL A   1      44.248  20.844  25.164  1.00  0.00     0.251 C 
ATOM     35  H   UNL A   1      43.908  18.859  24.999  1.00  0.00     0.163 HD
ATOM     36  O   UNL A   1      45.238  20.862  24.452  1.00  0.00    -0.269 OA
BRANCH  34  37
ATOM     37  C   UNL A   1      43.850  22.043  25.931  1.00  0.00     0.039 A 
ATOM     38  C   UNL A   1      44.331  22.258  27.225  1.00  0.00     0.014 A 
ATOM     39  C   UNL A   1      43.001  22.969  25.329  1.00  0.00     0.014 A 
ATOM     40  C   UNL A   1      44.027  23.457  27.868  1.00  0.00     0.010 A 
ATOM     41  C   UNL A   1      42.811  24.203  25.907  1.00  0.00     0.010 A 
ATOM     42  C   UNL A   1      43.290  24.443  27.192  1.00  0.00    -0.014 A 
BRANCH  42  43
ATOM     43  C   UNL A   1      43.151  25.784  27.764  1.00  0.00     0.031 A 
ATOM     44  C   UNL A   1      44.242  26.724  27.381  1.00  0.00     0.074 A 
ATOM     45  C   UNL A   1      42.031  26.222  28.381  1.00  0.00     0.049 A 
ATOM     46  N   UNL A   1      45.157  27.229  28.140  1.00  0.00    -0.248 NA
ATOM     47  C   UNL A   1      44.434  27.019  25.950  1.00  0.00     0.031 C 
ATOM     48  C   UNL A   1      40.762  25.499  28.541  1.00  0.00     0.029 A 
ATOM     49  N   UNL A   1      41.740  27.451  28.897  1.00  0.00    -0.354 N 
ATOM     50  C   UNL A   1      45.877  28.107  27.331  1.00  0.00     0.074 A 
ATOM     51  C   UNL A   1      45.536  27.771  25.974  1.00  0.00     0.031 C 
ATOM     52  C   UNL A   1      39.785  26.364  28.887  1.00  0.00     0.029 A 
ATOM     53  C   UNL A   1      40.386  27.658  29.151  1.00  0.00     0.049 A 
ATOM     54  H   UNL A   1      42.428  28.133  29.076  1.00  0.00     0.167 HD
ATOM     55  C   UNL A   1      46.457  29.224  27.855  1.00  0.00     0.037 A 
ATOM     56  C   UNL A   1      39.787  28.806  29.551  1.00  0.00     0.037 A 
ATOM     57  C   UNL A   1      46.489  29.150  29.293  1.00  0.00     0.049 A 
ATOM     58  C   UNL A   1      40.832  29.641  30.188  1.00  0.00     0.074 A 
ATOM     59  C   UNL A   1      47.135  28.380  30.237  1.00  0.00     0.029 A 
ATOM     60  N   UNL A   1      45.427  29.751  29.918  1.00  0.00    -0.354 N 
ATOM     61  N   UNL A   1      41.444  29.311  31.292  1.00  0.00    -0.248 NA
ATOM     62  C   UNL A   1      41.471  30.697  29.415  1.00  0.00     0.031 C 
ATOM     63  C   UNL A   1      46.251  28.317  31.355  1.00  0.00     0.029 A 
ATOM     64  C   UNL A   1      45.123  29.089  31.077  1.00  0.00     0.049 A 
ATOM     65  H   UNL A   1      44.951  30.545  29.581  1.00  0.00     0.167 HD
ATOM     66  C   UNL A   1      42.732  29.785  31.128  1.00  0.00     0.074 A 
ATOM     67  C   UNL A   1      42.639  30.770  30.059  1.00  0.00     0.031 C 
ATOM     68  C   UNL A   1      43.793  29.108  31.656  1.00  0.00     0.037 A 
BRANCH  55  69
ATOM     69  C   UNL A   1      46.560  30.565  27.147  1.00  0.00     0.058 A 
ATOM     70  C   UNL A   1      47.818  31.206  27.070  1.00  0.00     0.135 A 
ATOM     71  C   UNL A   1      45.451  31.378  26.822  1.00  0.00     0.135 A 
ATOM     72  F   UNL A   1      48.944  30.536  27.364  1.00  0.00    -0.206 F 
ATOM     73  C   UNL A   1      47.955  32.563  26.769  1.00  0.00     0.059 A 
ATOM     74  C   UNL A   1      45.570  32.718  26.469  1.00  0.00     0.059 A 
ATOM     75  F   UNL A   1      44.190  30.950  26.928  1.00  0.00    -0.206 F 
ATOM     76  C   UNL A   1      46.820  33.314  26.483  1.00  0.00     0.060 A 
BRANCH  76  77
ATOM     77  S   UNL A   1      46.973  35.083  26.181  1.00  0.00     0.124 S 
ATOM     78  O   UNL A   1      47.771  35.102  24.961  1.00  0.00    -0.237 OA
ATOM     79  O   UNL A   1      45.578  35.488  26.044  1.00  0.00    -0.237 OA
ATOM     80  O   UNL A   1      47.644  35.569  27.384  1.00  0.00    -0.744 OA
ENDBRANCH  76  77
ENDBRANCH  55  69
BRANCH  56  81
ATOM     81  C   UNL A   1      38.431  29.319  29.227  1.00  0.00     0.058 A 
ATOM     82  C   UNL A   1      37.510  29.640  30.239  1.00  0.00     0.135 A 
ATOM     83  C   UNL A   1      38.119  29.779  27.933  1.00  0.00     0.135 A 
ATOM     84  F   UNL A   1      37.733  29.253  31.504  1.00  0.00    -0.206 F 
ATOM     85  C   UNL A   1      36.377  30.426  29.996  1.00  0.00     0.059 A 
ATOM     86  C   UNL A   1      36.992  30.555  27.664  1.00  0.00     0.059 A 
ATOM     87  F   UNL A   1      38.955  29.567  26.904  1.00  0.00    -0.206 F 
ATOM     88  C   UNL A   1      36.141  30.900  28.707  1.00  0.00     0.060 A 
BRANCH  88  89
ATOM     89  S   UNL A   1      34.794  32.076  28.427  1.00  0.00     0.124 S 
ATOM     90  O   UNL A   1      34.400  32.413  29.789  1.00  0.00    -0.237 OA
ATOM     91  O   UNL A   1      35.460  33.133  27.673  1.00  0.00    -0.237 OA
ATOM     92  O   UNL A   1      33.819  31.295  27.669  1.00  0.00    -0.744 OA
ENDBRANCH  88  89
ENDBRANCH  56  81
BRANCH  68  93
ATOM     93  C   UNL A   1      43.528  28.190  32.816  1.00  0.00     0.058 A 
ATOM     94  C   UNL A   1      43.489  26.787  32.748  1.00  0.00     0.135 A 
ATOM     95  C   UNL A   1      43.406  28.774  34.086  1.00  0.00     0.135 A 
ATOM     96  F   UNL A   1      43.684  26.146  31.587  1.00  0.00    -0.206 F 
ATOM     97  C   UNL A   1      43.299  26.003  33.888  1.00  0.00     0.059 A 
ATOM     98  C   UNL A   1      43.249  28.013  35.239  1.00  0.00     0.059 A 
ATOM     99  F   UNL A   1      43.485  30.108  34.222  1.00  0.00    -0.206 F 
ATOM    100  C   UNL A   1      43.182  26.626  35.131  1.00  0.00     0.060 A 
BRANCH 100 101
ATOM    101  S   UNL A   1      43.011  25.612  36.615  1.00  0.00     0.124 S 
ATOM    102  O   UNL A   1      43.356  26.556  37.672  1.00  0.00    -0.237 OA
ATOM    103  O   UNL A   1      41.611  25.204  36.560  1.00  0.00    -0.237 OA
ATOM    104  O   UNL A   1      43.973  24.534  36.403  1.00  0.00    -0.744 OA
ENDBRANCH 100 101
ENDBRANCH  68  93
ENDBRANCH  42  43
ENDBRANCH  34  37
ENDBRANCH  32  33
ENDBRANCH  31  32
ENDBRANCH  30  31
ENDBRANCH   1  30
TORSDOF 20
ENDMDL
MODEL 3
REMARK VINA RESULT:     -12.3      2.535      9.459
REMARK SMILES Nc1c(C(=O)NCc2ccc3c(c2)OCO3)nsc1C(=O)NCCCCCCNC(=O)c1ccc(-c2c3nc(c(-c4c(F)cc(S(=O)(=O)[O-])cc4F)c4ccc([nH]4)c(-c4c(F)cc(S(=O)(=O)[O-])cc4F)c4nc(c(-c5c(F)cc(S(=O)(=O)[O-])cc5F)c5ccc2[nH]5)C=C4)C=C3)cc1
REMARK SMILES IDX 25 1 24 2 23 3 22 4 20 5 21 6 19 8 2 9 3 10 17 11 18 12 1 13
REMARK SMILES IDX 4 16 5 17 6 18 7 20 8 21 9 22 13 23 10 24 12 25 11 26 14 27
REMARK SMILES IDX 16 28 15 29 26 30 27 31 28 32 29 33 30 34 31 36 32 37 33 38
REMARK SMILES IDX 97 39 34 40 96 41 35 42 36 43 37 44 90 45 38 46 95 47 89 48
REMARK SMILES IDX 91 49 39 50 94 51 88 52 87 53 40 55 74 56 53 57 73 58 54 59
REMARK SMILES IDX 57 60 72 61 92 62 55 63 56 64 71 66 93 67 58 68 41 69 42 70
REMARK SMILES IDX 51 71 43 72 44 73 50 74 52 75 45 76 46 77 47 78 48 79 49 80
REMARK SMILES IDX 75 81 76 82 85 83 77 84 78 85 84 86 86 87 79 88 80 89 81 90
REMARK SMILES IDX 82 91 83 92 59 93 60 94 69 95 61 96 62 97 68 98 70 99 63 100
REMARK SMILES IDX 64 101 65 102 66 103 67 104
REMARK H PARENT 22 7 1 14 1 15 6 19 29 35 91 54 57 65
REMARK Flexibility Score: inf
ROOT
ATOM      1  C   UNL A   1      31.094  28.698  24.691  1.00  0.00     0.002 C 
ENDROOT
BRANCH   1   2
ATOM      2  C   UNL A   1      31.724  28.938  23.317  1.00  0.00     0.021 C 
BRANCH   2   3
ATOM      3  C   UNL A   1      33.150  28.438  23.124  1.00  0.00     0.116 C 
BRANCH   3   4
ATOM      4  N   UNL A   1      33.324  27.527  22.010  1.00  0.00    -0.351 N 
ATOM      5  C   UNL A   1      33.036  26.177  21.956  1.00  0.00     0.265 C 
ATOM      6  O   UNL A   1      33.271  25.602  20.891  1.00  0.00    -0.268 OA
ATOM      7  H   UNL A   1      33.696  27.920  21.188  1.00  0.00     0.163 HD
BRANCH   5   8
ATOM      8  C   UNL A   1      32.530  25.507  23.134  1.00  0.00     0.136 A 
ATOM      9  C   UNL A   1      33.100  25.066  24.321  1.00  0.00     0.089 A 
ATOM     10  C   UNL A   1      32.145  24.280  25.092  1.00  0.00     0.165 A 
ATOM     11  N   UNL A   1      30.898  24.320  24.594  1.00  0.00    -0.184 NA
ATOM     12  S   UNL A   1      30.859  25.177  23.196  1.00  0.00    -0.028 S 
BRANCH   9  13
ATOM     13  N   UNL A   1      34.369  25.377  24.681  1.00  0.00    -0.395 N 
ATOM     14  H   UNL A   1      35.075  24.694  24.630  1.00  0.00     0.156 HD
ATOM     15  H   UNL A   1      34.583  26.286  24.992  1.00  0.00     0.156 HD
ENDBRANCH   9  13
BRANCH  10  16
ATOM     16  C   UNL A   1      32.295  23.532  26.357  1.00  0.00     0.273 C 
ATOM     17  O   UNL A   1      31.566  23.752  27.330  1.00  0.00    -0.267 OA
ATOM     18  N   UNL A   1      33.196  22.511  26.529  1.00  0.00    -0.347 N 
ATOM     19  H   UNL A   1      33.083  22.036  27.384  1.00  0.00     0.164 HD
BRANCH  18  20
ATOM     20  C   UNL A   1      34.275  21.983  25.726  1.00  0.00     0.152 C 
BRANCH  20  21
ATOM     21  C   UNL A   1      33.848  20.759  24.930  1.00  0.00    -0.025 A 
ATOM     22  C   UNL A   1      32.693  20.760  24.103  1.00  0.00     0.009 A 
ATOM     23  C   UNL A   1      34.614  19.583  25.016  1.00  0.00     0.056 A 
ATOM     24  C   UNL A   1      32.292  19.620  23.400  1.00  0.00     0.051 A 
ATOM     25  C   UNL A   1      34.197  18.473  24.306  1.00  0.00     0.166 A 
ATOM     26  C   UNL A   1      33.066  18.491  23.523  1.00  0.00     0.165 A 
ATOM     27  O   UNL A   1      34.811  17.259  24.290  1.00  0.00    -0.454 OA
ATOM     28  O   UNL A   1      32.830  17.299  22.915  1.00  0.00    -0.454 OA
ATOM     29  C   UNL A   1      33.979  16.544  23.352  1.00  0.00     0.468 C 
ENDBRANCH  20  21
ENDBRANCH  18  20
ENDBRANCH  10  16
ENDBRANCH   5   8
ENDBRANCH   3   4
ENDBRANCH   2   3
ENDBRANCH   1   2
BRANCH   1  30
ATOM     30  C   UNL A   1      32.020  28.245  25.828  1.00  0.00     0.002 C 
BRANCH  30  31
ATOM     31  C   UNL A   1      32.221  29.198  27.013  1.00  0.00     0.021 C 
BRANCH  31  32
ATOM     32  C   UNL A   1      33.667  29.552  27.331  1.00  0.00     0.116 C 
BRANCH  32  33
ATOM     33  N   UNL A   1      33.984  30.954  27.088  1.00  0.00    -0.352 N 
ATOM     34  C   UNL A   1      35.048  31.686  27.589  1.00  0.00     0.251 C 
ATOM     35  H   UNL A   1      33.367  31.441  26.495  1.00  0.00     0.163 HD
ATOM     36  O   UNL A   1      35.000  32.905  27.622  1.00  0.00    -0.269 OA
BRANCH  34  37
ATOM     37  C   UNL A   1      36.234  30.965  28.095  1.00  0.00     0.039 A 
ATOM     38  C   UNL A   1      36.511  29.660  27.679  1.00  0.00     0.014 A 
ATOM     39  C   UNL A   1      37.087  31.621  28.980  1.00  0.00     0.014 A 
ATOM     40  C   UNL A   1      37.700  29.059  28.086  1.00  0.00     0.010 A 
ATOM     41  C   UNL A   1      38.318  31.081  29.273  1.00  0.00     0.010 A 
ATOM     42  C   UNL A   1      38.619  29.786  28.860  1.00  0.00    -0.014 A 
BRANCH  42  43
ATOM     43  C   UNL A   1      39.961  29.254  29.110  1.00  0.00     0.031 A 
ATOM     44  C   UNL A   1      40.287  29.084  30.554  1.00  0.00     0.074 A 
ATOM     45  C   UNL A   1      40.751  28.733  28.145  1.00  0.00     0.049 A 
ATOM     46  N   UNL A   1      41.151  29.740  31.255  1.00  0.00    -0.248 NA
ATOM     47  C   UNL A   1      39.443  28.179  31.355  1.00  0.00     0.031 C 
ATOM     48  C   UNL A   1      40.418  28.546  26.727  1.00  0.00     0.029 A 
ATOM     49  N   UNL A   1      41.980  28.149  28.241  1.00  0.00    -0.354 N 
ATOM     50  C   UNL A   1      41.139  29.150  32.518  1.00  0.00     0.074 A 
ATOM     51  C   UNL A   1      39.937  28.364  32.581  1.00  0.00     0.031 C 
ATOM     52  C   UNL A   1      41.299  27.694  26.160  1.00  0.00     0.029 A 
ATOM     53  C   UNL A   1      42.357  27.422  27.115  1.00  0.00     0.049 A 
ATOM     54  H   UNL A   1      42.552  28.235  29.039  1.00  0.00     0.167 HD
ATOM     55  C   UNL A   1      42.266  29.122  33.286  1.00  0.00     0.037 A 
ATOM     56  C   UNL A   1      43.457  26.646  26.963  1.00  0.00     0.037 A 
ATOM     57  C   UNL A   1      43.258  30.026  32.763  1.00  0.00     0.049 A 
ATOM     58  C   UNL A   1      44.454  27.109  27.956  1.00  0.00     0.074 A 
ATOM     59  C   UNL A   1      43.390  31.392  32.629  1.00  0.00     0.029 A 
ATOM     60  N   UNL A   1      44.164  29.446  31.913  1.00  0.00    -0.354 N 
ATOM     61  N   UNL A   1      45.007  28.291  27.925  1.00  0.00    -0.248 NA
ATOM     62  C   UNL A   1      44.595  26.391  29.215  1.00  0.00     0.031 C 
ATOM     63  C   UNL A   1      44.192  31.591  31.467  1.00  0.00     0.029 A 
ATOM     64  C   UNL A   1      44.561  30.345  30.960  1.00  0.00     0.049 A 
ATOM     65  H   UNL A   1      44.482  28.516  31.978  1.00  0.00     0.167 HD
ATOM     66  C   UNL A   1      45.165  28.633  29.255  1.00  0.00     0.074 A 
ATOM     67  C   UNL A   1      45.069  27.376  29.983  1.00  0.00     0.031 C 
ATOM     68  C   UNL A   1      45.045  29.932  29.656  1.00  0.00     0.037 A 
BRANCH  55  69
ATOM     69  C   UNL A   1      42.668  27.976  34.198  1.00  0.00     0.058 A 
ATOM     70  C   UNL A   1      42.754  28.205  35.591  1.00  0.00     0.135 A 
ATOM     71  C   UNL A   1      43.263  26.775  33.750  1.00  0.00     0.135 A 
ATOM     72  F   UNL A   1      42.233  29.317  36.134  1.00  0.00    -0.206 F 
ATOM     73  C   UNL A   1      43.441  27.347  36.454  1.00  0.00     0.059 A 
ATOM     74  C   UNL A   1      43.906  25.882  34.600  1.00  0.00     0.059 A 
ATOM     75  F   UNL A   1      43.343  26.453  32.455  1.00  0.00    -0.206 F 
ATOM     76  C   UNL A   1      44.026  26.193  35.943  1.00  0.00     0.060 A 
BRANCH  76  77
ATOM     77  S   UNL A   1      44.990  25.126  37.028  1.00  0.00     0.124 S 
ATOM     78  O   UNL A   1      44.622  23.804  36.538  1.00  0.00    -0.237 OA
ATOM     79  O   UNL A   1      46.355  25.560  36.744  1.00  0.00    -0.237 OA
ATOM     80  O   UNL A   1      44.495  25.470  38.358  1.00  0.00    -0.744 OA
ENDBRANCH  76  77
ENDBRANCH  55  69
BRANCH  56  81
ATOM     81  C   UNL A   1      43.625  25.399  26.174  1.00  0.00     0.058 A 
ATOM     82  C   UNL A   1      44.706  25.232  25.290  1.00  0.00     0.135 A 
ATOM     83  C   UNL A   1      42.893  24.237  26.488  1.00  0.00     0.135 A 
ATOM     84  F   UNL A   1      45.465  26.282  24.946  1.00  0.00    -0.206 F 
ATOM     85  C   UNL A   1      45.080  23.976  24.797  1.00  0.00     0.059 A 
ATOM     86  C   UNL A   1      43.241  22.977  26.001  1.00  0.00     0.059 A 
ATOM     87  F   UNL A   1      41.871  24.278  27.357  1.00  0.00    -0.206 F 
ATOM     88  C   UNL A   1      44.355  22.850  25.181  1.00  0.00     0.060 A 
BRANCH  88  89
ATOM     89  S   UNL A   1      44.951  21.208  24.709  1.00  0.00     0.124 S 
ATOM     90  O   UNL A   1      44.165  20.340  25.577  1.00  0.00    -0.237 OA
ATOM     91  O   UNL A   1      44.622  21.158  23.287  1.00  0.00    -0.237 OA
ATOM     92  O   UNL A   1      46.379  21.268  25.011  1.00  0.00    -0.744 OA
ENDBRANCH  88  89
ENDBRANCH  56  81
BRANCH  68  93
ATOM     93  C   UNL A   1      45.267  31.004  28.627  1.00  0.00     0.058 A 
ATOM     94  C   UNL A   1      44.261  31.604  27.850  1.00  0.00     0.135 A 
ATOM     95  C   UNL A   1      46.567  31.516  28.497  1.00  0.00     0.135 A 
ATOM     96  F   UNL A   1      42.979  31.234  27.975  1.00  0.00    -0.206 F 
ATOM     97  C   UNL A   1      44.544  32.641  26.959  1.00  0.00     0.059 A 
ATOM     98  C   UNL A   1      46.867  32.568  27.642  1.00  0.00     0.059 A 
ATOM     99  F   UNL A   1      47.563  31.017  29.250  1.00  0.00    -0.206 F 
ATOM    100  C   UNL A   1      45.851  33.118  26.863  1.00  0.00     0.060 A 
BRANCH 100 101
ATOM    101  S   UNL A   1      46.206  34.508  25.766  1.00  0.00     0.124 S 
ATOM    102  O   UNL A   1      47.636  34.350  25.524  1.00  0.00    -0.237 OA
ATOM    103  O   UNL A   1      45.336  34.241  24.625  1.00  0.00    -0.237 OA
ATOM    104  O   UNL A   1      45.834  35.674  26.563  1.00  0.00    -0.744 OA
ENDBRANCH 100 101
ENDBRANCH  68  93
ENDBRANCH  42  43
ENDBRANCH  34  37
ENDBRANCH  32  33
ENDBRANCH  31  32
ENDBRANCH  30  31
ENDBRANCH   1  30
TORSDOF 20
ENDMDL
