MODEL 1
REMARK VINA RESULT:     -11.5      0.000      0.000
REMARK SMILES O=C(NCCCCCCNC(=O)[C@H]1CCC(=O)N(C2CCCCC2)[C@H]1c1ccccc1)c1ccc(-c2c3nc(c(-c4c(F)cc(S(=O)(=O)[O-])cc4F)c4ccc([nH]4)c(-c4c(F)cc(S(=O)(=O)[O-])cc4F)c4nc(c(-c5c(F)cc(S(=O)(=O)[O-])cc5F)c5ccc2[nH]5)C=C4)C=C3)cc1
REMARK SMILES IDX 5 1 4 2 3 3 1 4 2 5 32 7 33 8 97 9 34 10 96 11 35 12 36 13
REMARK SMILES IDX 37 14 90 15 38 16 95 17 89 18 91 19 39 20 94 21 88 22 87 23
REMARK SMILES IDX 40 25 74 26 53 27 73 28 54 29 57 30 72 31 92 32 55 33 56 34
REMARK SMILES IDX 71 36 93 37 58 38 41 39 42 40 51 41 43 42 44 43 50 44 52 45
REMARK SMILES IDX 45 46 46 47 47 48 48 49 49 50 75 51 76 52 85 53 77 54 78 55
REMARK SMILES IDX 84 56 86 57 79 58 80 59 81 60 82 61 83 62 59 63 60 64 69 65
REMARK SMILES IDX 61 66 62 67 68 68 70 69 63 70 64 71 65 72 66 73 67 74 6 75
REMARK SMILES IDX 7 76 8 77 9 78 10 79 11 80 12 82 13 83 14 84 25 85 15 86
REMARK SMILES IDX 18 87 16 88 17 89 26 90 27 91 31 92 28 93 30 94 29 95 19 96
REMARK SMILES IDX 20 97 24 98 21 99 23 100 22 101
REMARK H PARENT 3 6 91 24 57 35 10 81
REMARK Flexibility Score: inf
ROOT
ATOM      1  C   UNL A   1      32.573  27.469  26.175  1.00  0.00     0.021 C 
ENDROOT
BRANCH   1   2
ATOM      2  C   UNL A   1      33.826  28.171  26.682  1.00  0.00     0.116 C 
BRANCH   2   3
ATOM      3  N   UNL A   1      33.559  29.535  27.106  1.00  0.00    -0.352 N 
ATOM      4  O   UNL A   1      33.900  31.433  28.270  1.00  0.00    -0.269 OA
ATOM      5  C   UNL A   1      34.350  30.378  27.846  1.00  0.00     0.251 C 
ATOM      6  H   UNL A   1      32.691  29.904  26.823  1.00  0.00     0.163 HD
BRANCH   5   7
ATOM      7  C   UNL A   1      35.744  29.983  28.143  1.00  0.00     0.039 A 
ATOM      8  C   UNL A   1      36.106  29.545  29.421  1.00  0.00     0.014 A 
ATOM      9  C   UNL A   1      36.698  30.060  27.126  1.00  0.00     0.014 A 
ATOM     10  C   UNL A   1      37.443  29.303  29.715  1.00  0.00     0.010 A 
ATOM     11  C   UNL A   1      38.028  29.739  27.405  1.00  0.00     0.010 A 
ATOM     12  C   UNL A   1      38.415  29.383  28.707  1.00  0.00    -0.014 A 
BRANCH  12  13
ATOM     13  C   UNL A   1      39.827  29.039  29.005  1.00  0.00     0.031 A 
ATOM     14  C   UNL A   1      40.764  30.062  29.580  1.00  0.00     0.074 A 
ATOM     15  C   UNL A   1      40.266  27.796  28.727  1.00  0.00     0.049 A 
ATOM     16  N   UNL A   1      42.045  29.960  29.828  1.00  0.00    -0.248 NA
ATOM     17  C   UNL A   1      40.191  31.376  29.911  1.00  0.00     0.031 C 
ATOM     18  C   UNL A   1      39.444  26.720  28.165  1.00  0.00     0.029 A 
ATOM     19  N   UNL A   1      41.506  27.228  28.866  1.00  0.00    -0.354 N 
ATOM     20  C   UNL A   1      42.438  31.199  30.321  1.00  0.00     0.074 A 
ATOM     21  C   UNL A   1      41.264  32.044  30.314  1.00  0.00     0.031 C 
ATOM     22  C   UNL A   1      40.198  25.621  28.021  1.00  0.00     0.029 A 
ATOM     23  C   UNL A   1      41.567  25.931  28.418  1.00  0.00     0.049 A 
ATOM     24  H   UNL A   1      42.277  27.704  29.251  1.00  0.00     0.167 HD
ATOM     25  C   UNL A   1      43.667  31.589  30.742  1.00  0.00     0.037 A 
ATOM     26  C   UNL A   1      42.613  25.091  28.305  1.00  0.00     0.037 A 
ATOM     27  C   UNL A   1      44.827  30.733  30.743  1.00  0.00     0.049 A 
ATOM     28  C   UNL A   1      43.971  25.555  28.742  1.00  0.00     0.074 A 
ATOM     29  C   UNL A   1      46.109  31.021  31.176  1.00  0.00     0.029 A 
ATOM     30  N   UNL A   1      44.848  29.425  30.279  1.00  0.00    -0.354 N 
ATOM     31  N   UNL A   1      44.322  26.721  29.232  1.00  0.00    -0.248 NA
ATOM     32  C   UNL A   1      45.075  24.596  28.616  1.00  0.00     0.031 C 
ATOM     33  C   UNL A   1      46.917  29.908  30.925  1.00  0.00     0.029 A 
ATOM     34  C   UNL A   1      46.127  28.901  30.394  1.00  0.00     0.049 A 
ATOM     35  H   UNL A   1      44.070  28.940  29.920  1.00  0.00     0.167 HD
ATOM     36  C   UNL A   1      45.682  26.626  29.499  1.00  0.00     0.074 A 
ATOM     37  C   UNL A   1      46.089  25.288  29.120  1.00  0.00     0.031 C 
ATOM     38  C   UNL A   1      46.516  27.562  30.019  1.00  0.00     0.037 A 
BRANCH  25  39
ATOM     39  C   UNL A   1      43.825  33.014  31.205  1.00  0.00     0.058 A 
ATOM     40  C   UNL A   1      44.174  34.048  30.321  1.00  0.00     0.135 A 
ATOM     41  C   UNL A   1      43.611  33.353  32.550  1.00  0.00     0.135 A 
ATOM     42  F   UNL A   1      44.402  33.783  29.024  1.00  0.00    -0.206 F 
ATOM     43  C   UNL A   1      44.347  35.357  30.762  1.00  0.00     0.059 A 
ATOM     44  C   UNL A   1      43.749  34.661  33.009  1.00  0.00     0.059 A 
ATOM     45  F   UNL A   1      43.270  32.407  33.440  1.00  0.00    -0.206 F 
ATOM     46  C   UNL A   1      44.140  35.651  32.111  1.00  0.00     0.060 A 
BRANCH  46  47
ATOM     47  S   UNL A   1      44.403  37.346  32.674  1.00  0.00     0.124 S 
ATOM     48  O   UNL A   1      43.979  38.110  31.505  1.00  0.00    -0.237 OA
ATOM     49  O   UNL A   1      43.524  37.429  33.837  1.00  0.00    -0.237 OA
ATOM     50  O   UNL A   1      45.832  37.389  32.968  1.00  0.00    -0.744 OA
ENDBRANCH  46  47
ENDBRANCH  25  39
BRANCH  26  51
ATOM     51  C   UNL A   1      42.395  23.731  27.748  1.00  0.00     0.058 A 
ATOM     52  C   UNL A   1      42.342  23.516  26.366  1.00  0.00     0.135 A 
ATOM     53  C   UNL A   1      42.306  22.609  28.590  1.00  0.00     0.135 A 
ATOM     54  F   UNL A   1      42.419  24.557  25.521  1.00  0.00    -0.206 F 
ATOM     55  C   UNL A   1      42.208  22.239  25.832  1.00  0.00     0.059 A 
ATOM     56  C   UNL A   1      42.198  21.319  28.080  1.00  0.00     0.059 A 
ATOM     57  F   UNL A   1      42.372  22.760  29.922  1.00  0.00    -0.206 F 
ATOM     58  C   UNL A   1      42.147  21.145  26.698  1.00  0.00     0.060 A 
BRANCH  58  59
ATOM     59  S   UNL A   1      42.056  19.486  25.992  1.00  0.00     0.124 S 
ATOM     60  O   UNL A   1      42.920  19.616  24.824  1.00  0.00    -0.237 OA
ATOM     61  O   UNL A   1      42.573  18.663  27.081  1.00  0.00    -0.237 OA
ATOM     62  O   UNL A   1      40.634  19.319  25.709  1.00  0.00    -0.744 OA
ENDBRANCH  58  59
ENDBRANCH  26  51
BRANCH  38  63
ATOM     63  C   UNL A   1      47.945  27.162  30.258  1.00  0.00     0.058 A 
ATOM     64  C   UNL A   1      48.955  27.415  29.318  1.00  0.00     0.135 A 
ATOM     65  C   UNL A   1      48.317  26.578  31.480  1.00  0.00     0.135 A 
ATOM     66  F   UNL A   1      48.652  27.961  28.130  1.00  0.00    -0.206 F 
ATOM     67  C   UNL A   1      50.284  27.093  29.576  1.00  0.00     0.059 A 
ATOM     68  C   UNL A   1      49.643  26.273  31.771  1.00  0.00     0.059 A 
ATOM     69  F   UNL A   1      47.390  26.321  32.417  1.00  0.00    -0.206 F 
ATOM     70  C   UNL A   1      50.619  26.528  30.810  1.00  0.00     0.060 A 
BRANCH  70  71
ATOM     71  S   UNL A   1      52.353  26.167  31.154  1.00  0.00     0.124 S 
ATOM     72  O   UNL A   1      52.905  26.057  29.808  1.00  0.00    -0.237 OA
ATOM     73  O   UNL A   1      52.770  27.339  31.917  1.00  0.00    -0.237 OA
ATOM     74  O   UNL A   1      52.297  24.921  31.913  1.00  0.00    -0.744 OA
ENDBRANCH  70  71
ENDBRANCH  38  63
ENDBRANCH  12  13
ENDBRANCH   5   7
ENDBRANCH   2   3
ENDBRANCH   1   2
BRANCH   1  75
ATOM     75  C   UNL A   1      31.679  28.326  25.279  1.00  0.00     0.002 C 
BRANCH  75  76
ATOM     76  C   UNL A   1      31.988  28.241  23.782  1.00  0.00     0.002 C 
BRANCH  76  77
ATOM     77  C   UNL A   1      33.195  27.372  23.409  1.00  0.00     0.021 C 
BRANCH  77  78
ATOM     78  C   UNL A   1      32.860  26.134  22.582  1.00  0.00     0.116 C 
BRANCH  78  79
ATOM     79  N   UNL A   1      31.527  25.658  22.885  1.00  0.00    -0.356 N 
ATOM     80  C   UNL A   1      31.161  24.609  23.667  1.00  0.00     0.225 C 
ATOM     81  H   UNL A   1      30.789  26.160  22.470  1.00  0.00     0.163 HD
ATOM     82  O   UNL A   1      30.142  24.009  23.327  1.00  0.00    -0.275 OA
BRANCH  80  83
ATOM     83  C   UNL A   1      32.067  24.140  24.798  1.00  0.00     0.106 C 
ATOM     84  C   UNL A   1      31.385  23.389  25.940  1.00  0.00     0.026 C 
ATOM     85  C   UNL A   1      33.265  23.266  24.337  1.00  0.00     0.128 C 
ATOM     86  C   UNL A   1      32.333  23.385  27.122  1.00  0.00     0.101 C 
ATOM     87  N   UNL A   1      34.210  23.085  25.480  1.00  0.00    -0.332 N 
ATOM     88  C   UNL A   1      33.787  23.073  26.809  1.00  0.00     0.223 C 
ATOM     89  O   UNL A   1      34.553  22.881  27.756  1.00  0.00    -0.275 OA
BRANCH  85  90
ATOM     90  C   UNL A   1      32.879  21.917  23.698  1.00  0.00    -0.025 A 
ATOM     91  C   UNL A   1      32.910  20.705  24.411  1.00  0.00     0.006 A 
ATOM     92  C   UNL A   1      32.457  21.855  22.359  1.00  0.00     0.006 A 
ATOM     93  C   UNL A   1      32.536  19.497  23.815  1.00  0.00     0.000 A 
ATOM     94  C   UNL A   1      32.031  20.658  21.776  1.00  0.00     0.000 A 
ATOM     95  C   UNL A   1      32.080  19.476  22.503  1.00  0.00     0.000 A 
ENDBRANCH  85  90
BRANCH  87  96
ATOM     96  C   UNL A   1      35.639  22.835  25.163  1.00  0.00     0.085 C 
ATOM     97  C   UNL A   1      36.556  23.869  25.844  1.00  0.00     0.025 C 
ATOM     98  C   UNL A   1      36.068  21.380  25.449  1.00  0.00     0.025 C 
ATOM     99  C   UNL A   1      38.038  23.578  25.620  1.00  0.00     0.002 C 
ATOM    100  C   UNL A   1      37.561  21.147  25.244  1.00  0.00     0.002 C 
ATOM    101  C   UNL A   1      38.393  22.153  26.025  1.00  0.00     0.000 C 
ENDBRANCH  87  96
ENDBRANCH  80  83
ENDBRANCH  78  79
ENDBRANCH  77  78
ENDBRANCH  76  77
ENDBRANCH  75  76
ENDBRANCH   1  75
TORSDOF 18
ENDMDL
MODEL 2
REMARK VINA RESULT:     -11.2      3.098      8.947
REMARK SMILES O=C(NCCCCCCNC(=O)[C@H]1CCC(=O)N(C2CCCCC2)[C@H]1c1ccccc1)c1ccc(-c2c3nc(c(-c4c(F)cc(S(=O)(=O)[O-])cc4F)c4ccc([nH]4)c(-c4c(F)cc(S(=O)(=O)[O-])cc4F)c4nc(c(-c5c(F)cc(S(=O)(=O)[O-])cc5F)c5ccc2[nH]5)C=C4)C=C3)cc1
REMARK SMILES IDX 5 1 4 2 3 3 1 4 2 5 32 7 33 8 97 9 34 10 96 11 35 12 36 13
REMARK SMILES IDX 37 14 90 15 38 16 95 17 89 18 91 19 39 20 94 21 88 22 87 23
REMARK SMILES IDX 40 25 74 26 53 27 73 28 54 29 57 30 72 31 92 32 55 33 56 34
REMARK SMILES IDX 71 36 93 37 58 38 41 39 42 40 51 41 43 42 44 43 50 44 52 45
REMARK SMILES IDX 45 46 46 47 47 48 48 49 49 50 75 51 76 52 85 53 77 54 78 55
REMARK SMILES IDX 84 56 86 57 79 58 80 59 81 60 82 61 83 62 59 63 60 64 69 65
REMARK SMILES IDX 61 66 62 67 68 68 70 69 63 70 64 71 65 72 66 73 67 74 6 75
REMARK SMILES IDX 7 76 8 77 9 78 10 79 11 80 12 82 13 83 14 84 25 85 15 86
REMARK SMILES IDX 18 87 16 88 17 89 26 90 27 91 31 92 28 93 30 94 29 95 19 96
REMARK SMILES IDX 20 97 24 98 21 99 23 100 22 101
REMARK H PARENT 3 6 91 24 57 35 10 81
REMARK Flexibility Score: inf
ROOT
ATOM      1  C   UNL A   1      38.442  19.499  24.976  1.00  0.00     0.021 C 
ENDROOT
BRANCH   1   2
ATOM      2  C   UNL A   1      39.493  20.072  25.918  1.00  0.00     0.116 C 
BRANCH   2   3
ATOM      3  N   UNL A   1      40.591  19.149  26.143  1.00  0.00    -0.352 N 
ATOM      4  O   UNL A   1      42.746  18.517  26.319  1.00  0.00    -0.269 OA
ATOM      5  C   UNL A   1      41.925  19.423  26.321  1.00  0.00     0.251 C 
ATOM      6  H   UNL A   1      40.345  18.196  26.171  1.00  0.00     0.163 HD
BRANCH   5   7
ATOM      7  C   UNL A   1      42.356  20.828  26.493  1.00  0.00     0.039 A 
ATOM      8  C   UNL A   1      42.615  21.636  25.381  1.00  0.00     0.014 A 
ATOM      9  C   UNL A   1      42.505  21.334  27.784  1.00  0.00     0.014 A 
ATOM     10  C   UNL A   1      43.142  22.910  25.561  1.00  0.00     0.010 A 
ATOM     11  C   UNL A   1      42.960  22.643  27.962  1.00  0.00     0.010 A 
ATOM     12  C   UNL A   1      43.306  23.432  26.853  1.00  0.00    -0.014 A 
BRANCH  12  13
ATOM     13  C   UNL A   1      43.787  24.822  27.038  1.00  0.00     0.031 A 
ATOM     14  C   UNL A   1      45.234  25.171  26.836  1.00  0.00     0.074 A 
ATOM     15  C   UNL A   1      42.907  25.769  27.418  1.00  0.00     0.049 A 
ATOM     16  N   UNL A   1      45.842  26.313  27.031  1.00  0.00    -0.248 NA
ATOM     17  C   UNL A   1      46.116  24.093  26.362  1.00  0.00     0.031 C 
ATOM     18  C   UNL A   1      41.477  25.544  27.646  1.00  0.00     0.029 A 
ATOM     19  N   UNL A   1      43.082  27.101  27.691  1.00  0.00    -0.354 N 
ATOM     20  C   UNL A   1      47.180  26.089  26.727  1.00  0.00     0.074 A 
ATOM     21  C   UNL A   1      47.299  24.695  26.359  1.00  0.00     0.031 C 
ATOM     22  C   UNL A   1      40.903  26.700  28.009  1.00  0.00     0.029 A 
ATOM     23  C   UNL A   1      41.932  27.730  28.103  1.00  0.00     0.049 A 
ATOM     24  H   UNL A   1      43.946  27.561  27.598  1.00  0.00     0.167 HD
ATOM     25  C   UNL A   1      48.211  26.970  26.752  1.00  0.00     0.037 A 
ATOM     26  C   UNL A   1      41.729  28.987  28.541  1.00  0.00     0.037 A 
ATOM     27  C   UNL A   1      48.074  28.357  27.121  1.00  0.00     0.049 A 
ATOM     28  C   UNL A   1      42.891  29.936  28.596  1.00  0.00     0.074 A 
ATOM     29  C   UNL A   1      49.049  29.340  27.152  1.00  0.00     0.029 A 
ATOM     30  N   UNL A   1      46.893  28.957  27.535  1.00  0.00    -0.354 N 
ATOM     31  N   UNL A   1      44.145  29.717  28.281  1.00  0.00    -0.248 NA
ATOM     32  C   UNL A   1      42.614  31.300  29.064  1.00  0.00     0.031 C 
ATOM     33  C   UNL A   1      48.469  30.517  27.633  1.00  0.00     0.029 A 
ATOM     34  C   UNL A   1      47.119  30.289  27.844  1.00  0.00     0.049 A 
ATOM     35  H   UNL A   1      46.022  28.502  27.600  1.00  0.00     0.167 HD
ATOM     36  C   UNL A   1      44.803  30.923  28.484  1.00  0.00     0.074 A 
ATOM     37  C   UNL A   1      43.807  31.869  28.947  1.00  0.00     0.031 C 
ATOM     38  C   UNL A   1      46.114  31.221  28.296  1.00  0.00     0.037 A 
BRANCH  25  39
ATOM     39  C   UNL A   1      49.581  26.450  26.404  1.00  0.00     0.058 A 
ATOM     40  C   UNL A   1      50.077  26.484  25.090  1.00  0.00     0.135 A 
ATOM     41  C   UNL A   1      50.416  25.922  27.401  1.00  0.00     0.135 A 
ATOM     42  F   UNL A   1      49.319  26.968  24.092  1.00  0.00    -0.206 F 
ATOM     43  C   UNL A   1      51.333  25.974  24.772  1.00  0.00     0.059 A 
ATOM     44  C   UNL A   1      51.688  25.434  27.112  1.00  0.00     0.059 A 
ATOM     45  F   UNL A   1      49.997  25.869  28.676  1.00  0.00    -0.206 F 
ATOM     46  C   UNL A   1      52.128  25.444  25.789  1.00  0.00     0.060 A 
BRANCH  46  47
ATOM     47  S   UNL A   1      53.738  24.754  25.355  1.00  0.00     0.124 S 
ATOM     48  O   UNL A   1      53.381  23.383  25.003  1.00  0.00    -0.237 OA
ATOM     49  O   UNL A   1      54.154  25.605  24.244  1.00  0.00    -0.237 OA
ATOM     50  O   UNL A   1      54.516  24.905  26.581  1.00  0.00    -0.744 OA
ENDBRANCH  46  47
ENDBRANCH  25  39
BRANCH  26  51
ATOM     51  C   UNL A   1      40.365  29.399  28.960  1.00  0.00     0.058 A 
ATOM     52  C   UNL A   1      40.046  29.571  30.313  1.00  0.00     0.135 A 
ATOM     53  C   UNL A   1      39.373  29.695  28.009  1.00  0.00     0.135 A 
ATOM     54  F   UNL A   1      40.959  29.298  31.258  1.00  0.00    -0.206 F 
ATOM     55  C   UNL A   1      38.793  30.023  30.714  1.00  0.00     0.059 A 
ATOM     56  C   UNL A   1      38.122  30.173  28.384  1.00  0.00     0.059 A 
ATOM     57  F   UNL A   1      39.636  29.565  26.700  1.00  0.00    -0.206 F 
ATOM     58  C   UNL A   1      37.840  30.331  29.740  1.00  0.00     0.060 A 
BRANCH  58  59
ATOM     59  S   UNL A   1      36.246  30.994  30.269  1.00  0.00     0.124 S 
ATOM     60  O   UNL A   1      35.398  30.661  29.130  1.00  0.00    -0.237 OA
ATOM     61  O   UNL A   1      35.995  30.241  31.495  1.00  0.00    -0.237 OA
ATOM     62  O   UNL A   1      36.519  32.415  30.459  1.00  0.00    -0.744 OA
ENDBRANCH  58  59
ENDBRANCH  26  51
BRANCH  38  63
ATOM     63  C   UNL A   1      46.544  32.641  28.542  1.00  0.00     0.058 A 
ATOM     64  C   UNL A   1      46.445  33.630  27.553  1.00  0.00     0.135 A 
ATOM     65  C   UNL A   1      46.999  33.028  29.814  1.00  0.00     0.135 A 
ATOM     66  F   UNL A   1      46.027  33.311  26.317  1.00  0.00    -0.206 F 
ATOM     67  C   UNL A   1      46.792  34.953  27.812  1.00  0.00     0.059 A 
ATOM     68  C   UNL A   1      47.325  34.349  30.103  1.00  0.00     0.059 A 
ATOM     69  F   UNL A   1      47.106  32.121  30.799  1.00  0.00    -0.206 F 
ATOM     70  C   UNL A   1      47.224  35.303  29.093  1.00  0.00     0.060 A 
BRANCH  70  71
ATOM     71  S   UNL A   1      47.618  37.032  29.432  1.00  0.00     0.124 S 
ATOM     72  O   UNL A   1      48.188  36.947  30.772  1.00  0.00    -0.237 OA
ATOM     73  O   UNL A   1      48.557  37.353  28.361  1.00  0.00    -0.237 OA
ATOM     74  O   UNL A   1      46.323  37.700  29.342  1.00  0.00    -0.744 OA
ENDBRANCH  70  71
ENDBRANCH  38  63
ENDBRANCH  12  13
ENDBRANCH   5   7
ENDBRANCH   2   3
ENDBRANCH   1   2
BRANCH   1  75
ATOM     75  C   UNL A   1      37.207  20.379  24.784  1.00  0.00     0.002 C 
BRANCH  75  76
ATOM     76  C   UNL A   1      35.865  19.669  24.985  1.00  0.00     0.002 C 
BRANCH  76  77
ATOM     77  C   UNL A   1      34.781  20.500  25.681  1.00  0.00     0.021 C 
BRANCH  77  78
ATOM     78  C   UNL A   1      33.354  20.190  25.236  1.00  0.00     0.116 C 
BRANCH  78  79
ATOM     79  N   UNL A   1      33.143  20.601  23.864  1.00  0.00    -0.356 N 
ATOM     80  C   UNL A   1      32.286  21.541  23.385  1.00  0.00     0.225 C 
ATOM     81  H   UNL A   1      33.691  20.139  23.190  1.00  0.00     0.163 HD
ATOM     82  O   UNL A   1      31.813  21.325  22.270  1.00  0.00    -0.275 OA
BRANCH  80  83
ATOM     83  C   UNL A   1      31.846  22.701  24.268  1.00  0.00     0.106 C 
ATOM     84  C   UNL A   1      31.798  22.426  25.769  1.00  0.00     0.026 C 
ATOM     85  C   UNL A   1      32.674  24.001  24.075  1.00  0.00     0.128 C 
ATOM     86  C   UNL A   1      30.960  23.513  26.411  1.00  0.00     0.101 C 
ATOM     87  N   UNL A   1      31.998  25.125  24.789  1.00  0.00    -0.332 N 
ATOM     88  C   UNL A   1      31.232  24.932  25.938  1.00  0.00     0.223 C 
ATOM     89  O   UNL A   1      30.706  25.858  26.559  1.00  0.00    -0.275 OA
BRANCH  85  90
ATOM     90  C   UNL A   1      34.161  23.890  24.466  1.00  0.00    -0.025 A 
ATOM     91  C   UNL A   1      34.613  24.067  25.785  1.00  0.00     0.006 A 
ATOM     92  C   UNL A   1      35.133  23.581  23.498  1.00  0.00     0.006 A 
ATOM     93  C   UNL A   1      35.964  23.941  26.119  1.00  0.00     0.000 A 
ATOM     94  C   UNL A   1      36.478  23.402  23.837  1.00  0.00     0.000 A 
ATOM     95  C   UNL A   1      36.895  23.591  25.148  1.00  0.00     0.000 A 
ENDBRANCH  85  90
BRANCH  87  96
ATOM     96  C   UNL A   1      32.227  26.503  24.284  1.00  0.00     0.085 C 
ATOM     97  C   UNL A   1      33.291  27.239  25.120  1.00  0.00     0.025 C 
ATOM     98  C   UNL A   1      32.529  26.542  22.771  1.00  0.00     0.025 C 
ATOM     99  C   UNL A   1      33.622  28.622  24.564  1.00  0.00     0.002 C 
ATOM    100  C   UNL A   1      32.887  27.936  22.269  1.00  0.00     0.002 C 
ATOM    101  C   UNL A   1      34.008  28.552  23.092  1.00  0.00     0.000 C 
ENDBRANCH  87  96
ENDBRANCH  80  83
ENDBRANCH  78  79
ENDBRANCH  77  78
ENDBRANCH  76  77
ENDBRANCH  75  76
ENDBRANCH   1  75
TORSDOF 18
ENDMDL
MODEL 3
REMARK VINA RESULT:     -11.1      2.886      9.221
REMARK SMILES O=C(NCCCCCCNC(=O)[C@H]1CCC(=O)N(C2CCCCC2)[C@H]1c1ccccc1)c1ccc(-c2c3nc(c(-c4c(F)cc(S(=O)(=O)[O-])cc4F)c4ccc([nH]4)c(-c4c(F)cc(S(=O)(=O)[O-])cc4F)c4nc(c(-c5c(F)cc(S(=O)(=O)[O-])cc5F)c5ccc2[nH]5)C=C4)C=C3)cc1
REMARK SMILES IDX 5 1 4 2 3 3 1 4 2 5 32 7 33 8 97 9 34 10 96 11 35 12 36 13
REMARK SMILES IDX 37 14 90 15 38 16 95 17 89 18 91 19 39 20 94 21 88 22 87 23
REMARK SMILES IDX 40 25 74 26 53 27 73 28 54 29 57 30 72 31 92 32 55 33 56 34
REMARK SMILES IDX 71 36 93 37 58 38 41 39 42 40 51 41 43 42 44 43 50 44 52 45
REMARK SMILES IDX 45 46 46 47 47 48 48 49 49 50 75 51 76 52 85 53 77 54 78 55
REMARK SMILES IDX 84 56 86 57 79 58 80 59 81 60 82 61 83 62 59 63 60 64 69 65
REMARK SMILES IDX 61 66 62 67 68 68 70 69 63 70 64 71 65 72 66 73 67 74 6 75
REMARK SMILES IDX 7 76 8 77 9 78 10 79 11 80 12 82 13 83 14 84 25 85 15 86
REMARK SMILES IDX 18 87 16 88 17 89 26 90 27 91 31 92 28 93 30 94 29 95 19 96
REMARK SMILES IDX 20 97 24 98 21 99 23 100 22 101
REMARK H PARENT 3 6 91 24 57 35 10 81
REMARK Flexibility Score: inf
ROOT
ATOM      1  C   UNL A   1      35.266  23.403  25.966  1.00  0.00     0.021 C 
ENDROOT
BRANCH   1   2
ATOM      2  C   UNL A   1      36.599  23.917  25.439  1.00  0.00     0.116 C 
BRANCH   2   3
ATOM      3  N   UNL A   1      37.636  22.900  25.480  1.00  0.00    -0.352 N 
ATOM      4  O   UNL A   1      39.721  22.097  25.762  1.00  0.00    -0.269 OA
ATOM      5  C   UNL A   1      38.916  22.993  25.968  1.00  0.00     0.251 C 
ATOM      6  H   UNL A   1      37.386  22.025  25.105  1.00  0.00     0.163 HD
BRANCH   5   7
ATOM      7  C   UNL A   1      39.313  24.200  26.726  1.00  0.00     0.039 A 
ATOM      8  C   UNL A   1      40.108  25.186  26.133  1.00  0.00     0.014 A 
ATOM      9  C   UNL A   1      38.885  24.338  28.047  1.00  0.00     0.014 A 
ATOM     10  C   UNL A   1      40.579  26.247  26.899  1.00  0.00     0.010 A 
ATOM     11  C   UNL A   1      39.294  25.447  28.791  1.00  0.00     0.010 A 
ATOM     12  C   UNL A   1      40.164  26.396  28.231  1.00  0.00    -0.014 A 
BRANCH  12  13
ATOM     13  C   UNL A   1      40.598  27.577  29.018  1.00  0.00     0.031 A 
ATOM     14  C   UNL A   1      41.914  27.579  29.741  1.00  0.00     0.074 A 
ATOM     15  C   UNL A   1      39.777  28.642  29.096  1.00  0.00     0.049 A 
ATOM     16  N   UNL A   1      42.416  28.488  30.537  1.00  0.00    -0.248 NA
ATOM     17  C   UNL A   1      42.777  26.402  29.553  1.00  0.00     0.031 C 
ATOM     18  C   UNL A   1      38.473  28.750  28.436  1.00  0.00     0.029 A 
ATOM     19  N   UNL A   1      39.908  29.829  29.769  1.00  0.00    -0.354 N 
ATOM     20  C   UNL A   1      43.640  27.987  30.965  1.00  0.00     0.074 A 
ATOM     21  C   UNL A   1      43.793  26.681  30.359  1.00  0.00     0.031 C 
ATOM     22  C   UNL A   1      37.932  29.942  28.725  1.00  0.00     0.029 A 
ATOM     23  C   UNL A   1      38.817  30.655  29.640  1.00  0.00     0.049 A 
ATOM     24  H   UNL A   1      40.707  30.068  30.292  1.00  0.00     0.167 HD
ATOM     25  C   UNL A   1      44.550  28.567  31.786  1.00  0.00     0.037 A 
ATOM     26  C   UNL A   1      38.540  31.838  30.217  1.00  0.00     0.037 A 
ATOM     27  C   UNL A   1      44.382  29.870  32.380  1.00  0.00     0.049 A 
ATOM     28  C   UNL A   1      39.545  32.446  31.153  1.00  0.00     0.074 A 
ATOM     29  C   UNL A   1      45.256  30.560  33.203  1.00  0.00     0.029 A 
ATOM     30  N   UNL A   1      43.261  30.674  32.227  1.00  0.00    -0.354 N 
ATOM     31  N   UNL A   1      40.710  31.972  31.527  1.00  0.00    -0.248 NA
ATOM     32  C   UNL A   1      39.204  33.746  31.742  1.00  0.00     0.031 C 
ATOM     33  C   UNL A   1      44.642  31.756  33.588  1.00  0.00     0.029 A 
ATOM     34  C   UNL A   1      43.411  31.842  32.957  1.00  0.00     0.049 A 
ATOM     35  H   UNL A   1      42.474  30.447  31.681  1.00  0.00     0.167 HD
ATOM     36  C   UNL A   1      41.254  32.929  32.375  1.00  0.00     0.074 A 
ATOM     37  C   UNL A   1      40.292  34.010  32.455  1.00  0.00     0.031 C 
ATOM     38  C   UNL A   1      42.447  32.915  33.021  1.00  0.00     0.037 A 
BRANCH  25  39
ATOM     39  C   UNL A   1      45.792  27.782  32.115  1.00  0.00     0.058 A 
ATOM     40  C   UNL A   1      46.961  27.881  31.343  1.00  0.00     0.135 A 
ATOM     41  C   UNL A   1      45.819  26.926  33.228  1.00  0.00     0.135 A 
ATOM     42  F   UNL A   1      46.992  28.674  30.260  1.00  0.00    -0.206 F 
ATOM     43  C   UNL A   1      48.095  27.129  31.637  1.00  0.00     0.059 A 
ATOM     44  C   UNL A   1      46.952  26.187  33.560  1.00  0.00     0.059 A 
ATOM     45  F   UNL A   1      44.733  26.796  34.007  1.00  0.00    -0.206 F 
ATOM     46  C   UNL A   1      48.077  26.278  32.744  1.00  0.00     0.060 A 
BRANCH  46  47
ATOM     47  S   UNL A   1      49.543  25.283  33.091  1.00  0.00     0.124 S 
ATOM     48  O   UNL A   1      50.007  24.970  31.743  1.00  0.00    -0.237 OA
ATOM     49  O   UNL A   1      50.378  26.210  33.849  1.00  0.00    -0.237 OA
ATOM     50  O   UNL A   1      49.016  24.154  33.852  1.00  0.00    -0.744 OA
ENDBRANCH  46  47
ENDBRANCH  25  39
BRANCH  26  51
ATOM     51  C   UNL A   1      37.249  32.509  29.918  1.00  0.00     0.058 A 
ATOM     52  C   UNL A   1      36.099  32.228  30.667  1.00  0.00     0.135 A 
ATOM     53  C   UNL A   1      37.158  33.494  28.920  1.00  0.00     0.135 A 
ATOM     54  F   UNL A   1      36.136  31.293  31.629  1.00  0.00    -0.206 F 
ATOM     55  C   UNL A   1      34.902  32.899  30.442  1.00  0.00     0.059 A 
ATOM     56  C   UNL A   1      35.979  34.197  28.693  1.00  0.00     0.059 A 
ATOM     57  F   UNL A   1      38.236  33.811  28.188  1.00  0.00    -0.206 F 
ATOM     58  C   UNL A   1      34.855  33.890  29.458  1.00  0.00     0.060 A 
BRANCH  58  59
ATOM     59  S   UNL A   1      33.319  34.810  29.229  1.00  0.00     0.124 S 
ATOM     60  O   UNL A   1      32.632  33.994  28.235  1.00  0.00    -0.237 OA
ATOM     61  O   UNL A   1      32.750  34.792  30.574  1.00  0.00    -0.237 OA
ATOM     62  O   UNL A   1      33.775  36.117  28.767  1.00  0.00    -0.744 OA
ENDBRANCH  58  59
ENDBRANCH  26  51
BRANCH  38  63
ATOM     63  C   UNL A   1      42.808  34.126  33.836  1.00  0.00     0.058 A 
ATOM     64  C   UNL A   1      42.587  34.184  35.220  1.00  0.00     0.135 A 
ATOM     65  C   UNL A   1      43.450  35.217  33.227  1.00  0.00     0.135 A 
ATOM     66  F   UNL A   1      41.967  33.172  35.848  1.00  0.00    -0.206 F 
ATOM     67  C   UNL A   1      42.980  35.287  35.972  1.00  0.00     0.059 A 
ATOM     68  C   UNL A   1      43.876  36.318  33.964  1.00  0.00     0.059 A 
ATOM     69  F   UNL A   1      43.692  35.210  31.907  1.00  0.00    -0.206 F 
ATOM     70  C   UNL A   1      43.631  36.346  35.335  1.00  0.00     0.060 A 
BRANCH  70  71
ATOM     71  S   UNL A   1      44.185  37.746  36.331  1.00  0.00     0.124 S 
ATOM     72  O   UNL A   1      43.268  37.683  37.465  1.00  0.00    -0.237 OA
ATOM     73  O   UNL A   1      45.573  37.394  36.618  1.00  0.00    -0.237 OA
ATOM     74  O   UNL A   1      44.006  38.889  35.442  1.00  0.00    -0.744 OA
ENDBRANCH  70  71
ENDBRANCH  38  63
ENDBRANCH  12  13
ENDBRANCH   5   7
ENDBRANCH   2   3
ENDBRANCH   1   2
BRANCH   1  75
ATOM     75  C   UNL A   1      35.171  21.882  26.086  1.00  0.00     0.002 C 
BRANCH  75  76
ATOM     76  C   UNL A   1      34.730  21.157  24.811  1.00  0.00     0.002 C 
BRANCH  76  77
ATOM     77  C   UNL A   1      33.346  21.547  24.279  1.00  0.00     0.021 C 
BRANCH  77  78
ATOM     78  C   UNL A   1      33.361  22.565  23.142  1.00  0.00     0.116 C 
BRANCH  78  79
ATOM     79  N   UNL A   1      32.014  22.955  22.783  1.00  0.00    -0.356 N 
ATOM     80  C   UNL A   1      31.404  24.155  22.968  1.00  0.00     0.225 C 
ATOM     81  H   UNL A   1      31.468  22.260  22.350  1.00  0.00     0.163 HD
ATOM     82  O   UNL A   1      30.193  24.120  23.183  1.00  0.00    -0.275 OA
BRANCH  80  83
ATOM     83  C   UNL A   1      32.229  25.433  23.048  1.00  0.00     0.106 C 
ATOM     84  C   UNL A   1      32.460  26.169  21.730  1.00  0.00     0.026 C 
ATOM     85  C   UNL A   1      31.687  26.480  24.059  1.00  0.00     0.128 C 
ATOM     86  C   UNL A   1      33.610  27.134  21.936  1.00  0.00     0.101 C 
ATOM     87  N   UNL A   1      32.702  27.562  24.238  1.00  0.00    -0.332 N 
ATOM     88  C   UNL A   1      33.584  27.937  23.225  1.00  0.00     0.223 C 
ATOM     89  O   UNL A   1      34.396  28.857  23.349  1.00  0.00    -0.275 OA
BRANCH  85  90
ATOM     90  C   UNL A   1      30.296  27.054  23.721  1.00  0.00    -0.025 A 
ATOM     91  C   UNL A   1      29.105  26.491  24.212  1.00  0.00     0.006 A 
ATOM     92  C   UNL A   1      30.172  28.195  22.909  1.00  0.00     0.006 A 
ATOM     93  C   UNL A   1      27.857  27.041  23.908  1.00  0.00     0.000 A 
ATOM     94  C   UNL A   1      28.929  28.780  22.647  1.00  0.00     0.000 A 
ATOM     95  C   UNL A   1      27.770  28.197  23.139  1.00  0.00     0.000 A 
ENDBRANCH  85  90
BRANCH  87  96
ATOM     96  C   UNL A   1      32.703  28.304  25.524  1.00  0.00     0.085 C 
ATOM     97  C   UNL A   1      34.076  28.223  26.218  1.00  0.00     0.025 C 
ATOM     98  C   UNL A   1      32.196  29.754  25.377  1.00  0.00     0.025 C 
ATOM     99  C   UNL A   1      34.140  29.060  27.493  1.00  0.00     0.002 C 
ATOM    100  C   UNL A   1      32.311  30.560  26.666  1.00  0.00     0.002 C 
ATOM    101  C   UNL A   1      33.721  30.502  27.235  1.00  0.00     0.000 C 
ENDBRANCH  87  96
ENDBRANCH  80  83
ENDBRANCH  78  79
ENDBRANCH  77  78
ENDBRANCH  76  77
ENDBRANCH  75  76
ENDBRANCH   1  75
TORSDOF 18
ENDMDL
