MODEL 1
REMARK VINA RESULT:     -12.3      0.000      0.000
REMARK SMILES CCOC(=O)c1c(NC(=O)[C@@H]2[C@@H](C(=O)NCCCCCCNC(=O)c3ccc(-c4c5nc(c(-c6c(F)cc(S(=O)(=O)[O-])cc6F)c6ccc([nH]6)c(-c6c(F)cc(S(=O)(=O)[O-])cc6F)c6nc(c(-c7c(F)cc(S(=O)(=O)[O-])cc7F)c7ccc4[nH]7)C=C6)C=C5)cc3)[C@@H]3C=C[C@H]2CC3)sc2c1CCC2
REMARK SMILES IDX 17 1 16 2 15 3 13 4 14 5 12 7 11 8 94 9 91 10 93 11 95 12
REMARK SMILES IDX 92 13 96 14 9 15 8 16 10 18 7 19 6 20 99 21 97 22 98 23
REMARK SMILES IDX 100 24 102 25 101 26 4 27 5 28 3 29 2 30 1 31 18 32 19 33
REMARK SMILES IDX 20 34 21 35 22 36 23 37 24 39 25 40 26 41 90 42 27 43 89 44
REMARK SMILES IDX 28 45 29 46 30 47 83 48 31 49 88 50 82 51 84 52 32 53 87 54
REMARK SMILES IDX 81 55 80 56 33 58 67 59 46 60 66 61 47 62 50 63 65 64 85 65
REMARK SMILES IDX 48 66 49 67 64 69 86 70 51 71 34 72 35 73 44 74 36 75 37 76
REMARK SMILES IDX 43 77 45 78 38 79 39 80 40 81 41 82 42 83 68 84 69 85 78 86
REMARK SMILES IDX 70 87 71 88 77 89 79 90 72 91 73 92 74 93 75 94 76 95 52 96
REMARK SMILES IDX 53 97 62 98 54 99 55 100 61 101 63 102 56 103 57 104 58 105
REMARK SMILES IDX 59 106 60 107
REMARK H PARENT 15 6 8 17 22 38 84 57 50 68
REMARK Flexibility Score: inf
ROOT
ATOM      1  C   UNL A   1      38.281  21.180  25.381  1.00  0.00     0.021 C 
ENDROOT
BRANCH   1   2
ATOM      2  C   UNL A   1      37.402  21.871  24.334  1.00  0.00     0.116 C 
BRANCH   2   3
ATOM      3  N   UNL A   1      36.826  23.105  24.843  1.00  0.00    -0.356 N 
ATOM      4  C   UNL A   1      35.539  23.535  24.950  1.00  0.00     0.224 C 
ATOM      5  O   UNL A   1      35.375  24.680  25.377  1.00  0.00    -0.275 OA
ATOM      6  H   UNL A   1      37.492  23.750  25.172  1.00  0.00     0.163 HD
BRANCH   4   7
ATOM      7  C   UNL A   1      34.367  22.608  24.649  1.00  0.00     0.098 C 
ATOM      8  C   UNL A   1      32.973  23.211  25.026  1.00  0.00     0.099 C 
ATOM      9  C   UNL A   1      32.182  22.177  25.887  1.00  0.00     0.025 C 
ATOM     10  C   UNL A   1      34.586  21.294  25.467  1.00  0.00     0.025 C 
ATOM     11  C   UNL A   1      32.253  20.796  25.257  1.00  0.00    -0.027 C 
ATOM     12  C   UNL A   1      32.930  22.087  27.234  1.00  0.00     0.009 C 
ATOM     13  C   UNL A   1      33.495  20.337  25.036  1.00  0.00    -0.027 C 
ATOM     14  C   UNL A   1      34.352  21.531  26.988  1.00  0.00     0.009 C 
BRANCH   8  15
ATOM     15  C   UNL A   1      32.163  23.596  23.789  1.00  0.00     0.229 C 
ATOM     16  N   UNL A   1      31.562  24.808  23.638  1.00  0.00    -0.317 N 
ATOM     17  H   UNL A   1      31.143  24.927  22.755  1.00  0.00     0.170 HD
ATOM     18  O   UNL A   1      32.101  22.835  22.817  1.00  0.00    -0.274 OA
BRANCH  16  19
ATOM     19  C   UNL A   1      31.417  25.905  24.462  1.00  0.00     0.110 A 
ATOM     20  C   UNL A   1      31.537  27.236  24.059  1.00  0.00     0.098 A 
ATOM     21  C   UNL A   1      31.527  28.088  25.195  1.00  0.00    -0.017 A 
ATOM     22  S   UNL A   1      30.972  25.782  26.102  1.00  0.00    -0.122 S 
ATOM     23  C   UNL A   1      31.313  27.390  26.348  1.00  0.00     0.011 A 
ATOM     24  C   UNL A   1      31.689  29.535  25.481  1.00  0.00     0.038 C 
ATOM     25  C   UNL A   1      31.375  28.186  27.587  1.00  0.00     0.047 C 
ATOM     26  C   UNL A   1      31.866  29.559  27.037  1.00  0.00     0.010 C 
BRANCH  20  27
ATOM     27  C   UNL A   1      31.731  27.562  22.655  1.00  0.00     0.341 C 
ATOM     28  O   UNL A   1      32.828  27.654  22.159  1.00  0.00    -0.246 OA
BRANCH  27  29
ATOM     29  O   UNL A   1      30.548  27.833  22.016  1.00  0.00    -0.462 OA
BRANCH  29  30
ATOM     30  C   UNL A   1      30.062  29.137  22.326  1.00  0.00     0.230 C 
ATOM     31  C   UNL A   1      28.575  29.212  22.593  1.00  0.00     0.049 C 
ENDBRANCH  29  30
ENDBRANCH  27  29
ENDBRANCH  20  27
ENDBRANCH  16  19
ENDBRANCH   8  15
ENDBRANCH   4   7
ENDBRANCH   2   3
ENDBRANCH   1   2
BRANCH   1  32
ATOM     32  C   UNL A   1      39.260  22.097  26.125  1.00  0.00     0.002 C 
BRANCH  32  33
ATOM     33  C   UNL A   1      40.351  21.400  26.948  1.00  0.00     0.002 C 
BRANCH  33  34
ATOM     34  C   UNL A   1      40.846  20.051  26.413  1.00  0.00     0.021 C 
BRANCH  34  35
ATOM     35  C   UNL A   1      42.172  19.573  27.003  1.00  0.00     0.116 C 
BRANCH  35  36
ATOM     36  N   UNL A   1      43.193  19.332  25.984  1.00  0.00    -0.352 N 
ATOM     37  C   UNL A   1      43.818  20.255  25.168  1.00  0.00     0.251 C 
ATOM     38  H   UNL A   1      43.469  18.394  25.866  1.00  0.00     0.163 HD
ATOM     39  O   UNL A   1      44.361  19.896  24.128  1.00  0.00    -0.269 OA
BRANCH  37  40
ATOM     40  C   UNL A   1      43.835  21.676  25.566  1.00  0.00     0.039 A 
ATOM     41  C   UNL A   1      43.024  22.628  24.941  1.00  0.00     0.014 A 
ATOM     42  C   UNL A   1      44.685  22.058  26.593  1.00  0.00     0.014 A 
ATOM     43  C   UNL A   1      42.983  23.937  25.444  1.00  0.00     0.010 A 
ATOM     44  C   UNL A   1      44.585  23.327  27.126  1.00  0.00     0.010 A 
ATOM     45  C   UNL A   1      43.741  24.286  26.574  1.00  0.00    -0.014 A 
BRANCH  45  46
ATOM     46  C   UNL A   1      43.542  25.581  27.256  1.00  0.00     0.031 A 
ATOM     47  C   UNL A   1      44.533  26.650  26.918  1.00  0.00     0.074 A 
ATOM     48  C   UNL A   1      42.447  25.949  27.966  1.00  0.00     0.049 A 
ATOM     49  N   UNL A   1      45.407  27.193  27.702  1.00  0.00    -0.248 NA
ATOM     50  C   UNL A   1      44.608  27.127  25.528  1.00  0.00     0.031 C 
ATOM     51  C   UNL A   1      41.209  25.194  28.185  1.00  0.00     0.029 A 
ATOM     52  N   UNL A   1      42.164  27.153  28.556  1.00  0.00    -0.354 N 
ATOM     53  C   UNL A   1      45.995  28.228  26.977  1.00  0.00     0.074 A 
ATOM     54  C   UNL A   1      45.581  28.039  25.608  1.00  0.00     0.031 C 
ATOM     55  C   UNL A   1      40.242  26.025  28.639  1.00  0.00     0.029 A 
ATOM     56  C   UNL A   1      40.829  27.323  28.924  1.00  0.00     0.049 A 
ATOM     57  H   UNL A   1      42.849  27.845  28.707  1.00  0.00     0.167 HD
ATOM     58  C   UNL A   1      46.599  29.284  27.592  1.00  0.00     0.037 A 
ATOM     59  C   UNL A   1      40.243  28.442  29.429  1.00  0.00     0.037 A 
ATOM     60  C   UNL A   1      46.844  29.016  28.988  1.00  0.00     0.049 A 
ATOM     61  C   UNL A   1      41.318  29.251  30.045  1.00  0.00     0.074 A 
ATOM     62  C   UNL A   1      47.504  28.028  29.695  1.00  0.00     0.029 A 
ATOM     63  N   UNL A   1      46.065  29.667  29.914  1.00  0.00    -0.354 N 
ATOM     64  N   UNL A   1      41.977  28.895  31.112  1.00  0.00    -0.248 NA
ATOM     65  C   UNL A   1      41.927  30.313  29.261  1.00  0.00     0.031 C 
ATOM     66  C   UNL A   1      46.711  27.816  30.862  1.00  0.00     0.029 A 
ATOM     67  C   UNL A   1      45.654  28.725  30.822  1.00  0.00     0.049 A 
ATOM     68  H   UNL A   1      45.844  30.626  29.924  1.00  0.00     0.167 HD
ATOM     69  C   UNL A   1      43.263  29.360  30.900  1.00  0.00     0.074 A 
ATOM     70  C   UNL A   1      43.138  30.333  29.819  1.00  0.00     0.031 C 
ATOM     71  C   UNL A   1      44.341  28.710  31.427  1.00  0.00     0.037 A 
BRANCH  58  72
ATOM     72  C   UNL A   1      46.654  30.693  27.038  1.00  0.00     0.058 A 
ATOM     73  C   UNL A   1      47.875  31.403  27.061  1.00  0.00     0.135 A 
ATOM     74  C   UNL A   1      45.506  31.470  26.765  1.00  0.00     0.135 A 
ATOM     75  F   UNL A   1      49.029  30.767  27.319  1.00  0.00    -0.206 F 
ATOM     76  C   UNL A   1      47.940  32.789  26.909  1.00  0.00     0.059 A 
ATOM     77  C   UNL A   1      45.554  32.844  26.554  1.00  0.00     0.059 A 
ATOM     78  F   UNL A   1      44.273  30.950  26.795  1.00  0.00    -0.206 F 
ATOM     79  C   UNL A   1      46.768  33.502  26.678  1.00  0.00     0.060 A 
BRANCH  79  80
ATOM     80  S   UNL A   1      46.823  35.303  26.616  1.00  0.00     0.124 S 
ATOM     81  O   UNL A   1      48.141  35.528  26.035  1.00  0.00    -0.237 OA
ATOM     82  O   UNL A   1      45.683  35.614  25.758  1.00  0.00    -0.237 OA
ATOM     83  O   UNL A   1      46.670  35.688  28.015  1.00  0.00    -0.744 OA
ENDBRANCH  79  80
ENDBRANCH  58  72
BRANCH  59  84
ATOM     84  C   UNL A   1      38.867  28.987  29.237  1.00  0.00     0.058 A 
ATOM     85  C   UNL A   1      37.993  29.216  30.313  1.00  0.00     0.135 A 
ATOM     86  C   UNL A   1      38.498  29.591  28.027  1.00  0.00     0.135 A 
ATOM     87  F   UNL A   1      38.252  28.685  31.516  1.00  0.00    -0.206 F 
ATOM     88  C   UNL A   1      36.875  30.056  30.202  1.00  0.00     0.059 A 
ATOM     89  C   UNL A   1      37.396  30.431  27.880  1.00  0.00     0.059 A 
ATOM     90  F   UNL A   1      39.266  29.445  26.952  1.00  0.00    -0.206 F 
ATOM     91  C   UNL A   1      36.603  30.685  28.986  1.00  0.00     0.060 A 
BRANCH  91  92
ATOM     92  S   UNL A   1      35.302  31.936  28.891  1.00  0.00     0.124 S 
ATOM     93  O   UNL A   1      35.035  32.200  30.301  1.00  0.00    -0.237 OA
ATOM     94  O   UNL A   1      35.959  33.010  28.154  1.00  0.00    -0.237 OA
ATOM     95  O   UNL A   1      34.230  31.256  28.169  1.00  0.00    -0.744 OA
ENDBRANCH  91  92
ENDBRANCH  59  84
BRANCH  71  96
ATOM     96  C   UNL A   1      44.111  27.730  32.547  1.00  0.00     0.058 A 
ATOM     97  C   UNL A   1      43.964  26.341  32.387  1.00  0.00     0.135 A 
ATOM     98  C   UNL A   1      44.161  28.218  33.864  1.00  0.00     0.135 A 
ATOM     99  F   UNL A   1      44.016  25.774  31.173  1.00  0.00    -0.206 F 
ATOM    100  C   UNL A   1      43.819  25.486  33.481  1.00  0.00     0.059 A 
ATOM    101  C   UNL A   1      44.051  27.382  34.969  1.00  0.00     0.059 A 
ATOM    102  F   UNL A   1      44.360  29.528  34.087  1.00  0.00    -0.206 F 
ATOM    103  C   UNL A   1      43.862  26.016  34.770  1.00  0.00     0.060 A 
BRANCH 103 104
ATOM    104  S   UNL A   1      43.738  24.901  36.186  1.00  0.00     0.124 S 
ATOM    105  O   UNL A   1      43.074  23.740  35.604  1.00  0.00    -0.237 OA
ATOM    106  O   UNL A   1      45.136  24.710  36.564  1.00  0.00    -0.237 OA
ATOM    107  O   UNL A   1      42.942  25.659  37.148  1.00  0.00    -0.744 OA
ENDBRANCH 103 104
ENDBRANCH  71  96
ENDBRANCH  45  46
ENDBRANCH  37  40
ENDBRANCH  35  36
ENDBRANCH  34  35
ENDBRANCH  33  34
ENDBRANCH  32  33
ENDBRANCH   1  32
TORSDOF 21
ENDMDL
MODEL 2
REMARK VINA RESULT:     -11.9      2.308      2.968
REMARK SMILES CCOC(=O)c1c(NC(=O)[C@@H]2[C@@H](C(=O)NCCCCCCNC(=O)c3ccc(-c4c5nc(c(-c6c(F)cc(S(=O)(=O)[O-])cc6F)c6ccc([nH]6)c(-c6c(F)cc(S(=O)(=O)[O-])cc6F)c6nc(c(-c7c(F)cc(S(=O)(=O)[O-])cc7F)c7ccc4[nH]7)C=C6)C=C5)cc3)[C@@H]3C=C[C@H]2CC3)sc2c1CCC2
REMARK SMILES IDX 17 1 16 2 15 3 13 4 14 5 12 7 11 8 94 9 91 10 93 11 95 12
REMARK SMILES IDX 92 13 96 14 9 15 8 16 10 18 7 19 6 20 99 21 97 22 98 23
REMARK SMILES IDX 100 24 102 25 101 26 4 27 5 28 3 29 2 30 1 31 18 32 19 33
REMARK SMILES IDX 20 34 21 35 22 36 23 37 24 39 25 40 26 41 90 42 27 43 89 44
REMARK SMILES IDX 28 45 29 46 30 47 83 48 31 49 88 50 82 51 84 52 32 53 87 54
REMARK SMILES IDX 81 55 80 56 33 58 67 59 46 60 66 61 47 62 50 63 65 64 85 65
REMARK SMILES IDX 48 66 49 67 64 69 86 70 51 71 34 72 35 73 44 74 36 75 37 76
REMARK SMILES IDX 43 77 45 78 38 79 39 80 40 81 41 82 42 83 68 84 69 85 78 86
REMARK SMILES IDX 70 87 71 88 77 89 79 90 72 91 73 92 74 93 75 94 76 95 52 96
REMARK SMILES IDX 53 97 62 98 54 99 55 100 61 101 63 102 56 103 57 104 58 105
REMARK SMILES IDX 59 106 60 107
REMARK H PARENT 15 6 8 17 22 38 84 57 50 68
REMARK Flexibility Score: inf
ROOT
ATOM      1  C   UNL A   1      38.372  23.114  26.082  1.00  0.00     0.021 C 
ENDROOT
BRANCH   1   2
ATOM      2  C   UNL A   1      37.025  23.542  25.493  1.00  0.00     0.116 C 
BRANCH   2   3
ATOM      3  N   UNL A   1      35.937  23.352  26.438  1.00  0.00    -0.356 N 
ATOM      4  C   UNL A   1      34.607  23.121  26.263  1.00  0.00     0.224 C 
ATOM      5  O   UNL A   1      33.919  23.064  27.286  1.00  0.00    -0.275 OA
ATOM      6  H   UNL A   1      36.214  23.398  27.380  1.00  0.00     0.163 HD
BRANCH   4   7
ATOM      7  C   UNL A   1      34.025  22.852  24.881  1.00  0.00     0.098 C 
ATOM      8  C   UNL A   1      33.002  23.936  24.405  1.00  0.00     0.099 C 
ATOM      9  C   UNL A   1      31.698  23.232  23.915  1.00  0.00     0.025 C 
ATOM     10  C   UNL A   1      33.302  21.467  24.938  1.00  0.00     0.025 C 
ATOM     11  C   UNL A   1      32.035  22.069  22.996  1.00  0.00    -0.027 C 
ATOM     12  C   UNL A   1      31.045  22.626  25.175  1.00  0.00     0.009 C 
ATOM     13  C   UNL A   1      32.866  21.155  23.522  1.00  0.00    -0.027 C 
ATOM     14  C   UNL A   1      31.986  21.551  25.767  1.00  0.00     0.009 C 
BRANCH   8  15
ATOM     15  C   UNL A   1      33.575  24.815  23.294  1.00  0.00     0.229 C 
ATOM     16  N   UNL A   1      33.718  26.164  23.409  1.00  0.00    -0.317 N 
ATOM     17  H   UNL A   1      34.171  26.574  22.637  1.00  0.00     0.170 HD
ATOM     18  O   UNL A   1      34.026  24.307  22.261  1.00  0.00    -0.274 OA
BRANCH  16  19
ATOM     19  C   UNL A   1      33.363  27.077  24.381  1.00  0.00     0.110 A 
ATOM     20  C   UNL A   1      32.259  27.928  24.322  1.00  0.00     0.098 A 
ATOM     21  C   UNL A   1      32.312  28.865  25.388  1.00  0.00    -0.017 A 
ATOM     22  S   UNL A   1      34.195  27.227  25.860  1.00  0.00    -0.122 S 
ATOM     23  C   UNL A   1      33.365  28.621  26.222  1.00  0.00     0.011 A 
ATOM     24  C   UNL A   1      31.540  30.044  25.850  1.00  0.00     0.038 C 
ATOM     25  C   UNL A   1      33.547  29.601  27.308  1.00  0.00     0.047 C 
ATOM     26  C   UNL A   1      32.490  30.679  26.921  1.00  0.00     0.010 C 
BRANCH  20  27
ATOM     27  C   UNL A   1      31.312  27.825  23.222  1.00  0.00     0.341 C 
ATOM     28  O   UNL A   1      31.646  27.949  22.068  1.00  0.00    -0.246 OA
BRANCH  27  29
ATOM     29  O   UNL A   1      30.022  27.668  23.660  1.00  0.00    -0.462 OA
BRANCH  29  30
ATOM     30  C   UNL A   1      29.717  26.303  23.935  1.00  0.00     0.230 C 
ATOM     31  C   UNL A   1      29.622  25.959  25.405  1.00  0.00     0.049 C 
ENDBRANCH  29  30
ENDBRANCH  27  29
ENDBRANCH  20  27
ENDBRANCH  16  19
ENDBRANCH   8  15
ENDBRANCH   4   7
ENDBRANCH   2   3
ENDBRANCH   1   2
BRANCH   1  32
ATOM     32  C   UNL A   1      38.789  21.667  25.786  1.00  0.00     0.002 C 
BRANCH  32  33
ATOM     33  C   UNL A   1      40.050  21.164  26.499  1.00  0.00     0.002 C 
BRANCH  33  34
ATOM     34  C   UNL A   1      40.553  22.018  27.670  1.00  0.00     0.021 C 
BRANCH  34  35
ATOM     35  C   UNL A   1      42.073  22.086  27.809  1.00  0.00     0.116 C 
BRANCH  35  36
ATOM     36  N   UNL A   1      42.760  22.121  26.518  1.00  0.00    -0.352 N 
ATOM     37  C   UNL A   1      42.873  23.182  25.639  1.00  0.00     0.251 C 
ATOM     38  H   UNL A   1      43.197  21.283  26.241  1.00  0.00     0.163 HD
ATOM     39  O   UNL A   1      43.139  22.983  24.459  1.00  0.00    -0.269 OA
BRANCH  37  40
ATOM     40  C   UNL A   1      42.679  24.557  26.140  1.00  0.00     0.039 A 
ATOM     41  C   UNL A   1      41.504  25.274  25.895  1.00  0.00     0.014 A 
ATOM     42  C   UNL A   1      43.703  25.137  26.874  1.00  0.00     0.014 A 
ATOM     43  C   UNL A   1      41.319  26.524  26.503  1.00  0.00     0.010 A 
ATOM     44  C   UNL A   1      43.484  26.333  27.525  1.00  0.00     0.010 A 
ATOM     45  C   UNL A   1      42.300  27.048  27.361  1.00  0.00    -0.014 A 
BRANCH  45  46
ATOM     46  C   UNL A   1      42.034  28.243  28.186  1.00  0.00     0.031 A 
ATOM     47  C   UNL A   1      43.035  29.349  28.067  1.00  0.00     0.074 A 
ATOM     48  C   UNL A   1      40.883  28.514  28.850  1.00  0.00     0.049 A 
ATOM     49  N   UNL A   1      43.839  29.788  28.979  1.00  0.00    -0.248 NA
ATOM     50  C   UNL A   1      43.211  30.002  26.760  1.00  0.00     0.031 C 
ATOM     51  C   UNL A   1      39.642  27.734  28.873  1.00  0.00     0.029 A 
ATOM     52  N   UNL A   1      40.541  29.631  29.566  1.00  0.00    -0.354 N 
ATOM     53  C   UNL A   1      44.469  30.909  28.442  1.00  0.00     0.074 A 
ATOM     54  C   UNL A   1      44.164  30.898  27.033  1.00  0.00     0.031 C 
ATOM     55  C   UNL A   1      38.633  28.498  29.353  1.00  0.00     0.029 A 
ATOM     56  C   UNL A   1      39.180  29.749  29.848  1.00  0.00     0.049 A 
ATOM     57  H   UNL A   1      41.203  30.299  29.858  1.00  0.00     0.167 HD
ATOM     58  C   UNL A   1      45.010  31.878  29.234  1.00  0.00     0.037 A 
ATOM     59  C   UNL A   1      38.542  30.793  30.445  1.00  0.00     0.037 A 
ATOM     60  C   UNL A   1      45.150  31.433  30.598  1.00  0.00     0.049 A 
ATOM     61  C   UNL A   1      39.557  31.518  31.242  1.00  0.00     0.074 A 
ATOM     62  C   UNL A   1      45.766  30.362  31.221  1.00  0.00     0.029 A 
ATOM     63  N   UNL A   1      44.294  31.957  31.537  1.00  0.00    -0.354 N 
ATOM     64  N   UNL A   1      40.136  31.027  32.302  1.00  0.00    -0.248 NA
ATOM     65  C   UNL A   1      40.212  32.673  30.651  1.00  0.00     0.031 C 
ATOM     66  C   UNL A   1      44.888  30.000  32.286  1.00  0.00     0.029 A 
ATOM     67  C   UNL A   1      43.827  30.905  32.281  1.00  0.00     0.049 A 
ATOM     68  H   UNL A   1      44.062  32.906  31.652  1.00  0.00     0.167 HD
ATOM     69  C   UNL A   1      41.429  31.519  32.253  1.00  0.00     0.074 A 
ATOM     70  C   UNL A   1      41.376  32.623  31.300  1.00  0.00     0.031 C 
ATOM     71  C   UNL A   1      42.471  30.808  32.775  1.00  0.00     0.037 A 
BRANCH  58  72
ATOM     72  C   UNL A   1      45.091  33.347  28.871  1.00  0.00     0.058 A 
ATOM     73  C   UNL A   1      46.322  34.029  28.997  1.00  0.00     0.135 A 
ATOM     74  C   UNL A   1      43.957  34.171  28.695  1.00  0.00     0.135 A 
ATOM     75  F   UNL A   1      47.465  33.347  29.177  1.00  0.00    -0.206 F 
ATOM     76  C   UNL A   1      46.408  35.422  29.031  1.00  0.00     0.059 A 
ATOM     77  C   UNL A   1      44.027  35.560  28.669  1.00  0.00     0.059 A 
ATOM     78  F   UNL A   1      42.716  33.670  28.647  1.00  0.00    -0.206 F 
ATOM     79  C   UNL A   1      45.249  36.177  28.887  1.00  0.00     0.060 A 
BRANCH  79  80
ATOM     80  S   UNL A   1      45.330  37.969  29.065  1.00  0.00     0.124 S 
ATOM     81  O   UNL A   1      44.010  38.262  29.609  1.00  0.00    -0.237 OA
ATOM     82  O   UNL A   1      46.453  38.135  29.983  1.00  0.00    -0.237 OA
ATOM     83  O   UNL A   1      45.571  38.428  27.700  1.00  0.00    -0.744 OA
ENDBRANCH  79  80
ENDBRANCH  58  72
BRANCH  59  84
ATOM     84  C   UNL A   1      37.179  31.355  30.218  1.00  0.00     0.058 A 
ATOM     85  C   UNL A   1      36.408  31.899  31.258  1.00  0.00     0.135 A 
ATOM     86  C   UNL A   1      36.736  31.657  28.923  1.00  0.00     0.135 A 
ATOM     87  F   UNL A   1      36.745  31.671  32.536  1.00  0.00    -0.206 F 
ATOM     88  C   UNL A   1      35.320  32.751  31.016  1.00  0.00     0.059 A 
ATOM     89  C   UNL A   1      35.661  32.499  28.645  1.00  0.00     0.059 A 
ATOM     90  F   UNL A   1      37.405  31.201  27.869  1.00  0.00    -0.206 F 
ATOM     91  C   UNL A   1      34.974  33.070  29.703  1.00  0.00     0.060 A 
BRANCH  91  92
ATOM     92  S   UNL A   1      33.722  34.334  29.384  1.00  0.00     0.124 S 
ATOM     93  O   UNL A   1      33.282  34.668  30.735  1.00  0.00    -0.237 OA
ATOM     94  O   UNL A   1      34.490  35.362  28.691  1.00  0.00    -0.237 OA
ATOM     95  O   UNL A   1      32.738  33.637  28.560  1.00  0.00    -0.744 OA
ENDBRANCH  91  92
ENDBRANCH  59  84
BRANCH  71  96
ATOM     96  C   UNL A   1      42.167  29.691  33.738  1.00  0.00     0.058 A 
ATOM     97  C   UNL A   1      41.839  28.375  33.369  1.00  0.00     0.135 A 
ATOM     98  C   UNL A   1      42.334  29.947  35.109  1.00  0.00     0.135 A 
ATOM     99  F   UNL A   1      41.767  28.013  32.080  1.00  0.00    -0.206 F 
ATOM    100  C   UNL A   1      41.634  27.375  34.322  1.00  0.00     0.059 A 
ATOM    101  C   UNL A   1      42.168  28.958  36.073  1.00  0.00     0.059 A 
ATOM    102  F   UNL A   1      42.706  31.169  35.524  1.00  0.00    -0.206 F 
ATOM    103  C   UNL A   1      41.800  27.676  35.673  1.00  0.00     0.060 A 
BRANCH 103 104
ATOM    104  S   UNL A   1      41.597  26.366  36.899  1.00  0.00     0.124 S 
ATOM    105  O   UNL A   1      41.456  25.180  36.061  1.00  0.00    -0.237 OA
ATOM    106  O   UNL A   1      42.834  26.456  37.670  1.00  0.00    -0.237 OA
ATOM    107  O   UNL A   1      40.392  26.762  37.626  1.00  0.00    -0.744 OA
ENDBRANCH 103 104
ENDBRANCH  71  96
ENDBRANCH  45  46
ENDBRANCH  37  40
ENDBRANCH  35  36
ENDBRANCH  34  35
ENDBRANCH  33  34
ENDBRANCH  32  33
ENDBRANCH   1  32
TORSDOF 21
ENDMDL
MODEL 3
REMARK VINA RESULT:     -11.6      2.882      9.357
REMARK SMILES CCOC(=O)c1c(NC(=O)[C@@H]2[C@@H](C(=O)NCCCCCCNC(=O)c3ccc(-c4c5nc(c(-c6c(F)cc(S(=O)(=O)[O-])cc6F)c6ccc([nH]6)c(-c6c(F)cc(S(=O)(=O)[O-])cc6F)c6nc(c(-c7c(F)cc(S(=O)(=O)[O-])cc7F)c7ccc4[nH]7)C=C6)C=C5)cc3)[C@@H]3C=C[C@H]2CC3)sc2c1CCC2
REMARK SMILES IDX 17 1 16 2 15 3 13 4 14 5 12 7 11 8 94 9 91 10 93 11 95 12
REMARK SMILES IDX 92 13 96 14 9 15 8 16 10 18 7 19 6 20 99 21 97 22 98 23
REMARK SMILES IDX 100 24 102 25 101 26 4 27 5 28 3 29 2 30 1 31 18 32 19 33
REMARK SMILES IDX 20 34 21 35 22 36 23 37 24 39 25 40 26 41 90 42 27 43 89 44
REMARK SMILES IDX 28 45 29 46 30 47 83 48 31 49 88 50 82 51 84 52 32 53 87 54
REMARK SMILES IDX 81 55 80 56 33 58 67 59 46 60 66 61 47 62 50 63 65 64 85 65
REMARK SMILES IDX 48 66 49 67 64 69 86 70 51 71 34 72 35 73 44 74 36 75 37 76
REMARK SMILES IDX 43 77 45 78 38 79 39 80 40 81 41 82 42 83 68 84 69 85 78 86
REMARK SMILES IDX 70 87 71 88 77 89 79 90 72 91 73 92 74 93 75 94 76 95 52 96
REMARK SMILES IDX 53 97 62 98 54 99 55 100 61 101 63 102 56 103 57 104 58 105
REMARK SMILES IDX 59 106 60 107
REMARK H PARENT 15 6 8 17 22 38 84 57 50 68
REMARK Flexibility Score: inf
ROOT
ATOM      1  C   UNL A   1      35.329  29.318  27.094  1.00  0.00     0.021 C 
ENDROOT
BRANCH   1   2
ATOM      2  C   UNL A   1      34.100  28.881  26.292  1.00  0.00     0.116 C 
BRANCH   2   3
ATOM      3  N   UNL A   1      33.121  29.950  26.179  1.00  0.00    -0.356 N 
ATOM      4  C   UNL A   1      31.870  29.988  25.644  1.00  0.00     0.224 C 
ATOM      5  O   UNL A   1      31.303  31.084  25.647  1.00  0.00    -0.275 OA
ATOM      6  H   UNL A   1      33.419  30.806  26.561  1.00  0.00     0.163 HD
BRANCH   4   7
ATOM      7  C   UNL A   1      31.176  28.721  25.160  1.00  0.00     0.098 C 
ATOM      8  C   UNL A   1      32.087  27.449  25.201  1.00  0.00     0.099 C 
ATOM      9  C   UNL A   1      32.025  26.728  23.818  1.00  0.00     0.025 C 
ATOM     10  C   UNL A   1      30.723  28.969  23.684  1.00  0.00     0.025 C 
ATOM     11  C   UNL A   1      30.585  26.602  23.348  1.00  0.00    -0.027 C 
ATOM     12  C   UNL A   1      32.735  27.667  22.820  1.00  0.00     0.009 C 
ATOM     13  C   UNL A   1      29.907  27.759  23.280  1.00  0.00    -0.027 C 
ATOM     14  C   UNL A   1      31.941  28.990  22.716  1.00  0.00     0.009 C 
BRANCH   8  15
ATOM     15  C   UNL A   1      31.676  26.487  26.315  1.00  0.00     0.229 C 
ATOM     16  N   UNL A   1      32.302  25.301  26.545  1.00  0.00    -0.317 N 
ATOM     17  H   UNL A   1      31.967  24.833  27.345  1.00  0.00     0.170 HD
ATOM     18  O   UNL A   1      30.797  26.804  27.125  1.00  0.00    -0.274 OA
BRANCH  16  19
ATOM     19  C   UNL A   1      33.308  24.616  25.895  1.00  0.00     0.110 A 
ATOM     20  C   UNL A   1      33.226  23.297  25.449  1.00  0.00     0.098 A 
ATOM     21  C   UNL A   1      34.502  22.855  25.009  1.00  0.00    -0.017 A 
ATOM     22  S   UNL A   1      34.788  25.338  25.458  1.00  0.00    -0.122 S 
ATOM     23  C   UNL A   1      35.427  23.858  25.055  1.00  0.00     0.011 A 
ATOM     24  C   UNL A   1      35.116  21.598  24.513  1.00  0.00     0.038 C 
ATOM     25  C   UNL A   1      36.802  23.463  24.698  1.00  0.00     0.047 C 
ATOM     26  C   UNL A   1      36.648  21.917  24.576  1.00  0.00     0.010 C 
BRANCH  20  27
ATOM     27  C   UNL A   1      31.977  22.561  25.560  1.00  0.00     0.341 C 
ATOM     28  O   UNL A   1      31.363  22.482  26.597  1.00  0.00    -0.246 OA
BRANCH  27  29
ATOM     29  O   UNL A   1      31.648  21.916  24.395  1.00  0.00    -0.462 OA
BRANCH  29  30
ATOM     30  C   UNL A   1      31.678  22.795  23.274  1.00  0.00     0.230 C 
ATOM     31  C   UNL A   1      32.403  22.253  22.062  1.00  0.00     0.049 C 
ENDBRANCH  29  30
ENDBRANCH  27  29
ENDBRANCH  20  27
ENDBRANCH  16  19
ENDBRANCH   8  15
ENDBRANCH   4   7
ENDBRANCH   2   3
ENDBRANCH   1   2
BRANCH   1  32
ATOM     32  C   UNL A   1      35.070  30.383  28.167  1.00  0.00     0.002 C 
BRANCH  32  33
ATOM     33  C   UNL A   1      35.499  31.815  27.821  1.00  0.00     0.002 C 
BRANCH  33  34
ATOM     34  C   UNL A   1      34.422  32.898  27.963  1.00  0.00     0.021 C 
BRANCH  34  35
ATOM     35  C   UNL A   1      34.950  34.284  28.332  1.00  0.00     0.116 C 
BRANCH  35  36
ATOM     36  N   UNL A   1      34.423  34.771  29.606  1.00  0.00    -0.352 N 
ATOM     37  C   UNL A   1      34.622  34.246  30.869  1.00  0.00     0.251 C 
ATOM     38  H   UNL A   1      33.854  35.573  29.558  1.00  0.00     0.163 HD
ATOM     39  O   UNL A   1      33.845  34.510  31.781  1.00  0.00    -0.269 OA
BRANCH  37  40
ATOM     40  C   UNL A   1      35.787  33.371  31.111  1.00  0.00     0.039 A 
ATOM     41  C   UNL A   1      35.640  32.026  31.462  1.00  0.00     0.014 A 
ATOM     42  C   UNL A   1      37.055  33.917  30.980  1.00  0.00     0.014 A 
ATOM     43  C   UNL A   1      36.776  31.208  31.553  1.00  0.00     0.010 A 
ATOM     44  C   UNL A   1      38.159  33.092  31.000  1.00  0.00     0.010 A 
ATOM     45  C   UNL A   1      38.050  31.732  31.281  1.00  0.00    -0.014 A 
BRANCH  45  46
ATOM     46  C   UNL A   1      39.226  30.849  31.145  1.00  0.00     0.031 A 
ATOM     47  C   UNL A   1      39.944  30.526  32.418  1.00  0.00     0.074 A 
ATOM     48  C   UNL A   1      39.571  30.145  30.039  1.00  0.00     0.049 A 
ATOM     49  N   UNL A   1      41.144  30.868  32.756  1.00  0.00    -0.248 NA
ATOM     50  C   UNL A   1      39.220  29.792  33.467  1.00  0.00     0.031 C 
ATOM     51  C   UNL A   1      38.859  30.052  28.761  1.00  0.00     0.029 A 
ATOM     52  N   UNL A   1      40.597  29.252  29.868  1.00  0.00    -0.354 N 
ATOM     53  C   UNL A   1      41.414  30.216  33.958  1.00  0.00     0.074 A 
ATOM     54  C   UNL A   1      40.149  29.702  34.423  1.00  0.00     0.031 C 
ATOM     55  C   UNL A   1      39.327  28.997  28.054  1.00  0.00     0.029 A 
ATOM     56  C   UNL A   1      40.492  28.453  28.730  1.00  0.00     0.049 A 
ATOM     57  H   UNL A   1      41.350  29.181  30.499  1.00  0.00     0.167 HD
ATOM     58  C   UNL A   1      42.689  29.964  34.369  1.00  0.00     0.037 A 
ATOM     59  C   UNL A   1      41.298  27.420  28.362  1.00  0.00     0.037 A 
ATOM     60  C   UNL A   1      43.651  30.730  33.616  1.00  0.00     0.049 A 
ATOM     61  C   UNL A   1      42.599  27.630  29.035  1.00  0.00     0.074 A 
ATOM     62  C   UNL A   1      43.839  32.074  33.347  1.00  0.00     0.029 A 
ATOM     63  N   UNL A   1      44.431  30.064  32.701  1.00  0.00    -0.354 N 
ATOM     64  N   UNL A   1      43.415  28.607  28.753  1.00  0.00    -0.248 NA
ATOM     65  C   UNL A   1      42.848  26.953  30.297  1.00  0.00     0.031 C 
ATOM     66  C   UNL A   1      44.296  32.120  31.996  1.00  0.00     0.029 A 
ATOM     67  C   UNL A   1      44.413  30.805  31.548  1.00  0.00     0.049 A 
ATOM     68  H   UNL A   1      44.911  29.217  32.847  1.00  0.00     0.167 HD
ATOM     69  C   UNL A   1      43.984  28.948  29.968  1.00  0.00     0.074 A 
ATOM     70  C   UNL A   1      43.702  27.818  30.847  1.00  0.00     0.031 C 
ATOM     71  C   UNL A   1      44.383  30.229  30.222  1.00  0.00     0.037 A 
BRANCH  58  72
ATOM     72  C   UNL A   1      43.110  28.770  35.202  1.00  0.00     0.058 A 
ATOM     73  C   UNL A   1      43.947  28.964  36.323  1.00  0.00     0.135 A 
ATOM     74  C   UNL A   1      42.971  27.431  34.773  1.00  0.00     0.135 A 
ATOM     75  F   UNL A   1      44.158  30.197  36.812  1.00  0.00    -0.206 F 
ATOM     76  C   UNL A   1      44.657  27.920  36.919  1.00  0.00     0.059 A 
ATOM     77  C   UNL A   1      43.624  26.368  35.388  1.00  0.00     0.059 A 
ATOM     78  F   UNL A   1      42.279  27.105  33.675  1.00  0.00    -0.206 F 
ATOM     79  C   UNL A   1      44.504  26.628  36.427  1.00  0.00     0.060 A 
BRANCH  79  80
ATOM     80  S   UNL A   1      45.517  25.297  37.100  1.00  0.00     0.124 S 
ATOM     81  O   UNL A   1      46.756  25.478  36.354  1.00  0.00    -0.237 OA
ATOM     82  O   UNL A   1      45.567  25.638  38.519  1.00  0.00    -0.237 OA
ATOM     83  O   UNL A   1      44.749  24.099  36.776  1.00  0.00    -0.744 OA
ENDBRANCH  79  80
ENDBRANCH  58  72
BRANCH  59  84
ATOM     84  C   UNL A   1      40.980  26.146  27.655  1.00  0.00     0.058 A 
ATOM     85  C   UNL A   1      41.833  25.591  26.686  1.00  0.00     0.135 A 
ATOM     86  C   UNL A   1      39.989  25.283  28.144  1.00  0.00     0.135 A 
ATOM     87  F   UNL A   1      42.816  26.331  26.152  1.00  0.00    -0.206 F 
ATOM     88  C   UNL A   1      41.748  24.246  26.296  1.00  0.00     0.059 A 
ATOM     89  C   UNL A   1      39.875  23.943  27.780  1.00  0.00     0.059 A 
ATOM     90  F   UNL A   1      39.140  25.708  29.074  1.00  0.00    -0.206 F 
ATOM     91  C   UNL A   1      40.783  23.421  26.875  1.00  0.00     0.060 A 
BRANCH  91  92
ATOM     92  S   UNL A   1      40.806  21.644  26.547  1.00  0.00     0.124 S 
ATOM     93  O   UNL A   1      40.852  21.091  27.897  1.00  0.00    -0.237 OA
ATOM     94  O   UNL A   1      39.556  21.448  25.820  1.00  0.00    -0.237 OA
ATOM     95  O   UNL A   1      42.018  21.460  25.754  1.00  0.00    -0.744 OA
ENDBRANCH  91  92
ENDBRANCH  59  84
BRANCH  71  96
ATOM     96  C   UNL A   1      44.563  31.168  29.059  1.00  0.00     0.058 A 
ATOM     97  C   UNL A   1      45.689  31.202  28.217  1.00  0.00     0.135 A 
ATOM     98  C   UNL A   1      43.483  31.996  28.713  1.00  0.00     0.135 A 
ATOM     99  F   UNL A   1      46.721  30.369  28.406  1.00  0.00    -0.206 F 
ATOM    100  C   UNL A   1      45.756  32.059  27.116  1.00  0.00     0.059 A 
ATOM    101  C   UNL A   1      43.515  32.833  27.602  1.00  0.00     0.059 A 
ATOM    102  F   UNL A   1      42.354  31.967  29.442  1.00  0.00    -0.206 F 
ATOM    103  C   UNL A   1      44.664  32.872  26.817  1.00  0.00     0.060 A 
BRANCH 103 104
ATOM    104  S   UNL A   1      44.729  33.931  25.356  1.00  0.00     0.124 S 
ATOM    105  O   UNL A   1      44.357  33.007  24.290  1.00  0.00    -0.237 OA
ATOM    106  O   UNL A   1      43.749  34.967  25.669  1.00  0.00    -0.237 OA
ATOM    107  O   UNL A   1      46.116  34.389  25.328  1.00  0.00    -0.744 OA
ENDBRANCH 103 104
ENDBRANCH  71  96
ENDBRANCH  45  46
ENDBRANCH  37  40
ENDBRANCH  35  36
ENDBRANCH  34  35
ENDBRANCH  33  34
ENDBRANCH  32  33
ENDBRANCH   1  32
TORSDOF 21
ENDMDL
