MODEL 1
REMARK VINA RESULT:     -12.5      0.000      0.000
REMARK SMILES COc1ccc2c(c1)c(CC(=O)NCCCCCCNC(=O)c1ccc(-c3c4nc(c(-c5c(F)cc(S(=O)(=O)[O-])cc5F)c5ccc([nH]5)c(-c5c(F)cc(S(=O)(=O)[O-])cc5F)c5nc(c(-c6c(F)cc(S(=O)(=O)[O-])cc6F)c6ccc3[nH]6)C=C5)C=C4)cc1)c(C)n2Cc1ccc(Br)cc1
REMARK SMILES IDX 16 1 15 2 14 3 13 4 11 5 12 6 10 8 9 9 3 10 4 11 8 12 5 13
REMARK SMILES IDX 7 14 6 15 91 16 89 17 90 18 2 19 1 20 92 21 93 22 94 23
REMARK SMILES IDX 99 24 95 25 98 26 96 27 97 28 17 29 18 30 19 31 20 32 21 33
REMARK SMILES IDX 22 35 23 36 24 37 88 38 25 39 87 40 26 41 27 42 28 43 81 44
REMARK SMILES IDX 29 45 86 46 80 47 82 48 30 49 85 50 79 51 78 52 31 54 65 55
REMARK SMILES IDX 44 56 64 57 45 58 48 59 63 60 83 61 46 62 47 63 62 65 84 66
REMARK SMILES IDX 49 67 32 68 33 69 42 70 34 71 35 72 41 73 43 74 36 75 37 76
REMARK SMILES IDX 38 77 39 78 40 79 66 80 67 81 76 82 68 83 69 84 75 85 77 86
REMARK SMILES IDX 70 87 71 88 72 89 73 90 74 91 50 92 51 93 60 94 52 95 53 96
REMARK SMILES IDX 59 97 61 98 54 99 55 100 56 101 57 102 58 103
REMARK H PARENT 13 7 20 34 82 53 48 64
REMARK Flexibility Score: inf
ROOT
ATOM      1  C   UNL A   1      32.346  27.520  25.229  1.00  0.00     0.002 C 
ENDROOT
BRANCH   1   2
ATOM      2  C   UNL A   1      31.178  27.284  26.194  1.00  0.00     0.021 C 
BRANCH   2   3
ATOM      3  C   UNL A   1      30.407  25.989  25.926  1.00  0.00     0.116 C 
BRANCH   3   4
ATOM      4  N   UNL A   1      30.835  24.924  26.816  1.00  0.00    -0.356 N 
ATOM      5  C   UNL A   1      31.299  23.674  26.518  1.00  0.00     0.224 C 
ATOM      6  O   UNL A   1      31.533  22.899  27.449  1.00  0.00    -0.275 OA
ATOM      7  H   UNL A   1      30.782  25.133  27.777  1.00  0.00     0.163 HD
BRANCH   5   8
ATOM      8  C   UNL A   1      31.601  23.280  25.079  1.00  0.00     0.138 C 
BRANCH   8   9
ATOM      9  C   UNL A   1      32.933  22.613  24.908  1.00  0.00    -0.010 A 
ATOM     10  C   UNL A   1      32.964  18.812  25.157  1.00  0.00     0.119 A 
ATOM     11  C   UNL A   1      34.304  18.645  24.822  1.00  0.00     0.048 A 
ATOM     12  C   UNL A   1      32.388  20.082  25.159  1.00  0.00     0.057 A 
ATOM     13  C   UNL A   1      35.113  19.752  24.520  1.00  0.00     0.031 A 
ATOM     14  C   UNL A   1      33.194  21.213  24.909  1.00  0.00     0.007 A 
ATOM     15  C   UNL A   1      34.545  21.038  24.591  1.00  0.00     0.049 A 
ATOM     16  N   UNL A   1      35.078  22.304  24.378  1.00  0.00    -0.340 N 
ATOM     17  C   UNL A   1      34.161  23.252  24.805  1.00  0.00     0.020 A 
ATOM     18  C   UNL A   1      34.453  24.694  25.040  1.00  0.00     0.065 C 
BRANCH  10  19
ATOM     19  O   UNL A   1      32.138  17.755  25.434  1.00  0.00    -0.497 OA
ATOM     20  C   UNL A   1      32.847  16.520  25.508  1.00  0.00     0.278 C 
ENDBRANCH  10  19
BRANCH  16  21
ATOM     21  C   UNL A   1      36.443  22.574  23.916  1.00  0.00     0.157 C 
BRANCH  21  22
ATOM     22  C   UNL A   1      37.501  22.493  25.002  1.00  0.00    -0.028 A 
ATOM     23  C   UNL A   1      38.254  21.325  25.208  1.00  0.00     0.007 A 
ATOM     24  C   UNL A   1      37.821  23.620  25.776  1.00  0.00     0.007 A 
ATOM     25  C   UNL A   1      39.289  21.275  26.146  1.00  0.00     0.016 A 
ATOM     26  C   UNL A   1      38.876  23.583  26.700  1.00  0.00     0.016 A 
ATOM     27  C   UNL A   1      39.611  22.413  26.872  1.00  0.00     0.017 A 
ATOM     28  Br  UNL A   1      41.089  22.380  28.049  1.00  0.00    -0.051 Br
ENDBRANCH  21  22
ENDBRANCH  16  21
ENDBRANCH   8   9
ENDBRANCH   5   8
ENDBRANCH   3   4
ENDBRANCH   2   3
ENDBRANCH   1   2
BRANCH   1  29
ATOM     29  C   UNL A   1      33.601  28.131  25.865  1.00  0.00     0.002 C 
BRANCH  29  30
ATOM     30  C   UNL A   1      33.351  29.010  27.097  1.00  0.00     0.021 C 
BRANCH  30  31
ATOM     31  C   UNL A   1      33.603  30.500  26.864  1.00  0.00     0.116 C 
BRANCH  31  32
ATOM     32  N   UNL A   1      33.742  31.264  28.085  1.00  0.00    -0.352 N 
ATOM     33  C   UNL A   1      34.789  31.582  28.905  1.00  0.00     0.251 C 
ATOM     34  H   UNL A   1      32.887  31.642  28.396  1.00  0.00     0.163 HD
ATOM     35  O   UNL A   1      34.539  32.394  29.801  1.00  0.00    -0.269 OA
BRANCH  33  36
ATOM     36  C   UNL A   1      36.155  30.991  28.831  1.00  0.00     0.039 A 
ATOM     37  C   UNL A   1      36.458  29.654  28.574  1.00  0.00     0.014 A 
ATOM     38  C   UNL A   1      37.218  31.872  29.117  1.00  0.00     0.014 A 
ATOM     39  C   UNL A   1      37.763  29.188  28.702  1.00  0.00     0.010 A 
ATOM     40  C   UNL A   1      38.526  31.416  29.228  1.00  0.00     0.010 A 
ATOM     41  C   UNL A   1      38.789  30.059  29.077  1.00  0.00    -0.014 A 
BRANCH  41  42
ATOM     42  C   UNL A   1      40.124  29.499  29.263  1.00  0.00     0.031 A 
ATOM     43  C   UNL A   1      40.512  29.206  30.673  1.00  0.00     0.074 A 
ATOM     44  C   UNL A   1      40.943  29.191  28.237  1.00  0.00     0.049 A 
ATOM     45  N   UNL A   1      41.456  29.747  31.372  1.00  0.00    -0.248 NA
ATOM     46  C   UNL A   1      39.671  28.271  31.434  1.00  0.00     0.031 C 
ATOM     47  C   UNL A   1      40.636  29.170  26.804  1.00  0.00     0.029 A 
ATOM     48  N   UNL A   1      42.225  28.730  28.279  1.00  0.00    -0.354 N 
ATOM     49  C   UNL A   1      41.457  29.092  32.603  1.00  0.00     0.074 A 
ATOM     50  C   UNL A   1      40.257  28.298  32.632  1.00  0.00     0.031 C 
ATOM     51  C   UNL A   1      41.611  28.502  26.149  1.00  0.00     0.029 A 
ATOM     52  C   UNL A   1      42.669  28.169  27.089  1.00  0.00     0.049 A 
ATOM     53  H   UNL A   1      42.787  28.789  29.085  1.00  0.00     0.167 HD
ATOM     54  C   UNL A   1      42.542  29.113  33.430  1.00  0.00     0.037 A 
ATOM     55  C   UNL A   1      43.787  27.421  26.909  1.00  0.00     0.037 A 
ATOM     56  C   UNL A   1      43.453  30.170  33.072  1.00  0.00     0.049 A 
ATOM     57  C   UNL A   1      44.719  27.749  28.020  1.00  0.00     0.074 A 
ATOM     58  C   UNL A   1      43.366  31.547  33.006  1.00  0.00     0.029 A 
ATOM     59  N   UNL A   1      44.594  29.837  32.383  1.00  0.00    -0.354 N 
ATOM     60  N   UNL A   1      45.287  28.916  28.172  1.00  0.00    -0.248 NA
ATOM     61  C   UNL A   1      44.662  26.927  29.221  1.00  0.00     0.031 C 
ATOM     62  C   UNL A   1      44.159  31.912  31.880  1.00  0.00     0.029 A 
ATOM     63  C   UNL A   1      44.720  30.743  31.363  1.00  0.00     0.049 A 
ATOM     64  H   UNL A   1      45.204  29.092  32.585  1.00  0.00     0.167 HD
ATOM     65  C   UNL A   1      45.268  29.147  29.540  1.00  0.00     0.074 A 
ATOM     66  C   UNL A   1      44.954  27.852  30.140  1.00  0.00     0.031 C 
ATOM     67  C   UNL A   1      45.235  30.414  30.052  1.00  0.00     0.037 A 
BRANCH  54  68
ATOM     68  C   UNL A   1      42.964  27.983  34.344  1.00  0.00     0.058 A 
ATOM     69  C   UNL A   1      43.119  28.236  35.725  1.00  0.00     0.135 A 
ATOM     70  C   UNL A   1      43.520  26.770  33.884  1.00  0.00     0.135 A 
ATOM     71  F   UNL A   1      42.608  29.347  36.281  1.00  0.00    -0.206 F 
ATOM     72  C   UNL A   1      43.877  27.412  36.557  1.00  0.00     0.059 A 
ATOM     73  C   UNL A   1      44.235  25.907  34.708  1.00  0.00     0.059 A 
ATOM     74  F   UNL A   1      43.486  26.409  32.596  1.00  0.00    -0.206 F 
ATOM     75  C   UNL A   1      44.458  26.264  36.028  1.00  0.00     0.060 A 
BRANCH  75  76
ATOM     76  S   UNL A   1      45.579  25.293  37.050  1.00  0.00     0.124 S 
ATOM     77  O   UNL A   1      45.799  24.123  36.208  1.00  0.00    -0.237 OA
ATOM     78  O   UNL A   1      46.714  26.199  37.198  1.00  0.00    -0.237 OA
ATOM     79  O   UNL A   1      44.806  25.060  38.267  1.00  0.00    -0.744 OA
ENDBRANCH  75  76
ENDBRANCH  54  68
BRANCH  55  80
ATOM     80  C   UNL A   1      43.914  26.207  26.057  1.00  0.00     0.058 A 
ATOM     81  C   UNL A   1      45.129  25.855  25.442  1.00  0.00     0.135 A 
ATOM     82  C   UNL A   1      42.904  25.222  26.031  1.00  0.00     0.135 A 
ATOM     83  F   UNL A   1      46.161  26.713  25.447  1.00  0.00    -0.206 F 
ATOM     84  C   UNL A   1      45.335  24.596  24.860  1.00  0.00     0.059 A 
ATOM     85  C   UNL A   1      43.081  23.970  25.447  1.00  0.00     0.059 A 
ATOM     86  F   UNL A   1      41.732  25.413  26.655  1.00  0.00    -0.206 F 
ATOM     87  C   UNL A   1      44.307  23.653  24.881  1.00  0.00     0.060 A 
BRANCH  87  88
ATOM     88  S   UNL A   1      44.606  21.982  24.258  1.00  0.00     0.124 S 
ATOM     89  O   UNL A   1      44.236  22.110  22.853  1.00  0.00    -0.237 OA
ATOM     90  O   UNL A   1      46.028  21.803  24.530  1.00  0.00    -0.237 OA
ATOM     91  O   UNL A   1      43.712  21.153  25.064  1.00  0.00    -0.744 OA
ENDBRANCH  87  88
ENDBRANCH  55  80
BRANCH  67  92
ATOM     92  C   UNL A   1      45.492  31.578  29.130  1.00  0.00     0.058 A 
ATOM     93  C   UNL A   1      46.774  32.048  28.796  1.00  0.00     0.135 A 
ATOM     94  C   UNL A   1      44.410  32.104  28.408  1.00  0.00     0.135 A 
ATOM     95  F   UNL A   1      47.871  31.522  29.360  1.00  0.00    -0.206 F 
ATOM     96  C   UNL A   1      46.970  33.015  27.809  1.00  0.00     0.059 A 
ATOM     97  C   UNL A   1      44.583  33.048  27.399  1.00  0.00     0.059 A 
ATOM     98  F   UNL A   1      43.166  31.650  28.634  1.00  0.00    -0.206 F 
ATOM     99  C   UNL A   1      45.867  33.504  27.108  1.00  0.00     0.060 A 
BRANCH  99 100
ATOM    100  S   UNL A   1      46.131  34.673  25.757  1.00  0.00     0.124 S 
ATOM    101  O   UNL A   1      45.147  34.229  24.770  1.00  0.00    -0.237 OA
ATOM    102  O   UNL A   1      45.846  35.959  26.395  1.00  0.00    -0.237 OA
ATOM    103  O   UNL A   1      47.522  34.466  25.388  1.00  0.00    -0.744 OA
ENDBRANCH  99 100
ENDBRANCH  67  92
ENDBRANCH  41  42
ENDBRANCH  33  36
ENDBRANCH  31  32
ENDBRANCH  30  31
ENDBRANCH  29  30
ENDBRANCH   1  29
TORSDOF 20
ENDMDL
MODEL 2
REMARK VINA RESULT:     -11.4      1.826      3.022
REMARK SMILES COc1ccc2c(c1)c(CC(=O)NCCCCCCNC(=O)c1ccc(-c3c4nc(c(-c5c(F)cc(S(=O)(=O)[O-])cc5F)c5ccc([nH]5)c(-c5c(F)cc(S(=O)(=O)[O-])cc5F)c5nc(c(-c6c(F)cc(S(=O)(=O)[O-])cc6F)c6ccc3[nH]6)C=C5)C=C4)cc1)c(C)n2Cc1ccc(Br)cc1
REMARK SMILES IDX 16 1 15 2 14 3 13 4 11 5 12 6 10 8 9 9 3 10 4 11 8 12 5 13
REMARK SMILES IDX 7 14 6 15 91 16 89 17 90 18 2 19 1 20 92 21 93 22 94 23
REMARK SMILES IDX 99 24 95 25 98 26 96 27 97 28 17 29 18 30 19 31 20 32 21 33
REMARK SMILES IDX 22 35 23 36 24 37 88 38 25 39 87 40 26 41 27 42 28 43 81 44
REMARK SMILES IDX 29 45 86 46 80 47 82 48 30 49 85 50 79 51 78 52 31 54 65 55
REMARK SMILES IDX 44 56 64 57 45 58 48 59 63 60 83 61 46 62 47 63 62 65 84 66
REMARK SMILES IDX 49 67 32 68 33 69 42 70 34 71 35 72 41 73 43 74 36 75 37 76
REMARK SMILES IDX 38 77 39 78 40 79 66 80 67 81 76 82 68 83 69 84 75 85 77 86
REMARK SMILES IDX 70 87 71 88 72 89 73 90 74 91 50 92 51 93 60 94 52 95 53 96
REMARK SMILES IDX 59 97 61 98 54 99 55 100 56 101 57 102 58 103
REMARK H PARENT 13 7 20 34 82 53 48 64
REMARK Flexibility Score: inf
ROOT
ATOM      1  C   UNL A   1      32.371  29.625  27.204  1.00  0.00     0.002 C 
ENDROOT
BRANCH   1   2
ATOM      2  C   UNL A   1      31.550  28.363  27.498  1.00  0.00     0.021 C 
BRANCH   2   3
ATOM      3  C   UNL A   1      31.103  27.611  26.241  1.00  0.00     0.116 C 
BRANCH   3   4
ATOM      4  N   UNL A   1      32.183  27.504  25.275  1.00  0.00    -0.356 N 
ATOM      5  C   UNL A   1      33.147  26.544  25.153  1.00  0.00     0.224 C 
ATOM      6  O   UNL A   1      34.021  26.699  24.295  1.00  0.00    -0.275 OA
ATOM      7  H   UNL A   1      32.227  28.230  24.612  1.00  0.00     0.163 HD
BRANCH   5   8
ATOM      8  C   UNL A   1      33.094  25.276  25.993  1.00  0.00     0.138 C 
BRANCH   8   9
ATOM      9  C   UNL A   1      33.394  24.030  25.217  1.00  0.00    -0.010 A 
ATOM     10  C   UNL A   1      36.921  22.632  25.560  1.00  0.00     0.119 A 
ATOM     11  C   UNL A   1      36.704  21.477  24.816  1.00  0.00     0.048 A 
ATOM     12  C   UNL A   1      35.876  23.522  25.807  1.00  0.00     0.057 A 
ATOM     13  C   UNL A   1      35.443  21.204  24.263  1.00  0.00     0.031 A 
ATOM     14  C   UNL A   1      34.614  23.294  25.219  1.00  0.00     0.007 A 
ATOM     15  C   UNL A   1      34.409  22.140  24.456  1.00  0.00     0.049 A 
ATOM     16  N   UNL A   1      33.087  22.168  24.026  1.00  0.00    -0.340 N 
ATOM     17  C   UNL A   1      32.559  23.422  24.288  1.00  0.00     0.020 A 
ATOM     18  C   UNL A   1      31.296  23.967  23.716  1.00  0.00     0.065 C 
BRANCH  10  19
ATOM     19  O   UNL A   1      38.131  22.921  26.135  1.00  0.00    -0.497 OA
ATOM     20  C   UNL A   1      39.040  21.825  26.060  1.00  0.00     0.278 C 
ENDBRANCH  10  19
BRANCH  16  21
ATOM     21  C   UNL A   1      32.422  21.092  23.286  1.00  0.00     0.157 C 
BRANCH  21  22
ATOM     22  C   UNL A   1      32.649  19.704  23.859  1.00  0.00    -0.028 A 
ATOM     23  C   UNL A   1      32.507  19.443  25.232  1.00  0.00     0.007 A 
ATOM     24  C   UNL A   1      32.919  18.615  23.013  1.00  0.00     0.007 A 
ATOM     25  C   UNL A   1      32.627  18.151  25.750  1.00  0.00     0.016 A 
ATOM     26  C   UNL A   1      33.013  17.313  23.525  1.00  0.00     0.016 A 
ATOM     27  C   UNL A   1      32.856  17.087  24.890  1.00  0.00     0.017 A 
ATOM     28  Br  UNL A   1      32.895  15.326  25.576  1.00  0.00    -0.051 Br
ENDBRANCH  21  22
ENDBRANCH  16  21
ENDBRANCH   8   9
ENDBRANCH   5   8
ENDBRANCH   3   4
ENDBRANCH   2   3
ENDBRANCH   1   2
BRANCH   1  29
ATOM     29  C   UNL A   1      33.848  29.549  27.611  1.00  0.00     0.002 C 
BRANCH  29  30
ATOM     30  C   UNL A   1      34.662  30.827  27.374  1.00  0.00     0.021 C 
BRANCH  30  31
ATOM     31  C   UNL A   1      33.969  32.107  27.844  1.00  0.00     0.116 C 
BRANCH  31  32
ATOM     32  N   UNL A   1      33.959  32.268  29.282  1.00  0.00    -0.352 N 
ATOM     33  C   UNL A   1      34.865  32.041  30.280  1.00  0.00     0.251 C 
ATOM     34  H   UNL A   1      33.104  32.622  29.619  1.00  0.00     0.163 HD
ATOM     35  O   UNL A   1      34.539  32.443  31.401  1.00  0.00    -0.269 OA
BRANCH  33  36
ATOM     36  C   UNL A   1      36.157  31.314  30.126  1.00  0.00     0.039 A 
ATOM     37  C   UNL A   1      36.357  29.947  30.318  1.00  0.00     0.014 A 
ATOM     38  C   UNL A   1      37.276  32.114  29.823  1.00  0.00     0.014 A 
ATOM     39  C   UNL A   1      37.642  29.412  30.315  1.00  0.00     0.010 A 
ATOM     40  C   UNL A   1      38.561  31.584  29.799  1.00  0.00     0.010 A 
ATOM     41  C   UNL A   1      38.747  30.240  30.103  1.00  0.00    -0.014 A 
BRANCH  41  42
ATOM     42  C   UNL A   1      40.075  29.636  30.180  1.00  0.00     0.031 A 
ATOM     43  C   UNL A   1      40.602  29.405  31.555  1.00  0.00     0.074 A 
ATOM     44  C   UNL A   1      40.766  29.237  29.093  1.00  0.00     0.049 A 
ATOM     45  N   UNL A   1      41.635  29.944  32.117  1.00  0.00    -0.248 NA
ATOM     46  C   UNL A   1      39.816  28.549  32.456  1.00  0.00     0.031 C 
ATOM     47  C   UNL A   1      40.304  29.150  27.705  1.00  0.00     0.029 A 
ATOM     48  N   UNL A   1      42.027  28.726  29.026  1.00  0.00    -0.354 N 
ATOM     49  C   UNL A   1      41.746  29.359  33.378  1.00  0.00     0.074 A 
ATOM     50  C   UNL A   1      40.529  28.618  33.581  1.00  0.00     0.031 C 
ATOM     51  C   UNL A   1      41.178  28.407  26.991  1.00  0.00     0.029 A 
ATOM     52  C   UNL A   1      42.319  28.083  27.830  1.00  0.00     0.049 A 
ATOM     53  H   UNL A   1      42.676  28.806  29.762  1.00  0.00     0.167 HD
ATOM     54  C   UNL A   1      42.915  29.380  34.082  1.00  0.00     0.037 A 
ATOM     55  C   UNL A   1      43.384  27.280  27.578  1.00  0.00     0.037 A 
ATOM     56  C   UNL A   1      43.819  30.377  33.567  1.00  0.00     0.049 A 
ATOM     57  C   UNL A   1      44.442  27.629  28.562  1.00  0.00     0.074 A 
ATOM     58  C   UNL A   1      43.774  31.750  33.429  1.00  0.00     0.029 A 
ATOM     59  N   UNL A   1      44.866  29.958  32.782  1.00  0.00    -0.354 N 
ATOM     60  N   UNL A   1      45.065  28.777  28.583  1.00  0.00    -0.248 NA
ATOM     61  C   UNL A   1      44.486  26.878  29.808  1.00  0.00     0.031 C 
ATOM     62  C   UNL A   1      44.453  32.018  32.205  1.00  0.00     0.029 A 
ATOM     63  C   UNL A   1      44.912  30.800  31.702  1.00  0.00     0.049 A 
ATOM     64  H   UNL A   1      45.467  29.200  32.961  1.00  0.00     0.167 HD
ATOM     65  C   UNL A   1      45.202  29.085  29.930  1.00  0.00     0.074 A 
ATOM     66  C   UNL A   1      44.909  27.840  30.635  1.00  0.00     0.031 C 
ATOM     67  C   UNL A   1      45.270  30.378  30.365  1.00  0.00     0.037 A 
BRANCH  54  68
ATOM     68  C   UNL A   1      43.392  28.285  35.011  1.00  0.00     0.058 A 
ATOM     69  C   UNL A   1      43.823  28.627  36.313  1.00  0.00     0.135 A 
ATOM     70  C   UNL A   1      43.740  26.987  34.579  1.00  0.00     0.135 A 
ATOM     71  F   UNL A   1      43.528  29.826  36.841  1.00  0.00    -0.206 F 
ATOM     72  C   UNL A   1      44.643  27.793  37.074  1.00  0.00     0.059 A 
ATOM     73  C   UNL A   1      44.514  26.119  35.343  1.00  0.00     0.059 A 
ATOM     74  F   UNL A   1      43.437  26.534  33.358  1.00  0.00    -0.206 F 
ATOM     75  C   UNL A   1      45.008  26.551  36.564  1.00  0.00     0.060 A 
BRANCH  75  76
ATOM     76  S   UNL A   1      46.205  25.548  37.460  1.00  0.00     0.124 S 
ATOM     77  O   UNL A   1      45.797  25.775  38.841  1.00  0.00    -0.237 OA
ATOM     78  O   UNL A   1      45.943  24.215  36.925  1.00  0.00    -0.237 OA
ATOM     79  O   UNL A   1      47.487  26.132  37.075  1.00  0.00    -0.744 OA
ENDBRANCH  75  76
ENDBRANCH  54  68
BRANCH  55  80
ATOM     80  C   UNL A   1      43.375  26.016  26.790  1.00  0.00     0.058 A 
ATOM     81  C   UNL A   1      44.120  25.873  25.607  1.00  0.00     0.135 A 
ATOM     82  C   UNL A   1      42.828  24.828  27.321  1.00  0.00     0.135 A 
ATOM     83  F   UNL A   1      44.709  26.941  25.047  1.00  0.00    -0.206 F 
ATOM     84  C   UNL A   1      44.330  24.625  25.002  1.00  0.00     0.059 A 
ATOM     85  C   UNL A   1      43.011  23.580  26.730  1.00  0.00     0.059 A 
ATOM     86  F   UNL A   1      42.167  24.828  28.488  1.00  0.00    -0.206 F 
ATOM     87  C   UNL A   1      43.782  23.480  25.581  1.00  0.00     0.060 A 
BRANCH  87  88
ATOM     88  S   UNL A   1      44.160  21.853  24.889  1.00  0.00     0.124 S 
ATOM     89  O   UNL A   1      45.412  21.520  25.561  1.00  0.00    -0.237 OA
ATOM     90  O   UNL A   1      42.995  21.071  25.285  1.00  0.00    -0.237 OA
ATOM     91  O   UNL A   1      44.275  22.112  23.455  1.00  0.00    -0.744 OA
ENDBRANCH  87  88
ENDBRANCH  55  80
BRANCH  67  92
ATOM     92  C   UNL A   1      45.467  31.477  29.354  1.00  0.00     0.058 A 
ATOM     93  C   UNL A   1      46.724  31.901  28.887  1.00  0.00     0.135 A 
ATOM     94  C   UNL A   1      44.337  31.979  28.690  1.00  0.00     0.135 A 
ATOM     95  F   UNL A   1      47.855  31.390  29.393  1.00  0.00    -0.206 F 
ATOM     96  C   UNL A   1      46.851  32.802  27.829  1.00  0.00     0.059 A 
ATOM     97  C   UNL A   1      44.439  32.855  27.613  1.00  0.00     0.059 A 
ATOM     98  F   UNL A   1      43.109  31.564  29.045  1.00  0.00    -0.206 F 
ATOM     99  C   UNL A   1      45.702  33.267  27.190  1.00  0.00     0.060 A 
BRANCH  99 100
ATOM    100  S   UNL A   1      45.870  34.345  25.751  1.00  0.00     0.124 S 
ATOM    101  O   UNL A   1      44.903  33.766  24.819  1.00  0.00    -0.237 OA
ATOM    102  O   UNL A   1      45.511  35.655  26.296  1.00  0.00    -0.237 OA
ATOM    103  O   UNL A   1      47.266  34.200  25.372  1.00  0.00    -0.744 OA
ENDBRANCH  99 100
ENDBRANCH  67  92
ENDBRANCH  41  42
ENDBRANCH  33  36
ENDBRANCH  31  32
ENDBRANCH  30  31
ENDBRANCH  29  30
ENDBRANCH   1  29
TORSDOF 20
ENDMDL
MODEL 3
REMARK VINA RESULT:     -11.2      3.070      5.128
REMARK SMILES COc1ccc2c(c1)c(CC(=O)NCCCCCCNC(=O)c1ccc(-c3c4nc(c(-c5c(F)cc(S(=O)(=O)[O-])cc5F)c5ccc([nH]5)c(-c5c(F)cc(S(=O)(=O)[O-])cc5F)c5nc(c(-c6c(F)cc(S(=O)(=O)[O-])cc6F)c6ccc3[nH]6)C=C5)C=C4)cc1)c(C)n2Cc1ccc(Br)cc1
REMARK SMILES IDX 16 1 15 2 14 3 13 4 11 5 12 6 10 8 9 9 3 10 4 11 8 12 5 13
REMARK SMILES IDX 7 14 6 15 91 16 89 17 90 18 2 19 1 20 92 21 93 22 94 23
REMARK SMILES IDX 99 24 95 25 98 26 96 27 97 28 17 29 18 30 19 31 20 32 21 33
REMARK SMILES IDX 22 35 23 36 24 37 88 38 25 39 87 40 26 41 27 42 28 43 81 44
REMARK SMILES IDX 29 45 86 46 80 47 82 48 30 49 85 50 79 51 78 52 31 54 65 55
REMARK SMILES IDX 44 56 64 57 45 58 48 59 63 60 83 61 46 62 47 63 62 65 84 66
REMARK SMILES IDX 49 67 32 68 33 69 42 70 34 71 35 72 41 73 43 74 36 75 37 76
REMARK SMILES IDX 38 77 39 78 40 79 66 80 67 81 76 82 68 83 69 84 75 85 77 86
REMARK SMILES IDX 70 87 71 88 72 89 73 90 74 91 50 92 51 93 60 94 52 95 53 96
REMARK SMILES IDX 59 97 61 98 54 99 55 100 56 101 57 102 58 103
REMARK H PARENT 13 7 20 34 82 53 48 64
REMARK Flexibility Score: inf
ROOT
ATOM      1  C   UNL A   1      34.190  32.130  28.379  1.00  0.00     0.002 C 
ENDROOT
BRANCH   1   2
ATOM      2  C   UNL A   1      35.488  31.364  28.092  1.00  0.00     0.021 C 
BRANCH   2   3
ATOM      3  C   UNL A   1      35.274  30.038  27.358  1.00  0.00     0.116 C 
BRANCH   3   4
ATOM      4  N   UNL A   1      34.099  29.341  27.854  1.00  0.00    -0.356 N 
ATOM      5  C   UNL A   1      33.368  28.346  27.271  1.00  0.00     0.224 C 
ATOM      6  O   UNL A   1      32.350  27.953  27.849  1.00  0.00    -0.275 OA
ATOM      7  H   UNL A   1      33.784  29.630  28.741  1.00  0.00     0.163 HD
BRANCH   5   8
ATOM      8  C   UNL A   1      33.842  27.682  25.986  1.00  0.00     0.138 C 
BRANCH   8   9
ATOM      9  C   UNL A   1      32.733  27.079  25.179  1.00  0.00    -0.010 A 
ATOM     10  C   UNL A   1      33.376  23.606  23.753  1.00  0.00     0.119 A 
ATOM     11  C   UNL A   1      32.101  23.414  23.228  1.00  0.00     0.048 A 
ATOM     12  C   UNL A   1      33.679  24.761  24.472  1.00  0.00     0.057 A 
ATOM     13  C   UNL A   1      31.109  24.396  23.375  1.00  0.00     0.031 A 
ATOM     14  C   UNL A   1      32.713  25.783  24.588  1.00  0.00     0.007 A 
ATOM     15  C   UNL A   1      31.440  25.591  24.041  1.00  0.00     0.049 A 
ATOM     16  N   UNL A   1      30.702  26.736  24.320  1.00  0.00    -0.340 N 
ATOM     17  C   UNL A   1      31.561  27.716  24.793  1.00  0.00     0.020 A 
ATOM     18  C   UNL A   1      31.238  29.165  24.913  1.00  0.00     0.065 C 
BRANCH  10  19
ATOM     19  O   UNL A   1      34.363  22.661  23.651  1.00  0.00    -0.497 OA
ATOM     20  C   UNL A   1      35.605  23.221  23.231  1.00  0.00     0.278 C 
ENDBRANCH  10  19
BRANCH  16  21
ATOM     21  C   UNL A   1      29.278  26.911  24.020  1.00  0.00     0.157 C 
BRANCH  21  22
ATOM     22  C   UNL A   1      28.965  28.108  23.139  1.00  0.00    -0.028 A 
ATOM     23  C   UNL A   1      27.732  28.776  23.218  1.00  0.00     0.007 A 
ATOM     24  C   UNL A   1      29.940  28.639  22.279  1.00  0.00     0.007 A 
ATOM     25  C   UNL A   1      27.474  29.930  22.473  1.00  0.00     0.016 A 
ATOM     26  C   UNL A   1      29.696  29.812  21.550  1.00  0.00     0.016 A 
ATOM     27  C   UNL A   1      28.466  30.457  21.660  1.00  0.00     0.017 A 
ATOM     28  Br  UNL A   1      28.159  32.084  20.750  1.00  0.00    -0.051 Br
ENDBRANCH  21  22
ENDBRANCH  16  21
ENDBRANCH   8   9
ENDBRANCH   5   8
ENDBRANCH   3   4
ENDBRANCH   2   3
ENDBRANCH   1   2
BRANCH   1  29
ATOM     29  C   UNL A   1      34.199  33.604  27.958  1.00  0.00     0.002 C 
BRANCH  29  30
ATOM     30  C   UNL A   1      33.250  34.518  28.744  1.00  0.00     0.021 C 
BRANCH  30  31
ATOM     31  C   UNL A   1      33.948  35.402  29.779  1.00  0.00     0.116 C 
BRANCH  31  32
ATOM     32  N   UNL A   1      33.698  35.005  31.147  1.00  0.00    -0.352 N 
ATOM     33  C   UNL A   1      34.333  34.188  32.041  1.00  0.00     0.251 C 
ATOM     34  H   UNL A   1      32.885  35.416  31.520  1.00  0.00     0.163 HD
ATOM     35  O   UNL A   1      33.889  34.207  33.193  1.00  0.00    -0.269 OA
BRANCH  33  36
ATOM     36  C   UNL A   1      35.455  33.261  31.720  1.00  0.00     0.039 A 
ATOM     37  C   UNL A   1      35.419  31.869  31.803  1.00  0.00     0.014 A 
ATOM     38  C   UNL A   1      36.673  33.876  31.365  1.00  0.00     0.014 A 
ATOM     39  C   UNL A   1      36.582  31.121  31.645  1.00  0.00     0.010 A 
ATOM     40  C   UNL A   1      37.834  33.133  31.187  1.00  0.00     0.010 A 
ATOM     41  C   UNL A   1      37.798  31.757  31.384  1.00  0.00    -0.014 A 
BRANCH  41  42
ATOM     42  C   UNL A   1      38.996  30.927  31.296  1.00  0.00     0.031 A 
ATOM     43  C   UNL A   1      39.730  30.711  32.577  1.00  0.00     0.074 A 
ATOM     44  C   UNL A   1      39.392  30.323  30.157  1.00  0.00     0.049 A 
ATOM     45  N   UNL A   1      40.926  31.093  32.887  1.00  0.00    -0.248 NA
ATOM     46  C   UNL A   1      38.997  30.088  33.689  1.00  0.00     0.031 C 
ATOM     47  C   UNL A   1      38.667  30.214  28.888  1.00  0.00     0.029 A 
ATOM     48  N   UNL A   1      40.514  29.585  29.930  1.00  0.00    -0.354 N 
ATOM     49  C   UNL A   1      41.175  30.598  34.167  1.00  0.00     0.074 A 
ATOM     50  C   UNL A   1      39.912  30.113  34.659  1.00  0.00     0.031 C 
ATOM     51  C   UNL A   1      39.252  29.268  28.121  1.00  0.00     0.029 A 
ATOM     52  C   UNL A   1      40.462  28.807  28.781  1.00  0.00     0.049 A 
ATOM     53  H   UNL A   1      41.295  29.601  30.529  1.00  0.00     0.167 HD
ATOM     54  C   UNL A   1      42.443  30.459  34.651  1.00  0.00     0.037 A 
ATOM     55  C   UNL A   1      41.310  27.804  28.438  1.00  0.00     0.037 A 
ATOM     56  C   UNL A   1      43.386  31.229  33.880  1.00  0.00     0.049 A 
ATOM     57  C   UNL A   1      42.579  28.028  29.180  1.00  0.00     0.074 A 
ATOM     58  C   UNL A   1      43.545  32.572  33.600  1.00  0.00     0.029 A 
ATOM     59  N   UNL A   1      44.180  30.564  32.977  1.00  0.00    -0.354 N 
ATOM     60  N   UNL A   1      43.377  29.040  28.965  1.00  0.00    -0.248 NA
ATOM     61  C   UNL A   1      42.734  27.382  30.475  1.00  0.00     0.031 C 
ATOM     62  C   UNL A   1      44.014  32.613  32.255  1.00  0.00     0.029 A 
ATOM     63  C   UNL A   1      44.160  31.296  31.818  1.00  0.00     0.049 A 
ATOM     64  H   UNL A   1      44.669  29.725  33.133  1.00  0.00     0.167 HD
ATOM     65  C   UNL A   1      43.817  29.423  30.225  1.00  0.00     0.074 A 
ATOM     66  C   UNL A   1      43.460  28.312  31.104  1.00  0.00     0.031 C 
ATOM     67  C   UNL A   1      44.181  30.711  30.495  1.00  0.00     0.037 A 
BRANCH  54  68
ATOM     68  C   UNL A   1      42.899  29.372  35.599  1.00  0.00     0.058 A 
ATOM     69  C   UNL A   1      43.725  29.715  36.694  1.00  0.00     0.135 A 
ATOM     70  C   UNL A   1      42.826  27.993  35.304  1.00  0.00     0.135 A 
ATOM     71  F   UNL A   1      43.852  30.994  37.084  1.00  0.00    -0.206 F 
ATOM     72  C   UNL A   1      44.515  28.777  37.359  1.00  0.00     0.059 A 
ATOM     73  C   UNL A   1      43.566  27.035  35.989  1.00  0.00     0.059 A 
ATOM     74  F   UNL A   1      42.116  27.518  34.275  1.00  0.00    -0.206 F 
ATOM     75  C   UNL A   1      44.450  27.441  36.976  1.00  0.00     0.060 A 
BRANCH  75  76
ATOM     76  S   UNL A   1      45.593  26.257  37.708  1.00  0.00     0.124 S 
ATOM     77  O   UNL A   1      46.407  25.890  36.556  1.00  0.00    -0.237 OA
ATOM     78  O   UNL A   1      46.252  27.066  38.729  1.00  0.00    -0.237 OA
ATOM     79  O   UNL A   1      44.710  25.211  38.218  1.00  0.00    -0.744 OA
ENDBRANCH  75  76
ENDBRANCH  54  68
BRANCH  55  80
ATOM     80  C   UNL A   1      40.941  26.506  27.810  1.00  0.00     0.058 A 
ATOM     81  C   UNL A   1      41.727  25.917  26.803  1.00  0.00     0.135 A 
ATOM     82  C   UNL A   1      39.935  25.684  28.364  1.00  0.00     0.135 A 
ATOM     83  F   UNL A   1      42.731  26.608  26.242  1.00  0.00    -0.206 F 
ATOM     84  C   UNL A   1      41.542  24.590  26.390  1.00  0.00     0.059 A 
ATOM     85  C   UNL A   1      39.724  24.368  27.960  1.00  0.00     0.059 A 
ATOM     86  F   UNL A   1      39.177  26.109  29.385  1.00  0.00    -0.206 F 
ATOM     87  C   UNL A   1      40.545  23.818  26.987  1.00  0.00     0.060 A 
BRANCH  87  88
ATOM     88  S   UNL A   1      40.389  22.067  26.562  1.00  0.00     0.124 S 
ATOM     89  O   UNL A   1      41.485  21.884  25.617  1.00  0.00    -0.237 OA
ATOM     90  O   UNL A   1      40.549  21.419  27.858  1.00  0.00    -0.237 OA
ATOM     91  O   UNL A   1      39.049  21.975  25.985  1.00  0.00    -0.744 OA
ENDBRANCH  87  88
ENDBRANCH  55  80
BRANCH  67  92
ATOM     92  C   UNL A   1      44.363  31.672  29.349  1.00  0.00     0.058 A 
ATOM     93  C   UNL A   1      45.509  31.719  28.536  1.00  0.00     0.135 A 
ATOM     94  C   UNL A   1      43.257  32.433  28.940  1.00  0.00     0.135 A 
ATOM     95  F   UNL A   1      46.571  30.943  28.795  1.00  0.00    -0.206 F 
ATOM     96  C   UNL A   1      45.563  32.506  27.385  1.00  0.00     0.059 A 
ATOM     97  C   UNL A   1      43.277  33.202  27.779  1.00  0.00     0.059 A 
ATOM     98  F   UNL A   1      42.110  32.381  29.637  1.00  0.00    -0.206 F 
ATOM     99  C   UNL A   1      44.438  33.239  27.008  1.00  0.00     0.060 A 
BRANCH  99 100
ATOM    100  S   UNL A   1      44.470  34.169  25.461  1.00  0.00     0.124 S 
ATOM    101  O   UNL A   1      43.234  34.946  25.544  1.00  0.00    -0.237 OA
ATOM    102  O   UNL A   1      45.708  34.940  25.584  1.00  0.00    -0.237 OA
ATOM    103  O   UNL A   1      44.491  33.137  24.437  1.00  0.00    -0.744 OA
ENDBRANCH  99 100
ENDBRANCH  67  92
ENDBRANCH  41  42
ENDBRANCH  33  36
ENDBRANCH  31  32
ENDBRANCH  30  31
ENDBRANCH  29  30
ENDBRANCH   1  29
TORSDOF 20
ENDMDL
