MODEL 1
REMARK VINA RESULT:     -12.7      0.000      0.000
REMARK SMILES O=C(COc1ccccc1/C=C1/SC(=O)N(c2ccc(F)cc2)C1=O)NCCCCCCNC(=O)c1ccc(-c2c3nc(c(-c4c(F)cc(S(=O)(=O)[O-])cc4F)c4ccc([nH]4)c(-c4c(F)cc(S(=O)(=O)[O-])cc4F)c4nc(c(-c5c(F)cc(S(=O)(=O)[O-])cc5F)c5ccc2[nH]5)C=C4)C=C3)cc1
REMARK SMILES IDX 29 1 28 2 27 3 26 4 1 5 2 6 3 8 4 9 5 10 6 11 10 12 7 13
REMARK SMILES IDX 9 14 8 15 11 16 12 17 13 18 24 19 14 20 16 21 25 22 15 23
REMARK SMILES IDX 17 24 18 25 23 26 19 27 22 28 20 29 21 30 30 31 31 32 32 33
REMARK SMILES IDX 33 34 34 35 35 37 36 38 37 39 101 40 38 41 100 42 39 43
REMARK SMILES IDX 40 44 41 45 94 46 42 47 99 48 93 49 95 50 43 51 98 52 92 53
REMARK SMILES IDX 91 54 44 56 78 57 57 58 77 59 58 60 61 61 76 62 96 63 59 64
REMARK SMILES IDX 60 65 75 67 97 68 62 69 45 70 46 71 55 72 47 73 48 74 54 75
REMARK SMILES IDX 56 76 49 77 50 78 51 79 52 80 53 81 79 82 80 83 89 84 81 85
REMARK SMILES IDX 82 86 88 87 90 88 83 89 84 90 85 91 86 92 87 93 63 94 64 95
REMARK SMILES IDX 73 96 65 97 66 98 72 99 74 100 67 101 68 102 69 103 70 104
REMARK SMILES IDX 71 105
REMARK H PARENT 26 7 33 36 95 55 61 66
REMARK Flexibility Score: inf
ROOT
ATOM      1  C   UNL A   1      33.307  28.771  26.048  1.00  0.00     0.002 C 
ENDROOT
BRANCH   1   2
ATOM      2  C   UNL A   1      34.015  28.318  24.757  1.00  0.00     0.021 C 
BRANCH   2   3
ATOM      3  C   UNL A   1      33.552  28.853  23.387  1.00  0.00     0.116 C 
BRANCH   3   4
ATOM      4  N   UNL A   1      32.522  28.096  22.666  1.00  0.00    -0.353 N 
ATOM      5  O   UNL A   1      33.998  26.585  21.761  1.00  0.00    -0.271 OA
ATOM      6  C   UNL A   1      32.834  26.904  22.007  1.00  0.00     0.257 C 
ATOM      7  H   UNL A   1      31.597  28.432  22.646  1.00  0.00     0.163 HD
BRANCH   6   8
ATOM      8  C   UNL A   1      31.648  25.943  21.650  1.00  0.00     0.329 C 
BRANCH   8   9
ATOM      9  O   UNL A   1      31.284  24.796  22.431  1.00  0.00    -0.483 OA
BRANCH   9  10
ATOM     10  C   UNL A   1      31.460  24.893  23.793  1.00  0.00     0.127 A 
ATOM     11  C   UNL A   1      30.676  25.802  24.502  1.00  0.00     0.047 A 
ATOM     12  C   UNL A   1      32.558  24.290  24.444  1.00  0.00     0.018 A 
ATOM     13  C   UNL A   1      30.885  25.981  25.875  1.00  0.00     0.004 A 
ATOM     14  C   UNL A   1      32.703  24.395  25.828  1.00  0.00     0.012 A 
ATOM     15  C   UNL A   1      31.859  25.238  26.546  1.00  0.00     0.001 A 
BRANCH  12  16
ATOM     16  C   UNL A   1      33.584  23.594  23.650  1.00  0.00     0.033 C 
ATOM     17  C   UNL A   1      34.030  22.433  24.154  1.00  0.00     0.084 C 
ATOM     18  S   UNL A   1      35.584  22.215  24.845  1.00  0.00    -0.022 SA
ATOM     19  C   UNL A   1      33.248  21.181  24.308  1.00  0.00     0.272 C 
ATOM     20  C   UNL A   1      35.418  20.499  24.917  1.00  0.00     0.298 C 
ATOM     21  N   UNL A   1      34.114  20.142  24.660  1.00  0.00    -0.236 N 
ATOM     22  O   UNL A   1      32.044  21.130  24.102  1.00  0.00    -0.268 OA
ATOM     23  O   UNL A   1      36.411  19.807  25.098  1.00  0.00    -0.260 OA
BRANCH  21  24
ATOM     24  C   UNL A   1      33.716  18.777  24.692  1.00  0.00     0.053 A 
ATOM     25  C   UNL A   1      34.086  17.884  23.678  1.00  0.00     0.030 A 
ATOM     26  C   UNL A   1      32.960  18.283  25.771  1.00  0.00     0.030 A 
ATOM     27  C   UNL A   1      33.708  16.542  23.739  1.00  0.00     0.041 A 
ATOM     28  C   UNL A   1      32.581  16.944  25.832  1.00  0.00     0.041 A 
ATOM     29  C   UNL A   1      32.956  16.087  24.812  1.00  0.00     0.123 A 
ATOM     30  F   UNL A   1      32.582  14.802  24.863  1.00  0.00    -0.207 F 
ENDBRANCH  21  24
ENDBRANCH  12  16
ENDBRANCH   9  10
ENDBRANCH   8   9
ENDBRANCH   6   8
ENDBRANCH   3   4
ENDBRANCH   2   3
ENDBRANCH   1   2
BRANCH   1  31
ATOM     31  C   UNL A   1      34.173  29.265  27.219  1.00  0.00     0.002 C 
BRANCH  31  32
ATOM     32  C   UNL A   1      34.470  30.757  27.309  1.00  0.00     0.021 C 
BRANCH  32  33
ATOM     33  C   UNL A   1      35.563  31.171  28.287  1.00  0.00     0.116 C 
BRANCH  33  34
ATOM     34  N   UNL A   1      35.411  30.653  29.643  1.00  0.00    -0.352 N 
ATOM     35  C   UNL A   1      36.394  30.161  30.481  1.00  0.00     0.251 C 
ATOM     36  H   UNL A   1      34.496  30.652  30.005  1.00  0.00     0.163 HD
ATOM     37  O   UNL A   1      36.107  29.712  31.586  1.00  0.00    -0.269 OA
BRANCH  35  38
ATOM     38  C   UNL A   1      37.800  30.132  30.008  1.00  0.00     0.039 A 
ATOM     39  C   UNL A   1      38.835  30.267  30.937  1.00  0.00     0.014 A 
ATOM     40  C   UNL A   1      38.093  29.875  28.667  1.00  0.00     0.014 A 
ATOM     41  C   UNL A   1      40.154  30.024  30.541  1.00  0.00     0.010 A 
ATOM     42  C   UNL A   1      39.391  29.538  28.299  1.00  0.00     0.010 A 
ATOM     43  C   UNL A   1      40.435  29.591  29.234  1.00  0.00    -0.014 A 
BRANCH  43  44
ATOM     44  C   UNL A   1      41.797  29.141  28.838  1.00  0.00     0.031 A 
ATOM     45  C   UNL A   1      42.923  30.132  28.719  1.00  0.00     0.074 A 
ATOM     46  C   UNL A   1      41.999  27.853  28.490  1.00  0.00     0.049 A 
ATOM     47  N   UNL A   1      44.151  29.943  28.308  1.00  0.00    -0.248 NA
ATOM     48  C   UNL A   1      42.618  31.526  29.075  1.00  0.00     0.031 C 
ATOM     49  C   UNL A   1      40.972  26.807  28.489  1.00  0.00     0.029 A 
ATOM     50  N   UNL A   1      43.128  27.205  28.052  1.00  0.00    -0.354 N 
ATOM     51  C   UNL A   1      44.761  31.191  28.349  1.00  0.00     0.074 A 
ATOM     52  C   UNL A   1      43.747  32.140  28.756  1.00  0.00     0.031 C 
ATOM     53  C   UNL A   1      41.522  25.650  28.090  1.00  0.00     0.029 A 
ATOM     54  C   UNL A   1      42.928  25.875  27.766  1.00  0.00     0.049 A 
ATOM     55  H   UNL A   1      43.999  27.652  27.952  1.00  0.00     0.167 HD
ATOM     56  C   UNL A   1      46.053  31.514  28.100  1.00  0.00     0.037 A 
ATOM     57  C   UNL A   1      43.771  24.941  27.283  1.00  0.00     0.037 A 
ATOM     58  C   UNL A   1      47.058  30.564  27.701  1.00  0.00     0.049 A 
ATOM     59  C   UNL A   1      45.201  25.317  27.008  1.00  0.00     0.074 A 
ATOM     60  C   UNL A   1      48.407  30.778  27.481  1.00  0.00     0.029 A 
ATOM     61  N   UNL A   1      46.823  29.218  27.448  1.00  0.00    -0.354 N 
ATOM     62  N   UNL A   1      45.782  26.487  27.134  1.00  0.00    -0.248 NA
ATOM     63  C   UNL A   1      46.092  24.251  26.531  1.00  0.00     0.031 C 
ATOM     64  C   UNL A   1      48.976  29.576  27.047  1.00  0.00     0.029 A 
ATOM     65  C   UNL A   1      47.995  28.597  27.047  1.00  0.00     0.049 A 
ATOM     66  H   UNL A   1      45.950  28.772  27.540  1.00  0.00     0.167 HD
ATOM     67  C   UNL A   1      47.109  26.296  26.763  1.00  0.00     0.074 A 
ATOM     68  C   UNL A   1      47.248  24.892  26.429  1.00  0.00     0.031 C 
ATOM     69  C   UNL A   1      48.118  27.201  26.705  1.00  0.00     0.037 A 
BRANCH  56  70
ATOM     70  C   UNL A   1      46.443  32.962  28.254  1.00  0.00     0.058 A 
ATOM     71  C   UNL A   1      46.380  33.860  27.175  1.00  0.00     0.135 A 
ATOM     72  C   UNL A   1      46.892  33.458  29.489  1.00  0.00     0.135 A 
ATOM     73  F   UNL A   1      45.969  33.440  25.968  1.00  0.00    -0.206 F 
ATOM     74  C   UNL A   1      46.799  35.181  27.300  1.00  0.00     0.059 A 
ATOM     75  C   UNL A   1      47.283  34.786  29.645  1.00  0.00     0.059 A 
ATOM     76  F   UNL A   1      46.967  32.648  30.557  1.00  0.00    -0.206 F 
ATOM     77  C   UNL A   1      47.256  35.632  28.539  1.00  0.00     0.060 A 
BRANCH  77  78
ATOM     78  S   UNL A   1      47.830  37.338  28.674  1.00  0.00     0.124 S 
ATOM     79  O   UNL A   1      48.456  37.329  29.993  1.00  0.00    -0.237 OA
ATOM     80  O   UNL A   1      48.742  37.452  27.541  1.00  0.00    -0.237 OA
ATOM     81  O   UNL A   1      46.601  38.119  28.568  1.00  0.00    -0.744 OA
ENDBRANCH  77  78
ENDBRANCH  56  70
BRANCH  57  82
ATOM     82  C   UNL A   1      43.277  23.558  27.048  1.00  0.00     0.058 A 
ATOM     83  C   UNL A   1      42.924  23.121  25.763  1.00  0.00     0.135 A 
ATOM     84  C   UNL A   1      43.202  22.627  28.097  1.00  0.00     0.135 A 
ATOM     85  F   UNL A   1      42.970  23.976  24.729  1.00  0.00    -0.206 F 
ATOM     86  C   UNL A   1      42.516  21.813  25.523  1.00  0.00     0.059 A 
ATOM     87  C   UNL A   1      42.822  21.306  27.878  1.00  0.00     0.059 A 
ATOM     88  F   UNL A   1      43.543  22.989  29.343  1.00  0.00    -0.206 F 
ATOM     89  C   UNL A   1      42.478  20.909  26.586  1.00  0.00     0.060 A 
BRANCH  89  90
ATOM     90  S   UNL A   1      42.036  19.191  26.247  1.00  0.00     0.124 S 
ATOM     91  O   UNL A   1      40.635  19.317  25.864  1.00  0.00    -0.237 OA
ATOM     92  O   UNL A   1      42.963  18.843  25.175  1.00  0.00    -0.237 OA
ATOM     93  O   UNL A   1      42.284  18.523  27.521  1.00  0.00    -0.744 OA
ENDBRANCH  89  90
ENDBRANCH  57  82
BRANCH  69  94
ATOM     94  C   UNL A   1      49.469  26.704  26.266  1.00  0.00     0.058 A 
ATOM     95  C   UNL A   1      49.934  26.893  24.955  1.00  0.00     0.135 A 
ATOM     96  C   UNL A   1      50.333  26.081  27.183  1.00  0.00     0.135 A 
ATOM     97  F   UNL A   1      49.147  27.476  24.037  1.00  0.00    -0.206 F 
ATOM     98  C   UNL A   1      51.199  26.467  24.564  1.00  0.00     0.059 A 
ATOM     99  C   UNL A   1      51.612  25.673  26.821  1.00  0.00     0.059 A 
ATOM    100  F   UNL A   1      49.942  25.883  28.453  1.00  0.00    -0.206 F 
ATOM    101  C   UNL A   1      52.034  25.862  25.505  1.00  0.00     0.060 A 
BRANCH 101 102
ATOM    102  S   UNL A   1      53.687  25.349  24.992  1.00  0.00     0.124 S 
ATOM    103  O   UNL A   1      53.627  23.907  25.201  1.00  0.00    -0.237 OA
ATOM    104  O   UNL A   1      53.731  25.788  23.601  1.00  0.00    -0.237 OA
ATOM    105  O   UNL A   1      54.567  26.079  25.901  1.00  0.00    -0.744 OA
ENDBRANCH 101 102
ENDBRANCH  69  94
ENDBRANCH  43  44
ENDBRANCH  35  38
ENDBRANCH  33  34
ENDBRANCH  32  33
ENDBRANCH  31  32
ENDBRANCH   1  31
TORSDOF 20
ENDMDL
MODEL 2
REMARK VINA RESULT:     -12.2      5.938     10.281
REMARK SMILES O=C(COc1ccccc1/C=C1/SC(=O)N(c2ccc(F)cc2)C1=O)NCCCCCCNC(=O)c1ccc(-c2c3nc(c(-c4c(F)cc(S(=O)(=O)[O-])cc4F)c4ccc([nH]4)c(-c4c(F)cc(S(=O)(=O)[O-])cc4F)c4nc(c(-c5c(F)cc(S(=O)(=O)[O-])cc5F)c5ccc2[nH]5)C=C4)C=C3)cc1
REMARK SMILES IDX 29 1 28 2 27 3 26 4 1 5 2 6 3 8 4 9 5 10 6 11 10 12 7 13
REMARK SMILES IDX 9 14 8 15 11 16 12 17 13 18 24 19 14 20 16 21 25 22 15 23
REMARK SMILES IDX 17 24 18 25 23 26 19 27 22 28 20 29 21 30 30 31 31 32 32 33
REMARK SMILES IDX 33 34 34 35 35 37 36 38 37 39 101 40 38 41 100 42 39 43
REMARK SMILES IDX 40 44 41 45 94 46 42 47 99 48 93 49 95 50 43 51 98 52 92 53
REMARK SMILES IDX 91 54 44 56 78 57 57 58 77 59 58 60 61 61 76 62 96 63 59 64
REMARK SMILES IDX 60 65 75 67 97 68 62 69 45 70 46 71 55 72 47 73 48 74 54 75
REMARK SMILES IDX 56 76 49 77 50 78 51 79 52 80 53 81 79 82 80 83 89 84 81 85
REMARK SMILES IDX 82 86 88 87 90 88 83 89 84 90 85 91 86 92 87 93 63 94 64 95
REMARK SMILES IDX 73 96 65 97 66 98 72 99 74 100 67 101 68 102 69 103 70 104
REMARK SMILES IDX 71 105
REMARK H PARENT 26 7 33 36 95 55 61 66
REMARK Flexibility Score: inf
ROOT
ATOM      1  C   UNL A   1      32.605  28.491  25.879  1.00  0.00     0.002 C 
ENDROOT
BRANCH   1   2
ATOM      2  C   UNL A   1      33.771  28.475  24.873  1.00  0.00     0.021 C 
BRANCH   2   3
ATOM      3  C   UNL A   1      33.531  28.862  23.399  1.00  0.00     0.116 C 
BRANCH   3   4
ATOM      4  N   UNL A   1      32.502  28.128  22.654  1.00  0.00    -0.353 N 
ATOM      5  O   UNL A   1      33.939  26.500  21.902  1.00  0.00    -0.271 OA
ATOM      6  C   UNL A   1      32.783  26.892  22.066  1.00  0.00     0.257 C 
ATOM      7  H   UNL A   1      31.600  28.511  22.567  1.00  0.00     0.163 HD
BRANCH   6   8
ATOM      8  C   UNL A   1      31.567  25.978  21.685  1.00  0.00     0.329 C 
BRANCH   8   9
ATOM      9  O   UNL A   1      31.224  24.770  22.378  1.00  0.00    -0.483 OA
BRANCH   9  10
ATOM     10  C   UNL A   1      31.348  24.787  23.750  1.00  0.00     0.127 A 
ATOM     11  C   UNL A   1      30.554  25.671  24.479  1.00  0.00     0.047 A 
ATOM     12  C   UNL A   1      32.408  24.126  24.407  1.00  0.00     0.018 A 
ATOM     13  C   UNL A   1      30.712  25.769  25.867  1.00  0.00     0.004 A 
ATOM     14  C   UNL A   1      32.501  24.149  25.799  1.00  0.00     0.012 A 
ATOM     15  C   UNL A   1      31.645  24.969  26.531  1.00  0.00     0.001 A 
BRANCH  12  16
ATOM     16  C   UNL A   1      33.451  23.454  23.614  1.00  0.00     0.033 C 
ATOM     17  C   UNL A   1      33.937  22.313  24.128  1.00  0.00     0.084 C 
ATOM     18  S   UNL A   1      35.501  22.153  24.811  1.00  0.00    -0.022 SA
ATOM     19  C   UNL A   1      33.197  21.039  24.301  1.00  0.00     0.272 C 
ATOM     20  C   UNL A   1      35.391  20.433  24.903  1.00  0.00     0.298 C 
ATOM     21  N   UNL A   1      34.098  20.032  24.659  1.00  0.00    -0.236 N 
ATOM     22  O   UNL A   1      31.993  20.947  24.103  1.00  0.00    -0.268 OA
ATOM     23  O   UNL A   1      36.407  19.776  25.086  1.00  0.00    -0.260 OA
BRANCH  21  24
ATOM     24  C   UNL A   1      33.743  18.655  24.709  1.00  0.00     0.053 A 
ATOM     25  C   UNL A   1      34.282  17.730  23.806  1.00  0.00     0.030 A 
ATOM     26  C   UNL A   1      32.859  18.185  25.697  1.00  0.00     0.030 A 
ATOM     27  C   UNL A   1      33.943  16.378  23.885  1.00  0.00     0.041 A 
ATOM     28  C   UNL A   1      32.519  16.836  25.776  1.00  0.00     0.041 A 
ATOM     29  C   UNL A   1      33.061  15.946  24.866  1.00  0.00     0.123 A 
ATOM     30  F   UNL A   1      32.726  14.652  24.934  1.00  0.00    -0.207 F 
ENDBRANCH  21  24
ENDBRANCH  12  16
ENDBRANCH   9  10
ENDBRANCH   8   9
ENDBRANCH   6   8
ENDBRANCH   3   4
ENDBRANCH   2   3
ENDBRANCH   1   2
BRANCH   1  31
ATOM     31  C   UNL A   1      32.603  29.569  26.976  1.00  0.00     0.002 C 
BRANCH  31  32
ATOM     32  C   UNL A   1      32.901  31.007  26.566  1.00  0.00     0.021 C 
BRANCH  32  33
ATOM     33  C   UNL A   1      33.529  31.896  27.632  1.00  0.00     0.116 C 
BRANCH  33  34
ATOM     34  N   UNL A   1      32.948  33.230  27.747  1.00  0.00    -0.352 N 
ATOM     35  C   UNL A   1      33.334  34.256  28.591  1.00  0.00     0.251 C 
ATOM     36  H   UNL A   1      32.189  33.423  27.152  1.00  0.00     0.163 HD
ATOM     37  O   UNL A   1      32.715  35.315  28.610  1.00  0.00    -0.269 OA
BRANCH  35  38
ATOM     38  C   UNL A   1      34.473  34.042  29.516  1.00  0.00     0.039 A 
ATOM     39  C   UNL A   1      34.238  33.458  30.764  1.00  0.00     0.014 A 
ATOM     40  C   UNL A   1      35.779  34.326  29.112  1.00  0.00     0.014 A 
ATOM     41  C   UNL A   1      35.320  33.052  31.551  1.00  0.00     0.010 A 
ATOM     42  C   UNL A   1      36.851  33.834  29.850  1.00  0.00     0.010 A 
ATOM     43  C   UNL A   1      36.635  33.175  31.069  1.00  0.00    -0.014 A 
BRANCH  43  44
ATOM     44  C   UNL A   1      37.790  32.580  31.795  1.00  0.00     0.031 A 
ATOM     45  C   UNL A   1      38.535  31.410  31.212  1.00  0.00     0.074 A 
ATOM     46  C   UNL A   1      38.109  33.031  33.025  1.00  0.00     0.049 A 
ATOM     47  N   UNL A   1      39.510  30.708  31.732  1.00  0.00    -0.248 NA
ATOM     48  C   UNL A   1      38.105  30.946  29.884  1.00  0.00     0.031 C 
ATOM     49  C   UNL A   1      37.417  34.110  33.735  1.00  0.00     0.029 A 
ATOM     50  N   UNL A   1      39.082  32.630  33.907  1.00  0.00    -0.354 N 
ATOM     51  C   UNL A   1      39.802  29.718  30.802  1.00  0.00     0.074 A 
ATOM     52  C   UNL A   1      38.855  29.867  29.719  1.00  0.00     0.031 C 
ATOM     53  C   UNL A   1      37.998  34.297  34.930  1.00  0.00     0.029 A 
ATOM     54  C   UNL A   1      39.077  33.326  35.094  1.00  0.00     0.049 A 
ATOM     55  H   UNL A   1      39.725  31.911  33.708  1.00  0.00     0.167 HD
ATOM     56  C   UNL A   1      40.788  28.788  30.832  1.00  0.00     0.037 A 
ATOM     57  C   UNL A   1      39.839  33.192  36.197  1.00  0.00     0.037 A 
ATOM     58  C   UNL A   1      41.731  28.649  31.911  1.00  0.00     0.049 A 
ATOM     59  C   UNL A   1      40.925  32.152  36.215  1.00  0.00     0.074 A 
ATOM     60  C   UNL A   1      42.802  27.779  32.011  1.00  0.00     0.029 A 
ATOM     61  N   UNL A   1      41.709  29.391  33.085  1.00  0.00    -0.354 N 
ATOM     62  N   UNL A   1      41.242  31.278  35.290  1.00  0.00    -0.248 NA
ATOM     63  C   UNL A   1      41.760  32.081  37.422  1.00  0.00     0.031 C 
ATOM     64  C   UNL A   1      43.396  27.959  33.265  1.00  0.00     0.029 A 
ATOM     65  C   UNL A   1      42.730  28.979  33.927  1.00  0.00     0.049 A 
ATOM     66  H   UNL A   1      41.062  30.105  33.288  1.00  0.00     0.167 HD
ATOM     67  C   UNL A   1      42.321  30.561  35.795  1.00  0.00     0.074 A 
ATOM     68  C   UNL A   1      42.614  31.119  37.101  1.00  0.00     0.031 C 
ATOM     69  C   UNL A   1      43.004  29.534  35.230  1.00  0.00     0.037 A 
BRANCH  56  70
ATOM     70  C   UNL A   1      40.886  27.850  29.656  1.00  0.00     0.058 A 
ATOM     71  C   UNL A   1      39.953  26.819  29.457  1.00  0.00     0.135 A 
ATOM     72  C   UNL A   1      41.926  27.977  28.721  1.00  0.00     0.135 A 
ATOM     73  F   UNL A   1      38.943  26.643  30.325  1.00  0.00    -0.206 F 
ATOM     74  C   UNL A   1      40.077  25.914  28.408  1.00  0.00     0.059 A 
ATOM     75  C   UNL A   1      42.050  27.104  27.643  1.00  0.00     0.059 A 
ATOM     76  F   UNL A   1      42.843  28.947  28.856  1.00  0.00    -0.206 F 
ATOM     77  C   UNL A   1      41.135  26.061  27.509  1.00  0.00     0.060 A 
BRANCH  77  78
ATOM     78  S   UNL A   1      41.303  24.857  26.175  1.00  0.00     0.124 S 
ATOM     79  O   UNL A   1      40.073  24.086  26.324  1.00  0.00    -0.237 OA
ATOM     80  O   UNL A   1      41.376  25.709  24.992  1.00  0.00    -0.237 OA
ATOM     81  O   UNL A   1      42.534  24.148  26.510  1.00  0.00    -0.744 OA
ENDBRANCH  77  78
ENDBRANCH  56  70
BRANCH  57  82
ATOM     82  C   UNL A   1      39.602  34.082  37.365  1.00  0.00     0.058 A 
ATOM     83  C   UNL A   1      38.882  33.638  38.483  1.00  0.00     0.135 A 
ATOM     84  C   UNL A   1      40.139  35.379  37.408  1.00  0.00     0.135 A 
ATOM     85  F   UNL A   1      38.340  32.409  38.487  1.00  0.00    -0.206 F 
ATOM     86  C   UNL A   1      38.704  34.442  39.604  1.00  0.00     0.059 A 
ATOM     87  C   UNL A   1      39.997  36.194  38.527  1.00  0.00     0.059 A 
ATOM     88  F   UNL A   1      40.849  35.848  36.370  1.00  0.00    -0.206 F 
ATOM     89  C   UNL A   1      39.275  35.716  39.621  1.00  0.00     0.060 A 
BRANCH  89  90
ATOM     90  S   UNL A   1      39.116  36.717  41.116  1.00  0.00     0.124 S 
ATOM     91  O   UNL A   1      38.718  38.008  40.567  1.00  0.00    -0.237 OA
ATOM     92  O   UNL A   1      38.089  35.994  41.859  1.00  0.00    -0.237 OA
ATOM     93  O   UNL A   1      40.454  36.664  41.700  1.00  0.00    -0.744 OA
ENDBRANCH  89  90
ENDBRANCH  57  82
BRANCH  69  94
ATOM     94  C   UNL A   1      44.144  28.944  36.017  1.00  0.00     0.058 A 
ATOM     95  C   UNL A   1      43.963  27.831  36.853  1.00  0.00     0.135 A 
ATOM     96  C   UNL A   1      45.443  29.462  35.890  1.00  0.00     0.135 A 
ATOM     97  F   UNL A   1      42.741  27.301  37.018  1.00  0.00    -0.206 F 
ATOM     98  C   UNL A   1      45.026  27.264  37.549  1.00  0.00     0.059 A 
ATOM     99  C   UNL A   1      46.525  28.894  36.552  1.00  0.00     0.059 A 
ATOM    100  F   UNL A   1      45.674  30.521  35.095  1.00  0.00    -0.206 F 
ATOM    101  C   UNL A   1      46.305  27.800  37.389  1.00  0.00     0.060 A 
BRANCH 101 102
ATOM    102  S   UNL A   1      47.681  27.029  38.268  1.00  0.00     0.124 S 
ATOM    103  O   UNL A   1      47.312  25.619  38.214  1.00  0.00    -0.237 OA
ATOM    104  O   UNL A   1      48.828  27.417  37.453  1.00  0.00    -0.237 OA
ATOM    105  O   UNL A   1      47.625  27.642  39.592  1.00  0.00    -0.744 OA
ENDBRANCH 101 102
ENDBRANCH  69  94
ENDBRANCH  43  44
ENDBRANCH  35  38
ENDBRANCH  33  34
ENDBRANCH  32  33
ENDBRANCH  31  32
ENDBRANCH   1  31
TORSDOF 20
ENDMDL
MODEL 3
REMARK VINA RESULT:     -12.1      0.517      7.889
REMARK SMILES O=C(COc1ccccc1/C=C1/SC(=O)N(c2ccc(F)cc2)C1=O)NCCCCCCNC(=O)c1ccc(-c2c3nc(c(-c4c(F)cc(S(=O)(=O)[O-])cc4F)c4ccc([nH]4)c(-c4c(F)cc(S(=O)(=O)[O-])cc4F)c4nc(c(-c5c(F)cc(S(=O)(=O)[O-])cc5F)c5ccc2[nH]5)C=C4)C=C3)cc1
REMARK SMILES IDX 29 1 28 2 27 3 26 4 1 5 2 6 3 8 4 9 5 10 6 11 10 12 7 13
REMARK SMILES IDX 9 14 8 15 11 16 12 17 13 18 24 19 14 20 16 21 25 22 15 23
REMARK SMILES IDX 17 24 18 25 23 26 19 27 22 28 20 29 21 30 30 31 31 32 32 33
REMARK SMILES IDX 33 34 34 35 35 37 36 38 37 39 101 40 38 41 100 42 39 43
REMARK SMILES IDX 40 44 41 45 94 46 42 47 99 48 93 49 95 50 43 51 98 52 92 53
REMARK SMILES IDX 91 54 44 56 78 57 57 58 77 59 58 60 61 61 76 62 96 63 59 64
REMARK SMILES IDX 60 65 75 67 97 68 62 69 45 70 46 71 55 72 47 73 48 74 54 75
REMARK SMILES IDX 56 76 49 77 50 78 51 79 52 80 53 81 79 82 80 83 89 84 81 85
REMARK SMILES IDX 82 86 88 87 90 88 83 89 84 90 85 91 86 92 87 93 63 94 64 95
REMARK SMILES IDX 73 96 65 97 66 98 72 99 74 100 67 101 68 102 69 103 70 104
REMARK SMILES IDX 71 105
REMARK H PARENT 26 7 33 36 95 55 61 66
REMARK Flexibility Score: inf
ROOT
ATOM      1  C   UNL A   1      33.082  28.327  26.323  1.00  0.00     0.002 C 
ENDROOT
BRANCH   1   2
ATOM      2  C   UNL A   1      33.947  27.958  25.103  1.00  0.00     0.021 C 
BRANCH   2   3
ATOM      3  C   UNL A   1      33.628  28.550  23.716  1.00  0.00     0.116 C 
BRANCH   3   4
ATOM      4  N   UNL A   1      32.558  27.925  22.930  1.00  0.00    -0.353 N 
ATOM      5  O   UNL A   1      33.964  26.510  21.789  1.00  0.00    -0.271 OA
ATOM      6  C   UNL A   1      32.817  26.824  22.109  1.00  0.00     0.257 C 
ATOM      7  H   UNL A   1      31.643  28.284  22.982  1.00  0.00     0.163 HD
BRANCH   6   8
ATOM      8  C   UNL A   1      31.594  25.950  21.662  1.00  0.00     0.329 C 
BRANCH   8   9
ATOM      9  O   UNL A   1      31.144  24.783  22.364  1.00  0.00    -0.483 OA
BRANCH   9  10
ATOM     10  C   UNL A   1      31.267  24.800  23.735  1.00  0.00     0.127 A 
ATOM     11  C   UNL A   1      30.459  25.669  24.466  1.00  0.00     0.047 A 
ATOM     12  C   UNL A   1      32.339  24.156  24.391  1.00  0.00     0.018 A 
ATOM     13  C   UNL A   1      30.616  25.767  25.854  1.00  0.00     0.004 A 
ATOM     14  C   UNL A   1      32.431  24.178  25.783  1.00  0.00     0.012 A 
ATOM     15  C   UNL A   1      31.562  24.982  26.516  1.00  0.00     0.001 A 
BRANCH  12  16
ATOM     16  C   UNL A   1      33.393  23.503  23.597  1.00  0.00     0.033 C 
ATOM     17  C   UNL A   1      33.915  22.382  24.120  1.00  0.00     0.084 C 
ATOM     18  S   UNL A   1      35.488  22.273  24.792  1.00  0.00    -0.022 SA
ATOM     19  C   UNL A   1      33.211  21.090  24.315  1.00  0.00     0.272 C 
ATOM     20  C   UNL A   1      35.426  20.551  24.905  1.00  0.00     0.298 C 
ATOM     21  N   UNL A   1      34.142  20.113  24.677  1.00  0.00    -0.236 N 
ATOM     22  O   UNL A   1      32.008  20.963  24.128  1.00  0.00    -0.268 OA
ATOM     23  O   UNL A   1      36.460  19.924  25.086  1.00  0.00    -0.260 OA
BRANCH  21  24
ATOM     24  C   UNL A   1      33.825  18.727  24.745  1.00  0.00     0.053 A 
ATOM     25  C   UNL A   1      34.591  17.769  24.068  1.00  0.00     0.030 A 
ATOM     26  C   UNL A   1      32.745  18.284  25.530  1.00  0.00     0.030 A 
ATOM     27  C   UNL A   1      34.281  16.412  24.168  1.00  0.00     0.041 A 
ATOM     28  C   UNL A   1      32.434  16.930  25.629  1.00  0.00     0.041 A 
ATOM     29  C   UNL A   1      33.204  16.006  24.943  1.00  0.00     0.123 A 
ATOM     30  F   UNL A   1      32.899  14.705  25.028  1.00  0.00    -0.207 F 
ENDBRANCH  21  24
ENDBRANCH  12  16
ENDBRANCH   9  10
ENDBRANCH   8   9
ENDBRANCH   6   8
ENDBRANCH   3   4
ENDBRANCH   2   3
ENDBRANCH   1   2
BRANCH   1  31
ATOM     31  C   UNL A   1      33.771  28.975  27.536  1.00  0.00     0.002 C 
BRANCH  31  32
ATOM     32  C   UNL A   1      34.405  30.348  27.349  1.00  0.00     0.021 C 
BRANCH  32  33
ATOM     33  C   UNL A   1      35.663  30.628  28.162  1.00  0.00     0.116 C 
BRANCH  33  34
ATOM     34  N   UNL A   1      35.625  30.162  29.544  1.00  0.00    -0.352 N 
ATOM     35  C   UNL A   1      36.688  29.789  30.345  1.00  0.00     0.251 C 
ATOM     36  H   UNL A   1      34.733  30.106  29.956  1.00  0.00     0.163 HD
ATOM     37  O   UNL A   1      36.496  29.369  31.483  1.00  0.00    -0.269 OA
BRANCH  35  38
ATOM     38  C   UNL A   1      38.064  29.850  29.796  1.00  0.00     0.039 A 
ATOM     39  C   UNL A   1      39.140  30.035  30.669  1.00  0.00     0.014 A 
ATOM     40  C   UNL A   1      38.297  29.627  28.438  1.00  0.00     0.014 A 
ATOM     41  C   UNL A   1      40.447  29.876  30.199  1.00  0.00     0.010 A 
ATOM     42  C   UNL A   1      39.591  29.373  27.994  1.00  0.00     0.010 A 
ATOM     43  C   UNL A   1      40.680  29.477  28.872  1.00  0.00    -0.014 A 
BRANCH  43  44
ATOM     44  C   UNL A   1      42.043  29.114  28.395  1.00  0.00     0.031 A 
ATOM     45  C   UNL A   1      42.360  27.697  28.001  1.00  0.00     0.074 A 
ATOM     46  C   UNL A   1      43.023  30.040  28.408  1.00  0.00     0.049 A 
ATOM     47  N   UNL A   1      43.505  27.175  27.643  1.00  0.00    -0.248 NA
ATOM     48  C   UNL A   1      41.251  26.731  28.051  1.00  0.00     0.031 C 
ATOM     49  C   UNL A   1      42.865  31.432  28.839  1.00  0.00     0.029 A 
ATOM     50  N   UNL A   1      44.351  29.951  28.068  1.00  0.00    -0.354 N 
ATOM     51  C   UNL A   1      43.257  25.823  27.433  1.00  0.00     0.074 A 
ATOM     52  C   UNL A   1      41.869  25.594  27.773  1.00  0.00     0.031 C 
ATOM     53  C   UNL A   1      44.040  32.068  28.720  1.00  0.00     0.029 A 
ATOM     54  C   UNL A   1      45.048  31.124  28.245  1.00  0.00     0.049 A 
ATOM     55  H   UNL A   1      44.764  29.125  27.729  1.00  0.00     0.167 HD
ATOM     56  C   UNL A   1      44.097  24.866  26.970  1.00  0.00     0.037 A 
ATOM     57  C   UNL A   1      46.353  31.409  28.062  1.00  0.00     0.037 A 
ATOM     58  C   UNL A   1      45.476  25.103  26.628  1.00  0.00     0.049 A 
ATOM     59  C   UNL A   1      47.273  30.334  27.553  1.00  0.00     0.074 A 
ATOM     60  C   UNL A   1      46.395  24.216  26.097  1.00  0.00     0.029 A 
ATOM     61  N   UNL A   1      46.140  26.312  26.795  1.00  0.00    -0.354 N 
ATOM     62  N   UNL A   1      47.001  29.081  27.279  1.00  0.00    -0.248 NA
ATOM     63  C   UNL A   1      48.674  30.710  27.322  1.00  0.00     0.031 C 
ATOM     64  C   UNL A   1      47.626  24.873  25.990  1.00  0.00     0.029 A 
ATOM     65  C   UNL A   1      47.463  26.186  26.404  1.00  0.00     0.049 A 
ATOM     66  H   UNL A   1      45.728  27.137  27.141  1.00  0.00     0.167 HD
ATOM     67  C   UNL A   1      48.192  28.520  26.832  1.00  0.00     0.074 A 
ATOM     68  C   UNL A   1      49.182  29.579  26.854  1.00  0.00     0.031 C 
ATOM     69  C   UNL A   1      48.443  27.245  26.442  1.00  0.00     0.037 A 
BRANCH  56  70
ATOM     70  C   UNL A   1      43.538  23.476  26.813  1.00  0.00     0.058 A 
ATOM     71  C   UNL A   1      43.320  22.641  27.922  1.00  0.00     0.135 A 
ATOM     72  C   UNL A   1      43.225  22.967  25.543  1.00  0.00     0.135 A 
ATOM     73  F   UNL A   1      43.612  23.069  29.161  1.00  0.00    -0.206 F 
ATOM     74  C   UNL A   1      42.863  21.335  27.774  1.00  0.00     0.059 A 
ATOM     75  C   UNL A   1      42.733  21.675  25.374  1.00  0.00     0.059 A 
ATOM     76  F   UNL A   1      43.407  23.721  24.448  1.00  0.00    -0.206 F 
ATOM     77  C   UNL A   1      42.579  20.858  26.493  1.00  0.00     0.060 A 
BRANCH  77  78
ATOM     78  S   UNL A   1      42.022  19.151  26.314  1.00  0.00     0.124 S 
ATOM     79  O   UNL A   1      42.965  18.641  25.323  1.00  0.00    -0.237 OA
ATOM     80  O   UNL A   1      42.181  18.627  27.667  1.00  0.00    -0.237 OA
ATOM     81  O   UNL A   1      40.643  19.289  25.856  1.00  0.00    -0.744 OA
ENDBRANCH  77  78
ENDBRANCH  56  70
BRANCH  57  82
ATOM     82  C   UNL A   1      46.851  32.780  28.352  1.00  0.00     0.058 A 
ATOM     83  C   UNL A   1      47.346  33.121  29.619  1.00  0.00     0.135 A 
ATOM     84  C   UNL A   1      46.894  33.763  27.349  1.00  0.00     0.135 A 
ATOM     85  F   UNL A   1      47.318  32.219  30.614  1.00  0.00    -0.206 F 
ATOM     86  C   UNL A   1      47.868  34.382  29.883  1.00  0.00     0.059 A 
ATOM     87  C   UNL A   1      47.434  35.024  27.582  1.00  0.00     0.059 A 
ATOM     88  F   UNL A   1      46.446  33.484  26.115  1.00  0.00    -0.206 F 
ATOM     89  C   UNL A   1      47.918  35.325  28.855  1.00  0.00     0.060 A 
BRANCH  89  90
ATOM     90  S   UNL A   1      48.681  36.928  29.185  1.00  0.00     0.124 S 
ATOM     91  O   UNL A   1      47.614  37.847  28.804  1.00  0.00    -0.237 OA
ATOM     92  O   UNL A   1      48.969  36.841  30.613  1.00  0.00    -0.237 OA
ATOM     93  O   UNL A   1      49.854  36.927  28.316  1.00  0.00    -0.744 OA
ENDBRANCH  89  90
ENDBRANCH  57  82
BRANCH  69  94
ATOM     94  C   UNL A   1      49.844  26.918  26.000  1.00  0.00     0.058 A 
ATOM     95  C   UNL A   1      50.240  27.041  24.658  1.00  0.00     0.135 A 
ATOM     96  C   UNL A   1      50.817  26.533  26.936  1.00  0.00     0.135 A 
ATOM     97  F   UNL A   1      49.349  27.398  23.720  1.00  0.00    -0.206 F 
ATOM     98  C   UNL A   1      51.546  26.776  24.259  1.00  0.00     0.059 A 
ATOM     99  C   UNL A   1      52.135  26.291  26.564  1.00  0.00     0.059 A 
ATOM    100  F   UNL A   1      50.494  26.409  28.234  1.00  0.00    -0.206 F 
ATOM    101  C   UNL A   1      52.488  26.406  25.220  1.00  0.00     0.060 A 
BRANCH 101 102
ATOM    102  S   UNL A   1      54.188  26.103  24.692  1.00  0.00     0.124 S 
ATOM    103  O   UNL A   1      54.304  24.662  24.884  1.00  0.00    -0.237 OA
ATOM    104  O   UNL A   1      54.169  26.559  23.306  1.00  0.00    -0.237 OA
ATOM    105  O   UNL A   1      54.979  26.924  25.605  1.00  0.00    -0.744 OA
ENDBRANCH 101 102
ENDBRANCH  69  94
ENDBRANCH  43  44
ENDBRANCH  35  38
ENDBRANCH  33  34
ENDBRANCH  32  33
ENDBRANCH  31  32
ENDBRANCH   1  31
TORSDOF 20
ENDMDL
