MODEL 1
REMARK VINA RESULT:     -11.6      0.000      0.000
REMARK SMILES Cc1c(Cl)cc2c(c1C)O[C@H](C(F)(F)F)C(C(=O)NCCCCCCNC(=O)c1ccc(-c3c4nc(c(-c5c(F)cc(S(=O)(=O)[O-])cc5F)c5ccc([nH]5)c(-c5c(F)cc(S(=O)(=O)[O-])cc5F)c5nc(c(-c6c(F)cc(S(=O)(=O)[O-])cc6F)c6ccc3[nH]6)C=C5)C=C4)cc1)=C2
REMARK SMILES IDX 23 1 22 2 21 3 20 4 19 5 17 6 18 7 16 9 1 10 2 11 3 12 8 13
REMARK SMILES IDX 4 14 5 15 7 16 9 17 6 18 10 19 95 20 11 21 12 22 13 23 14 24
REMARK SMILES IDX 15 25 24 26 25 27 26 28 27 29 28 31 29 32 30 33 94 34 31 35
REMARK SMILES IDX 93 36 32 37 33 38 34 39 87 40 35 41 92 42 86 43 88 44 36 45
REMARK SMILES IDX 91 46 85 47 84 48 37 50 71 51 50 52 70 53 51 54 54 55 69 56
REMARK SMILES IDX 89 57 52 58 53 59 68 61 90 62 55 63 38 64 39 65 48 66 40 67
REMARK SMILES IDX 41 68 47 69 49 70 42 71 43 72 44 73 45 74 46 75 72 76 73 77
REMARK SMILES IDX 82 78 74 79 75 80 81 81 83 82 76 83 77 84 78 85 79 86 80 87
REMARK SMILES IDX 56 88 57 89 66 90 58 91 59 92 65 93 67 94 60 95 61 96 62 97
REMARK SMILES IDX 63 98 64 99
REMARK H PARENT 19 8 26 30 88 49 54 60
REMARK Flexibility Score: inf
ROOT
ATOM      1  C   UNL A   1      32.997  29.299  24.553  1.00  0.00     0.002 C 
ENDROOT
BRANCH   1   2
ATOM      2  C   UNL A   1      32.422  28.935  23.176  1.00  0.00     0.002 C 
BRANCH   2   3
ATOM      3  C   UNL A   1      31.011  28.345  23.204  1.00  0.00     0.021 C 
BRANCH   3   4
ATOM      4  C   UNL A   1      30.993  26.828  23.354  1.00  0.00     0.116 C 
BRANCH   4   5
ATOM      5  N   UNL A   1      30.555  26.423  24.679  1.00  0.00    -0.352 N 
ATOM      6  C   UNL A   1      30.880  25.467  25.582  1.00  0.00     0.251 C 
ATOM      7  O   UNL A   1      30.247  25.502  26.642  1.00  0.00    -0.270 OA
ATOM      8  H   UNL A   1      29.828  26.999  25.010  1.00  0.00     0.163 HD
BRANCH   6   9
ATOM      9  C   UNL A   1      31.915  24.411  25.377  1.00  0.00     0.067 C 
ATOM     10  C   UNL A   1      37.304  20.711  25.139  1.00  0.00     0.046 C 
ATOM     11  C   UNL A   1      36.249  21.778  25.275  1.00  0.00    -0.026 A 
ATOM     12  C   UNL A   1      36.569  23.112  25.602  1.00  0.00     0.045 A 
ATOM     13  C   UNL A   1      34.891  21.442  25.073  1.00  0.00    -0.004 A 
ATOM     14  Cl  UNL A   1      38.198  23.634  25.870  1.00  0.00    -0.084 Cl
ATOM     15  C   UNL A   1      35.573  24.087  25.737  1.00  0.00     0.032 A 
ATOM     16  C   UNL A   1      33.909  22.442  25.208  1.00  0.00     0.131 A 
ATOM     17  C   UNL A   1      34.429  20.051  24.710  1.00  0.00     0.049 C 
ATOM     18  C   UNL A   1      34.235  23.754  25.543  1.00  0.00     0.019 A 
ATOM     19  O   UNL A   1      32.615  22.039  25.047  1.00  0.00    -0.475 OA
ATOM     20  C   UNL A   1      33.173  24.738  25.727  1.00  0.00     0.025 C 
ATOM     21  C   UNL A   1      31.626  23.062  24.788  1.00  0.00     0.314 C 
BRANCH  21  22
ATOM     22  C   UNL A   1      31.342  23.119  23.276  1.00  0.00     0.429 C 
ATOM     23  F   UNL A   1      31.379  21.875  22.739  1.00  0.00    -0.167 F 
ATOM     24  F   UNL A   1      30.118  23.622  22.995  1.00  0.00    -0.167 F 
ATOM     25  F   UNL A   1      32.241  23.880  22.612  1.00  0.00    -0.167 F 
ENDBRANCH  21  22
ENDBRANCH   6   9
ENDBRANCH   4   5
ENDBRANCH   3   4
ENDBRANCH   2   3
ENDBRANCH   1   2
BRANCH   1  26
ATOM     26  C   UNL A   1      33.867  28.219  25.202  1.00  0.00     0.021 C 
BRANCH  26  27
ATOM     27  C   UNL A   1      33.921  28.288  26.723  1.00  0.00     0.116 C 
BRANCH  27  28
ATOM     28  N   UNL A   1      33.700  29.641  27.207  1.00  0.00    -0.352 N 
ATOM     29  C   UNL A   1      34.507  30.419  27.994  1.00  0.00     0.251 C 
ATOM     30  H   UNL A   1      32.852  30.056  26.929  1.00  0.00     0.163 HD
ATOM     31  O   UNL A   1      34.065  31.445  28.505  1.00  0.00    -0.269 OA
BRANCH  29  32
ATOM     32  C   UNL A   1      35.905  30.009  28.231  1.00  0.00     0.039 A 
ATOM     33  C   UNL A   1      36.828  30.111  27.189  1.00  0.00     0.014 A 
ATOM     34  C   UNL A   1      36.298  29.520  29.481  1.00  0.00     0.014 A 
ATOM     35  C   UNL A   1      38.160  29.764  27.415  1.00  0.00     0.010 A 
ATOM     36  C   UNL A   1      37.640  29.245  29.725  1.00  0.00     0.010 A 
ATOM     37  C   UNL A   1      38.580  29.353  28.691  1.00  0.00    -0.014 A 
BRANCH  37  38
ATOM     38  C   UNL A   1      39.998  29.003  28.952  1.00  0.00     0.031 A 
ATOM     39  C   UNL A   1      40.917  30.019  29.572  1.00  0.00     0.074 A 
ATOM     40  C   UNL A   1      40.461  27.787  28.602  1.00  0.00     0.049 A 
ATOM     41  N   UNL A   1      42.192  29.920  29.844  1.00  0.00    -0.248 NA
ATOM     42  C   UNL A   1      40.332  31.328  29.913  1.00  0.00     0.031 C 
ATOM     43  C   UNL A   1      39.668  26.733  27.965  1.00  0.00     0.029 A 
ATOM     44  N   UNL A   1      41.708  27.230  28.732  1.00  0.00    -0.354 N 
ATOM     45  C   UNL A   1      42.559  31.145  30.388  1.00  0.00     0.074 A 
ATOM     46  C   UNL A   1      41.391  31.994  30.348  1.00  0.00     0.031 C 
ATOM     47  C   UNL A   1      40.439  25.647  27.793  1.00  0.00     0.029 A 
ATOM     48  C   UNL A   1      41.788  25.939  28.268  1.00  0.00     0.049 A 
ATOM     49  H   UNL A   1      42.474  27.711  29.122  1.00  0.00     0.167 HD
ATOM     50  C   UNL A   1      43.754  31.515  30.905  1.00  0.00     0.037 A 
ATOM     51  C   UNL A   1      42.832  25.087  28.230  1.00  0.00     0.037 A 
ATOM     52  C   UNL A   1      44.907  30.655  30.959  1.00  0.00     0.049 A 
ATOM     53  C   UNL A   1      44.161  25.536  28.778  1.00  0.00     0.074 A 
ATOM     54  C   UNL A   1      46.154  30.923  31.494  1.00  0.00     0.029 A 
ATOM     55  N   UNL A   1      44.953  29.360  30.464  1.00  0.00    -0.354 N 
ATOM     56  N   UNL A   1      44.478  26.683  29.330  1.00  0.00    -0.248 NA
ATOM     57  C   UNL A   1      45.271  24.578  28.699  1.00  0.00     0.031 C 
ATOM     58  C   UNL A   1      46.969  29.808  31.281  1.00  0.00     0.029 A 
ATOM     59  C   UNL A   1      46.215  28.824  30.661  1.00  0.00     0.049 A 
ATOM     60  H   UNL A   1      44.200  28.890  30.037  1.00  0.00     0.167 HD
ATOM     61  C   UNL A   1      45.819  26.577  29.685  1.00  0.00     0.074 A 
ATOM     62  C   UNL A   1      46.247  25.247  29.299  1.00  0.00     0.031 C 
ATOM     63  C   UNL A   1      46.622  27.496  30.274  1.00  0.00     0.037 A 
BRANCH  50  64
ATOM     64  C   UNL A   1      43.874  32.903  31.471  1.00  0.00     0.058 A 
ATOM     65  C   UNL A   1      43.577  33.173  32.816  1.00  0.00     0.135 A 
ATOM     66  C   UNL A   1      44.347  33.962  30.680  1.00  0.00     0.135 A 
ATOM     67  F   UNL A   1      43.104  32.201  33.613  1.00  0.00    -0.206 F 
ATOM     68  C   UNL A   1      43.729  34.446  33.354  1.00  0.00     0.059 A 
ATOM     69  C   UNL A   1      44.533  35.239  31.204  1.00  0.00     0.059 A 
ATOM     70  F   UNL A   1      44.641  33.761  29.386  1.00  0.00    -0.206 F 
ATOM     71  C   UNL A   1      44.213  35.472  32.541  1.00  0.00     0.060 A 
BRANCH  71  72
ATOM     72  S   UNL A   1      44.427  37.111  33.265  1.00  0.00     0.124 S 
ATOM     73  O   UNL A   1      43.786  37.959  32.264  1.00  0.00    -0.237 OA
ATOM     74  O   UNL A   1      43.718  36.983  34.535  1.00  0.00    -0.237 OA
ATOM     75  O   UNL A   1      45.876  37.252  33.369  1.00  0.00    -0.744 OA
ENDBRANCH  71  72
ENDBRANCH  50  64
BRANCH  51  76
ATOM     76  C   UNL A   1      42.653  23.716  27.681  1.00  0.00     0.058 A 
ATOM     77  C   UNL A   1      42.466  22.617  28.533  1.00  0.00     0.135 A 
ATOM     78  C   UNL A   1      42.646  23.476  26.298  1.00  0.00     0.135 A 
ATOM     79  F   UNL A   1      42.473  22.793  29.864  1.00  0.00    -0.206 F 
ATOM     80  C   UNL A   1      42.291  21.330  28.037  1.00  0.00     0.059 A 
ATOM     81  C   UNL A   1      42.445  22.202  25.777  1.00  0.00     0.059 A 
ATOM     82  F   UNL A   1      42.806  24.495  25.438  1.00  0.00    -0.206 F 
ATOM     83  C   UNL A   1      42.277  21.133  26.655  1.00  0.00     0.060 A 
BRANCH  83  84
ATOM     84  S   UNL A   1      41.998  19.464  26.025  1.00  0.00     0.124 S 
ATOM     85  O   UNL A   1      42.880  19.437  24.864  1.00  0.00    -0.237 OA
ATOM     86  O   UNL A   1      42.406  18.639  27.157  1.00  0.00    -0.237 OA
ATOM     87  O   UNL A   1      40.568  19.450  25.731  1.00  0.00    -0.744 OA
ENDBRANCH  83  84
ENDBRANCH  51  76
BRANCH  63  88
ATOM     88  C   UNL A   1      48.045  27.100  30.557  1.00  0.00     0.058 A 
ATOM     89  C   UNL A   1      49.089  27.436  29.681  1.00  0.00     0.135 A 
ATOM     90  C   UNL A   1      48.378  26.450  31.757  1.00  0.00     0.135 A 
ATOM     91  F   UNL A   1      48.823  28.053  28.519  1.00  0.00    -0.206 F 
ATOM     92  C   UNL A   1      50.412  27.129  29.979  1.00  0.00     0.059 A 
ATOM     93  C   UNL A   1      49.698  26.158  32.088  1.00  0.00     0.059 A 
ATOM     94  F   UNL A   1      47.418  26.116  32.634  1.00  0.00    -0.206 F 
ATOM     95  C   UNL A   1      50.707  26.497  31.188  1.00  0.00     0.060 A 
BRANCH  95  96
ATOM     96  S   UNL A   1      52.436  26.152  31.579  1.00  0.00     0.124 S 
ATOM     97  O   UNL A   1      52.341  24.831  32.191  1.00  0.00    -0.237 OA
ATOM     98  O   UNL A   1      53.065  26.197  30.263  1.00  0.00    -0.237 OA
ATOM     99  O   UNL A   1      52.805  27.238  32.483  1.00  0.00    -0.744 OA
ENDBRANCH  95  96
ENDBRANCH  63  88
ENDBRANCH  37  38
ENDBRANCH  29  32
ENDBRANCH  27  28
ENDBRANCH  26  27
ENDBRANCH   1  26
TORSDOF 17
ENDMDL
MODEL 2
REMARK VINA RESULT:     -11.4      2.519      3.482
REMARK SMILES Cc1c(Cl)cc2c(c1C)O[C@H](C(F)(F)F)C(C(=O)NCCCCCCNC(=O)c1ccc(-c3c4nc(c(-c5c(F)cc(S(=O)(=O)[O-])cc5F)c5ccc([nH]5)c(-c5c(F)cc(S(=O)(=O)[O-])cc5F)c5nc(c(-c6c(F)cc(S(=O)(=O)[O-])cc6F)c6ccc3[nH]6)C=C5)C=C4)cc1)=C2
REMARK SMILES IDX 23 1 22 2 21 3 20 4 19 5 17 6 18 7 16 9 1 10 2 11 3 12 8 13
REMARK SMILES IDX 4 14 5 15 7 16 9 17 6 18 10 19 95 20 11 21 12 22 13 23 14 24
REMARK SMILES IDX 15 25 24 26 25 27 26 28 27 29 28 31 29 32 30 33 94 34 31 35
REMARK SMILES IDX 93 36 32 37 33 38 34 39 87 40 35 41 92 42 86 43 88 44 36 45
REMARK SMILES IDX 91 46 85 47 84 48 37 50 71 51 50 52 70 53 51 54 54 55 69 56
REMARK SMILES IDX 89 57 52 58 53 59 68 61 90 62 55 63 38 64 39 65 48 66 40 67
REMARK SMILES IDX 41 68 47 69 49 70 42 71 43 72 44 73 45 74 46 75 72 76 73 77
REMARK SMILES IDX 82 78 74 79 75 80 81 81 83 82 76 83 77 84 78 85 79 86 80 87
REMARK SMILES IDX 56 88 57 89 66 90 58 91 59 92 65 93 67 94 60 95 61 96 62 97
REMARK SMILES IDX 63 98 64 99
REMARK H PARENT 19 8 26 30 88 49 54 60
REMARK Flexibility Score: inf
ROOT
ATOM      1  C   UNL A   1      34.215  28.995  27.353  1.00  0.00     0.002 C 
ENDROOT
BRANCH   1   2
ATOM      2  C   UNL A   1      34.019  28.446  25.933  1.00  0.00     0.002 C 
BRANCH   2   3
ATOM      3  C   UNL A   1      32.741  28.913  25.233  1.00  0.00     0.021 C 
BRANCH   3   4
ATOM      4  C   UNL A   1      32.040  27.807  24.452  1.00  0.00     0.116 C 
BRANCH   4   5
ATOM      5  N   UNL A   1      31.117  27.060  25.289  1.00  0.00    -0.352 N 
ATOM      6  C   UNL A   1      31.026  25.803  25.786  1.00  0.00     0.251 C 
ATOM      7  O   UNL A   1      30.046  25.590  26.508  1.00  0.00    -0.270 OA
ATOM      8  H   UNL A   1      30.355  27.615  25.570  1.00  0.00     0.163 HD
BRANCH   6   9
ATOM      9  C   UNL A   1      31.999  24.703  25.520  1.00  0.00     0.067 C 
ATOM     10  C   UNL A   1      37.166  20.718  25.066  1.00  0.00     0.046 C 
ATOM     11  C   UNL A   1      36.175  21.835  25.264  1.00  0.00    -0.026 A 
ATOM     12  C   UNL A   1      36.570  23.127  25.666  1.00  0.00     0.045 A 
ATOM     13  C   UNL A   1      34.800  21.590  25.045  1.00  0.00    -0.004 A 
ATOM     14  Cl  UNL A   1      38.226  23.539  25.960  1.00  0.00    -0.084 Cl
ATOM     15  C   UNL A   1      35.631  24.149  25.857  1.00  0.00     0.032 A 
ATOM     16  C   UNL A   1      33.877  22.635  25.238  1.00  0.00     0.131 A 
ATOM     17  C   UNL A   1      34.259  20.250  24.604  1.00  0.00     0.049 C 
ATOM     18  C   UNL A   1      34.277  23.905  25.647  1.00  0.00     0.019 A 
ATOM     19  O   UNL A   1      32.562  22.317  25.056  1.00  0.00    -0.475 OA
ATOM     20  C   UNL A   1      33.273  24.936  25.887  1.00  0.00     0.025 C 
ATOM     21  C   UNL A   1      31.633  23.408  24.857  1.00  0.00     0.314 C 
BRANCH  21  22
ATOM     22  C   UNL A   1      31.357  23.567  23.351  1.00  0.00     0.429 C 
ATOM     23  F   UNL A   1      30.091  24.005  23.144  1.00  0.00    -0.167 F 
ATOM     24  F   UNL A   1      32.175  24.472  22.764  1.00  0.00    -0.167 F 
ATOM     25  F   UNL A   1      31.505  22.406  22.673  1.00  0.00    -0.167 F 
ENDBRANCH  21  22
ENDBRANCH   6   9
ENDBRANCH   4   5
ENDBRANCH   3   4
ENDBRANCH   2   3
ENDBRANCH   1   2
BRANCH   1  26
ATOM     26  C   UNL A   1      34.281  30.521  27.458  1.00  0.00     0.021 C 
BRANCH  26  27
ATOM     27  C   UNL A   1      35.535  31.049  28.144  1.00  0.00     0.116 C 
BRANCH  27  28
ATOM     28  N   UNL A   1      35.423  30.980  29.592  1.00  0.00    -0.352 N 
ATOM     29  C   UNL A   1      36.307  30.463  30.503  1.00  0.00     0.251 C 
ATOM     30  H   UNL A   1      34.597  31.357  29.970  1.00  0.00     0.163 HD
ATOM     31  O   UNL A   1      35.952  30.270  31.663  1.00  0.00    -0.269 OA
BRANCH  29  32
ATOM     32  C   UNL A   1      37.680  30.133  30.076  1.00  0.00     0.039 A 
ATOM     33  C   UNL A   1      38.620  29.765  31.040  1.00  0.00     0.014 A 
ATOM     34  C   UNL A   1      38.036  30.192  28.725  1.00  0.00     0.014 A 
ATOM     35  C   UNL A   1      39.910  29.412  30.642  1.00  0.00     0.010 A 
ATOM     36  C   UNL A   1      39.299  29.770  28.323  1.00  0.00     0.010 A 
ATOM     37  C   UNL A   1      40.251  29.388  29.280  1.00  0.00    -0.014 A 
BRANCH  37  38
ATOM     38  C   UNL A   1      41.611  28.992  28.840  1.00  0.00     0.031 A 
ATOM     39  C   UNL A   1      42.718  30.010  28.821  1.00  0.00     0.074 A 
ATOM     40  C   UNL A   1      41.839  27.728  28.431  1.00  0.00     0.049 A 
ATOM     41  N   UNL A   1      43.960  29.872  28.437  1.00  0.00    -0.248 NA
ATOM     42  C   UNL A   1      42.380  31.371  29.275  1.00  0.00     0.031 C 
ATOM     43  C   UNL A   1      40.834  26.664  28.377  1.00  0.00     0.029 A 
ATOM     44  N   UNL A   1      42.986  27.123  27.983  1.00  0.00    -0.354 N 
ATOM     45  C   UNL A   1      44.549  31.119  28.603  1.00  0.00     0.074 A 
ATOM     46  C   UNL A   1      43.515  32.019  29.061  1.00  0.00     0.031 C 
ATOM     47  C   UNL A   1      41.417  25.530  27.956  1.00  0.00     0.029 A 
ATOM     48  C   UNL A   1      42.825  25.794  27.672  1.00  0.00     0.049 A 
ATOM     49  H   UNL A   1      43.845  27.598  27.895  1.00  0.00     0.167 HD
ATOM     50  C   UNL A   1      45.843  31.472  28.423  1.00  0.00     0.037 A 
ATOM     51  C   UNL A   1      43.711  24.892  27.208  1.00  0.00     0.037 A 
ATOM     52  C   UNL A   1      46.870  30.563  27.987  1.00  0.00     0.049 A 
ATOM     53  C   UNL A   1      45.137  25.319  26.981  1.00  0.00     0.074 A 
ATOM     54  C   UNL A   1      48.219  30.814  27.807  1.00  0.00     0.029 A 
ATOM     55  N   UNL A   1      46.664  29.229  27.665  1.00  0.00    -0.354 N 
ATOM     56  N   UNL A   1      45.687  26.492  27.186  1.00  0.00    -0.248 NA
ATOM     57  C   UNL A   1      46.061  24.303  26.460  1.00  0.00     0.031 C 
ATOM     58  C   UNL A   1      48.820  29.645  27.331  1.00  0.00     0.029 A 
ATOM     59  C   UNL A   1      47.857  28.651  27.266  1.00  0.00     0.049 A 
ATOM     60  H   UNL A   1      45.798  28.763  27.715  1.00  0.00     0.167 HD
ATOM     61  C   UNL A   1      47.027  26.350  26.842  1.00  0.00     0.074 A 
ATOM     62  C   UNL A   1      47.207  24.972  26.430  1.00  0.00     0.031 C 
ATOM     63  C   UNL A   1      48.018  27.275  26.863  1.00  0.00     0.037 A 
BRANCH  50  64
ATOM     64  C   UNL A   1      46.228  32.896  28.715  1.00  0.00     0.058 A 
ATOM     65  C   UNL A   1      46.175  33.887  27.722  1.00  0.00     0.135 A 
ATOM     66  C   UNL A   1      46.597  33.288  30.012  1.00  0.00     0.135 A 
ATOM     67  F   UNL A   1      45.847  33.564  26.460  1.00  0.00    -0.206 F 
ATOM     68  C   UNL A   1      46.488  35.213  28.000  1.00  0.00     0.059 A 
ATOM     69  C   UNL A   1      46.888  34.614  30.319  1.00  0.00     0.059 A 
ATOM     70  F   UNL A   1      46.669  32.380  30.998  1.00  0.00    -0.206 F 
ATOM     71  C   UNL A   1      46.838  35.568  29.303  1.00  0.00     0.060 A 
BRANCH  71  72
ATOM     72  S   UNL A   1      47.216  37.299  29.647  1.00  0.00     0.124 S 
ATOM     73  O   UNL A   1      47.943  37.685  28.441  1.00  0.00    -0.237 OA
ATOM     74  O   UNL A   1      45.886  37.882  29.799  1.00  0.00    -0.237 OA
ATOM     75  O   UNL A   1      48.016  37.238  30.867  1.00  0.00    -0.744 OA
ENDBRANCH  71  72
ENDBRANCH  50  64
BRANCH  51  76
ATOM     76  C   UNL A   1      43.283  23.488  26.959  1.00  0.00     0.058 A 
ATOM     77  C   UNL A   1      43.076  23.020  25.653  1.00  0.00     0.135 A 
ATOM     78  C   UNL A   1      43.088  22.584  28.014  1.00  0.00     0.135 A 
ATOM     79  F   UNL A   1      43.242  23.849  24.609  1.00  0.00    -0.206 F 
ATOM     80  C   UNL A   1      42.682  21.710  25.401  1.00  0.00     0.059 A 
ATOM     81  C   UNL A   1      42.721  21.262  27.786  1.00  0.00     0.059 A 
ATOM     82  F   UNL A   1      43.286  22.977  29.282  1.00  0.00    -0.206 F 
ATOM     83  C   UNL A   1      42.512  20.837  26.475  1.00  0.00     0.060 A 
BRANCH  83  84
ATOM     84  S   UNL A   1      42.049  19.126  26.130  1.00  0.00     0.124 S 
ATOM     85  O   UNL A   1      42.413  18.464  27.378  1.00  0.00    -0.237 OA
ATOM     86  O   UNL A   1      40.619  19.245  25.863  1.00  0.00    -0.237 OA
ATOM     87  O   UNL A   1      42.869  18.782  24.971  1.00  0.00    -0.744 OA
ENDBRANCH  83  84
ENDBRANCH  51  76
BRANCH  63  88
ATOM     88  C   UNL A   1      49.393  26.835  26.444  1.00  0.00     0.058 A 
ATOM     89  C   UNL A   1      50.250  26.163  27.330  1.00  0.00     0.135 A 
ATOM     90  C   UNL A   1      49.826  27.013  25.120  1.00  0.00     0.135 A 
ATOM     91  F   UNL A   1      49.886  25.972  28.608  1.00  0.00    -0.206 F 
ATOM     92  C   UNL A   1      51.494  25.695  26.920  1.00  0.00     0.059 A 
ATOM     93  C   UNL A   1      51.055  26.528  24.682  1.00  0.00     0.059 A 
ATOM     94  F   UNL A   1      49.040  27.640  24.230  1.00  0.00    -0.206 F 
ATOM     95  C   UNL A   1      51.884  25.877  25.593  1.00  0.00     0.060 A 
BRANCH  95  96
ATOM     96  S   UNL A   1      53.481  25.218  25.068  1.00  0.00     0.124 S 
ATOM     97  O   UNL A   1      54.401  25.955  25.929  1.00  0.00    -0.237 OA
ATOM     98  O   UNL A   1      53.340  23.795  25.360  1.00  0.00    -0.237 OA
ATOM     99  O   UNL A   1      53.542  25.558  23.649  1.00  0.00    -0.744 OA
ENDBRANCH  95  96
ENDBRANCH  63  88
ENDBRANCH  37  38
ENDBRANCH  29  32
ENDBRANCH  27  28
ENDBRANCH  26  27
ENDBRANCH   1  26
TORSDOF 17
ENDMDL
MODEL 3
REMARK VINA RESULT:     -11.4      4.823     10.314
REMARK SMILES Cc1c(Cl)cc2c(c1C)O[C@H](C(F)(F)F)C(C(=O)NCCCCCCNC(=O)c1ccc(-c3c4nc(c(-c5c(F)cc(S(=O)(=O)[O-])cc5F)c5ccc([nH]5)c(-c5c(F)cc(S(=O)(=O)[O-])cc5F)c5nc(c(-c6c(F)cc(S(=O)(=O)[O-])cc6F)c6ccc3[nH]6)C=C5)C=C4)cc1)=C2
REMARK SMILES IDX 23 1 22 2 21 3 20 4 19 5 17 6 18 7 16 9 1 10 2 11 3 12 8 13
REMARK SMILES IDX 4 14 5 15 7 16 9 17 6 18 10 19 95 20 11 21 12 22 13 23 14 24
REMARK SMILES IDX 15 25 24 26 25 27 26 28 27 29 28 31 29 32 30 33 94 34 31 35
REMARK SMILES IDX 93 36 32 37 33 38 34 39 87 40 35 41 92 42 86 43 88 44 36 45
REMARK SMILES IDX 91 46 85 47 84 48 37 50 71 51 50 52 70 53 51 54 54 55 69 56
REMARK SMILES IDX 89 57 52 58 53 59 68 61 90 62 55 63 38 64 39 65 48 66 40 67
REMARK SMILES IDX 41 68 47 69 49 70 42 71 43 72 44 73 45 74 46 75 72 76 73 77
REMARK SMILES IDX 82 78 74 79 75 80 81 81 83 82 76 83 77 84 78 85 79 86 80 87
REMARK SMILES IDX 56 88 57 89 66 90 58 91 59 92 65 93 67 94 60 95 61 96 62 97
REMARK SMILES IDX 63 98 64 99
REMARK H PARENT 19 8 26 30 88 49 54 60
REMARK Flexibility Score: inf
ROOT
ATOM      1  C   UNL A   1      40.767  22.115  27.672  1.00  0.00     0.002 C 
ENDROOT
BRANCH   1   2
ATOM      2  C   UNL A   1      39.989  21.769  26.395  1.00  0.00     0.002 C 
BRANCH   2   3
ATOM      3  C   UNL A   1      38.744  22.622  26.149  1.00  0.00     0.021 C 
BRANCH   3   4
ATOM      4  C   UNL A   1      37.696  21.929  25.284  1.00  0.00     0.116 C 
BRANCH   4   5
ATOM      5  N   UNL A   1      36.496  21.616  26.041  1.00  0.00    -0.352 N 
ATOM      6  C   UNL A   1      35.216  22.057  26.096  1.00  0.00     0.251 C 
ATOM      7  O   UNL A   1      34.487  21.466  26.900  1.00  0.00    -0.270 OA
ATOM      8  H   UNL A   1      36.655  20.889  26.685  1.00  0.00     0.163 HD
BRANCH   6   9
ATOM      9  C   UNL A   1      34.658  23.173  25.279  1.00  0.00     0.067 C 
ATOM     10  C   UNL A   1      32.605  28.869  22.802  1.00  0.00     0.046 C 
ATOM     11  C   UNL A   1      33.105  27.710  23.624  1.00  0.00    -0.026 A 
ATOM     12  C   UNL A   1      33.367  27.827  25.005  1.00  0.00     0.045 A 
ATOM     13  C   UNL A   1      33.325  26.460  23.002  1.00  0.00    -0.004 A 
ATOM     14  Cl  UNL A   1      33.131  29.309  25.870  1.00  0.00    -0.084 Cl
ATOM     15  C   UNL A   1      33.843  26.741  25.750  1.00  0.00     0.032 A 
ATOM     16  C   UNL A   1      33.799  25.382  23.773  1.00  0.00     0.131 A 
ATOM     17  C   UNL A   1      33.072  26.212  21.533  1.00  0.00     0.049 C 
ATOM     18  C   UNL A   1      34.065  25.512  25.135  1.00  0.00     0.019 A 
ATOM     19  O   UNL A   1      34.035  24.219  23.100  1.00  0.00    -0.475 OA
ATOM     20  C   UNL A   1      34.609  24.379  25.876  1.00  0.00     0.025 C 
ATOM     21  C   UNL A   1      34.138  23.005  23.881  1.00  0.00     0.314 C 
BRANCH  21  22
ATOM     22  C   UNL A   1      32.794  22.257  23.831  1.00  0.00     0.429 C 
ATOM     23  F   UNL A   1      32.146  22.365  25.016  1.00  0.00    -0.167 F 
ATOM     24  F   UNL A   1      31.956  22.754  22.890  1.00  0.00    -0.167 F 
ATOM     25  F   UNL A   1      32.946  20.940  23.565  1.00  0.00    -0.167 F 
ENDBRANCH  21  22
ENDBRANCH   6   9
ENDBRANCH   4   5
ENDBRANCH   3   4
ENDBRANCH   2   3
ENDBRANCH   1   2
BRANCH   1  26
ATOM     26  C   UNL A   1      42.287  21.968  27.569  1.00  0.00     0.021 C 
BRANCH  26  27
ATOM     27  C   UNL A   1      43.044  23.291  27.529  1.00  0.00     0.116 C 
BRANCH  27  28
ATOM     28  N   UNL A   1      42.770  24.028  26.306  1.00  0.00    -0.352 N 
ATOM     29  C   UNL A   1      42.146  25.237  26.149  1.00  0.00     0.251 C 
ATOM     30  H   UNL A   1      43.075  23.597  25.476  1.00  0.00     0.163 HD
ATOM     31  O   UNL A   1      41.785  25.603  25.032  1.00  0.00    -0.269 OA
BRANCH  29  32
ATOM     32  C   UNL A   1      41.904  26.089  27.329  1.00  0.00     0.039 A 
ATOM     33  C   UNL A   1      42.770  27.153  27.587  1.00  0.00     0.014 A 
ATOM     34  C   UNL A   1      40.824  25.832  28.179  1.00  0.00     0.014 A 
ATOM     35  C   UNL A   1      42.526  27.988  28.677  1.00  0.00     0.010 A 
ATOM     36  C   UNL A   1      40.540  26.708  29.222  1.00  0.00     0.010 A 
ATOM     37  C   UNL A   1      41.396  27.787  29.487  1.00  0.00    -0.014 A 
BRANCH  37  38
ATOM     38  C   UNL A   1      41.110  28.681  30.636  1.00  0.00     0.031 A 
ATOM     39  C   UNL A   1      41.925  28.566  31.895  1.00  0.00     0.074 A 
ATOM     40  C   UNL A   1      40.100  29.570  30.555  1.00  0.00     0.049 A 
ATOM     41  N   UNL A   1      41.808  29.228  33.016  1.00  0.00    -0.248 NA
ATOM     42  C   UNL A   1      43.002  27.561  31.902  1.00  0.00     0.031 C 
ATOM     43  C   UNL A   1      39.223  29.748  29.395  1.00  0.00     0.029 A 
ATOM     44  N   UNL A   1      39.641  30.491  31.462  1.00  0.00    -0.354 N 
ATOM     45  C   UNL A   1      42.792  28.723  33.858  1.00  0.00     0.074 A 
ATOM     46  C   UNL A   1      43.455  27.656  33.144  1.00  0.00     0.031 C 
ATOM     47  C   UNL A   1      38.356  30.741  29.649  1.00  0.00     0.029 A 
ATOM     48  C   UNL A   1      38.587  31.243  31.001  1.00  0.00     0.049 A 
ATOM     49  H   UNL A   1      40.031  30.603  32.359  1.00  0.00     0.167 HD
ATOM     50  C   UNL A   1      43.132  29.136  35.101  1.00  0.00     0.037 A 
ATOM     51  C   UNL A   1      37.886  32.225  31.600  1.00  0.00     0.037 A 
ATOM     52  C   UNL A   1      42.479  30.213  35.797  1.00  0.00     0.049 A 
ATOM     53  C   UNL A   1      38.262  32.641  32.998  1.00  0.00     0.074 A 
ATOM     54  C   UNL A   1      42.771  30.732  37.045  1.00  0.00     0.029 A 
ATOM     55  N   UNL A   1      41.405  30.940  35.303  1.00  0.00    -0.354 N 
ATOM     56  N   UNL A   1      39.224  32.183  33.763  1.00  0.00    -0.248 NA
ATOM     57  C   UNL A   1      37.457  33.705  33.614  1.00  0.00     0.031 C 
ATOM     58  C   UNL A   1      41.846  31.739  37.327  1.00  0.00     0.029 A 
ATOM     59  C   UNL A   1      41.008  31.886  36.232  1.00  0.00     0.049 A 
ATOM     60  H   UNL A   1      40.987  30.803  34.422  1.00  0.00     0.167 HD
ATOM     61  C   UNL A   1      39.157  32.919  34.941  1.00  0.00     0.074 A 
ATOM     62  C   UNL A   1      38.069  33.862  34.781  1.00  0.00     0.031 C 
ATOM     63  C   UNL A   1      39.925  32.821  36.054  1.00  0.00     0.037 A 
BRANCH  50  64
ATOM     64  C   UNL A   1      44.274  28.435  35.784  1.00  0.00     0.058 A 
ATOM     65  C   UNL A   1      45.600  28.863  35.618  1.00  0.00     0.135 A 
ATOM     66  C   UNL A   1      44.037  27.364  36.661  1.00  0.00     0.135 A 
ATOM     67  F   UNL A   1      45.886  29.871  34.777  1.00  0.00    -0.206 F 
ATOM     68  C   UNL A   1      46.653  28.245  36.283  1.00  0.00     0.059 A 
ATOM     69  C   UNL A   1      45.072  26.749  37.359  1.00  0.00     0.059 A 
ATOM     70  F   UNL A   1      42.788  26.911  36.854  1.00  0.00    -0.206 F 
ATOM     71  C   UNL A   1      46.379  27.192  37.156  1.00  0.00     0.060 A 
BRANCH  71  72
ATOM     72  S   UNL A   1      47.757  26.421  38.029  1.00  0.00     0.124 S 
ATOM     73  O   UNL A   1      47.947  25.198  37.253  1.00  0.00    -0.237 OA
ATOM     74  O   UNL A   1      48.808  27.425  37.896  1.00  0.00    -0.237 OA
ATOM     75  O   UNL A   1      47.242  26.230  39.381  1.00  0.00    -0.744 OA
ENDBRANCH  71  72
ENDBRANCH  50  64
BRANCH  51  76
ATOM     76  C   UNL A   1      36.780  32.903  30.870  1.00  0.00     0.058 A 
ATOM     77  C   UNL A   1      35.441  32.565  31.116  1.00  0.00     0.135 A 
ATOM     78  C   UNL A   1      37.036  33.910  29.926  1.00  0.00     0.135 A 
ATOM     79  F   UNL A   1      35.146  31.602  32.004  1.00  0.00    -0.206 F 
ATOM     80  C   UNL A   1      34.395  33.192  30.448  1.00  0.00     0.059 A 
ATOM     81  C   UNL A   1      36.006  34.571  29.265  1.00  0.00     0.059 A 
ATOM     82  F   UNL A   1      38.299  34.282  29.663  1.00  0.00    -0.206 F 
ATOM     83  C   UNL A   1      34.688  34.198  29.527  1.00  0.00     0.060 A 
BRANCH  83  84
ATOM     84  S   UNL A   1      33.318  35.039  28.703  1.00  0.00     0.124 S 
ATOM     85  O   UNL A   1      34.019  36.054  27.927  1.00  0.00    -0.237 OA
ATOM     86  O   UNL A   1      32.711  33.954  27.938  1.00  0.00    -0.237 OA
ATOM     87  O   UNL A   1      32.513  35.539  29.815  1.00  0.00    -0.744 OA
ENDBRANCH  83  84
ENDBRANCH  51  76
BRANCH  63  88
ATOM     88  C   UNL A   1      39.633  33.764  37.188  1.00  0.00     0.058 A 
ATOM     89  C   UNL A   1      38.749  33.418  38.222  1.00  0.00     0.135 A 
ATOM     90  C   UNL A   1      40.306  34.993  37.283  1.00  0.00     0.135 A 
ATOM     91  F   UNL A   1      38.076  32.257  38.176  1.00  0.00    -0.206 F 
ATOM     92  C   UNL A   1      38.534  34.264  39.306  1.00  0.00     0.059 A 
ATOM     93  C   UNL A   1      40.127  35.842  38.372  1.00  0.00     0.059 A 
ATOM     94  F   UNL A   1      41.170  35.367  36.325  1.00  0.00    -0.206 F 
ATOM     95  C   UNL A   1      39.233  35.470  39.374  1.00  0.00     0.060 A 
BRANCH  95  96
ATOM     96  S   UNL A   1      38.978  36.531  40.813  1.00  0.00     0.124 S 
ATOM     97  O   UNL A   1      38.475  37.752  40.192  1.00  0.00    -0.237 OA
ATOM     98  O   UNL A   1      38.007  35.768  41.591  1.00  0.00    -0.237 OA
ATOM     99  O   UNL A   1      40.309  36.630  41.405  1.00  0.00    -0.744 OA
ENDBRANCH  95  96
ENDBRANCH  63  88
ENDBRANCH  37  38
ENDBRANCH  29  32
ENDBRANCH  27  28
ENDBRANCH  26  27
ENDBRANCH   1  26
TORSDOF 17
ENDMDL
