MODEL 1
REMARK VINA RESULT:     -10.9      0.000      0.000
REMARK SMILES CC(C)(CC(=O)NCCCCCCNC(=O)c1ccc(-c2c3nc(c(-c4c(F)cc(S(=O)(=O)[O-])cc4F)c4ccc([nH]4)c(-c4c(F)cc(S(=O)(=O)[O-])cc4F)c4nc(c(-c5c(F)cc(S(=O)(=O)[O-])cc5F)c5ccc2[nH]5)C=C4)C=C3)cc1)NC(=O)c1nc(C(C)(C)C)n[nH]1
REMARK SMILES IDX 10 1 9 2 8 3 7 4 5 5 6 6 4 8 2 9 1 10 3 11 83 12 84 13 85 15
REMARK SMILES IDX 86 16 87 17 94 18 88 19 93 20 89 22 90 23 91 24 92 25 11 26
REMARK SMILES IDX 12 27 13 28 14 29 15 30 16 32 17 33 18 34 82 35 19 36 81 37
REMARK SMILES IDX 20 38 21 39 22 40 75 41 23 42 80 43 74 44 76 45 24 46 79 47
REMARK SMILES IDX 73 48 72 49 25 51 59 52 38 53 58 54 39 55 42 56 57 57 77 58
REMARK SMILES IDX 40 59 41 60 56 62 78 63 43 64 26 65 27 66 36 67 28 68 29 69
REMARK SMILES IDX 35 70 37 71 30 72 31 73 32 74 33 75 34 76 60 77 61 78 70 79
REMARK SMILES IDX 62 80 63 81 69 82 71 83 64 84 65 85 66 86 67 87 68 88 44 89
REMARK SMILES IDX 45 90 54 91 46 92 47 93 53 94 55 95 48 96 49 97 50 98 51 99
REMARK SMILES IDX 52 100
REMARK H PARENT 7 7 83 14 94 21 14 31 76 50 42 61
REMARK Flexibility Score: inf
ROOT
ATOM      1  C   UNL A   1      34.014  21.980  24.579  1.00  0.00     0.002 C 
ENDROOT
BRANCH   1   2
ATOM      2  C   UNL A   1      32.894  21.744  23.573  1.00  0.00     0.021 C 
BRANCH   2   3
ATOM      3  C   UNL A   1      31.682  22.654  23.730  1.00  0.00     0.116 C 
BRANCH   3   4
ATOM      4  N   UNL A   1      31.661  23.656  22.679  1.00  0.00    -0.356 N 
ATOM      5  C   UNL A   1      32.051  24.957  22.694  1.00  0.00     0.222 C 
ATOM      6  O   UNL A   1      31.806  25.653  21.706  1.00  0.00    -0.275 OA
ATOM      7  H   UNL A   1      31.306  23.341  21.816  1.00  0.00     0.163 HD
BRANCH   5   8
ATOM      8  C   UNL A   1      32.853  25.522  23.847  1.00  0.00     0.127 C 
BRANCH   8   9
ATOM      9  C   UNL A   1      32.083  26.156  25.038  1.00  0.00     0.044 C 
ATOM     10  C   UNL A   1      30.568  25.995  24.889  1.00  0.00     0.035 C 
ATOM     11  C   UNL A   1      32.445  25.298  26.284  1.00  0.00     0.035 C 
BRANCH   9  12
ATOM     12  N   UNL A   1      32.556  27.530  25.344  1.00  0.00    -0.344 N 
ATOM     13  C   UNL A   1      32.544  28.754  24.707  1.00  0.00     0.289 C 
ATOM     14  H   UNL A   1      32.989  27.580  26.228  1.00  0.00     0.164 HD
ATOM     15  O   UNL A   1      33.398  29.557  25.094  1.00  0.00    -0.266 OA
BRANCH  13  16
ATOM     16  C   UNL A   1      31.515  29.119  23.764  1.00  0.00     0.214 A 
ATOM     17  N   UNL A   1      30.330  29.641  24.052  1.00  0.00    -0.207 NA
ATOM     18  N   UNL A   1      31.502  28.737  22.457  1.00  0.00    -0.255 N 
ATOM     19  C   UNL A   1      29.639  29.579  22.862  1.00  0.00     0.156 A 
ATOM     20  N   UNL A   1      30.352  29.057  21.852  1.00  0.00    -0.158 NA
ATOM     21  H   UNL A   1      32.251  28.280  22.010  1.00  0.00     0.192 HD
BRANCH  19  22
ATOM     22  C   UNL A   1      28.194  30.005  22.678  1.00  0.00     0.024 C 
ATOM     23  C   UNL A   1      27.950  30.478  21.234  1.00  0.00     0.019 C 
ATOM     24  C   UNL A   1      27.177  28.881  22.967  1.00  0.00     0.019 C 
ATOM     25  C   UNL A   1      27.886  31.194  23.607  1.00  0.00     0.019 C 
ENDBRANCH  19  22
ENDBRANCH  13  16
ENDBRANCH   9  12
ENDBRANCH   8   9
ENDBRANCH   5   8
ENDBRANCH   3   4
ENDBRANCH   2   3
ENDBRANCH   1   2
BRANCH   1  26
ATOM     26  C   UNL A   1      35.377  22.369  24.012  1.00  0.00     0.002 C 
BRANCH  26  27
ATOM     27  C   UNL A   1      36.000  23.658  24.570  1.00  0.00     0.021 C 
BRANCH  27  28
ATOM     28  C   UNL A   1      36.640  23.571  25.958  1.00  0.00     0.116 C 
BRANCH  28  29
ATOM     29  N   UNL A   1      37.731  22.617  26.065  1.00  0.00    -0.352 N 
ATOM     30  C   UNL A   1      39.018  22.826  26.510  1.00  0.00     0.251 C 
ATOM     31  H   UNL A   1      37.523  21.698  25.779  1.00  0.00     0.163 HD
ATOM     32  O   UNL A   1      39.819  21.893  26.536  1.00  0.00    -0.269 OA
BRANCH  30  33
ATOM     33  C   UNL A   1      39.460  24.180  26.914  1.00  0.00     0.039 A 
ATOM     34  C   UNL A   1      39.319  24.558  28.251  1.00  0.00     0.014 A 
ATOM     35  C   UNL A   1      40.014  25.075  25.995  1.00  0.00     0.014 A 
ATOM     36  C   UNL A   1      39.798  25.801  28.676  1.00  0.00     0.010 A 
ATOM     37  C   UNL A   1      40.526  26.301  26.425  1.00  0.00     0.010 A 
ATOM     38  C   UNL A   1      40.443  26.667  27.775  1.00  0.00    -0.014 A 
BRANCH  38  39
ATOM     39  C   UNL A   1      41.113  27.905  28.256  1.00  0.00     0.031 A 
ATOM     40  C   UNL A   1      42.609  28.054  28.207  1.00  0.00     0.074 A 
ATOM     41  C   UNL A   1      40.357  28.879  28.803  1.00  0.00     0.049 A 
ATOM     42  N   UNL A   1      43.347  29.067  28.583  1.00  0.00    -0.248 NA
ATOM     43  C   UNL A   1      43.378  26.912  27.691  1.00  0.00     0.031 C 
ATOM     44  C   UNL A   1      38.904  28.818  28.975  1.00  0.00     0.029 A 
ATOM     45  N   UNL A   1      40.699  30.103  29.320  1.00  0.00    -0.354 N 
ATOM     46  C   UNL A   1      44.664  28.690  28.350  1.00  0.00     0.074 A 
ATOM     47  C   UNL A   1      44.627  27.333  27.848  1.00  0.00     0.031 C 
ATOM     48  C   UNL A   1      38.477  29.963  29.528  1.00  0.00     0.029 A 
ATOM     49  C   UNL A   1      39.625  30.826  29.783  1.00  0.00     0.049 A 
ATOM     50  H   UNL A   1      41.626  30.433  29.356  1.00  0.00     0.167 HD
ATOM     51  C   UNL A   1      45.797  29.416  28.519  1.00  0.00     0.037 A 
ATOM     52  C   UNL A   1      39.566  32.046  30.353  1.00  0.00     0.037 A 
ATOM     53  C   UNL A   1      45.823  30.770  29.015  1.00  0.00     0.049 A 
ATOM     54  C   UNL A   1      40.836  32.834  30.524  1.00  0.00     0.074 A 
ATOM     55  C   UNL A   1      46.911  31.612  29.162  1.00  0.00     0.029 A 
ATOM     56  N   UNL A   1      44.713  31.476  29.458  1.00  0.00    -0.354 N 
ATOM     57  N   UNL A   1      42.064  32.495  30.212  1.00  0.00    -0.248 NA
ATOM     58  C   UNL A   1      40.713  34.173  31.116  1.00  0.00     0.031 C 
ATOM     59  C   UNL A   1      46.468  32.806  29.742  1.00  0.00     0.029 A 
ATOM     60  C   UNL A   1      45.095  32.733  29.901  1.00  0.00     0.049 A 
ATOM     61  H   UNL A   1      43.789  31.135  29.456  1.00  0.00     0.167 HD
ATOM     62  C   UNL A   1      42.856  33.589  30.542  1.00  0.00     0.074 A 
ATOM     63  C   UNL A   1      41.966  34.604  31.067  1.00  0.00     0.031 C 
ATOM     64  C   UNL A   1      44.199  33.737  30.421  1.00  0.00     0.037 A 
BRANCH  51  65
ATOM     65  C   UNL A   1      47.110  28.767  28.162  1.00  0.00     0.058 A 
ATOM     66  C   UNL A   1      47.628  28.821  26.857  1.00  0.00     0.135 A 
ATOM     67  C   UNL A   1      47.886  28.130  29.145  1.00  0.00     0.135 A 
ATOM     68  F   UNL A   1      46.927  29.409  25.875  1.00  0.00    -0.206 F 
ATOM     69  C   UNL A   1      48.850  28.240  26.534  1.00  0.00     0.059 A 
ATOM     70  C   UNL A   1      49.126  27.569  28.851  1.00  0.00     0.059 A 
ATOM     71  F   UNL A   1      47.444  28.052  30.410  1.00  0.00    -0.206 F 
ATOM     72  C   UNL A   1      49.593  27.616  27.538  1.00  0.00     0.060 A 
BRANCH  72  73
ATOM     73  S   UNL A   1      51.180  26.874  27.102  1.00  0.00     0.124 S 
ATOM     74  O   UNL A   1      51.988  28.059  26.822  1.00  0.00    -0.237 OA
ATOM     75  O   UNL A   1      51.527  26.145  28.316  1.00  0.00    -0.237 OA
ATOM     76  O   UNL A   1      50.864  26.045  25.944  1.00  0.00    -0.744 OA
ENDBRANCH  72  73
ENDBRANCH  51  65
BRANCH  52  77
ATOM     77  C   UNL A   1      38.253  32.603  30.775  1.00  0.00     0.058 A 
ATOM     78  C   UNL A   1      37.800  32.468  32.095  1.00  0.00     0.135 A 
ATOM     79  C   UNL A   1      37.436  33.303  29.872  1.00  0.00     0.135 A 
ATOM     80  F   UNL A   1      38.542  31.804  32.995  1.00  0.00    -0.206 F 
ATOM     81  C   UNL A   1      36.576  32.991  32.504  1.00  0.00     0.059 A 
ATOM     82  C   UNL A   1      36.223  33.859  30.264  1.00  0.00     0.059 A 
ATOM     83  F   UNL A   1      37.832  33.478  28.602  1.00  0.00    -0.206 F 
ATOM     84  C   UNL A   1      35.796  33.688  31.580  1.00  0.00     0.060 A 
BRANCH  84  85
ATOM     85  S   UNL A   1      34.235  34.409  32.132  1.00  0.00     0.124 S 
ATOM     86  O   UNL A   1      34.698  35.568  32.887  1.00  0.00    -0.237 OA
ATOM     87  O   UNL A   1      33.565  34.694  30.868  1.00  0.00    -0.237 OA
ATOM     88  O   UNL A   1      33.635  33.339  32.924  1.00  0.00    -0.744 OA
ENDBRANCH  84  85
ENDBRANCH  52  77
BRANCH  64  89
ATOM     89  C   UNL A   1      44.789  35.060  30.832  1.00  0.00     0.058 A 
ATOM     90  C   UNL A   1      44.888  36.137  29.939  1.00  0.00     0.135 A 
ATOM     91  C   UNL A   1      45.219  35.265  32.154  1.00  0.00     0.135 A 
ATOM     92  F   UNL A   1      44.499  35.993  28.661  1.00  0.00    -0.206 F 
ATOM     93  C   UNL A   1      45.412  37.364  30.333  1.00  0.00     0.059 A 
ATOM     94  C   UNL A   1      45.719  36.492  32.578  1.00  0.00     0.059 A 
ATOM     95  F   UNL A   1      45.141  34.271  33.053  1.00  0.00    -0.206 F 
ATOM     96  C   UNL A   1      45.823  37.532  31.656  1.00  0.00     0.060 A 
BRANCH  96  97
ATOM     97  S   UNL A   1      46.470  39.140  32.164  1.00  0.00     0.124 S 
ATOM     98  O   UNL A   1      45.281  39.770  32.730  1.00  0.00    -0.237 OA
ATOM     99  O   UNL A   1      47.508  38.769  33.120  1.00  0.00    -0.237 OA
ATOM    100  O   UNL A   1      46.955  39.722  30.917  1.00  0.00    -0.744 OA
ENDBRANCH  96  97
ENDBRANCH  64  89
ENDBRANCH  38  39
ENDBRANCH  30  33
ENDBRANCH  28  29
ENDBRANCH  27  28
ENDBRANCH  26  27
ENDBRANCH   1  26
TORSDOF 20
ENDMDL
MODEL 2
REMARK VINA RESULT:     -10.8      3.140      4.800
REMARK SMILES CC(C)(CC(=O)NCCCCCCNC(=O)c1ccc(-c2c3nc(c(-c4c(F)cc(S(=O)(=O)[O-])cc4F)c4ccc([nH]4)c(-c4c(F)cc(S(=O)(=O)[O-])cc4F)c4nc(c(-c5c(F)cc(S(=O)(=O)[O-])cc5F)c5ccc2[nH]5)C=C4)C=C3)cc1)NC(=O)c1nc(C(C)(C)C)n[nH]1
REMARK SMILES IDX 10 1 9 2 8 3 7 4 5 5 6 6 4 8 2 9 1 10 3 11 83 12 84 13 85 15
REMARK SMILES IDX 86 16 87 17 94 18 88 19 93 20 89 22 90 23 91 24 92 25 11 26
REMARK SMILES IDX 12 27 13 28 14 29 15 30 16 32 17 33 18 34 82 35 19 36 81 37
REMARK SMILES IDX 20 38 21 39 22 40 75 41 23 42 80 43 74 44 76 45 24 46 79 47
REMARK SMILES IDX 73 48 72 49 25 51 59 52 38 53 58 54 39 55 42 56 57 57 77 58
REMARK SMILES IDX 40 59 41 60 56 62 78 63 43 64 26 65 27 66 36 67 28 68 29 69
REMARK SMILES IDX 35 70 37 71 30 72 31 73 32 74 33 75 34 76 60 77 61 78 70 79
REMARK SMILES IDX 62 80 63 81 69 82 71 83 64 84 65 85 66 86 67 87 68 88 44 89
REMARK SMILES IDX 45 90 54 91 46 92 47 93 53 94 55 95 48 96 49 97 50 98 51 99
REMARK SMILES IDX 52 100
REMARK H PARENT 7 7 83 14 94 21 14 31 76 50 42 61
REMARK Flexibility Score: inf
ROOT
ATOM      1  C   UNL A   1      38.430  23.754  26.522  1.00  0.00     0.002 C 
ENDROOT
BRANCH   1   2
ATOM      2  C   UNL A   1      37.406  23.363  25.463  1.00  0.00     0.021 C 
BRANCH   2   3
ATOM      3  C   UNL A   1      35.955  23.650  25.831  1.00  0.00     0.116 C 
BRANCH   3   4
ATOM      4  N   UNL A   1      35.266  24.282  24.719  1.00  0.00    -0.356 N 
ATOM      5  C   UNL A   1      34.524  23.740  23.720  1.00  0.00     0.222 C 
ATOM      6  O   UNL A   1      34.149  24.475  22.804  1.00  0.00    -0.275 OA
ATOM      7  H   UNL A   1      35.350  25.263  24.686  1.00  0.00     0.163 HD
BRANCH   5   8
ATOM      8  C   UNL A   1      34.080  22.293  23.769  1.00  0.00     0.127 C 
BRANCH   8   9
ATOM      9  C   UNL A   1      32.623  21.985  24.211  1.00  0.00     0.044 C 
ATOM     10  C   UNL A   1      31.603  22.841  23.454  1.00  0.00     0.035 C 
ATOM     11  C   UNL A   1      32.334  20.530  23.744  1.00  0.00     0.035 C 
BRANCH   9  12
ATOM     12  N   UNL A   1      32.477  21.970  25.689  1.00  0.00    -0.344 N 
ATOM     13  C   UNL A   1      32.437  22.912  26.697  1.00  0.00     0.289 C 
ATOM     14  H   UNL A   1      32.386  21.054  26.039  1.00  0.00     0.164 HD
ATOM     15  O   UNL A   1      32.726  22.492  27.821  1.00  0.00    -0.266 OA
BRANCH  13  16
ATOM     16  C   UNL A   1      31.950  24.252  26.478  1.00  0.00     0.214 A 
ATOM     17  N   UNL A   1      32.685  25.334  26.262  1.00  0.00    -0.207 NA
ATOM     18  N   UNL A   1      30.671  24.652  26.723  1.00  0.00    -0.255 N 
ATOM     19  C   UNL A   1      31.786  26.374  26.358  1.00  0.00     0.156 A 
ATOM     20  N   UNL A   1      30.529  25.978  26.609  1.00  0.00    -0.158 NA
ATOM     21  H   UNL A   1      29.938  24.038  26.958  1.00  0.00     0.192 HD
BRANCH  19  22
ATOM     22  C   UNL A   1      32.150  27.844  26.246  1.00  0.00     0.024 C 
ATOM     23  C   UNL A   1      31.654  28.618  27.480  1.00  0.00     0.019 C 
ATOM     24  C   UNL A   1      33.669  28.097  26.131  1.00  0.00     0.019 C 
ATOM     25  C   UNL A   1      31.457  28.453  25.014  1.00  0.00     0.019 C 
ENDBRANCH  19  22
ENDBRANCH  13  16
ENDBRANCH   9  12
ENDBRANCH   8   9
ENDBRANCH   5   8
ENDBRANCH   3   4
ENDBRANCH   2   3
ENDBRANCH   1   2
BRANCH   1  26
ATOM     26  C   UNL A   1      39.651  22.850  26.665  1.00  0.00     0.002 C 
BRANCH  26  27
ATOM     27  C   UNL A   1      39.594  21.509  25.916  1.00  0.00     0.021 C 
BRANCH  27  28
ATOM     28  C   UNL A   1      39.829  20.245  26.745  1.00  0.00     0.116 C 
BRANCH  28  29
ATOM     29  N   UNL A   1      40.774  19.305  26.164  1.00  0.00    -0.352 N 
ATOM     30  C   UNL A   1      42.121  19.470  25.933  1.00  0.00     0.251 C 
ATOM     31  H   UNL A   1      40.399  18.434  25.899  1.00  0.00     0.163 HD
ATOM     32  O   UNL A   1      42.775  18.558  25.429  1.00  0.00    -0.269 OA
BRANCH  30  33
ATOM     33  C   UNL A   1      42.783  20.758  26.240  1.00  0.00     0.039 A 
ATOM     34  C   UNL A   1      43.307  21.508  25.186  1.00  0.00     0.014 A 
ATOM     35  C   UNL A   1      42.888  21.234  27.550  1.00  0.00     0.014 A 
ATOM     36  C   UNL A   1      43.869  22.764  25.438  1.00  0.00     0.010 A 
ATOM     37  C   UNL A   1      43.415  22.503  27.798  1.00  0.00     0.010 A 
ATOM     38  C   UNL A   1      43.892  23.290  26.742  1.00  0.00    -0.014 A 
BRANCH  38  39
ATOM     39  C   UNL A   1      44.319  24.693  26.989  1.00  0.00     0.031 A 
ATOM     40  C   UNL A   1      45.756  25.111  26.848  1.00  0.00     0.074 A 
ATOM     41  C   UNL A   1      43.397  25.585  27.410  1.00  0.00     0.049 A 
ATOM     42  N   UNL A   1      46.291  26.293  27.024  1.00  0.00    -0.248 NA
ATOM     43  C   UNL A   1      46.723  24.064  26.483  1.00  0.00     0.031 C 
ATOM     44  C   UNL A   1      41.986  25.281  27.658  1.00  0.00     0.029 A 
ATOM     45  N   UNL A   1      43.505  26.920  27.711  1.00  0.00    -0.354 N 
ATOM     46  C   UNL A   1      47.653  26.136  26.791  1.00  0.00     0.074 A 
ATOM     47  C   UNL A   1      47.870  24.732  26.513  1.00  0.00     0.031 C 
ATOM     48  C   UNL A   1      41.355  26.401  28.042  1.00  0.00     0.029 A 
ATOM     49  C   UNL A   1      42.319  27.494  28.103  1.00  0.00     0.049 A 
ATOM     50  H   UNL A   1      44.351  27.419  27.650  1.00  0.00     0.167 HD
ATOM     51  C   UNL A   1      48.626  27.080  26.790  1.00  0.00     0.037 A 
ATOM     52  C   UNL A   1      42.035  28.758  28.475  1.00  0.00     0.037 A 
ATOM     53  C   UNL A   1      48.398  28.477  27.064  1.00  0.00     0.049 A 
ATOM     54  C   UNL A   1      43.132  29.788  28.460  1.00  0.00     0.074 A 
ATOM     55  C   UNL A   1      49.306  29.521  27.025  1.00  0.00     0.029 A 
ATOM     56  N   UNL A   1      47.180  29.025  27.441  1.00  0.00    -0.354 N 
ATOM     57  N   UNL A   1      44.397  29.639  28.148  1.00  0.00    -0.248 NA
ATOM     58  C   UNL A   1      42.762  31.159  28.838  1.00  0.00     0.031 C 
ATOM     59  C   UNL A   1      48.650  30.690  27.428  1.00  0.00     0.029 A 
ATOM     60  C   UNL A   1      47.319  30.387  27.661  1.00  0.00     0.049 A 
ATOM     61  H   UNL A   1      46.340  28.521  27.537  1.00  0.00     0.167 HD
ATOM     62  C   UNL A   1      44.967  30.901  28.263  1.00  0.00     0.074 A 
ATOM     63  C   UNL A   1      43.907  31.803  28.662  1.00  0.00     0.031 C 
ATOM     64  C   UNL A   1      46.255  31.277  28.057  1.00  0.00     0.037 A 
BRANCH  51  65
ATOM     65  C   UNL A   1      50.034  26.639  26.479  1.00  0.00     0.058 A 
ATOM     66  C   UNL A   1      50.509  26.567  25.159  1.00  0.00     0.135 A 
ATOM     67  C   UNL A   1      50.936  26.337  27.513  1.00  0.00     0.135 A 
ATOM     68  F   UNL A   1      49.691  26.837  24.130  1.00  0.00    -0.206 F 
ATOM     69  C   UNL A   1      51.815  26.181  24.874  1.00  0.00     0.059 A 
ATOM     70  C   UNL A   1      52.256  25.978  27.253  1.00  0.00     0.059 A 
ATOM     71  F   UNL A   1      50.539  26.393  28.795  1.00  0.00    -0.206 F 
ATOM     72  C   UNL A   1      52.683  25.889  25.929  1.00  0.00     0.060 A 
BRANCH  72  73
ATOM     73  S   UNL A   1      54.376  25.397  25.542  1.00  0.00     0.124 S 
ATOM     74  O   UNL A   1      54.283  23.941  25.630  1.00  0.00    -0.237 OA
ATOM     75  O   UNL A   1      54.558  25.938  24.199  1.00  0.00    -0.237 OA
ATOM     76  O   UNL A   1      55.166  26.038  26.587  1.00  0.00    -0.744 OA
ENDBRANCH  72  73
ENDBRANCH  51  65
BRANCH  52  77
ATOM     77  C   UNL A   1      40.646  29.120  28.865  1.00  0.00     0.058 A 
ATOM     78  C   UNL A   1      40.270  29.202  30.213  1.00  0.00     0.135 A 
ATOM     79  C   UNL A   1      39.673  29.415  27.896  1.00  0.00     0.135 A 
ATOM     80  F   UNL A   1      41.162  28.924  31.176  1.00  0.00    -0.206 F 
ATOM     81  C   UNL A   1      38.975  29.547  30.590  1.00  0.00     0.059 A 
ATOM     82  C   UNL A   1      38.380  29.790  28.249  1.00  0.00     0.059 A 
ATOM     83  F   UNL A   1      39.986  29.372  26.592  1.00  0.00    -0.206 F 
ATOM     84  C   UNL A   1      38.038  29.842  29.599  1.00  0.00     0.060 A 
BRANCH  84  85
ATOM     85  S   UNL A   1      36.375  30.340  30.099  1.00  0.00     0.124 S 
ATOM     86  O   UNL A   1      35.564  29.763  29.033  1.00  0.00    -0.237 OA
ATOM     87  O   UNL A   1      36.249  29.712  31.410  1.00  0.00    -0.237 OA
ATOM     88  O   UNL A   1      36.453  31.797  30.115  1.00  0.00    -0.744 OA
ENDBRANCH  84  85
ENDBRANCH  52  77
BRANCH  64  89
ATOM     89  C   UNL A   1      46.586  32.736  28.225  1.00  0.00     0.058 A 
ATOM     90  C   UNL A   1      47.090  33.248  29.430  1.00  0.00     0.135 A 
ATOM     91  C   UNL A   1      46.440  33.625  27.147  1.00  0.00     0.135 A 
ATOM     92  F   UNL A   1      47.241  32.443  30.496  1.00  0.00    -0.206 F 
ATOM     93  C   UNL A   1      47.416  34.593  29.570  1.00  0.00     0.059 A 
ATOM     94  C   UNL A   1      46.789  34.968  27.255  1.00  0.00     0.059 A 
ATOM     95  F   UNL A   1      45.969  33.188  25.968  1.00  0.00    -0.206 F 
ATOM     96  C   UNL A   1      47.265  35.444  28.474  1.00  0.00     0.060 A 
BRANCH  96  97
ATOM     97  S   UNL A   1      47.725  37.181  28.658  1.00  0.00     0.124 S 
ATOM     98  O   UNL A   1      47.116  37.774  27.471  1.00  0.00    -0.237 OA
ATOM     99  O   UNL A   1      47.106  37.533  29.932  1.00  0.00    -0.237 OA
ATOM    100  O   UNL A   1      49.184  37.148  28.666  1.00  0.00    -0.744 OA
ENDBRANCH  96  97
ENDBRANCH  64  89
ENDBRANCH  38  39
ENDBRANCH  30  33
ENDBRANCH  28  29
ENDBRANCH  27  28
ENDBRANCH  26  27
ENDBRANCH   1  26
TORSDOF 20
ENDMDL
MODEL 3
REMARK VINA RESULT:     -10.7      2.710      4.060
REMARK SMILES CC(C)(CC(=O)NCCCCCCNC(=O)c1ccc(-c2c3nc(c(-c4c(F)cc(S(=O)(=O)[O-])cc4F)c4ccc([nH]4)c(-c4c(F)cc(S(=O)(=O)[O-])cc4F)c4nc(c(-c5c(F)cc(S(=O)(=O)[O-])cc5F)c5ccc2[nH]5)C=C4)C=C3)cc1)NC(=O)c1nc(C(C)(C)C)n[nH]1
REMARK SMILES IDX 10 1 9 2 8 3 7 4 5 5 6 6 4 8 2 9 1 10 3 11 83 12 84 13 85 15
REMARK SMILES IDX 86 16 87 17 94 18 88 19 93 20 89 22 90 23 91 24 92 25 11 26
REMARK SMILES IDX 12 27 13 28 14 29 15 30 16 32 17 33 18 34 82 35 19 36 81 37
REMARK SMILES IDX 20 38 21 39 22 40 75 41 23 42 80 43 74 44 76 45 24 46 79 47
REMARK SMILES IDX 73 48 72 49 25 51 59 52 38 53 58 54 39 55 42 56 57 57 77 58
REMARK SMILES IDX 40 59 41 60 56 62 78 63 43 64 26 65 27 66 36 67 28 68 29 69
REMARK SMILES IDX 35 70 37 71 30 72 31 73 32 74 33 75 34 76 60 77 61 78 70 79
REMARK SMILES IDX 62 80 63 81 69 82 71 83 64 84 65 85 66 86 67 87 68 88 44 89
REMARK SMILES IDX 45 90 54 91 46 92 47 93 53 94 55 95 48 96 49 97 50 98 51 99
REMARK SMILES IDX 52 100
REMARK H PARENT 7 7 83 14 94 21 14 31 76 50 42 61
REMARK Flexibility Score: inf
ROOT
ATOM      1  C   UNL A   1      35.605  21.412  25.358  1.00  0.00     0.002 C 
ENDROOT
BRANCH   1   2
ATOM      2  C   UNL A   1      34.332  21.109  24.578  1.00  0.00     0.021 C 
BRANCH   2   3
ATOM      3  C   UNL A   1      33.287  22.217  24.592  1.00  0.00     0.116 C 
BRANCH   3   4
ATOM      4  N   UNL A   1      33.494  23.125  23.477  1.00  0.00    -0.356 N 
ATOM      5  C   UNL A   1      32.937  24.335  23.210  1.00  0.00     0.222 C 
ATOM      6  O   UNL A   1      33.172  24.859  22.120  1.00  0.00    -0.275 OA
ATOM      7  H   UNL A   1      34.144  22.812  22.806  1.00  0.00     0.163 HD
BRANCH   5   8
ATOM      8  C   UNL A   1      32.128  25.073  24.255  1.00  0.00     0.127 C 
BRANCH   8   9
ATOM      9  C   UNL A   1      32.788  26.277  24.982  1.00  0.00     0.044 C 
ATOM     10  C   UNL A   1      31.893  26.832  26.094  1.00  0.00     0.035 C 
ATOM     11  C   UNL A   1      34.024  25.699  25.729  1.00  0.00     0.035 C 
BRANCH   9  12
ATOM     12  N   UNL A   1      33.325  27.281  24.029  1.00  0.00    -0.344 N 
ATOM     13  C   UNL A   1      32.800  28.242  23.190  1.00  0.00     0.289 C 
ATOM     14  H   UNL A   1      34.309  27.254  23.985  1.00  0.00     0.164 HD
ATOM     15  O   UNL A   1      33.531  28.583  22.256  1.00  0.00    -0.266 OA
BRANCH  13  16
ATOM     16  C   UNL A   1      31.550  28.906  23.470  1.00  0.00     0.214 A 
ATOM     17  N   UNL A   1      30.429  28.807  22.769  1.00  0.00    -0.207 NA
ATOM     18  N   UNL A   1      31.410  29.940  24.346  1.00  0.00    -0.255 N 
ATOM     19  C   UNL A   1      29.621  29.796  23.286  1.00  0.00     0.156 A 
ATOM     20  N   UNL A   1      30.191  30.488  24.284  1.00  0.00    -0.158 NA
ATOM     21  H   UNL A   1      32.122  30.248  24.952  1.00  0.00     0.192 HD
BRANCH  19  22
ATOM     22  C   UNL A   1      28.233  30.135  22.773  1.00  0.00     0.024 C 
ATOM     23  C   UNL A   1      27.675  31.369  23.504  1.00  0.00     0.019 C 
ATOM     24  C   UNL A   1      28.192  30.443  21.261  1.00  0.00     0.019 C 
ATOM     25  C   UNL A   1      27.278  28.962  23.060  1.00  0.00     0.019 C 
ENDBRANCH  19  22
ENDBRANCH  13  16
ENDBRANCH   9  12
ENDBRANCH   8   9
ENDBRANCH   5   8
ENDBRANCH   3   4
ENDBRANCH   2   3
ENDBRANCH   1   2
BRANCH   1  26
ATOM     26  C   UNL A   1      36.749  20.410  25.225  1.00  0.00     0.002 C 
BRANCH  26  27
ATOM     27  C   UNL A   1      38.145  21.003  24.982  1.00  0.00     0.021 C 
BRANCH  27  28
ATOM     28  C   UNL A   1      39.154  20.886  26.126  1.00  0.00     0.116 C 
BRANCH  28  29
ATOM     29  N   UNL A   1      40.070  19.764  26.016  1.00  0.00    -0.352 N 
ATOM     30  C   UNL A   1      41.440  19.751  26.161  1.00  0.00     0.251 C 
ATOM     31  H   UNL A   1      39.656  18.895  25.809  1.00  0.00     0.163 HD
ATOM     32  O   UNL A   1      42.063  18.699  26.034  1.00  0.00    -0.269 OA
BRANCH  30  33
ATOM     33  C   UNL A   1      42.177  21.009  26.420  1.00  0.00     0.039 A 
ATOM     34  C   UNL A   1      42.593  21.776  25.329  1.00  0.00     0.014 A 
ATOM     35  C   UNL A   1      42.460  21.440  27.719  1.00  0.00     0.014 A 
ATOM     36  C   UNL A   1      43.223  23.006  25.545  1.00  0.00     0.010 A 
ATOM     37  C   UNL A   1      43.056  22.684  27.934  1.00  0.00     0.010 A 
ATOM     38  C   UNL A   1      43.424  23.490  26.849  1.00  0.00    -0.014 A 
BRANCH  38  39
ATOM     39  C   UNL A   1      43.926  24.871  27.080  1.00  0.00     0.031 A 
ATOM     40  C   UNL A   1      45.379  25.216  26.906  1.00  0.00     0.074 A 
ATOM     41  C   UNL A   1      43.059  25.808  27.516  1.00  0.00     0.049 A 
ATOM     42  N   UNL A   1      45.975  26.370  27.064  1.00  0.00    -0.248 NA
ATOM     43  C   UNL A   1      46.285  24.121  26.526  1.00  0.00     0.031 C 
ATOM     44  C   UNL A   1      41.640  25.576  27.796  1.00  0.00     0.029 A 
ATOM     45  N   UNL A   1      43.240  27.138  27.808  1.00  0.00    -0.354 N 
ATOM     46  C   UNL A   1      47.322  26.145  26.803  1.00  0.00     0.074 A 
ATOM     47  C   UNL A   1      47.463  24.732  26.527  1.00  0.00     0.031 C 
ATOM     48  C   UNL A   1      41.074  26.727  28.188  1.00  0.00     0.029 A 
ATOM     49  C   UNL A   1      42.092  27.771  28.223  1.00  0.00     0.049 A 
ATOM     50  H   UNL A   1      44.108  27.594  27.727  1.00  0.00     0.167 HD
ATOM     51  C   UNL A   1      48.341  27.040  26.776  1.00  0.00     0.037 A 
ATOM     52  C   UNL A   1      41.879  29.049  28.594  1.00  0.00     0.037 A 
ATOM     53  C   UNL A   1      48.188  28.447  27.048  1.00  0.00     0.049 A 
ATOM     54  C   UNL A   1      43.025  30.023  28.550  1.00  0.00     0.074 A 
ATOM     55  C   UNL A   1      49.146  29.445  26.983  1.00  0.00     0.029 A 
ATOM     56  N   UNL A   1      47.007  29.057  27.448  1.00  0.00    -0.354 N 
ATOM     57  N   UNL A   1      44.274  29.811  28.212  1.00  0.00    -0.248 NA
ATOM     58  C   UNL A   1      42.732  31.412  28.929  1.00  0.00     0.031 C 
ATOM     59  C   UNL A   1      48.558  30.646  27.395  1.00  0.00     0.029 A 
ATOM     60  C   UNL A   1      47.219  30.411  27.659  1.00  0.00     0.049 A 
ATOM     61  H   UNL A   1      46.146  28.596  27.565  1.00  0.00     0.167 HD
ATOM     62  C   UNL A   1      44.909  31.044  28.309  1.00  0.00     0.074 A 
ATOM     63  C   UNL A   1      43.904  31.999  28.725  1.00  0.00     0.031 C 
ATOM     64  C   UNL A   1      46.208  31.354  28.073  1.00  0.00     0.037 A 
BRANCH  51  65
ATOM     65  C   UNL A   1      49.718  26.528  26.437  1.00  0.00     0.058 A 
ATOM     66  C   UNL A   1      50.589  26.044  27.426  1.00  0.00     0.135 A 
ATOM     67  C   UNL A   1      50.152  26.470  25.102  1.00  0.00     0.135 A 
ATOM     68  F   UNL A   1      50.231  26.081  28.720  1.00  0.00    -0.206 F 
ATOM     69  C   UNL A   1      51.851  25.551  27.109  1.00  0.00     0.059 A 
ATOM     70  C   UNL A   1      51.399  25.954  24.758  1.00  0.00     0.059 A 
ATOM     71  F   UNL A   1      49.361  26.915  24.112  1.00  0.00    -0.206 F 
ATOM     72  C   UNL A   1      52.248  25.509  25.771  1.00  0.00     0.060 A 
BRANCH  72  73
ATOM     73  S   UNL A   1      53.886  24.860  25.377  1.00  0.00     0.124 S 
ATOM     74  O   UNL A   1      54.273  25.711  24.255  1.00  0.00    -0.237 OA
ATOM     75  O   UNL A   1      54.616  25.083  26.621  1.00  0.00    -0.237 OA
ATOM     76  O   UNL A   1      53.630  23.463  25.045  1.00  0.00    -0.744 OA
ENDBRANCH  72  73
ENDBRANCH  51  65
BRANCH  52  77
ATOM     77  C   UNL A   1      40.519  29.482  29.013  1.00  0.00     0.058 A 
ATOM     78  C   UNL A   1      39.482  29.617  28.078  1.00  0.00     0.135 A 
ATOM     79  C   UNL A   1      40.223  29.747  30.360  1.00  0.00     0.135 A 
ATOM     80  F   UNL A   1      39.715  29.380  26.778  1.00  0.00    -0.206 F 
ATOM     81  C   UNL A   1      38.204  30.014  28.460  1.00  0.00     0.059 A 
ATOM     82  C   UNL A   1      38.946  30.118  30.768  1.00  0.00     0.059 A 
ATOM     83  F   UNL A   1      41.174  29.614  31.297  1.00  0.00    -0.206 F 
ATOM     84  C   UNL A   1      37.945  30.260  29.809  1.00  0.00     0.060 A 
BRANCH  84  85
ATOM     85  S   UNL A   1      36.270  30.724  30.300  1.00  0.00     0.124 S 
ATOM     86  O   UNL A   1      35.541  30.557  29.048  1.00  0.00    -0.237 OA
ATOM     87  O   UNL A   1      35.977  29.750  31.346  1.00  0.00    -0.237 OA
ATOM     88  O   UNL A   1      36.426  32.100  30.762  1.00  0.00    -0.744 OA
ENDBRANCH  84  85
ENDBRANCH  52  77
BRANCH  64  89
ATOM     89  C   UNL A   1      46.615  32.796  28.226  1.00  0.00     0.058 A 
ATOM     90  C   UNL A   1      47.149  33.292  29.425  1.00  0.00     0.135 A 
ATOM     91  C   UNL A   1      46.513  33.681  27.140  1.00  0.00     0.135 A 
ATOM     92  F   UNL A   1      47.260  32.491  30.498  1.00  0.00    -0.206 F 
ATOM     93  C   UNL A   1      47.544  34.619  29.551  1.00  0.00     0.059 A 
ATOM     94  C   UNL A   1      46.931  35.005  27.234  1.00  0.00     0.059 A 
ATOM     95  F   UNL A   1      46.016  33.258  25.966  1.00  0.00    -0.206 F 
ATOM     96  C   UNL A   1      47.434  35.467  28.448  1.00  0.00     0.060 A 
BRANCH  96  97
ATOM     97  S   UNL A   1      47.984  37.180  28.615  1.00  0.00     0.124 S 
ATOM     98  O   UNL A   1      49.310  37.123  28.007  1.00  0.00    -0.237 OA
ATOM     99  O   UNL A   1      46.970  37.906  27.858  1.00  0.00    -0.237 OA
ATOM    100  O   UNL A   1      47.964  37.406  30.056  1.00  0.00    -0.744 OA
ENDBRANCH  96  97
ENDBRANCH  64  89
ENDBRANCH  38  39
ENDBRANCH  30  33
ENDBRANCH  28  29
ENDBRANCH  27  28
ENDBRANCH  26  27
ENDBRANCH   1  26
TORSDOF 20
ENDMDL
