MODEL 1
REMARK VINA RESULT:     -11.0      0.000      0.000
REMARK SMILES C[C@H](CC(=O)NCCCCCCNC(=O)c1ccc(-c2c3nc(c(-c4c(F)cc(S(=O)(=O)[O-])cc4F)c4ccc([nH]4)c(-c4c(F)cc(S(=O)(=O)[O-])cc4F)c4nc(c(-c5c(F)cc(S(=O)(=O)[O-])cc5F)c5ccc2[nH]5)C=C4)C=C3)cc1)c1ccc(O)cc1
REMARK SMILES IDX 9 1 8 2 7 3 6 4 4 5 5 6 3 8 2 9 1 10 82 11 83 12 88 13 84 14
REMARK SMILES IDX 87 15 85 16 86 17 10 19 11 20 12 21 13 22 14 23 15 25 16 26
REMARK SMILES IDX 17 27 81 28 18 29 80 30 19 31 20 32 21 33 74 34 22 35 79 36
REMARK SMILES IDX 73 37 75 38 23 39 78 40 72 41 71 42 24 44 58 45 37 46 57 47
REMARK SMILES IDX 38 48 41 49 56 50 76 51 39 52 40 53 55 55 77 56 42 57 25 58
REMARK SMILES IDX 26 59 35 60 27 61 28 62 34 63 36 64 29 65 30 66 31 67 32 68
REMARK SMILES IDX 33 69 59 70 60 71 69 72 61 73 62 74 68 75 70 76 63 77 64 78
REMARK SMILES IDX 65 79 66 80 67 81 43 82 44 83 53 84 45 85 46 86 52 87 54 88
REMARK SMILES IDX 47 89 48 90 49 91 50 92 51 93
REMARK H PARENT 6 7 86 18 13 24 75 43 41 54
REMARK Flexibility Score: inf
ROOT
ATOM      1  C   UNL A   1      39.508  21.604  26.597  1.00  0.00     0.002 C 
ENDROOT
BRANCH   1   2
ATOM      2  C   UNL A   1      38.696  22.819  26.151  1.00  0.00     0.021 C 
BRANCH   2   3
ATOM      3  C   UNL A   1      37.380  22.507  25.447  1.00  0.00     0.116 C 
BRANCH   3   4
ATOM      4  N   UNL A   1      36.356  22.168  26.424  1.00  0.00    -0.356 N 
ATOM      5  C   UNL A   1      35.164  21.527  26.254  1.00  0.00     0.220 C 
ATOM      6  O   UNL A   1      34.357  21.548  27.186  1.00  0.00    -0.275 OA
ATOM      7  H   UNL A   1      36.555  22.442  27.349  1.00  0.00     0.163 HD
BRANCH   5   8
ATOM      8  C   UNL A   1      34.875  20.741  24.985  1.00  0.00     0.108 C 
BRANCH   8   9
ATOM      9  C   UNL A   1      33.484  20.083  24.889  1.00  0.00     0.025 C 
ATOM     10  C   UNL A   1      32.641  20.651  23.740  1.00  0.00     0.013 C 
BRANCH   9  11
ATOM     11  C   UNL A   1      33.530  18.564  24.948  1.00  0.00    -0.044 A 
ATOM     12  C   UNL A   1      34.553  17.812  24.350  1.00  0.00     0.008 A 
ATOM     13  C   UNL A   1      32.521  17.876  25.650  1.00  0.00     0.008 A 
ATOM     14  C   UNL A   1      34.587  16.418  24.482  1.00  0.00     0.046 A 
ATOM     15  C   UNL A   1      32.553  16.484  25.781  1.00  0.00     0.046 A 
ATOM     16  C   UNL A   1      33.598  15.769  25.209  1.00  0.00     0.115 A 
BRANCH  16  17
ATOM     17  O   UNL A   1      33.710  14.420  25.377  1.00  0.00    -0.508 OA
ATOM     18  H   UNL A   1      33.270  13.999  26.089  1.00  0.00     0.293 HD
ENDBRANCH  16  17
ENDBRANCH   9  11
ENDBRANCH   8   9
ENDBRANCH   5   8
ENDBRANCH   3   4
ENDBRANCH   2   3
ENDBRANCH   1   2
BRANCH   1  19
ATOM     19  C   UNL A   1      41.014  21.715  26.351  1.00  0.00     0.002 C 
BRANCH  19  20
ATOM     20  C   UNL A   1      41.882  21.920  27.599  1.00  0.00     0.021 C 
BRANCH  20  21
ATOM     21  C   UNL A   1      42.793  23.148  27.575  1.00  0.00     0.116 C 
BRANCH  21  22
ATOM     22  N   UNL A   1      42.737  23.849  26.301  1.00  0.00    -0.352 N 
ATOM     23  C   UNL A   1      42.303  25.117  26.011  1.00  0.00     0.251 C 
ATOM     24  H   UNL A   1      43.060  23.333  25.528  1.00  0.00     0.163 HD
ATOM     25  O   UNL A   1      42.147  25.453  24.834  1.00  0.00    -0.269 OA
BRANCH  23  26
ATOM     26  C   UNL A   1      41.996  26.082  27.092  1.00  0.00     0.039 A 
ATOM     27  C   UNL A   1      40.878  25.853  27.899  1.00  0.00     0.014 A 
ATOM     28  C   UNL A   1      42.780  27.221  27.296  1.00  0.00     0.014 A 
ATOM     29  C   UNL A   1      40.592  26.723  28.954  1.00  0.00     0.010 A 
ATOM     30  C   UNL A   1      42.528  28.057  28.388  1.00  0.00     0.010 A 
ATOM     31  C   UNL A   1      41.435  27.811  29.235  1.00  0.00    -0.014 A 
BRANCH  31  32
ATOM     32  C   UNL A   1      41.205  28.660  30.435  1.00  0.00     0.031 A 
ATOM     33  C   UNL A   1      42.022  28.473  31.685  1.00  0.00     0.074 A 
ATOM     34  C   UNL A   1      40.217  29.580  30.411  1.00  0.00     0.049 A 
ATOM     35  N   UNL A   1      41.937  29.108  32.828  1.00  0.00    -0.248 NA
ATOM     36  C   UNL A   1      43.056  27.427  31.658  1.00  0.00     0.031 C 
ATOM     37  C   UNL A   1      39.321  29.825  29.279  1.00  0.00     0.029 A 
ATOM     38  N   UNL A   1      39.794  30.473  31.365  1.00  0.00    -0.354 N 
ATOM     39  C   UNL A   1      42.897  28.537  33.655  1.00  0.00     0.074 A 
ATOM     40  C   UNL A   1      43.524  27.474  32.898  1.00  0.00     0.031 C 
ATOM     41  C   UNL A   1      38.468  30.811  29.596  1.00  0.00     0.029 A 
ATOM     42  C   UNL A   1      38.728  31.245  30.965  1.00  0.00     0.049 A 
ATOM     43  H   UNL A   1      40.213  30.551  32.253  1.00  0.00     0.167 HD
ATOM     44  C   UNL A   1      43.235  28.879  34.922  1.00  0.00     0.037 A 
ATOM     45  C   UNL A   1      38.028  32.189  31.626  1.00  0.00     0.037 A 
ATOM     46  C   UNL A   1      42.623  29.952  35.663  1.00  0.00     0.049 A 
ATOM     47  C   UNL A   1      38.423  32.547  33.034  1.00  0.00     0.074 A 
ATOM     48  C   UNL A   1      42.950  30.419  36.926  1.00  0.00     0.029 A 
ATOM     49  N   UNL A   1      41.556  30.719  35.220  1.00  0.00    -0.354 N 
ATOM     50  N   UNL A   1      39.389  32.049  33.769  1.00  0.00    -0.248 NA
ATOM     51  C   UNL A   1      37.639  33.597  33.700  1.00  0.00     0.031 C 
ATOM     52  C   UNL A   1      42.047  31.430  37.267  1.00  0.00     0.029 A 
ATOM     53  C   UNL A   1      41.191  31.633  36.198  1.00  0.00     0.049 A 
ATOM     54  H   UNL A   1      41.121  30.628  34.343  1.00  0.00     0.167 HD
ATOM     55  C   UNL A   1      39.340  32.740  34.976  1.00  0.00     0.074 A 
ATOM     56  C   UNL A   1      38.264  33.702  34.865  1.00  0.00     0.031 C 
ATOM     57  C   UNL A   1      40.116  32.587  36.078  1.00  0.00     0.037 A 
BRANCH  44  58
ATOM     58  C   UNL A   1      44.323  28.089  35.600  1.00  0.00     0.058 A 
ATOM     59  C   UNL A   1      45.658  28.522  35.603  1.00  0.00     0.135 A 
ATOM     60  C   UNL A   1      44.013  26.922  36.318  1.00  0.00     0.135 A 
ATOM     61  F   UNL A   1      46.013  29.624  34.923  1.00  0.00    -0.206 F 
ATOM     62  C   UNL A   1      46.650  27.818  36.278  1.00  0.00     0.059 A 
ATOM     63  C   UNL A   1      44.984  26.217  37.023  1.00  0.00     0.059 A 
ATOM     64  F   UNL A   1      42.753  26.462  36.350  1.00  0.00    -0.206 F 
ATOM     65  C   UNL A   1      46.303  26.668  36.990  1.00  0.00     0.060 A 
BRANCH  65  66
ATOM     66  S   UNL A   1      47.598  25.783  37.883  1.00  0.00     0.124 S 
ATOM     67  O   UNL A   1      48.803  26.340  37.275  1.00  0.00    -0.237 OA
ATOM     68  O   UNL A   1      47.347  26.177  39.267  1.00  0.00    -0.237 OA
ATOM     69  O   UNL A   1      47.330  24.383  37.575  1.00  0.00    -0.744 OA
ENDBRANCH  65  66
ENDBRANCH  44  58
BRANCH  45  70
ATOM     70  C   UNL A   1      36.877  32.863  30.964  1.00  0.00     0.058 A 
ATOM     71  C   UNL A   1      35.556  32.480  31.235  1.00  0.00     0.135 A 
ATOM     72  C   UNL A   1      37.080  33.905  30.045  1.00  0.00     0.135 A 
ATOM     73  F   UNL A   1      35.310  31.484  32.101  1.00  0.00    -0.206 F 
ATOM     74  C   UNL A   1      34.476  33.089  30.604  1.00  0.00     0.059 A 
ATOM     75  C   UNL A   1      36.016  34.549  29.423  1.00  0.00     0.059 A 
ATOM     76  F   UNL A   1      38.324  34.322  29.763  1.00  0.00    -0.206 F 
ATOM     77  C   UNL A   1      34.717  34.125  29.700  1.00  0.00     0.060 A 
BRANCH  77  78
ATOM     78  S   UNL A   1      33.308  34.938  28.913  1.00  0.00     0.124 S 
ATOM     79  O   UNL A   1      32.442  35.194  30.057  1.00  0.00    -0.237 OA
ATOM     80  O   UNL A   1      33.931  36.109  28.305  1.00  0.00    -0.237 OA
ATOM     81  O   UNL A   1      32.828  33.933  27.969  1.00  0.00    -0.744 OA
ENDBRANCH  77  78
ENDBRANCH  45  70
BRANCH  57  82
ATOM     82  C   UNL A   1      39.846  33.493  37.247  1.00  0.00     0.058 A 
ATOM     83  C   UNL A   1      40.522  34.714  37.404  1.00  0.00     0.135 A 
ATOM     84  C   UNL A   1      38.866  33.161  38.197  1.00  0.00     0.135 A 
ATOM     85  F   UNL A   1      41.474  35.077  36.530  1.00  0.00    -0.206 F 
ATOM     86  C   UNL A   1      40.252  35.562  38.474  1.00  0.00     0.059 A 
ATOM     87  C   UNL A   1      38.558  34.007  39.258  1.00  0.00     0.059 A 
ATOM     88  F   UNL A   1      38.182  32.010  38.089  1.00  0.00    -0.206 F 
ATOM     89  C   UNL A   1      39.266  35.200  39.395  1.00  0.00     0.060 A 
BRANCH  89  90
ATOM     90  S   UNL A   1      38.904  36.325  40.760  1.00  0.00     0.124 S 
ATOM     91  O   UNL A   1      40.206  36.430  41.409  1.00  0.00    -0.237 OA
ATOM     92  O   UNL A   1      38.445  37.523  40.064  1.00  0.00    -0.237 OA
ATOM     93  O   UNL A   1      37.878  35.618  41.520  1.00  0.00    -0.744 OA
ENDBRANCH  89  90
ENDBRANCH  57  82
ENDBRANCH  31  32
ENDBRANCH  23  26
ENDBRANCH  21  22
ENDBRANCH  20  21
ENDBRANCH  19  20
ENDBRANCH   1  19
TORSDOF 19
ENDMDL
MODEL 2
REMARK VINA RESULT:     -10.9      5.335     10.251
REMARK SMILES C[C@H](CC(=O)NCCCCCCNC(=O)c1ccc(-c2c3nc(c(-c4c(F)cc(S(=O)(=O)[O-])cc4F)c4ccc([nH]4)c(-c4c(F)cc(S(=O)(=O)[O-])cc4F)c4nc(c(-c5c(F)cc(S(=O)(=O)[O-])cc5F)c5ccc2[nH]5)C=C4)C=C3)cc1)c1ccc(O)cc1
REMARK SMILES IDX 9 1 8 2 7 3 6 4 4 5 5 6 3 8 2 9 1 10 82 11 83 12 88 13 84 14
REMARK SMILES IDX 87 15 85 16 86 17 10 19 11 20 12 21 13 22 14 23 15 25 16 26
REMARK SMILES IDX 17 27 81 28 18 29 80 30 19 31 20 32 21 33 74 34 22 35 79 36
REMARK SMILES IDX 73 37 75 38 23 39 78 40 72 41 71 42 24 44 58 45 37 46 57 47
REMARK SMILES IDX 38 48 41 49 56 50 76 51 39 52 40 53 55 55 77 56 42 57 25 58
REMARK SMILES IDX 26 59 35 60 27 61 28 62 34 63 36 64 29 65 30 66 31 67 32 68
REMARK SMILES IDX 33 69 59 70 60 71 69 72 61 73 62 74 68 75 70 76 63 77 64 78
REMARK SMILES IDX 65 79 66 80 67 81 43 82 44 83 53 84 45 85 46 86 52 87 54 88
REMARK SMILES IDX 47 89 48 90 49 91 50 92 51 93
REMARK H PARENT 6 7 86 18 13 24 75 43 41 54
REMARK Flexibility Score: inf
ROOT
ATOM      1  C   UNL A   1      30.971  28.247  24.217  1.00  0.00     0.002 C 
ENDROOT
BRANCH   1   2
ATOM      2  C   UNL A   1      30.175  27.155  23.504  1.00  0.00     0.021 C 
BRANCH   2   3
ATOM      3  C   UNL A   1      30.796  25.762  23.537  1.00  0.00     0.116 C 
BRANCH   3   4
ATOM      4  N   UNL A   1      31.716  25.596  22.422  1.00  0.00    -0.356 N 
ATOM      5  C   UNL A   1      33.074  25.464  22.422  1.00  0.00     0.220 C 
ATOM      6  O   UNL A   1      33.664  25.561  21.344  1.00  0.00    -0.275 OA
ATOM      7  H   UNL A   1      31.293  25.575  21.532  1.00  0.00     0.163 HD
BRANCH   5   8
ATOM      8  C   UNL A   1      33.825  25.126  23.699  1.00  0.00     0.108 C 
BRANCH   8   9
ATOM      9  C   UNL A   1      33.932  23.630  24.056  1.00  0.00     0.025 C 
ATOM     10  C   UNL A   1      33.379  22.720  22.952  1.00  0.00     0.013 C 
BRANCH   9  11
ATOM     11  C   UNL A   1      35.304  23.231  24.576  1.00  0.00    -0.044 A 
ATOM     12  C   UNL A   1      36.071  24.061  25.409  1.00  0.00     0.008 A 
ATOM     13  C   UNL A   1      35.826  21.969  24.230  1.00  0.00     0.008 A 
ATOM     14  C   UNL A   1      37.303  23.626  25.912  1.00  0.00     0.046 A 
ATOM     15  C   UNL A   1      37.057  21.535  24.731  1.00  0.00     0.046 A 
ATOM     16  C   UNL A   1      37.777  22.363  25.584  1.00  0.00     0.115 A 
BRANCH  16  17
ATOM     17  O   UNL A   1      38.944  21.950  26.156  1.00  0.00    -0.508 OA
ATOM     18  H   UNL A   1      39.147  22.198  27.036  1.00  0.00     0.293 HD
ENDBRANCH  16  17
ENDBRANCH   9  11
ENDBRANCH   8   9
ENDBRANCH   5   8
ENDBRANCH   3   4
ENDBRANCH   2   3
ENDBRANCH   1   2
BRANCH   1  19
ATOM     19  C   UNL A   1      31.595  27.820  25.547  1.00  0.00     0.002 C 
BRANCH  19  20
ATOM     20  C   UNL A   1      33.105  28.053  25.683  1.00  0.00     0.021 C 
BRANCH  20  21
ATOM     21  C   UNL A   1      33.610  28.296  27.106  1.00  0.00     0.116 C 
BRANCH  21  22
ATOM     22  N   UNL A   1      33.522  29.697  27.489  1.00  0.00    -0.352 N 
ATOM     23  C   UNL A   1      34.441  30.498  28.115  1.00  0.00     0.251 C 
ATOM     24  H   UNL A   1      32.671  30.137  27.263  1.00  0.00     0.163 HD
ATOM     25  O   UNL A   1      34.097  31.607  28.535  1.00  0.00    -0.269 OA
BRANCH  23  26
ATOM     26  C   UNL A   1      35.835  30.043  28.318  1.00  0.00     0.039 A 
ATOM     27  C   UNL A   1      36.717  30.073  27.233  1.00  0.00     0.014 A 
ATOM     28  C   UNL A   1      36.272  29.560  29.555  1.00  0.00     0.014 A 
ATOM     29  C   UNL A   1      38.049  29.691  27.408  1.00  0.00     0.010 A 
ATOM     30  C   UNL A   1      37.618  29.236  29.743  1.00  0.00     0.010 A 
ATOM     31  C   UNL A   1      38.524  29.307  28.673  1.00  0.00    -0.014 A 
BRANCH  31  32
ATOM     32  C   UNL A   1      39.970  29.026  28.888  1.00  0.00     0.031 A 
ATOM     33  C   UNL A   1      40.559  27.686  28.539  1.00  0.00     0.074 A 
ATOM     34  C   UNL A   1      40.749  29.975  29.449  1.00  0.00     0.049 A 
ATOM     35  N   UNL A   1      41.790  27.264  28.684  1.00  0.00    -0.248 NA
ATOM     36  C   UNL A   1      39.646  26.682  27.969  1.00  0.00     0.031 C 
ATOM     37  C   UNL A   1      40.289  31.297  29.880  1.00  0.00     0.029 A 
ATOM     38  N   UNL A   1      42.087  29.975  29.760  1.00  0.00    -0.354 N 
ATOM     39  C   UNL A   1      41.800  25.950  28.232  1.00  0.00     0.074 A 
ATOM     40  C   UNL A   1      40.442  25.628  27.848  1.00  0.00     0.031 C 
ATOM     41  C   UNL A   1      41.327  31.984  30.382  1.00  0.00     0.029 A 
ATOM     42  C   UNL A   1      42.519  31.143  30.346  1.00  0.00     0.049 A 
ATOM     43  H   UNL A   1      42.681  29.210  29.581  1.00  0.00     0.167 HD
ATOM     44  C   UNL A   1      42.848  25.096  28.131  1.00  0.00     0.037 A 
ATOM     45  C   UNL A   1      43.733  31.496  30.812  1.00  0.00     0.037 A 
ATOM     46  C   UNL A   1      44.202  25.428  28.495  1.00  0.00     0.049 A 
ATOM     47  C   UNL A   1      44.879  30.528  30.691  1.00  0.00     0.074 A 
ATOM     48  C   UNL A   1      45.341  24.652  28.358  1.00  0.00     0.029 A 
ATOM     49  N   UNL A   1      44.602  26.624  29.072  1.00  0.00    -0.354 N 
ATOM     50  N   UNL A   1      44.883  29.317  30.184  1.00  0.00    -0.248 NA
ATOM     51  C   UNL A   1      46.185  30.972  31.198  1.00  0.00     0.031 C 
ATOM     52  C   UNL A   1      46.420  25.357  28.903  1.00  0.00     0.029 A 
ATOM     53  C   UNL A   1      45.964  26.594  29.329  1.00  0.00     0.049 A 
ATOM     54  H   UNL A   1      44.007  27.381  29.271  1.00  0.00     0.167 HD
ATOM     55  C   UNL A   1      46.194  28.865  30.294  1.00  0.00     0.074 A 
ATOM     56  C   UNL A   1      46.957  29.938  30.896  1.00  0.00     0.031 C 
ATOM     57  C   UNL A   1      46.716  27.667  29.931  1.00  0.00     0.037 A 
BRANCH  44  58
ATOM     58  C   UNL A   1      42.583  23.711  27.603  1.00  0.00     0.058 A 
ATOM     59  C   UNL A   1      42.598  23.430  26.228  1.00  0.00     0.135 A 
ATOM     60  C   UNL A   1      42.382  22.638  28.487  1.00  0.00     0.135 A 
ATOM     61  F   UNL A   1      42.773  24.419  25.337  1.00  0.00    -0.206 F 
ATOM     62  C   UNL A   1      42.408  22.138  25.748  1.00  0.00     0.059 A 
ATOM     63  C   UNL A   1      42.217  21.334  28.031  1.00  0.00     0.059 A 
ATOM     64  F   UNL A   1      42.358  22.850  29.813  1.00  0.00    -0.206 F 
ATOM     65  C   UNL A   1      42.222  21.095  26.657  1.00  0.00     0.060 A 
BRANCH  65  66
ATOM     66  S   UNL A   1      42.005  19.421  26.016  1.00  0.00     0.124 S 
ATOM     67  O   UNL A   1      42.892  19.436  24.857  1.00  0.00    -0.237 OA
ATOM     68  O   UNL A   1      42.443  18.598  27.140  1.00  0.00    -0.237 OA
ATOM     69  O   UNL A   1      40.579  19.354  25.714  1.00  0.00    -0.744 OA
ENDBRANCH  65  66
ENDBRANCH  44  58
BRANCH  45  70
ATOM     70  C   UNL A   1      43.929  32.831  31.442  1.00  0.00     0.058 A 
ATOM     71  C   UNL A   1      44.255  33.958  30.673  1.00  0.00     0.135 A 
ATOM     72  C   UNL A   1      43.795  33.003  32.829  1.00  0.00     0.135 A 
ATOM     73  F   UNL A   1      44.402  33.843  29.344  1.00  0.00    -0.206 F 
ATOM     74  C   UNL A   1      44.462  35.203  31.256  1.00  0.00     0.059 A 
ATOM     75  C   UNL A   1      43.969  34.245  33.432  1.00  0.00     0.059 A 
ATOM     76  F   UNL A   1      43.467  31.961  33.609  1.00  0.00    -0.206 F 
ATOM     77  C   UNL A   1      44.314  35.337  32.638  1.00  0.00     0.060 A 
BRANCH  77  78
ATOM     78  S   UNL A   1      44.547  36.966  33.384  1.00  0.00     0.124 S 
ATOM     79  O   UNL A   1      43.626  36.904  34.513  1.00  0.00    -0.237 OA
ATOM     80  O   UNL A   1      45.968  36.951  33.715  1.00  0.00    -0.237 OA
ATOM     81  O   UNL A   1      44.170  37.881  32.312  1.00  0.00    -0.744 OA
ENDBRANCH  77  78
ENDBRANCH  45  70
BRANCH  57  82
ATOM     82  C   UNL A   1      48.188  27.456  30.154  1.00  0.00     0.058 A 
ATOM     83  C   UNL A   1      48.684  26.943  31.363  1.00  0.00     0.135 A 
ATOM     84  C   UNL A   1      49.111  27.725  29.130  1.00  0.00     0.135 A 
ATOM     85  F   UNL A   1      47.847  26.677  32.378  1.00  0.00    -0.206 F 
ATOM     86  C   UNL A   1      50.045  26.726  31.557  1.00  0.00     0.059 A 
ATOM     87  C   UNL A   1      50.473  27.487  29.291  1.00  0.00     0.059 A 
ATOM     88  F   UNL A   1      48.691  28.207  27.949  1.00  0.00    -0.206 F 
ATOM     89  C   UNL A   1      50.932  26.999  30.514  1.00  0.00     0.060 A 
BRANCH  89  90
ATOM     90  S   UNL A   1      52.691  26.682  30.769  1.00  0.00     0.124 S 
ATOM     91  O   UNL A   1      53.096  27.863  31.523  1.00  0.00    -0.237 OA
ATOM     92  O   UNL A   1      52.677  25.428  31.515  1.00  0.00    -0.237 OA
ATOM     93  O   UNL A   1      53.220  26.592  29.412  1.00  0.00    -0.744 OA
ENDBRANCH  89  90
ENDBRANCH  57  82
ENDBRANCH  31  32
ENDBRANCH  23  26
ENDBRANCH  21  22
ENDBRANCH  20  21
ENDBRANCH  19  20
ENDBRANCH   1  19
TORSDOF 19
ENDMDL
MODEL 3
REMARK VINA RESULT:     -10.7      2.593      4.756
REMARK SMILES C[C@H](CC(=O)NCCCCCCNC(=O)c1ccc(-c2c3nc(c(-c4c(F)cc(S(=O)(=O)[O-])cc4F)c4ccc([nH]4)c(-c4c(F)cc(S(=O)(=O)[O-])cc4F)c4nc(c(-c5c(F)cc(S(=O)(=O)[O-])cc5F)c5ccc2[nH]5)C=C4)C=C3)cc1)c1ccc(O)cc1
REMARK SMILES IDX 9 1 8 2 7 3 6 4 4 5 5 6 3 8 2 9 1 10 82 11 83 12 88 13 84 14
REMARK SMILES IDX 87 15 85 16 86 17 10 19 11 20 12 21 13 22 14 23 15 25 16 26
REMARK SMILES IDX 17 27 81 28 18 29 80 30 19 31 20 32 21 33 74 34 22 35 79 36
REMARK SMILES IDX 73 37 75 38 23 39 78 40 72 41 71 42 24 44 58 45 37 46 57 47
REMARK SMILES IDX 38 48 41 49 56 50 76 51 39 52 40 53 55 55 77 56 42 57 25 58
REMARK SMILES IDX 26 59 35 60 27 61 28 62 34 63 36 64 29 65 30 66 31 67 32 68
REMARK SMILES IDX 33 69 59 70 60 71 69 72 61 73 62 74 68 75 70 76 63 77 64 78
REMARK SMILES IDX 65 79 66 80 67 81 43 82 44 83 53 84 45 85 46 86 52 87 54 88
REMARK SMILES IDX 47 89 48 90 49 91 50 92 51 93
REMARK H PARENT 6 7 86 18 13 24 75 43 41 54
REMARK Flexibility Score: inf
ROOT
ATOM      1  C   UNL A   1      35.406  23.375  24.895  1.00  0.00     0.002 C 
ENDROOT
BRANCH   1   2
ATOM      2  C   UNL A   1      34.648  22.824  23.689  1.00  0.00     0.021 C 
BRANCH   2   3
ATOM      3  C   UNL A   1      33.335  23.527  23.360  1.00  0.00     0.116 C 
BRANCH   3   4
ATOM      4  N   UNL A   1      33.564  24.594  22.397  1.00  0.00    -0.356 N 
ATOM      5  C   UNL A   1      33.500  25.947  22.561  1.00  0.00     0.220 C 
ATOM      6  O   UNL A   1      33.513  26.653  21.550  1.00  0.00    -0.275 OA
ATOM      7  H   UNL A   1      33.801  24.293  21.490  1.00  0.00     0.163 HD
BRANCH   5   8
ATOM      8  C   UNL A   1      33.498  26.565  23.949  1.00  0.00     0.108 C 
BRANCH   8   9
ATOM      9  C   UNL A   1      32.345  27.540  24.263  1.00  0.00     0.025 C 
ATOM     10  C   UNL A   1      31.013  26.820  24.503  1.00  0.00     0.013 C 
BRANCH   9  11
ATOM     11  C   UNL A   1      32.703  28.577  25.317  1.00  0.00    -0.044 A 
ATOM     12  C   UNL A   1      33.912  28.548  26.031  1.00  0.00     0.008 A 
ATOM     13  C   UNL A   1      31.800  29.625  25.579  1.00  0.00     0.008 A 
ATOM     14  C   UNL A   1      34.224  29.558  26.949  1.00  0.00     0.046 A 
ATOM     15  C   UNL A   1      32.110  30.633  26.498  1.00  0.00     0.046 A 
ATOM     16  C   UNL A   1      33.330  30.599  27.162  1.00  0.00     0.115 A 
BRANCH  16  17
ATOM     17  O   UNL A   1      33.706  31.601  28.007  1.00  0.00    -0.508 OA
ATOM     18  H   UNL A   1      33.147  32.342  28.132  1.00  0.00     0.293 HD
ENDBRANCH  16  17
ENDBRANCH   9  11
ENDBRANCH   8   9
ENDBRANCH   5   8
ENDBRANCH   3   4
ENDBRANCH   2   3
ENDBRANCH   1   2
BRANCH   1  19
ATOM     19  C   UNL A   1      36.916  23.516  24.694  1.00  0.00     0.002 C 
BRANCH  19  20
ATOM     20  C   UNL A   1      37.791  23.097  25.882  1.00  0.00     0.021 C 
BRANCH  20  21
ATOM     21  C   UNL A   1      38.605  24.217  26.530  1.00  0.00     0.116 C 
BRANCH  21  22
ATOM     22  N   UNL A   1      39.874  24.438  25.853  1.00  0.00    -0.352 N 
ATOM     23  C   UNL A   1      40.856  25.362  26.100  1.00  0.00     0.251 C 
ATOM     24  H   UNL A   1      40.054  23.830  25.100  1.00  0.00     0.163 HD
ATOM     25  O   UNL A   1      41.766  25.517  25.281  1.00  0.00    -0.269 OA
BRANCH  23  26
ATOM     26  C   UNL A   1      40.827  26.194  27.324  1.00  0.00     0.039 A 
ATOM     27  C   UNL A   1      41.695  27.286  27.416  1.00  0.00     0.014 A 
ATOM     28  C   UNL A   1      39.974  25.893  28.391  1.00  0.00     0.014 A 
ATOM     29  C   UNL A   1      41.657  28.114  28.541  1.00  0.00     0.010 A 
ATOM     30  C   UNL A   1      39.895  26.755  29.487  1.00  0.00     0.010 A 
ATOM     31  C   UNL A   1      40.729  27.881  29.570  1.00  0.00    -0.014 A 
BRANCH  31  32
ATOM     32  C   UNL A   1      40.598  28.836  30.704  1.00  0.00     0.031 A 
ATOM     33  C   UNL A   1      41.449  28.695  31.937  1.00  0.00     0.074 A 
ATOM     34  C   UNL A   1      39.668  29.812  30.640  1.00  0.00     0.049 A 
ATOM     35  N   UNL A   1      41.448  29.422  33.027  1.00  0.00    -0.248 NA
ATOM     36  C   UNL A   1      42.416  27.586  31.960  1.00  0.00     0.031 C 
ATOM     37  C   UNL A   1      38.745  30.024  29.522  1.00  0.00     0.029 A 
ATOM     38  N   UNL A   1      39.337  30.802  31.532  1.00  0.00    -0.354 N 
ATOM     39  C   UNL A   1      42.403  28.857  33.864  1.00  0.00     0.074 A 
ATOM     40  C   UNL A   1      42.934  27.700  33.175  1.00  0.00     0.031 C 
ATOM     41  C   UNL A   1      37.967  31.085  29.788  1.00  0.00     0.029 A 
ATOM     42  C   UNL A   1      38.306  31.608  31.108  1.00  0.00     0.049 A 
ATOM     43  H   UNL A   1      39.795  30.923  32.396  1.00  0.00     0.167 HD
ATOM     44  C   UNL A   1      42.811  29.275  35.087  1.00  0.00     0.037 A 
ATOM     45  C   UNL A   1      37.692  32.644  31.714  1.00  0.00     0.037 A 
ATOM     46  C   UNL A   1      42.295  30.440  35.760  1.00  0.00     0.049 A 
ATOM     47  C   UNL A   1      38.162  33.085  33.074  1.00  0.00     0.074 A 
ATOM     48  C   UNL A   1      42.699  30.982  36.969  1.00  0.00     0.029 A 
ATOM     49  N   UNL A   1      41.260  31.237  35.293  1.00  0.00    -0.354 N 
ATOM     50  N   UNL A   1      39.124  32.585  33.814  1.00  0.00    -0.248 NA
ATOM     51  C   UNL A   1      37.471  34.231  33.679  1.00  0.00     0.031 C 
ATOM     52  C   UNL A   1      41.873  32.073  37.258  1.00  0.00     0.029 A 
ATOM     53  C   UNL A   1      40.990  32.246  36.205  1.00  0.00     0.049 A 
ATOM     54  H   UNL A   1      40.787  31.105  34.441  1.00  0.00     0.167 HD
ATOM     55  C   UNL A   1      39.165  33.370  34.962  1.00  0.00     0.074 A 
ATOM     56  C   UNL A   1      38.146  34.387  34.810  1.00  0.00     0.031 C 
ATOM     57  C   UNL A   1      39.972  33.254  36.045  1.00  0.00     0.037 A 
BRANCH  44  58
ATOM     58  C   UNL A   1      43.874  28.473  35.790  1.00  0.00     0.058 A 
ATOM     59  C   UNL A   1      43.551  27.406  36.643  1.00  0.00     0.135 A 
ATOM     60  C   UNL A   1      45.234  28.729  35.550  1.00  0.00     0.135 A 
ATOM     61  F   UNL A   1      42.268  27.124  36.918  1.00  0.00    -0.206 F 
ATOM     62  C   UNL A   1      44.538  26.632  37.246  1.00  0.00     0.059 A 
ATOM     63  C   UNL A   1      46.237  27.951  36.121  1.00  0.00     0.059 A 
ATOM     64  F   UNL A   1      45.600  29.737  34.743  1.00  0.00    -0.206 F 
ATOM     65  C   UNL A   1      45.879  26.910  36.975  1.00  0.00     0.060 A 
BRANCH  65  66
ATOM     66  S   UNL A   1      47.145  25.878  37.745  1.00  0.00     0.124 S 
ATOM     67  O   UNL A   1      46.376  25.201  38.785  1.00  0.00    -0.237 OA
ATOM     68  O   UNL A   1      47.582  25.039  36.632  1.00  0.00    -0.237 OA
ATOM     69  O   UNL A   1      48.129  26.844  38.221  1.00  0.00    -0.744 OA
ENDBRANCH  65  66
ENDBRANCH  44  58
BRANCH  45  70
ATOM     70  C   UNL A   1      36.559  33.336  31.039  1.00  0.00     0.058 A 
ATOM     71  C   UNL A   1      36.772  34.171  29.933  1.00  0.00     0.135 A 
ATOM     72  C   UNL A   1      35.240  33.175  31.492  1.00  0.00     0.135 A 
ATOM     73  F   UNL A   1      38.016  34.362  29.466  1.00  0.00    -0.206 F 
ATOM     74  C   UNL A   1      35.723  34.839  29.310  1.00  0.00     0.059 A 
ATOM     75  C   UNL A   1      34.170  33.811  30.869  1.00  0.00     0.059 A 
ATOM     76  F   UNL A   1      34.979  32.375  32.537  1.00  0.00    -0.206 F 
ATOM     77  C   UNL A   1      34.424  34.651  29.786  1.00  0.00     0.060 A 
BRANCH  77  78
ATOM     78  S   UNL A   1      33.061  35.491  28.950  1.00  0.00     0.124 S 
ATOM     79  O   UNL A   1      33.771  36.504  28.178  1.00  0.00    -0.237 OA
ATOM     80  O   UNL A   1      32.458  34.407  28.181  1.00  0.00    -0.237 OA
ATOM     81  O   UNL A   1      32.250  35.993  30.054  1.00  0.00    -0.744 OA
ENDBRANCH  77  78
ENDBRANCH  45  70
BRANCH  57  82
ATOM     82  C   UNL A   1      39.804  34.265  37.146  1.00  0.00     0.058 A 
ATOM     83  C   UNL A   1      39.106  33.961  38.325  1.00  0.00     0.135 A 
ATOM     84  C   UNL A   1      40.389  35.538  37.042  1.00  0.00     0.135 A 
ATOM     85  F   UNL A   1      38.519  32.762  38.473  1.00  0.00    -0.206 F 
ATOM     86  C   UNL A   1      38.973  34.890  39.352  1.00  0.00     0.059 A 
ATOM     87  C   UNL A   1      40.295  36.473  38.069  1.00  0.00     0.059 A 
ATOM     88  F   UNL A   1      41.078  35.878  35.941  1.00  0.00    -0.206 F 
ATOM     89  C   UNL A   1      39.573  36.144  39.216  1.00  0.00     0.060 A 
BRANCH  89  90
ATOM     90  S   UNL A   1      39.421  37.328  40.570  1.00  0.00     0.124 S 
ATOM     91  O   UNL A   1      38.811  38.469  39.895  1.00  0.00    -0.237 OA
ATOM     92  O   UNL A   1      38.563  36.617  41.512  1.00  0.00    -0.237 OA
ATOM     93  O   UNL A   1      40.799  37.522  41.009  1.00  0.00    -0.744 OA
ENDBRANCH  89  90
ENDBRANCH  57  82
ENDBRANCH  31  32
ENDBRANCH  23  26
ENDBRANCH  21  22
ENDBRANCH  20  21
ENDBRANCH  19  20
ENDBRANCH   1  19
TORSDOF 19
ENDMDL
