MODEL 1
REMARK VINA RESULT:     -12.8      0.000      0.000
REMARK SMILES Cc1ccccc1/C=C1\SC(=S)N(CCC(=O)N[C@@H](C)C(=O)NCCCCCCNC(=O)c2ccc(-c3c4nc(c(-c5c(F)cc(S(=O)(=O)[O-])cc5F)c5ccc([nH]5)c(-c5c(F)cc(S(=O)(=O)[O-])cc5F)c5nc(c(-c6c(F)cc(S(=O)(=O)[O-])cc6F)c6ccc3[nH]6)C=C5)C=C4)cc2)C1=O
REMARK SMILES IDX 25 1 24 2 23 3 21 4 22 5 19 7 20 8 18 9 16 10 17 11 15 13
REMARK SMILES IDX 14 14 13 15 8 16 9 17 10 18 99 19 11 20 100 21 12 22 7 23
REMARK SMILES IDX 1 24 2 25 3 26 4 27 6 28 5 29 26 30 27 31 28 32 29 33 30 34
REMARK SMILES IDX 31 35 32 37 33 38 34 39 98 40 35 41 97 42 36 43 37 44 38 45
REMARK SMILES IDX 91 46 39 47 96 48 90 49 92 50 40 51 95 52 89 53 88 54 41 56
REMARK SMILES IDX 75 57 54 58 74 59 55 60 58 61 73 62 93 63 56 64 57 65 72 67
REMARK SMILES IDX 94 68 59 69 42 70 43 71 52 72 44 73 45 74 51 75 53 76 46 77
REMARK SMILES IDX 47 78 48 79 49 80 50 81 76 82 77 83 86 84 78 85 79 86 85 87
REMARK SMILES IDX 87 88 80 89 81 90 82 91 83 92 84 93 60 94 61 95 70 96 62 97
REMARK SMILES IDX 63 98 69 99 71 100 64 101 65 102 66 103 67 104 68 105
REMARK H PARENT 23 6 18 12 30 36 92 55 58 66
REMARK Flexibility Score: inf
ROOT
ATOM      1  C   UNL A   1      37.096  21.165  24.699  1.00  0.00     0.021 C 
ENDROOT
BRANCH   1   2
ATOM      2  C   UNL A   1      35.941  21.665  25.559  1.00  0.00     0.116 C 
BRANCH   2   3
ATOM      3  N   UNL A   1      34.783  20.789  25.523  1.00  0.00    -0.354 N 
ATOM      4  C   UNL A   1      33.506  20.986  25.954  1.00  0.00     0.242 C 
ATOM      5  O   UNL A   1      32.664  20.126  25.671  1.00  0.00    -0.273 OA
ATOM      6  H   UNL A   1      34.950  19.906  25.119  1.00  0.00     0.163 HD
BRANCH   4   7
ATOM      7  C   UNL A   1      33.070  22.262  26.699  1.00  0.00     0.168 C 
ATOM      8  C   UNL A   1      33.868  22.425  27.974  1.00  0.00     0.041 C 
BRANCH   7   9
ATOM      9  N   UNL A   1      31.649  22.402  27.002  1.00  0.00    -0.345 N 
ATOM     10  C   UNL A   1      30.817  23.425  26.630  1.00  0.00     0.222 C 
ATOM     11  O   UNL A   1      29.736  23.552  27.205  1.00  0.00    -0.275 OA
ATOM     12  H   UNL A   1      31.242  21.679  27.532  1.00  0.00     0.164 HD
BRANCH  10  13
ATOM     13  C   UNL A   1      31.190  24.351  25.479  1.00  0.00     0.122 C 
BRANCH  13  14
ATOM     14  C   UNL A   1      31.131  25.856  25.794  1.00  0.00     0.137 C 
BRANCH  14  15
ATOM     15  N   UNL A   1      30.940  26.728  24.618  1.00  0.00    -0.292 N 
ATOM     16  C   UNL A   1      28.551  28.826  23.035  1.00  0.00     0.029 C 
ATOM     17  C   UNL A   1      29.658  28.084  23.182  1.00  0.00     0.081 C 
ATOM     18  S   UNL A   1      31.263  28.427  22.689  1.00  0.00    -0.054 SA
ATOM     19  C   UNL A   1      29.660  26.922  24.117  1.00  0.00     0.266 C 
ATOM     20  C   UNL A   1      31.952  27.341  23.902  1.00  0.00     0.148 C 
ATOM     21  O   UNL A   1      28.654  26.304  24.431  1.00  0.00    -0.268 OA
ATOM     22  S   UNL A   1      33.601  27.160  24.084  1.00  0.00    -0.052 S 
BRANCH  16  23
ATOM     23  C   UNL A   1      28.453  30.162  22.421  1.00  0.00    -0.021 A 
ATOM     24  C   UNL A   1      29.415  31.312  24.474  1.00  0.00     0.045 C 
ATOM     25  C   UNL A   1      28.876  31.330  23.072  1.00  0.00    -0.044 A 
ATOM     26  C   UNL A   1      28.768  32.563  22.400  1.00  0.00     0.004 A 
ATOM     27  C   UNL A   1      28.277  32.635  21.096  1.00  0.00     0.000 A 
ATOM     28  C   UNL A   1      27.972  30.250  21.103  1.00  0.00     0.008 A 
ATOM     29  C   UNL A   1      27.881  31.476  20.444  1.00  0.00     0.001 A 
ENDBRANCH  16  23
ENDBRANCH  14  15
ENDBRANCH  13  14
ENDBRANCH  10  13
ENDBRANCH   7   9
ENDBRANCH   4   7
ENDBRANCH   2   3
ENDBRANCH   1   2
BRANCH   1  30
ATOM     30  C   UNL A   1      38.472  21.175  25.382  1.00  0.00     0.002 C 
BRANCH  30  31
ATOM     31  C   UNL A   1      38.883  22.461  26.119  1.00  0.00     0.002 C 
BRANCH  31  32
ATOM     32  C   UNL A   1      40.138  22.387  26.989  1.00  0.00     0.021 C 
BRANCH  32  33
ATOM     33  C   UNL A   1      40.747  23.734  27.360  1.00  0.00     0.116 C 
BRANCH  33  34
ATOM     34  N   UNL A   1      41.693  24.269  26.389  1.00  0.00    -0.352 N 
ATOM     35  C   UNL A   1      41.647  25.516  25.774  1.00  0.00     0.251 C 
ATOM     36  H   UNL A   1      42.446  23.685  26.141  1.00  0.00     0.163 HD
ATOM     37  O   UNL A   1      42.401  25.861  24.886  1.00  0.00    -0.269 OA
BRANCH  35  38
ATOM     38  C   UNL A   1      40.703  26.492  26.362  1.00  0.00     0.039 A 
ATOM     39  C   UNL A   1      41.134  27.822  26.406  1.00  0.00     0.014 A 
ATOM     40  C   UNL A   1      39.658  26.037  27.163  1.00  0.00     0.014 A 
ATOM     41  C   UNL A   1      40.661  28.646  27.418  1.00  0.00     0.010 A 
ATOM     42  C   UNL A   1      39.261  26.828  28.225  1.00  0.00     0.010 A 
ATOM     43  C   UNL A   1      39.809  28.106  28.386  1.00  0.00    -0.014 A 
BRANCH  43  44
ATOM     44  C   UNL A   1      39.548  28.793  29.644  1.00  0.00     0.031 A 
ATOM     45  C   UNL A   1      38.642  29.958  29.664  1.00  0.00     0.074 A 
ATOM     46  C   UNL A   1      40.191  28.426  30.776  1.00  0.00     0.049 A 
ATOM     47  N   UNL A   1      38.811  30.986  30.425  1.00  0.00    -0.248 NA
ATOM     48  C   UNL A   1      37.495  30.076  28.769  1.00  0.00     0.031 C 
ATOM     49  C   UNL A   1      39.957  28.936  32.123  1.00  0.00     0.029 A 
ATOM     50  N   UNL A   1      41.363  27.671  30.885  1.00  0.00    -0.354 N 
ATOM     51  C   UNL A   1      37.693  31.775  30.302  1.00  0.00     0.074 A 
ATOM     52  C   UNL A   1      36.932  31.201  29.216  1.00  0.00     0.031 C 
ATOM     53  C   UNL A   1      41.057  28.723  32.861  1.00  0.00     0.029 A 
ATOM     54  C   UNL A   1      42.077  28.165  31.990  1.00  0.00     0.049 A 
ATOM     55  H   UNL A   1      41.637  26.931  30.297  1.00  0.00     0.167 HD
ATOM     56  C   UNL A   1      37.438  32.756  31.212  1.00  0.00     0.037 A 
ATOM     57  C   UNL A   1      43.344  28.652  31.857  1.00  0.00     0.037 A 
ATOM     58  C   UNL A   1      38.464  32.811  32.244  1.00  0.00     0.049 A 
ATOM     59  C   UNL A   1      43.474  30.115  32.217  1.00  0.00     0.074 A 
ATOM     60  C   UNL A   1      38.551  32.217  33.493  1.00  0.00     0.029 A 
ATOM     61  N   UNL A   1      39.745  33.252  31.929  1.00  0.00    -0.354 N 
ATOM     62  N   UNL A   1      42.460  30.929  32.334  1.00  0.00    -0.248 NA
ATOM     63  C   UNL A   1      44.748  30.783  32.474  1.00  0.00     0.031 C 
ATOM     64  C   UNL A   1      39.906  32.235  33.900  1.00  0.00     0.029 A 
ATOM     65  C   UNL A   1      40.639  32.874  32.916  1.00  0.00     0.049 A 
ATOM     66  H   UNL A   1      39.983  33.759  31.120  1.00  0.00     0.167 HD
ATOM     67  C   UNL A   1      42.905  32.186  32.662  1.00  0.00     0.074 A 
ATOM     68  C   UNL A   1      44.346  32.036  32.756  1.00  0.00     0.031 C 
ATOM     69  C   UNL A   1      42.047  33.236  32.836  1.00  0.00     0.037 A 
BRANCH  56  70
ATOM     70  C   UNL A   1      36.069  33.379  31.302  1.00  0.00     0.058 A 
ATOM     71  C   UNL A   1      35.595  34.251  30.304  1.00  0.00     0.135 A 
ATOM     72  C   UNL A   1      35.226  33.221  32.421  1.00  0.00     0.135 A 
ATOM     73  F   UNL A   1      36.262  34.434  29.158  1.00  0.00    -0.206 F 
ATOM     74  C   UNL A   1      34.435  35.009  30.459  1.00  0.00     0.059 A 
ATOM     75  C   UNL A   1      34.086  34.005  32.622  1.00  0.00     0.059 A 
ATOM     76  F   UNL A   1      35.512  32.313  33.368  1.00  0.00    -0.206 F 
ATOM     77  C   UNL A   1      33.707  34.911  31.639  1.00  0.00     0.060 A 
BRANCH  77  78
ATOM     78  S   UNL A   1      32.312  36.028  31.891  1.00  0.00     0.124 S 
ATOM     79  O   UNL A   1      31.974  36.418  30.524  1.00  0.00    -0.237 OA
ATOM     80  O   UNL A   1      31.350  35.162  32.560  1.00  0.00    -0.237 OA
ATOM     81  O   UNL A   1      32.879  37.096  32.710  1.00  0.00    -0.744 OA
ENDBRANCH  77  78
ENDBRANCH  56  70
BRANCH  57  82
ATOM     82  C   UNL A   1      44.182  27.888  30.895  1.00  0.00     0.058 A 
ATOM     83  C   UNL A   1      44.566  26.581  31.257  1.00  0.00     0.135 A 
ATOM     84  C   UNL A   1      44.287  28.234  29.542  1.00  0.00     0.135 A 
ATOM     85  F   UNL A   1      44.498  26.194  32.541  1.00  0.00    -0.206 F 
ATOM     86  C   UNL A   1      44.922  25.623  30.310  1.00  0.00     0.059 A 
ATOM     87  C   UNL A   1      44.637  27.286  28.572  1.00  0.00     0.059 A 
ATOM     88  F   UNL A   1      43.946  29.464  29.133  1.00  0.00    -0.206 F 
ATOM     89  C   UNL A   1      44.897  25.971  28.962  1.00  0.00     0.060 A 
BRANCH  89  90
ATOM     90  S   UNL A   1      45.169  24.674  27.726  1.00  0.00     0.124 S 
ATOM     91  O   UNL A   1      44.293  23.604  28.194  1.00  0.00    -0.237 OA
ATOM     92  O   UNL A   1      44.737  25.335  26.497  1.00  0.00    -0.237 OA
ATOM     93  O   UNL A   1      46.598  24.408  27.839  1.00  0.00    -0.744 OA
ENDBRANCH  89  90
ENDBRANCH  57  82
BRANCH  69  94
ATOM     94  C   UNL A   1      42.414  34.691  33.052  1.00  0.00     0.058 A 
ATOM     95  C   UNL A   1      42.292  35.369  34.275  1.00  0.00     0.135 A 
ATOM     96  C   UNL A   1      43.069  35.414  32.020  1.00  0.00     0.135 A 
ATOM     97  F   UNL A   1      41.770  34.770  35.354  1.00  0.00    -0.206 F 
ATOM     98  C   UNL A   1      42.754  36.677  34.455  1.00  0.00     0.059 A 
ATOM     99  C   UNL A   1      43.586  36.695  32.196  1.00  0.00     0.059 A 
ATOM    100  F   UNL A   1      43.247  34.891  30.797  1.00  0.00    -0.206 F 
ATOM    101  C   UNL A   1      43.409  37.329  33.414  1.00  0.00     0.060 A 
BRANCH 101 102
ATOM    102  S   UNL A   1      44.107  38.972  33.662  1.00  0.00     0.124 S 
ATOM    103  O   UNL A   1      43.024  39.825  33.183  1.00  0.00    -0.237 OA
ATOM    104  O   UNL A   1      44.350  39.011  35.101  1.00  0.00    -0.237 OA
ATOM    105  O   UNL A   1      45.309  38.948  32.833  1.00  0.00    -0.744 OA
ENDBRANCH 101 102
ENDBRANCH  69  94
ENDBRANCH  43  44
ENDBRANCH  35  38
ENDBRANCH  33  34
ENDBRANCH  32  33
ENDBRANCH  31  32
ENDBRANCH  30  31
ENDBRANCH   1  30
TORSDOF 21
ENDMDL
MODEL 2
REMARK VINA RESULT:     -12.1      6.075     14.515
REMARK SMILES Cc1ccccc1/C=C1\SC(=S)N(CCC(=O)N[C@@H](C)C(=O)NCCCCCCNC(=O)c2ccc(-c3c4nc(c(-c5c(F)cc(S(=O)(=O)[O-])cc5F)c5ccc([nH]5)c(-c5c(F)cc(S(=O)(=O)[O-])cc5F)c5nc(c(-c6c(F)cc(S(=O)(=O)[O-])cc6F)c6ccc3[nH]6)C=C5)C=C4)cc2)C1=O
REMARK SMILES IDX 25 1 24 2 23 3 21 4 22 5 19 7 20 8 18 9 16 10 17 11 15 13
REMARK SMILES IDX 14 14 13 15 8 16 9 17 10 18 99 19 11 20 100 21 12 22 7 23
REMARK SMILES IDX 1 24 2 25 3 26 4 27 6 28 5 29 26 30 27 31 28 32 29 33 30 34
REMARK SMILES IDX 31 35 32 37 33 38 34 39 98 40 35 41 97 42 36 43 37 44 38 45
REMARK SMILES IDX 91 46 39 47 96 48 90 49 92 50 40 51 95 52 89 53 88 54 41 56
REMARK SMILES IDX 75 57 54 58 74 59 55 60 58 61 73 62 93 63 56 64 57 65 72 67
REMARK SMILES IDX 94 68 59 69 42 70 43 71 52 72 44 73 45 74 51 75 53 76 46 77
REMARK SMILES IDX 47 78 48 79 49 80 50 81 76 82 77 83 86 84 78 85 79 86 85 87
REMARK SMILES IDX 87 88 80 89 81 90 82 91 83 92 84 93 60 94 61 95 70 96 62 97
REMARK SMILES IDX 63 98 69 99 71 100 64 101 65 102 66 103 67 104 68 105
REMARK H PARENT 23 6 18 12 30 36 92 55 58 66
REMARK Flexibility Score: inf
ROOT
ATOM      1  C   UNL A   1      41.821  35.186  29.189  1.00  0.00     0.021 C 
ENDROOT
BRANCH   1   2
ATOM      2  C   UNL A   1      42.665  35.141  27.920  1.00  0.00     0.116 C 
BRANCH   2   3
ATOM      3  N   UNL A   1      44.063  34.842  28.177  1.00  0.00    -0.354 N 
ATOM      4  C   UNL A   1      45.149  35.662  28.251  1.00  0.00     0.242 C 
ATOM      5  O   UNL A   1      46.216  35.170  28.631  1.00  0.00    -0.273 OA
ATOM      6  H   UNL A   1      44.258  33.887  28.322  1.00  0.00     0.163 HD
BRANCH   4   7
ATOM      7  C   UNL A   1      45.067  37.173  27.958  1.00  0.00     0.168 C 
ATOM      8  C   UNL A   1      45.996  37.540  26.823  1.00  0.00     0.041 C 
BRANCH   7   9
ATOM      9  N   UNL A   1      45.297  38.079  29.079  1.00  0.00    -0.345 N 
ATOM     10  C   UNL A   1      44.957  39.404  29.160  1.00  0.00     0.222 C 
ATOM     11  O   UNL A   1      45.478  40.100  30.032  1.00  0.00    -0.275 OA
ATOM     12  H   UNL A   1      45.748  37.695  29.866  1.00  0.00     0.164 HD
BRANCH  10  13
ATOM     13  C   UNL A   1      43.903  39.994  28.233  1.00  0.00     0.122 C 
BRANCH  13  14
ATOM     14  C   UNL A   1      44.121  41.463  27.831  1.00  0.00     0.137 C 
BRANCH  14  15
ATOM     15  N   UNL A   1      44.570  41.665  26.439  1.00  0.00    -0.292 N 
ATOM     16  C   UNL A   1      43.613  43.173  23.369  1.00  0.00     0.029 C 
ATOM     17  C   UNL A   1      44.290  42.381  24.214  1.00  0.00     0.081 C 
ATOM     18  S   UNL A   1      45.976  42.087  24.304  1.00  0.00    -0.054 SA
ATOM     19  C   UNL A   1      43.625  41.856  25.441  1.00  0.00     0.266 C 
ATOM     20  C   UNL A   1      45.883  41.617  26.005  1.00  0.00     0.148 C 
ATOM     21  O   UNL A   1      42.417  41.703  25.544  1.00  0.00    -0.268 OA
ATOM     22  S   UNL A   1      47.244  41.201  26.878  1.00  0.00    -0.052 S 
BRANCH  16  23
ATOM     23  C   UNL A   1      44.177  44.022  22.305  1.00  0.00    -0.021 A 
ATOM     24  C   UNL A   1      43.040  42.685  20.466  1.00  0.00     0.045 C 
ATOM     25  C   UNL A   1      43.898  43.821  20.945  1.00  0.00    -0.044 A 
ATOM     26  C   UNL A   1      44.461  44.696  19.996  1.00  0.00     0.004 A 
ATOM     27  C   UNL A   1      45.262  45.769  20.389  1.00  0.00     0.000 A 
ATOM     28  C   UNL A   1      44.976  45.115  22.684  1.00  0.00     0.008 A 
ATOM     29  C   UNL A   1      45.519  45.981  21.735  1.00  0.00     0.001 A 
ENDBRANCH  16  23
ENDBRANCH  14  15
ENDBRANCH  13  14
ENDBRANCH  10  13
ENDBRANCH   7   9
ENDBRANCH   4   7
ENDBRANCH   2   3
ENDBRANCH   1   2
BRANCH   1  30
ATOM     30  C   UNL A   1      41.612  33.832  29.883  1.00  0.00     0.002 C 
BRANCH  30  31
ATOM     31  C   UNL A   1      40.320  33.649  30.697  1.00  0.00     0.002 C 
BRANCH  31  32
ATOM     32  C   UNL A   1      39.043  33.355  29.909  1.00  0.00     0.021 C 
BRANCH  32  33
ATOM     33  C   UNL A   1      38.417  31.992  30.178  1.00  0.00     0.116 C 
BRANCH  33  34
ATOM     34  N   UNL A   1      36.996  31.896  29.872  1.00  0.00    -0.352 N 
ATOM     35  C   UNL A   1      36.374  30.942  29.074  1.00  0.00     0.251 C 
ATOM     36  H   UNL A   1      36.413  32.580  30.273  1.00  0.00     0.163 HD
ATOM     37  O   UNL A   1      35.200  30.982  28.761  1.00  0.00    -0.269 OA
BRANCH  35  38
ATOM     38  C   UNL A   1      37.192  29.760  28.723  1.00  0.00     0.039 A 
ATOM     39  C   UNL A   1      37.450  28.856  29.760  1.00  0.00     0.014 A 
ATOM     40  C   UNL A   1      37.963  29.779  27.564  1.00  0.00     0.014 A 
ATOM     41  C   UNL A   1      38.626  28.118  29.726  1.00  0.00     0.010 A 
ATOM     42  C   UNL A   1      39.176  29.116  27.577  1.00  0.00     0.010 A 
ATOM     43  C   UNL A   1      39.532  28.338  28.685  1.00  0.00    -0.014 A 
BRANCH  43  44
ATOM     44  C   UNL A   1      40.910  27.868  28.758  1.00  0.00     0.031 A 
ATOM     45  C   UNL A   1      41.242  26.509  28.287  1.00  0.00     0.074 A 
ATOM     46  C   UNL A   1      41.869  28.631  29.329  1.00  0.00     0.049 A 
ATOM     47  N   UNL A   1      42.131  25.755  28.838  1.00  0.00    -0.248 NA
ATOM     48  C   UNL A   1      40.541  25.870  27.177  1.00  0.00     0.031 C 
ATOM     49  C   UNL A   1      43.300  28.352  29.376  1.00  0.00     0.029 A 
ATOM     50  N   UNL A   1      41.694  29.715  30.195  1.00  0.00    -0.354 N 
ATOM     51  C   UNL A   1      42.291  24.653  28.035  1.00  0.00     0.074 A 
ATOM     52  C   UNL A   1      41.238  24.738  27.048  1.00  0.00     0.031 C 
ATOM     53  C   UNL A   1      43.838  29.034  30.399  1.00  0.00     0.029 A 
ATOM     54  C   UNL A   1      42.758  29.693  31.112  1.00  0.00     0.049 A 
ATOM     55  H   UNL A   1      40.961  30.371  30.167  1.00  0.00     0.167 HD
ATOM     56  C   UNL A   1      43.375  23.842  28.183  1.00  0.00     0.037 A 
ATOM     57  C   UNL A   1      42.537  29.603  32.454  1.00  0.00     0.037 A 
ATOM     58  C   UNL A   1      44.255  24.310  29.245  1.00  0.00     0.049 A 
ATOM     59  C   UNL A   1      43.111  28.352  33.082  1.00  0.00     0.074 A 
ATOM     60  C   UNL A   1      45.367  25.138  29.226  1.00  0.00     0.029 A 
ATOM     61  N   UNL A   1      43.847  24.231  30.572  1.00  0.00    -0.354 N 
ATOM     62  N   UNL A   1      43.495  27.307  32.401  1.00  0.00    -0.248 NA
ATOM     63  C   UNL A   1      43.300  28.172  34.520  1.00  0.00     0.031 C 
ATOM     64  C   UNL A   1      45.584  25.618  30.539  1.00  0.00     0.029 A 
ATOM     65  C   UNL A   1      44.629  25.053  31.365  1.00  0.00     0.049 A 
ATOM     66  H   UNL A   1      43.107  23.671  30.901  1.00  0.00     0.167 HD
ATOM     67  C   UNL A   1      43.962  26.339  33.256  1.00  0.00     0.074 A 
ATOM     68  C   UNL A   1      43.835  26.938  34.572  1.00  0.00     0.031 C 
ATOM     69  C   UNL A   1      44.420  25.132  32.804  1.00  0.00     0.037 A 
BRANCH  56  70
ATOM     70  C   UNL A   1      43.750  22.860  27.103  1.00  0.00     0.058 A 
ATOM     71  C   UNL A   1      42.969  21.716  26.852  1.00  0.00     0.135 A 
ATOM     72  C   UNL A   1      44.941  22.958  26.356  1.00  0.00     0.135 A 
ATOM     73  F   UNL A   1      41.780  21.535  27.439  1.00  0.00    -0.206 F 
ATOM     74  C   UNL A   1      43.398  20.683  26.019  1.00  0.00     0.059 A 
ATOM     75  C   UNL A   1      45.416  21.916  25.554  1.00  0.00     0.059 A 
ATOM     76  F   UNL A   1      45.693  24.070  26.413  1.00  0.00    -0.206 F 
ATOM     77  C   UNL A   1      44.642  20.771  25.405  1.00  0.00     0.060 A 
BRANCH  77  78
ATOM     78  S   UNL A   1      45.251  19.350  24.476  1.00  0.00     0.124 S 
ATOM     79  O   UNL A   1      44.854  18.229  25.324  1.00  0.00    -0.237 OA
ATOM     80  O   UNL A   1      44.528  19.480  23.217  1.00  0.00    -0.237 OA
ATOM     81  O   UNL A   1      46.691  19.585  24.406  1.00  0.00    -0.744 OA
ENDBRANCH  77  78
ENDBRANCH  56  70
BRANCH  57  82
ATOM     82  C   UNL A   1      41.359  30.381  32.922  1.00  0.00     0.058 A 
ATOM     83  C   UNL A   1      40.159  29.678  33.150  1.00  0.00     0.135 A 
ATOM     84  C   UNL A   1      41.473  31.654  33.496  1.00  0.00     0.135 A 
ATOM     85  F   UNL A   1      39.987  28.457  32.617  1.00  0.00    -0.206 F 
ATOM     86  C   UNL A   1      39.168  30.158  34.002  1.00  0.00     0.059 A 
ATOM     87  C   UNL A   1      40.492  32.155  34.360  1.00  0.00     0.059 A 
ATOM     88  F   UNL A   1      42.586  32.379  33.311  1.00  0.00    -0.206 F 
ATOM     89  C   UNL A   1      39.371  31.374  34.650  1.00  0.00     0.060 A 
BRANCH  89  90
ATOM     90  S   UNL A   1      38.173  31.900  35.903  1.00  0.00     0.124 S 
ATOM     91  O   UNL A   1      37.032  32.318  35.093  1.00  0.00    -0.237 OA
ATOM     92  O   UNL A   1      37.974  30.669  36.664  1.00  0.00    -0.237 OA
ATOM     93  O   UNL A   1      38.873  32.974  36.597  1.00  0.00    -0.744 OA
ENDBRANCH  89  90
ENDBRANCH  57  82
BRANCH  69  94
ATOM     94  C   UNL A   1      44.820  23.933  33.641  1.00  0.00     0.058 A 
ATOM     95  C   UNL A   1      43.944  22.907  34.029  1.00  0.00     0.135 A 
ATOM     96  C   UNL A   1      46.188  23.712  33.951  1.00  0.00     0.135 A 
ATOM     97  F   UNL A   1      42.640  22.952  33.723  1.00  0.00    -0.206 F 
ATOM     98  C   UNL A   1      44.383  21.762  34.702  1.00  0.00     0.059 A 
ATOM     99  C   UNL A   1      46.653  22.555  34.569  1.00  0.00     0.059 A 
ATOM    100  F   UNL A   1      47.133  24.615  33.646  1.00  0.00    -0.206 F 
ATOM    101  C   UNL A   1      45.741  21.589  34.958  1.00  0.00     0.060 A 
BRANCH 101 102
ATOM    102  S   UNL A   1      46.338  20.071  35.725  1.00  0.00     0.124 S 
ATOM    103  O   UNL A   1      45.386  19.091  35.213  1.00  0.00    -0.237 OA
ATOM    104  O   UNL A   1      47.698  19.956  35.208  1.00  0.00    -0.237 OA
ATOM    105  O   UNL A   1      46.242  20.363  37.152  1.00  0.00    -0.744 OA
ENDBRANCH 101 102
ENDBRANCH  69  94
ENDBRANCH  43  44
ENDBRANCH  35  38
ENDBRANCH  33  34
ENDBRANCH  32  33
ENDBRANCH  31  32
ENDBRANCH  30  31
ENDBRANCH   1  30
TORSDOF 21
ENDMDL
MODEL 3
REMARK VINA RESULT:     -11.5      2.449      3.062
REMARK SMILES Cc1ccccc1/C=C1\SC(=S)N(CCC(=O)N[C@@H](C)C(=O)NCCCCCCNC(=O)c2ccc(-c3c4nc(c(-c5c(F)cc(S(=O)(=O)[O-])cc5F)c5ccc([nH]5)c(-c5c(F)cc(S(=O)(=O)[O-])cc5F)c5nc(c(-c6c(F)cc(S(=O)(=O)[O-])cc6F)c6ccc3[nH]6)C=C5)C=C4)cc2)C1=O
REMARK SMILES IDX 25 1 24 2 23 3 21 4 22 5 19 7 20 8 18 9 16 10 17 11 15 13
REMARK SMILES IDX 14 14 13 15 8 16 9 17 10 18 99 19 11 20 100 21 12 22 7 23
REMARK SMILES IDX 1 24 2 25 3 26 4 27 6 28 5 29 26 30 27 31 28 32 29 33 30 34
REMARK SMILES IDX 31 35 32 37 33 38 34 39 98 40 35 41 97 42 36 43 37 44 38 45
REMARK SMILES IDX 91 46 39 47 96 48 90 49 92 50 40 51 95 52 89 53 88 54 41 56
REMARK SMILES IDX 75 57 54 58 74 59 55 60 58 61 73 62 93 63 56 64 57 65 72 67
REMARK SMILES IDX 94 68 59 69 42 70 43 71 52 72 44 73 45 74 51 75 53 76 46 77
REMARK SMILES IDX 47 78 48 79 49 80 50 81 76 82 77 83 86 84 78 85 79 86 85 87
REMARK SMILES IDX 87 88 80 89 81 90 82 91 83 92 84 93 60 94 61 95 70 96 62 97
REMARK SMILES IDX 63 98 69 99 71 100 64 101 65 102 66 103 67 104 68 105
REMARK H PARENT 23 6 18 12 30 36 92 55 58 66
REMARK Flexibility Score: inf
ROOT
ATOM      1  C   UNL A   1      37.248  21.263  24.848  1.00  0.00     0.021 C 
ENDROOT
BRANCH   1   2
ATOM      2  C   UNL A   1      36.070  21.755  25.681  1.00  0.00     0.116 C 
BRANCH   2   3
ATOM      3  N   UNL A   1      34.855  20.993  25.454  1.00  0.00    -0.354 N 
ATOM      4  C   UNL A   1      33.565  21.248  25.815  1.00  0.00     0.242 C 
ATOM      5  O   UNL A   1      32.685  20.505  25.368  1.00  0.00    -0.273 OA
ATOM      6  H   UNL A   1      34.984  20.154  24.956  1.00  0.00     0.163 HD
BRANCH   4   7
ATOM      7  C   UNL A   1      33.172  22.460  26.682  1.00  0.00     0.168 C 
ATOM      8  C   UNL A   1      34.044  22.530  27.916  1.00  0.00     0.041 C 
BRANCH   7   9
ATOM      9  N   UNL A   1      31.771  22.565  27.079  1.00  0.00    -0.345 N 
ATOM     10  C   UNL A   1      30.851  23.483  26.644  1.00  0.00     0.222 C 
ATOM     11  O   UNL A   1      29.809  23.630  27.283  1.00  0.00    -0.275 OA
ATOM     12  H   UNL A   1      31.451  21.902  27.732  1.00  0.00     0.164 HD
BRANCH  10  13
ATOM     13  C   UNL A   1      31.079  24.260  25.354  1.00  0.00     0.122 C 
BRANCH  13  14
ATOM     14  C   UNL A   1      31.488  25.733  25.532  1.00  0.00     0.137 C 
BRANCH  14  15
ATOM     15  N   UNL A   1      31.167  26.608  24.387  1.00  0.00    -0.292 N 
ATOM     16  C   UNL A   1      28.675  28.818  23.153  1.00  0.00     0.029 C 
ATOM     17  C   UNL A   1      29.753  28.021  23.142  1.00  0.00     0.081 C 
ATOM     18  S   UNL A   1      31.281  28.279  22.411  1.00  0.00    -0.054 SA
ATOM     19  C   UNL A   1      29.837  26.865  24.080  1.00  0.00     0.266 C 
ATOM     20  C   UNL A   1      32.089  27.166  23.520  1.00  0.00     0.148 C 
ATOM     21  O   UNL A   1      28.860  26.301  24.550  1.00  0.00    -0.268 OA
ATOM     22  S   UNL A   1      33.736  26.902  23.456  1.00  0.00    -0.052 S 
BRANCH  16  23
ATOM     23  C   UNL A   1      28.553  30.154  22.544  1.00  0.00    -0.021 A 
ATOM     24  C   UNL A   1      29.527  31.310  24.587  1.00  0.00     0.045 C 
ATOM     25  C   UNL A   1      28.970  31.326  23.192  1.00  0.00    -0.044 A 
ATOM     26  C   UNL A   1      28.838  32.558  22.526  1.00  0.00     0.004 A 
ATOM     27  C   UNL A   1      28.328  32.628  21.228  1.00  0.00     0.000 A 
ATOM     28  C   UNL A   1      28.053  30.240  21.233  1.00  0.00     0.008 A 
ATOM     29  C   UNL A   1      27.937  31.466  20.579  1.00  0.00     0.001 A 
ENDBRANCH  16  23
ENDBRANCH  14  15
ENDBRANCH  13  14
ENDBRANCH  10  13
ENDBRANCH   7   9
ENDBRANCH   4   7
ENDBRANCH   2   3
ENDBRANCH   1   2
BRANCH   1  30
ATOM     30  C   UNL A   1      38.528  20.960  25.640  1.00  0.00     0.002 C 
BRANCH  30  31
ATOM     31  C   UNL A   1      39.093  22.084  26.525  1.00  0.00     0.002 C 
BRANCH  31  32
ATOM     32  C   UNL A   1      40.312  21.742  27.382  1.00  0.00     0.021 C 
BRANCH  32  33
ATOM     33  C   UNL A   1      41.299  22.886  27.585  1.00  0.00     0.116 C 
BRANCH  33  34
ATOM     34  N   UNL A   1      42.327  23.002  26.559  1.00  0.00    -0.352 N 
ATOM     35  C   UNL A   1      42.564  24.095  25.732  1.00  0.00     0.251 C 
ATOM     36  H   UNL A   1      42.917  22.223  26.436  1.00  0.00     0.163 HD
ATOM     37  O   UNL A   1      43.362  24.090  24.815  1.00  0.00    -0.269 OA
BRANCH  35  38
ATOM     38  C   UNL A   1      41.887  25.354  26.114  1.00  0.00     0.039 A 
ATOM     39  C   UNL A   1      42.543  26.540  25.768  1.00  0.00     0.014 A 
ATOM     40  C   UNL A   1      40.892  25.328  27.088  1.00  0.00     0.014 A 
ATOM     41  C   UNL A   1      42.355  27.664  26.561  1.00  0.00     0.010 A 
ATOM     42  C   UNL A   1      40.778  26.418  27.931  1.00  0.00     0.010 A 
ATOM     43  C   UNL A   1      41.555  27.560  27.702  1.00  0.00    -0.014 A 
BRANCH  43  44
ATOM     44  C   UNL A   1      41.582  28.572  28.751  1.00  0.00     0.031 A 
ATOM     45  C   UNL A   1      40.396  29.423  28.972  1.00  0.00     0.074 A 
ATOM     46  C   UNL A   1      42.709  28.796  29.465  1.00  0.00     0.049 A 
ATOM     47  N   UNL A   1      40.458  30.664  29.317  1.00  0.00    -0.248 NA
ATOM     48  C   UNL A   1      39.035  28.942  28.760  1.00  0.00     0.031 C 
ATOM     49  C   UNL A   1      42.860  29.686  30.611  1.00  0.00     0.029 A 
ATOM     50  N   UNL A   1      44.016  28.424  29.134  1.00  0.00    -0.354 N 
ATOM     51  C   UNL A   1      39.178  31.075  29.601  1.00  0.00     0.074 A 
ATOM     52  C   UNL A   1      38.321  29.990  29.181  1.00  0.00     0.031 C 
ATOM     53  C   UNL A   1      44.155  30.013  30.734  1.00  0.00     0.029 A 
ATOM     54  C   UNL A   1      44.870  29.432  29.610  1.00  0.00     0.049 A 
ATOM     55  H   UNL A   1      44.287  27.607  28.657  1.00  0.00     0.167 HD
ATOM     56  C   UNL A   1      38.961  32.229  30.291  1.00  0.00     0.037 A 
ATOM     57  C   UNL A   1      45.697  30.118  28.771  1.00  0.00     0.037 A 
ATOM     58  C   UNL A   1      40.212  32.887  30.644  1.00  0.00     0.049 A 
ATOM     59  C   UNL A   1      45.404  31.600  28.705  1.00  0.00     0.074 A 
ATOM     60  C   UNL A   1      41.004  32.818  31.779  1.00  0.00     0.029 A 
ATOM     61  N   UNL A   1      40.996  33.469  29.653  1.00  0.00    -0.354 N 
ATOM     62  N   UNL A   1      44.298  32.143  29.136  1.00  0.00    -0.248 NA
ATOM     63  C   UNL A   1      46.324  32.592  28.153  1.00  0.00     0.031 C 
ATOM     64  C   UNL A   1      42.295  33.294  31.448  1.00  0.00     0.029 A 
ATOM     65  C   UNL A   1      42.279  33.689  30.122  1.00  0.00     0.049 A 
ATOM     66  H   UNL A   1      40.683  33.693  28.746  1.00  0.00     0.167 HD
ATOM     67  C   UNL A   1      44.333  33.501  28.931  1.00  0.00     0.074 A 
ATOM     68  C   UNL A   1      45.633  33.733  28.329  1.00  0.00     0.031 C 
ATOM     69  C   UNL A   1      43.291  34.314  29.284  1.00  0.00     0.037 A 
BRANCH  56  70
ATOM     70  C   UNL A   1      37.619  32.507  30.914  1.00  0.00     0.058 A 
ATOM     71  C   UNL A   1      36.566  33.069  30.166  1.00  0.00     0.135 A 
ATOM     72  C   UNL A   1      37.357  32.329  32.288  1.00  0.00     0.135 A 
ATOM     73  F   UNL A   1      36.655  33.224  28.839  1.00  0.00    -0.206 F 
ATOM     74  C   UNL A   1      35.393  33.538  30.755  1.00  0.00     0.059 A 
ATOM     75  C   UNL A   1      36.212  32.835  32.910  1.00  0.00     0.059 A 
ATOM     76  F   UNL A   1      38.235  31.679  33.071  1.00  0.00    -0.206 F 
ATOM     77  C   UNL A   1      35.240  33.455  32.133  1.00  0.00     0.060 A 
BRANCH  77  78
ATOM     78  S   UNL A   1      33.795  34.226  32.892  1.00  0.00     0.124 S 
ATOM     79  O   UNL A   1      33.270  35.044  31.802  1.00  0.00    -0.237 OA
ATOM     80  O   UNL A   1      32.992  33.065  33.258  1.00  0.00    -0.237 OA
ATOM     81  O   UNL A   1      34.362  34.980  34.006  1.00  0.00    -0.744 OA
ENDBRANCH  77  78
ENDBRANCH  56  70
BRANCH  57  82
ATOM     82  C   UNL A   1      46.301  29.276  27.704  1.00  0.00     0.058 A 
ATOM     83  C   UNL A   1      47.337  28.394  28.073  1.00  0.00     0.135 A 
ATOM     84  C   UNL A   1      45.667  29.039  26.477  1.00  0.00     0.135 A 
ATOM     85  F   UNL A   1      47.989  28.577  29.234  1.00  0.00    -0.206 F 
ATOM     86  C   UNL A   1      47.649  27.262  27.326  1.00  0.00     0.059 A 
ATOM     87  C   UNL A   1      45.962  27.904  25.711  1.00  0.00     0.059 A 
ATOM     88  F   UNL A   1      44.679  29.846  26.063  1.00  0.00    -0.206 F 
ATOM     89  C   UNL A   1      46.914  26.994  26.174  1.00  0.00     0.060 A 
BRANCH  89  90
ATOM     90  S   UNL A   1      47.191  25.425  25.313  1.00  0.00     0.124 S 
ATOM     91  O   UNL A   1      48.320  25.738  24.441  1.00  0.00    -0.237 OA
ATOM     92  O   UNL A   1      47.497  24.524  26.422  1.00  0.00    -0.237 OA
ATOM     93  O   UNL A   1      45.923  25.193  24.634  1.00  0.00    -0.744 OA
ENDBRANCH  89  90
ENDBRANCH  57  82
BRANCH  69  94
ATOM     94  C   UNL A   1      43.142  35.792  28.981  1.00  0.00     0.058 A 
ATOM     95  C   UNL A   1      43.788  36.817  29.689  1.00  0.00     0.135 A 
ATOM     96  C   UNL A   1      42.434  36.208  27.822  1.00  0.00     0.135 A 
ATOM     97  F   UNL A   1      44.560  36.551  30.751  1.00  0.00    -0.206 F 
ATOM     98  C   UNL A   1      43.714  38.159  29.299  1.00  0.00     0.059 A 
ATOM     99  C   UNL A   1      42.394  37.529  27.386  1.00  0.00     0.059 A 
ATOM    100  F   UNL A   1      41.762  35.334  27.057  1.00  0.00    -0.206 F 
ATOM    101  C   UNL A   1      43.023  38.505  28.140  1.00  0.00     0.060 A 
BRANCH 101 102
ATOM    102  S   UNL A   1      43.008  40.212  27.562  1.00  0.00     0.124 S 
ATOM    103  O   UNL A   1      43.647  40.903  28.677  1.00  0.00    -0.237 OA
ATOM    104  O   UNL A   1      43.787  40.148  26.330  1.00  0.00    -0.237 OA
ATOM    105  O   UNL A   1      41.585  40.485  27.380  1.00  0.00    -0.744 OA
ENDBRANCH 101 102
ENDBRANCH  69  94
ENDBRANCH  43  44
ENDBRANCH  35  38
ENDBRANCH  33  34
ENDBRANCH  32  33
ENDBRANCH  31  32
ENDBRANCH  30  31
ENDBRANCH   1  30
TORSDOF 21
ENDMDL
