MODEL 1
REMARK VINA RESULT:     -10.1      0.000      0.000
REMARK SMILES CC[C@](C)(NC(=O)NC[C@@H](C)[NH+](C)C)C(=O)NCCCCCCNC(=O)c1ccc(-c2c3nc(c(-c4c(F)cc(S(=O)(=O)[O-])cc4F)c4ccc([nH]4)c(-c4c(F)cc(S(=O)(=O)[O-])cc4F)c4nc(c(-c5c(F)cc(S(=O)(=O)[O-])cc5F)c5ccc2[nH]5)C=C4)C=C3)cc1
REMARK SMILES IDX 20 1 19 2 18 3 17 4 15 5 16 6 3 8 4 9 2 10 1 11 5 12 6 13
REMARK SMILES IDX 7 15 8 16 9 18 10 19 11 20 12 21 13 22 14 23 21 25 22 26
REMARK SMILES IDX 23 27 24 28 25 29 26 31 27 32 28 33 92 34 29 35 91 36 30 37
REMARK SMILES IDX 31 38 32 39 85 40 33 41 90 42 84 43 86 44 34 45 89 46 83 47
REMARK SMILES IDX 82 48 35 50 69 51 48 52 68 53 49 54 52 55 67 56 87 57 50 58
REMARK SMILES IDX 51 59 66 61 88 62 53 63 36 64 37 65 46 66 38 67 39 68 45 69
REMARK SMILES IDX 47 70 40 71 41 72 42 73 43 74 44 75 70 76 71 77 80 78 72 79
REMARK SMILES IDX 73 80 79 81 81 82 74 83 75 84 76 85 77 86 78 87 54 88 55 89
REMARK SMILES IDX 64 90 56 91 57 92 63 93 65 94 58 95 59 96 60 97 61 98 62 99
REMARK H PARENT 17 7 5 14 8 17 12 24 24 30 86 49 52 60
REMARK Flexibility Score: inf
ROOT
ATOM      1  C   UNL A   1      36.596  32.860  28.107  1.00  0.00     0.002 C 
ENDROOT
BRANCH   1   2
ATOM      2  C   UNL A   1      35.104  33.106  28.328  1.00  0.00     0.021 C 
BRANCH   2   3
ATOM      3  C   UNL A   1      34.082  32.014  27.981  1.00  0.00     0.116 C 
BRANCH   3   4
ATOM      4  N   UNL A   1      34.449  30.609  28.107  1.00  0.00    -0.354 N 
ATOM      5  C   UNL A   1      34.190  29.497  27.347  1.00  0.00     0.245 C 
ATOM      6  O   UNL A   1      34.978  28.549  27.451  1.00  0.00    -0.272 OA
ATOM      7  H   UNL A   1      34.997  30.419  28.901  1.00  0.00     0.163 HD
BRANCH   5   8
ATOM      8  C   UNL A   1      33.070  29.459  26.280  1.00  0.00     0.117 C 
ATOM      9  C   UNL A   1      32.092  30.650  26.322  1.00  0.00     0.045 C 
BRANCH   8  10
ATOM     10  C   UNL A   1      32.239  28.166  26.583  1.00  0.00     0.035 C 
ATOM     11  C   UNL A   1      31.448  28.197  27.898  1.00  0.00     0.007 C 
ENDBRANCH   8  10
BRANCH   8  12
ATOM     12  N   UNL A   1      33.664  29.399  24.935  1.00  0.00    -0.324 N 
ATOM     13  C   UNL A   1      33.193  29.164  23.705  1.00  0.00     0.315 C 
ATOM     14  H   UNL A   1      34.633  29.573  24.942  1.00  0.00     0.166 HD
ATOM     15  O   UNL A   1      34.035  28.970  22.822  1.00  0.00    -0.249 OA
ATOM     16  N   UNL A   1      31.912  29.170  23.318  1.00  0.00    -0.332 N 
ATOM     17  H   UNL A   1      31.844  29.090  22.340  1.00  0.00     0.165 HD
BRANCH  16  18
ATOM     18  C   UNL A   1      30.579  29.263  23.928  1.00  0.00     0.182 C 
BRANCH  18  19
ATOM     19  C   UNL A   1      29.382  29.131  22.933  1.00  0.00     0.200 C 
ATOM     20  C   UNL A   1      28.641  27.798  23.100  1.00  0.00     0.077 C 
BRANCH  19  21
ATOM     21  N   UNL A   1      28.494  30.310  22.940  1.00  0.00    -0.336 N 
ATOM     22  C   UNL A   1      29.046  31.475  23.623  1.00  0.00     0.332 C 
ATOM     23  C   UNL A   1      27.909  30.668  21.660  1.00  0.00     0.332 C 
ATOM     24  H   UNL A   1      27.713  29.976  23.505  1.00  0.00     0.347 HD
ENDBRANCH  19  21
ENDBRANCH  18  19
ENDBRANCH  16  18
ENDBRANCH   8  12
ENDBRANCH   5   8
ENDBRANCH   3   4
ENDBRANCH   2   3
ENDBRANCH   1   2
BRANCH   1  25
ATOM     25  C   UNL A   1      37.546  33.767  28.884  1.00  0.00     0.002 C 
BRANCH  25  26
ATOM     26  C   UNL A   1      37.318  33.762  30.393  1.00  0.00     0.021 C 
BRANCH  26  27
ATOM     27  C   UNL A   1      37.728  32.470  31.089  1.00  0.00     0.116 C 
BRANCH  27  28
ATOM     28  N   UNL A   1      36.642  31.508  31.190  1.00  0.00    -0.352 N 
ATOM     29  C   UNL A   1      36.629  30.199  30.758  1.00  0.00     0.251 C 
ATOM     30  H   UNL A   1      35.816  31.831  31.618  1.00  0.00     0.163 HD
ATOM     31  O   UNL A   1      35.610  29.536  30.785  1.00  0.00    -0.269 OA
BRANCH  29  32
ATOM     32  C   UNL A   1      37.889  29.638  30.221  1.00  0.00     0.039 A 
ATOM     33  C   UNL A   1      38.156  29.759  28.857  1.00  0.00     0.014 A 
ATOM     34  C   UNL A   1      38.832  29.081  31.088  1.00  0.00     0.014 A 
ATOM     35  C   UNL A   1      39.407  29.379  28.371  1.00  0.00     0.010 A 
ATOM     36  C   UNL A   1      40.103  28.775  30.615  1.00  0.00     0.010 A 
ATOM     37  C   UNL A   1      40.404  28.921  29.251  1.00  0.00    -0.014 A 
BRANCH  37  38
ATOM     38  C   UNL A   1      41.769  28.609  28.761  1.00  0.00     0.031 A 
ATOM     39  C   UNL A   1      42.816  29.687  28.698  1.00  0.00     0.074 A 
ATOM     40  C   UNL A   1      42.047  27.367  28.319  1.00  0.00     0.049 A 
ATOM     41  N   UNL A   1      44.057  29.609  28.295  1.00  0.00    -0.248 NA
ATOM     42  C   UNL A   1      42.404  31.037  29.117  1.00  0.00     0.031 C 
ATOM     43  C   UNL A   1      41.095  26.255  28.266  1.00  0.00     0.029 A 
ATOM     44  N   UNL A   1      43.210  26.828  27.829  1.00  0.00    -0.354 N 
ATOM     45  C   UNL A   1      44.570  30.896  28.398  1.00  0.00     0.074 A 
ATOM     46  C   UNL A   1      43.488  31.747  28.845  1.00  0.00     0.031 C 
ATOM     47  C   UNL A   1      41.721  25.159  27.808  1.00  0.00     0.029 A 
ATOM     48  C   UNL A   1      43.108  25.496  27.505  1.00  0.00     0.049 A 
ATOM     49  H   UNL A   1      44.039  27.348  27.719  1.00  0.00     0.167 HD
ATOM     50  C   UNL A   1      45.834  31.325  28.169  1.00  0.00     0.037 A 
ATOM     51  C   UNL A   1      44.032  24.640  27.025  1.00  0.00     0.037 A 
ATOM     52  C   UNL A   1      46.909  30.466  27.746  1.00  0.00     0.049 A 
ATOM     53  C   UNL A   1      45.433  25.135  26.792  1.00  0.00     0.074 A 
ATOM     54  C   UNL A   1      48.242  30.783  27.557  1.00  0.00     0.029 A 
ATOM     55  N   UNL A   1      46.772  29.119  27.438  1.00  0.00    -0.354 N 
ATOM     56  N   UNL A   1      45.924  26.337  26.978  1.00  0.00    -0.248 NA
ATOM     57  C   UNL A   1      46.406  24.155  26.291  1.00  0.00     0.031 C 
ATOM     58  C   UNL A   1      48.902  29.640  27.090  1.00  0.00     0.029 A 
ATOM     59  C   UNL A   1      47.990  28.597  27.034  1.00  0.00     0.049 A 
ATOM     60  H   UNL A   1      45.931  28.610  27.497  1.00  0.00     0.167 HD
ATOM     61  C   UNL A   1      47.270  26.254  26.636  1.00  0.00     0.074 A 
ATOM     62  C   UNL A   1      47.517  24.880  26.247  1.00  0.00     0.031 C 
ATOM     63  C   UNL A   1      48.215  27.228  26.643  1.00  0.00     0.037 A 
BRANCH  50  64
ATOM     64  C   UNL A   1      46.115  32.789  28.374  1.00  0.00     0.058 A 
ATOM     65  C   UNL A   1      46.508  33.297  29.623  1.00  0.00     0.135 A 
ATOM     66  C   UNL A   1      45.994  33.696  27.309  1.00  0.00     0.135 A 
ATOM     67  F   UNL A   1      46.626  32.479  30.680  1.00  0.00    -0.206 F 
ATOM     68  C   UNL A   1      46.728  34.657  29.820  1.00  0.00     0.059 A 
ATOM     69  C   UNL A   1      46.238  35.056  27.476  1.00  0.00     0.059 A 
ATOM     70  F   UNL A   1      45.623  33.266  26.093  1.00  0.00    -0.206 F 
ATOM     71  C   UNL A   1      46.584  35.530  28.741  1.00  0.00     0.060 A 
BRANCH  71  72
ATOM     72  S   UNL A   1      46.854  37.294  29.016  1.00  0.00     0.124 S 
ATOM     73  O   UNL A   1      45.600  37.858  28.527  1.00  0.00    -0.237 OA
ATOM     74  O   UNL A   1      47.056  37.358  30.460  1.00  0.00    -0.237 OA
ATOM     75  O   UNL A   1      48.032  37.587  28.207  1.00  0.00    -0.744 OA
ENDBRANCH  71  72
ENDBRANCH  50  64
BRANCH  51  76
ATOM     76  C   UNL A   1      43.667  23.220  26.782  1.00  0.00     0.058 A 
ATOM     77  C   UNL A   1      43.426  22.347  27.854  1.00  0.00     0.135 A 
ATOM     78  C   UNL A   1      43.515  22.716  25.481  1.00  0.00     0.135 A 
ATOM     79  F   UNL A   1      43.565  22.780  29.116  1.00  0.00    -0.206 F 
ATOM     80  C   UNL A   1      43.052  21.023  27.645  1.00  0.00     0.059 A 
ATOM     81  C   UNL A   1      43.119  21.402  25.248  1.00  0.00     0.059 A 
ATOM     82  F   UNL A   1      43.718  23.515  24.423  1.00  0.00    -0.206 F 
ATOM     83  C   UNL A   1      42.895  20.562  26.338  1.00  0.00     0.060 A 
BRANCH  83  84
ATOM     84  S   UNL A   1      42.339  18.862  26.081  1.00  0.00     0.124 S 
ATOM     85  O   UNL A   1      40.936  19.060  25.735  1.00  0.00    -0.237 OA
ATOM     86  O   UNL A   1      43.208  18.416  24.998  1.00  0.00    -0.237 OA
ATOM     87  O   UNL A   1      42.588  18.231  27.375  1.00  0.00    -0.744 OA
ENDBRANCH  83  84
ENDBRANCH  51  76
BRANCH  63  88
ATOM     88  C   UNL A   1      49.607  26.836  26.231  1.00  0.00     0.058 A 
ATOM     89  C   UNL A   1      50.497  26.229  27.131  1.00  0.00     0.135 A 
ATOM     90  C   UNL A   1      50.043  27.035  24.912  1.00  0.00     0.135 A 
ATOM     91  F   UNL A   1      50.132  26.022  28.407  1.00  0.00    -0.206 F 
ATOM     92  C   UNL A   1      51.781  25.860  26.745  1.00  0.00     0.059 A 
ATOM     93  C   UNL A   1      51.314  26.649  24.497  1.00  0.00     0.059 A 
ATOM     94  F   UNL A   1      49.227  27.601  24.008  1.00  0.00    -0.206 F 
ATOM     95  C   UNL A   1      52.181  26.076  25.425  1.00  0.00     0.060 A 
BRANCH  95  96
ATOM     96  S   UNL A   1      53.843  25.575  24.930  1.00  0.00     0.124 S 
ATOM     97  O   UNL A   1      54.657  26.189  25.974  1.00  0.00    -0.237 OA
ATOM     98  O   UNL A   1      53.756  24.117  24.969  1.00  0.00    -0.237 OA
ATOM     99  O   UNL A   1      53.989  26.152  23.597  1.00  0.00    -0.744 OA
ENDBRANCH  95  96
ENDBRANCH  63  88
ENDBRANCH  37  38
ENDBRANCH  29  32
ENDBRANCH  27  28
ENDBRANCH  26  27
ENDBRANCH  25  26
ENDBRANCH   1  25
TORSDOF 21
ENDMDL
MODEL 2
REMARK VINA RESULT:      -9.9      1.236      8.311
REMARK SMILES CC[C@](C)(NC(=O)NC[C@@H](C)[NH+](C)C)C(=O)NCCCCCCNC(=O)c1ccc(-c2c3nc(c(-c4c(F)cc(S(=O)(=O)[O-])cc4F)c4ccc([nH]4)c(-c4c(F)cc(S(=O)(=O)[O-])cc4F)c4nc(c(-c5c(F)cc(S(=O)(=O)[O-])cc5F)c5ccc2[nH]5)C=C4)C=C3)cc1
REMARK SMILES IDX 20 1 19 2 18 3 17 4 15 5 16 6 3 8 4 9 2 10 1 11 5 12 6 13
REMARK SMILES IDX 7 15 8 16 9 18 10 19 11 20 12 21 13 22 14 23 21 25 22 26
REMARK SMILES IDX 23 27 24 28 25 29 26 31 27 32 28 33 92 34 29 35 91 36 30 37
REMARK SMILES IDX 31 38 32 39 85 40 33 41 90 42 84 43 86 44 34 45 89 46 83 47
REMARK SMILES IDX 82 48 35 50 69 51 48 52 68 53 49 54 52 55 67 56 87 57 50 58
REMARK SMILES IDX 51 59 66 61 88 62 53 63 36 64 37 65 46 66 38 67 39 68 45 69
REMARK SMILES IDX 47 70 40 71 41 72 42 73 43 74 44 75 70 76 71 77 80 78 72 79
REMARK SMILES IDX 73 80 79 81 81 82 74 83 75 84 76 85 77 86 78 87 54 88 55 89
REMARK SMILES IDX 64 90 56 91 57 92 63 93 65 94 58 95 59 96 60 97 61 98 62 99
REMARK H PARENT 17 7 5 14 8 17 12 24 24 30 86 49 52 60
REMARK Flexibility Score: inf
ROOT
ATOM      1  C   UNL A   1      35.327  30.998  27.619  1.00  0.00     0.002 C 
ENDROOT
BRANCH   1   2
ATOM      2  C   UNL A   1      33.829  30.729  27.756  1.00  0.00     0.021 C 
BRANCH   2   3
ATOM      3  C   UNL A   1      33.018  30.242  26.546  1.00  0.00     0.116 C 
BRANCH   3   4
ATOM      4  N   UNL A   1      33.708  29.746  25.361  1.00  0.00    -0.354 N 
ATOM      5  C   UNL A   1      33.487  28.689  24.516  1.00  0.00     0.245 C 
ATOM      6  O   UNL A   1      33.957  28.773  23.375  1.00  0.00    -0.272 OA
ATOM      7  H   UNL A   1      34.496  30.283  25.116  1.00  0.00     0.163 HD
BRANCH   5   8
ATOM      8  C   UNL A   1      32.561  27.507  24.887  1.00  0.00     0.117 C 
ATOM      9  C   UNL A   1      31.178  27.910  25.434  1.00  0.00     0.045 C 
BRANCH   8  10
ATOM     10  C   UNL A   1      33.302  26.728  26.028  1.00  0.00     0.035 C 
ATOM     11  C   UNL A   1      33.420  25.215  25.809  1.00  0.00     0.007 C 
ENDBRANCH   8  10
BRANCH   8  12
ATOM     12  N   UNL A   1      32.356  26.646  23.711  1.00  0.00    -0.324 N 
ATOM     13  C   UNL A   1      31.636  26.737  22.587  1.00  0.00     0.315 C 
ATOM     14  H   UNL A   1      32.870  25.807  23.764  1.00  0.00     0.166 HD
ATOM     15  O   UNL A   1      31.531  25.704  21.916  1.00  0.00    -0.249 OA
ATOM     16  N   UNL A   1      31.062  27.836  22.086  1.00  0.00    -0.332 N 
ATOM     17  H   UNL A   1      30.696  27.660  21.190  1.00  0.00     0.165 HD
BRANCH  16  18
ATOM     18  C   UNL A   1      30.821  29.230  22.482  1.00  0.00     0.182 C 
BRANCH  18  19
ATOM     19  C   UNL A   1      29.391  29.774  22.166  1.00  0.00     0.200 C 
ATOM     20  C   UNL A   1      28.298  28.958  22.869  1.00  0.00     0.077 C 
BRANCH  19  21
ATOM     21  N   UNL A   1      29.270  31.230  22.369  1.00  0.00    -0.336 N 
ATOM     22  C   UNL A   1      28.486  31.918  21.348  1.00  0.00     0.332 C 
ATOM     23  C   UNL A   1      28.894  31.653  23.706  1.00  0.00     0.332 C 
ATOM     24  H   UNL A   1      30.237  31.535  22.256  1.00  0.00     0.347 HD
ENDBRANCH  19  21
ENDBRANCH  18  19
ENDBRANCH  16  18
ENDBRANCH   8  12
ENDBRANCH   5   8
ENDBRANCH   3   4
ENDBRANCH   2   3
ENDBRANCH   1   2
BRANCH   1  25
ATOM     25  C   UNL A   1      35.764  32.450  27.783  1.00  0.00     0.002 C 
BRANCH  25  26
ATOM     26  C   UNL A   1      35.469  33.037  29.161  1.00  0.00     0.021 C 
BRANCH  26  27
ATOM     27  C   UNL A   1      36.506  32.701  30.225  1.00  0.00     0.116 C 
BRANCH  27  28
ATOM     28  N   UNL A   1      36.124  31.567  31.053  1.00  0.00    -0.352 N 
ATOM     29  C   UNL A   1      36.826  30.399  31.262  1.00  0.00     0.251 C 
ATOM     30  H   UNL A   1      35.260  31.643  31.520  1.00  0.00     0.163 HD
ATOM     31  O   UNL A   1      36.337  29.470  31.876  1.00  0.00    -0.269 OA
BRANCH  29  32
ATOM     32  C   UNL A   1      38.183  30.295  30.679  1.00  0.00     0.039 A 
ATOM     33  C   UNL A   1      39.287  30.314  31.530  1.00  0.00     0.014 A 
ATOM     34  C   UNL A   1      38.339  30.088  29.306  1.00  0.00     0.014 A 
ATOM     35  C   UNL A   1      40.555  30.056  31.006  1.00  0.00     0.010 A 
ATOM     36  C   UNL A   1      39.591  29.756  28.801  1.00  0.00     0.010 A 
ATOM     37  C   UNL A   1      40.712  29.736  29.646  1.00  0.00    -0.014 A 
BRANCH  37  38
ATOM     38  C   UNL A   1      42.039  29.362  29.099  1.00  0.00     0.031 A 
ATOM     39  C   UNL A   1      42.292  27.961  28.617  1.00  0.00     0.074 A 
ATOM     40  C   UNL A   1      43.034  30.272  29.092  1.00  0.00     0.049 A 
ATOM     41  N   UNL A   1      43.384  27.446  28.115  1.00  0.00    -0.248 NA
ATOM     42  C   UNL A   1      41.180  27.005  28.742  1.00  0.00     0.031 C 
ATOM     43  C   UNL A   1      42.930  31.643  29.598  1.00  0.00     0.029 A 
ATOM     44  N   UNL A   1      44.329  30.183  28.646  1.00  0.00    -0.354 N 
ATOM     45  C   UNL A   1      43.095  26.107  27.876  1.00  0.00     0.074 A 
ATOM     46  C   UNL A   1      41.746  25.876  28.344  1.00  0.00     0.031 C 
ATOM     47  C   UNL A   1      44.097  32.276  29.398  1.00  0.00     0.029 A 
ATOM     48  C   UNL A   1      45.041  31.350  28.781  1.00  0.00     0.049 A 
ATOM     49  H   UNL A   1      44.710  29.359  28.264  1.00  0.00     0.167 HD
ATOM     50  C   UNL A   1      43.873  25.164  27.294  1.00  0.00     0.037 A 
ATOM     51  C   UNL A   1      46.311  31.644  28.438  1.00  0.00     0.037 A 
ATOM     52  C   UNL A   1      45.208  25.409  26.811  1.00  0.00     0.049 A 
ATOM     53  C   UNL A   1      47.152  30.585  27.780  1.00  0.00     0.074 A 
ATOM     54  C   UNL A   1      46.053  24.545  26.139  1.00  0.00     0.029 A 
ATOM     55  N   UNL A   1      45.894  26.608  26.955  1.00  0.00    -0.354 N 
ATOM     56  N   UNL A   1      46.835  29.348  27.482  1.00  0.00    -0.248 NA
ATOM     57  C   UNL A   1      48.521  30.965  27.406  1.00  0.00     0.031 C 
ATOM     58  C   UNL A   1      47.268  25.206  25.919  1.00  0.00     0.029 A 
ATOM     59  C   UNL A   1      47.162  26.498  26.410  1.00  0.00     0.049 A 
ATOM     60  H   UNL A   1      45.531  27.417  27.383  1.00  0.00     0.167 HD
ATOM     61  C   UNL A   1      47.958  28.805  26.866  1.00  0.00     0.074 A 
ATOM     62  C   UNL A   1      48.955  29.856  26.821  1.00  0.00     0.031 C 
ATOM     63  C   UNL A   1      48.145  27.552  26.382  1.00  0.00     0.037 A 
BRANCH  50  64
ATOM     64  C   UNL A   1      43.295  23.783  27.151  1.00  0.00     0.058 A 
ATOM     65  C   UNL A   1      43.157  22.923  28.254  1.00  0.00     0.135 A 
ATOM     66  C   UNL A   1      42.869  23.311  25.899  1.00  0.00     0.135 A 
ATOM     67  F   UNL A   1      43.561  23.315  29.472  1.00  0.00    -0.206 F 
ATOM     68  C   UNL A   1      42.660  21.631  28.114  1.00  0.00     0.059 A 
ATOM     69  C   UNL A   1      42.340  22.033  25.740  1.00  0.00     0.059 A 
ATOM     70  F   UNL A   1      42.975  24.089  24.812  1.00  0.00    -0.206 F 
ATOM     71  C   UNL A   1      42.259  21.193  26.850  1.00  0.00     0.060 A 
BRANCH  71  72
ATOM     72  S   UNL A   1      41.634  19.508  26.680  1.00  0.00     0.124 S 
ATOM     73  O   UNL A   1      42.538  18.774  27.561  1.00  0.00    -0.237 OA
ATOM     74  O   UNL A   1      40.258  19.635  27.150  1.00  0.00    -0.237 OA
ATOM     75  O   UNL A   1      41.784  19.232  25.255  1.00  0.00    -0.744 OA
ENDBRANCH  71  72
ENDBRANCH  50  64
BRANCH  51  76
ATOM     76  C   UNL A   1      46.840  33.013  28.670  1.00  0.00     0.058 A 
ATOM     77  C   UNL A   1      47.532  33.326  29.851  1.00  0.00     0.135 A 
ATOM     78  C   UNL A   1      46.698  34.026  27.708  1.00  0.00     0.135 A 
ATOM     79  F   UNL A   1      47.687  32.393  30.803  1.00  0.00    -0.206 F 
ATOM     80  C   UNL A   1      48.062  34.593  30.071  1.00  0.00     0.059 A 
ATOM     81  C   UNL A   1      47.239  35.294  27.897  1.00  0.00     0.059 A 
ATOM     82  F   UNL A   1      46.059  33.773  26.556  1.00  0.00    -0.206 F 
ATOM     83  C   UNL A   1      47.915  35.569  29.085  1.00  0.00     0.060 A 
BRANCH  83  84
ATOM     84  S   UNL A   1      48.670  37.189  29.352  1.00  0.00     0.124 S 
ATOM     85  O   UNL A   1      49.165  37.061  30.718  1.00  0.00    -0.237 OA
ATOM     86  O   UNL A   1      49.685  37.229  28.305  1.00  0.00    -0.237 OA
ATOM     87  O   UNL A   1      47.552  38.111  29.168  1.00  0.00    -0.744 OA
ENDBRANCH  83  84
ENDBRANCH  51  76
BRANCH  63  88
ATOM     88  C   UNL A   1      49.476  27.253  25.748  1.00  0.00     0.058 A 
ATOM     89  C   UNL A   1      50.570  26.811  26.507  1.00  0.00     0.135 A 
ATOM     90  C   UNL A   1      49.648  27.376  24.360  1.00  0.00     0.135 A 
ATOM     91  F   UNL A   1      50.461  26.683  27.839  1.00  0.00    -0.206 F 
ATOM     92  C   UNL A   1      51.797  26.528  25.916  1.00  0.00     0.059 A 
ATOM     93  C   UNL A   1      50.858  27.072  23.744  1.00  0.00     0.059 A 
ATOM     94  F   UNL A   1      48.629  27.784  23.586  1.00  0.00    -0.206 F 
ATOM     95  C   UNL A   1      51.931  26.662  24.533  1.00  0.00     0.060 A 
BRANCH  95  96
ATOM     96  S   UNL A   1      53.522  26.273  23.775  1.00  0.00     0.124 S 
ATOM     97  O   UNL A   1      53.917  25.080  24.517  1.00  0.00    -0.237 OA
ATOM     98  O   UNL A   1      53.159  26.058  22.377  1.00  0.00    -0.237 OA
ATOM     99  O   UNL A   1      54.322  27.467  24.032  1.00  0.00    -0.744 OA
ENDBRANCH  95  96
ENDBRANCH  63  88
ENDBRANCH  37  38
ENDBRANCH  29  32
ENDBRANCH  27  28
ENDBRANCH  26  27
ENDBRANCH  25  26
ENDBRANCH   1  25
TORSDOF 21
ENDMDL
MODEL 3
REMARK VINA RESULT:      -9.9      6.752     12.267
REMARK SMILES CC[C@](C)(NC(=O)NC[C@@H](C)[NH+](C)C)C(=O)NCCCCCCNC(=O)c1ccc(-c2c3nc(c(-c4c(F)cc(S(=O)(=O)[O-])cc4F)c4ccc([nH]4)c(-c4c(F)cc(S(=O)(=O)[O-])cc4F)c4nc(c(-c5c(F)cc(S(=O)(=O)[O-])cc5F)c5ccc2[nH]5)C=C4)C=C3)cc1
REMARK SMILES IDX 20 1 19 2 18 3 17 4 15 5 16 6 3 8 4 9 2 10 1 11 5 12 6 13
REMARK SMILES IDX 7 15 8 16 9 18 10 19 11 20 12 21 13 22 14 23 21 25 22 26
REMARK SMILES IDX 23 27 24 28 25 29 26 31 27 32 28 33 92 34 29 35 91 36 30 37
REMARK SMILES IDX 31 38 32 39 85 40 33 41 90 42 84 43 86 44 34 45 89 46 83 47
REMARK SMILES IDX 82 48 35 50 69 51 48 52 68 53 49 54 52 55 67 56 87 57 50 58
REMARK SMILES IDX 51 59 66 61 88 62 53 63 36 64 37 65 46 66 38 67 39 68 45 69
REMARK SMILES IDX 47 70 40 71 41 72 42 73 43 74 44 75 70 76 71 77 80 78 72 79
REMARK SMILES IDX 73 80 79 81 81 82 74 83 75 84 76 85 77 86 78 87 54 88 55 89
REMARK SMILES IDX 64 90 56 91 57 92 63 93 65 94 58 95 59 96 60 97 61 98 62 99
REMARK H PARENT 17 7 5 14 8 17 12 24 24 30 86 49 52 60
REMARK Flexibility Score: inf
ROOT
ATOM      1  C   UNL A   1      38.376  21.777  25.707  1.00  0.00     0.002 C 
ENDROOT
BRANCH   1   2
ATOM      2  C   UNL A   1      37.421  20.820  24.995  1.00  0.00     0.021 C 
BRANCH   2   3
ATOM      3  C   UNL A   1      35.903  21.018  25.106  1.00  0.00     0.116 C 
BRANCH   3   4
ATOM      4  N   UNL A   1      35.298  21.284  26.406  1.00  0.00    -0.354 N 
ATOM      5  C   UNL A   1      34.022  21.587  26.806  1.00  0.00     0.245 C 
ATOM      6  O   UNL A   1      33.724  21.328  27.979  1.00  0.00    -0.272 OA
ATOM      7  H   UNL A   1      35.939  21.235  27.151  1.00  0.00     0.163 HD
BRANCH   5   8
ATOM      8  C   UNL A   1      32.935  22.079  25.823  1.00  0.00     0.117 C 
ATOM      9  C   UNL A   1      32.559  21.076  24.715  1.00  0.00     0.045 C 
BRANCH   8  10
ATOM     10  C   UNL A   1      33.541  23.342  25.118  1.00  0.00     0.035 C 
ATOM     11  C   UNL A   1      33.918  24.491  26.060  1.00  0.00     0.007 C 
ENDBRANCH   8  10
BRANCH   8  12
ATOM     12  N   UNL A   1      31.712  22.427  26.563  1.00  0.00    -0.324 N 
ATOM     13  C   UNL A   1      30.675  23.244  26.343  1.00  0.00     0.315 C 
ATOM     14  H   UNL A   1      31.640  21.946  27.419  1.00  0.00     0.166 HD
ATOM     15  O   UNL A   1      29.927  23.452  27.305  1.00  0.00    -0.249 OA
ATOM     16  N   UNL A   1      30.332  23.815  25.184  1.00  0.00    -0.332 N 
ATOM     17  H   UNL A   1      29.463  24.269  25.263  1.00  0.00     0.165 HD
BRANCH  16  18
ATOM     18  C   UNL A   1      30.873  23.961  23.826  1.00  0.00     0.182 C 
BRANCH  18  19
ATOM     19  C   UNL A   1      31.009  25.432  23.318  1.00  0.00     0.200 C 
ATOM     20  C   UNL A   1      30.905  26.447  24.464  1.00  0.00     0.077 C 
BRANCH  19  21
ATOM     21  N   UNL A   1      32.182  25.636  22.447  1.00  0.00    -0.336 N 
ATOM     22  C   UNL A   1      31.856  25.988  21.070  1.00  0.00     0.332 C 
ATOM     23  C   UNL A   1      33.227  26.489  22.984  1.00  0.00     0.332 C 
ATOM     24  H   UNL A   1      32.588  24.700  22.426  1.00  0.00     0.347 HD
ENDBRANCH  19  21
ENDBRANCH  18  19
ENDBRANCH  16  18
ENDBRANCH   8  12
ENDBRANCH   5   8
ENDBRANCH   3   4
ENDBRANCH   2   3
ENDBRANCH   1   2
BRANCH   1  25
ATOM     25  C   UNL A   1      37.945  23.239  25.757  1.00  0.00     0.002 C 
BRANCH  25  26
ATOM     26  C   UNL A   1      38.694  24.074  26.792  1.00  0.00     0.021 C 
BRANCH  26  27
ATOM     27  C   UNL A   1      39.549  25.189  26.204  1.00  0.00     0.116 C 
BRANCH  27  28
ATOM     28  N   UNL A   1      40.885  24.747  25.834  1.00  0.00    -0.352 N 
ATOM     29  C   UNL A   1      42.085  25.114  26.405  1.00  0.00     0.251 C 
ATOM     30  H   UNL A   1      40.938  24.109  25.086  1.00  0.00     0.163 HD
ATOM     31  O   UNL A   1      43.146  24.772  25.918  1.00  0.00    -0.269 OA
BRANCH  29  32
ATOM     32  C   UNL A   1      42.042  25.974  27.609  1.00  0.00     0.039 A 
ATOM     33  C   UNL A   1      42.626  27.239  27.557  1.00  0.00     0.014 A 
ATOM     34  C   UNL A   1      41.343  25.554  28.744  1.00  0.00     0.014 A 
ATOM     35  C   UNL A   1      42.450  28.116  28.628  1.00  0.00     0.010 A 
ATOM     36  C   UNL A   1      41.105  26.455  29.775  1.00  0.00     0.010 A 
ATOM     37  C   UNL A   1      41.655  27.746  29.728  1.00  0.00    -0.014 A 
BRANCH  37  38
ATOM     38  C   UNL A   1      41.379  28.704  30.826  1.00  0.00     0.031 A 
ATOM     39  C   UNL A   1      42.214  28.685  32.076  1.00  0.00     0.074 A 
ATOM     40  C   UNL A   1      40.337  29.553  30.719  1.00  0.00     0.049 A 
ATOM     41  N   UNL A   1      42.120  29.436  33.142  1.00  0.00    -0.248 NA
ATOM     42  C   UNL A   1      43.275  27.668  32.150  1.00  0.00     0.031 C 
ATOM     43  C   UNL A   1      39.413  29.619  29.585  1.00  0.00     0.029 A 
ATOM     44  N   UNL A   1      39.879  30.523  31.575  1.00  0.00    -0.354 N 
ATOM     45  C   UNL A   1      43.099  28.977  34.016  1.00  0.00     0.074 A 
ATOM     46  C   UNL A   1      43.734  27.843  33.380  1.00  0.00     0.031 C 
ATOM     47  C   UNL A   1      38.523  30.602  29.797  1.00  0.00     0.029 A 
ATOM     48  C   UNL A   1      38.793  31.214  31.094  1.00  0.00     0.049 A 
ATOM     49  H   UNL A   1      40.290  30.706  32.450  1.00  0.00     0.167 HD
ATOM     50  C   UNL A   1      43.455  29.472  35.225  1.00  0.00     0.037 A 
ATOM     51  C   UNL A   1      38.096  32.234  31.635  1.00  0.00     0.037 A 
ATOM     52  C   UNL A   1      42.832  30.615  35.840  1.00  0.00     0.049 A 
ATOM     53  C   UNL A   1      38.518  32.777  32.972  1.00  0.00     0.074 A 
ATOM     54  C   UNL A   1      43.165  31.243  37.026  1.00  0.00     0.029 A 
ATOM     55  N   UNL A   1      41.740  31.297  35.319  1.00  0.00    -0.354 N 
ATOM     56  N   UNL A   1      39.502  32.386  33.747  1.00  0.00    -0.248 NA
ATOM     57  C   UNL A   1      37.740  33.903  33.505  1.00  0.00     0.031 C 
ATOM     58  C   UNL A   1      42.246  32.277  37.246  1.00  0.00     0.029 A 
ATOM     59  C   UNL A   1      41.370  32.323  36.173  1.00  0.00     0.049 A 
ATOM     60  H   UNL A   1      41.295  31.083  34.467  1.00  0.00     0.167 HD
ATOM     61  C   UNL A   1      39.475  33.232  34.851  1.00  0.00     0.074 A 
ATOM     62  C   UNL A   1      38.387  34.165  34.634  1.00  0.00     0.031 C 
ATOM     63  C   UNL A   1      40.278  33.236  35.944  1.00  0.00     0.037 A 
BRANCH  50  64
ATOM     64  C   UNL A   1      44.570  28.774  35.956  1.00  0.00     0.058 A 
ATOM     65  C   UNL A   1      45.912  29.157  35.794  1.00  0.00     0.135 A 
ATOM     66  C   UNL A   1      44.296  27.712  36.833  1.00  0.00     0.135 A 
ATOM     67  F   UNL A   1      46.234  30.156  34.958  1.00  0.00    -0.206 F 
ATOM     68  C   UNL A   1      46.945  28.485  36.439  1.00  0.00     0.059 A 
ATOM     69  C   UNL A   1      45.311  27.045  37.513  1.00  0.00     0.059 A 
ATOM     70  F   UNL A   1      43.032  27.305  37.028  1.00  0.00    -0.206 F 
ATOM     71  C   UNL A   1      46.634  27.425  37.293  1.00  0.00     0.060 A 
BRANCH  71  72
ATOM     72  S   UNL A   1      47.986  26.550  38.109  1.00  0.00     0.124 S 
ATOM     73  O   UNL A   1      47.519  25.168  38.041  1.00  0.00    -0.237 OA
ATOM     74  O   UNL A   1      49.127  26.874  37.259  1.00  0.00    -0.237 OA
ATOM     75  O   UNL A   1      48.014  27.138  39.444  1.00  0.00    -0.744 OA
ENDBRANCH  71  72
ENDBRANCH  50  64
BRANCH  51  76
ATOM     76  C   UNL A   1      36.961  32.832  30.884  1.00  0.00     0.058 A 
ATOM     77  C   UNL A   1      35.635  32.514  31.213  1.00  0.00     0.135 A 
ATOM     78  C   UNL A   1      37.174  33.758  29.850  1.00  0.00     0.135 A 
ATOM     79  F   UNL A   1      35.381  31.629  32.189  1.00  0.00    -0.206 F 
ATOM     80  C   UNL A   1      34.559  33.088  30.543  1.00  0.00     0.059 A 
ATOM     81  C   UNL A   1      36.114  34.363  29.181  1.00  0.00     0.059 A 
ATOM     82  F   UNL A   1      38.423  34.108  29.509  1.00  0.00    -0.206 F 
ATOM     83  C   UNL A   1      34.810  34.017  29.532  1.00  0.00     0.060 A 
BRANCH  83  84
ATOM     84  S   UNL A   1      33.405  34.810  28.718  1.00  0.00     0.124 S 
ATOM     85  O   UNL A   1      33.014  33.793  27.748  1.00  0.00    -0.237 OA
ATOM     86  O   UNL A   1      32.485  35.018  29.832  1.00  0.00    -0.237 OA
ATOM     87  O   UNL A   1      33.987  36.027  28.159  1.00  0.00    -0.744 OA
ENDBRANCH  83  84
ENDBRANCH  51  76
BRANCH  63  88
ATOM     88  C   UNL A   1      40.017  34.292  36.983  1.00  0.00     0.058 A 
ATOM     89  C   UNL A   1      39.205  34.042  38.099  1.00  0.00     0.135 A 
ATOM     90  C   UNL A   1      40.617  35.557  36.879  1.00  0.00     0.135 A 
ATOM     91  F   UNL A   1      38.602  32.850  38.242  1.00  0.00    -0.206 F 
ATOM     92  C   UNL A   1      38.973  35.018  39.062  1.00  0.00     0.059 A 
ATOM     93  C   UNL A   1      40.421  36.539  37.845  1.00  0.00     0.059 A 
ATOM     94  F   UNL A   1      41.414  35.845  35.837  1.00  0.00    -0.206 F 
ATOM     95  C   UNL A   1      39.585  36.264  38.926  1.00  0.00     0.060 A 
BRANCH  95  96
ATOM     96  S   UNL A   1      39.292  37.517  40.192  1.00  0.00     0.124 S 
ATOM     97  O   UNL A   1      38.246  38.323  39.572  1.00  0.00    -0.237 OA
ATOM     98  O   UNL A   1      38.878  36.713  41.339  1.00  0.00    -0.237 OA
ATOM     99  O   UNL A   1      40.590  38.171  40.330  1.00  0.00    -0.744 OA
ENDBRANCH  95  96
ENDBRANCH  63  88
ENDBRANCH  37  38
ENDBRANCH  29  32
ENDBRANCH  27  28
ENDBRANCH  26  27
ENDBRANCH  25  26
ENDBRANCH   1  25
TORSDOF 21
ENDMDL
