MODEL 1
REMARK VINA RESULT:     -12.1      0.000      0.000
REMARK SMILES O=C(NCCCCCCNC(=O)[C@H]1Cc2c([nH]c3ccccc23)[C@@H](c2ccc(OC(F)(F)F)cc2)[NH2+]1)c1ccc(-c2c3nc(c(-c4c(F)cc(S(=O)(=O)[O-])cc4F)c4ccc([nH]4)c(-c4c(F)cc(S(=O)(=O)[O-])cc4F)c4nc(c(-c5c(F)cc(S(=O)(=O)[O-])cc5F)c5ccc2[nH]5)C=C4)C=C3)cc1
REMARK SMILES IDX 6 1 5 2 4 3 3 4 1 5 2 6 37 8 38 9 102 10 39 11 101 12 40 13
REMARK SMILES IDX 41 14 42 15 95 16 43 17 100 18 94 19 96 20 44 21 99 22 93 23
REMARK SMILES IDX 92 24 45 26 79 27 58 28 78 29 59 30 62 31 77 32 97 33 60 34
REMARK SMILES IDX 61 35 76 37 98 38 63 39 46 40 47 41 56 42 48 43 49 44 55 45
REMARK SMILES IDX 57 46 50 47 51 48 52 49 53 50 54 51 80 52 81 53 90 54 82 55
REMARK SMILES IDX 83 56 89 57 91 58 84 59 85 60 86 61 87 62 88 63 64 64 65 65
REMARK SMILES IDX 74 66 66 67 67 68 73 69 75 70 68 71 69 72 70 73 71 74 72 75
REMARK SMILES IDX 7 76 8 77 9 78 10 79 11 80 12 82 13 83 14 84 36 85 15 86
REMARK SMILES IDX 24 87 16 90 23 91 17 92 18 93 22 94 19 96 21 97 20 98 25 99
REMARK SMILES IDX 26 100 35 101 27 102 34 103 28 104 29 105 30 106 31 107
REMARK SMILES IDX 32 108 33 109
REMARK H PARENT 3 7 96 25 62 36 10 81 36 88 36 89 17 95
REMARK Flexibility Score: inf
ROOT
ATOM      1  C   UNL A   1      32.991  27.103  24.895  1.00  0.00     0.002 C 
ENDROOT
BRANCH   1   2
ATOM      2  C   UNL A   1      33.723  28.329  25.443  1.00  0.00     0.021 C 
BRANCH   2   3
ATOM      3  C   UNL A   1      33.843  28.384  26.962  1.00  0.00     0.116 C 
BRANCH   3   4
ATOM      4  N   UNL A   1      33.657  29.725  27.492  1.00  0.00    -0.352 N 
ATOM      5  O   UNL A   1      34.144  31.552  28.721  1.00  0.00    -0.269 OA
ATOM      6  C   UNL A   1      34.530  30.501  28.218  1.00  0.00     0.251 C 
ATOM      7  H   UNL A   1      32.783  30.136  27.305  1.00  0.00     0.163 HD
BRANCH   6   8
ATOM      8  C   UNL A   1      35.926  30.051  28.416  1.00  0.00     0.039 A 
ATOM      9  C   UNL A   1      36.357  29.588  29.661  1.00  0.00     0.014 A 
ATOM     10  C   UNL A   1      36.819  30.100  27.341  1.00  0.00     0.014 A 
ATOM     11  C   UNL A   1      37.707  29.326  29.871  1.00  0.00     0.010 A 
ATOM     12  C   UNL A   1      38.162  29.758  27.534  1.00  0.00     0.010 A 
ATOM     13  C   UNL A   1      38.627  29.410  28.812  1.00  0.00    -0.014 A 
BRANCH  13  14
ATOM     14  C   UNL A   1      40.060  29.109  29.067  1.00  0.00     0.031 A 
ATOM     15  C   UNL A   1      40.660  27.788  28.661  1.00  0.00     0.074 A 
ATOM     16  C   UNL A   1      40.835  30.055  29.631  1.00  0.00     0.049 A 
ATOM     17  N   UNL A   1      41.902  27.383  28.758  1.00  0.00    -0.248 NA
ATOM     18  C   UNL A   1      39.752  26.789  28.078  1.00  0.00     0.031 C 
ATOM     19  C   UNL A   1      40.366  31.368  30.083  1.00  0.00     0.029 A 
ATOM     20  N   UNL A   1      42.179  30.074  29.902  1.00  0.00    -0.354 N 
ATOM     21  C   UNL A   1      41.919  26.079  28.278  1.00  0.00     0.074 A 
ATOM     22  C   UNL A   1      40.560  25.752  27.905  1.00  0.00     0.031 C 
ATOM     23  C   UNL A   1      41.413  32.082  30.521  1.00  0.00     0.029 A 
ATOM     24  C   UNL A   1      42.617  31.264  30.431  1.00  0.00     0.049 A 
ATOM     25  H   UNL A   1      42.774  29.308  29.731  1.00  0.00     0.167 HD
ATOM     26  C   UNL A   1      42.973  25.235  28.152  1.00  0.00     0.037 A 
ATOM     27  C   UNL A   1      43.850  31.656  30.804  1.00  0.00     0.037 A 
ATOM     28  C   UNL A   1      44.331  25.575  28.498  1.00  0.00     0.049 A 
ATOM     29  C   UNL A   1      45.002  30.708  30.639  1.00  0.00     0.074 A 
ATOM     30  C   UNL A   1      45.472  24.803  28.366  1.00  0.00     0.029 A 
ATOM     31  N   UNL A   1      44.730  26.786  29.044  1.00  0.00    -0.354 N 
ATOM     32  N   UNL A   1      45.003  29.491  30.150  1.00  0.00    -0.248 NA
ATOM     33  C   UNL A   1      46.321  31.185  31.075  1.00  0.00     0.031 C 
ATOM     34  C   UNL A   1      46.557  25.534  28.864  1.00  0.00     0.029 A 
ATOM     35  C   UNL A   1      46.098  26.778  29.267  1.00  0.00     0.049 A 
ATOM     36  H   UNL A   1      44.130  27.540  29.243  1.00  0.00     0.167 HD
ATOM     37  C   UNL A   1      46.326  29.066  30.197  1.00  0.00     0.074 A 
ATOM     38  C   UNL A   1      47.096  30.159  30.753  1.00  0.00     0.031 C 
ATOM     39  C   UNL A   1      46.853  27.876  29.814  1.00  0.00     0.037 A 
BRANCH  26  40
ATOM     40  C   UNL A   1      42.698  23.849  27.633  1.00  0.00     0.058 A 
ATOM     41  C   UNL A   1      42.615  23.576  26.259  1.00  0.00     0.135 A 
ATOM     42  C   UNL A   1      42.547  22.775  28.524  1.00  0.00     0.135 A 
ATOM     43  F   UNL A   1      42.738  24.568  25.362  1.00  0.00    -0.206 F 
ATOM     44  C   UNL A   1      42.360  22.291  25.787  1.00  0.00     0.059 A 
ATOM     45  C   UNL A   1      42.314  21.478  28.075  1.00  0.00     0.059 A 
ATOM     46  F   UNL A   1      42.620  22.980  29.849  1.00  0.00    -0.206 F 
ATOM     47  C   UNL A   1      42.207  21.249  26.703  1.00  0.00     0.060 A 
BRANCH  47  48
ATOM     48  S   UNL A   1      41.864  19.590  26.079  1.00  0.00     0.124 S 
ATOM     49  O   UNL A   1      42.777  19.514  24.942  1.00  0.00    -0.237 OA
ATOM     50  O   UNL A   1      42.204  18.747  27.221  1.00  0.00    -0.237 OA
ATOM     51  O   UNL A   1      40.445  19.641  25.742  1.00  0.00    -0.744 OA
ENDBRANCH  47  48
ENDBRANCH  26  40
BRANCH  27  52
ATOM     52  C   UNL A   1      44.054  33.025  31.344  1.00  0.00     0.058 A 
ATOM     53  C   UNL A   1      44.247  34.117  30.485  1.00  0.00     0.135 A 
ATOM     54  C   UNL A   1      44.027  33.272  32.726  1.00  0.00     0.135 A 
ATOM     55  F   UNL A   1      44.283  33.927  29.157  1.00  0.00    -0.206 F 
ATOM     56  C   UNL A   1      44.415  35.406  30.976  1.00  0.00     0.059 A 
ATOM     57  C   UNL A   1      44.168  34.557  33.239  1.00  0.00     0.059 A 
ATOM     58  F   UNL A   1      43.827  32.262  33.585  1.00  0.00    -0.206 F 
ATOM     59  C   UNL A   1      44.371  35.617  32.355  1.00  0.00     0.060 A 
BRANCH  59  60
ATOM     60  S   UNL A   1      44.527  37.303  32.983  1.00  0.00     0.124 S 
ATOM     61  O   UNL A   1      43.159  37.586  33.402  1.00  0.00    -0.237 OA
ATOM     62  O   UNL A   1      45.504  37.143  34.056  1.00  0.00    -0.237 OA
ATOM     63  O   UNL A   1      45.001  38.048  31.821  1.00  0.00    -0.744 OA
ENDBRANCH  59  60
ENDBRANCH  27  52
BRANCH  39  64
ATOM     64  C   UNL A   1      48.340  27.715  29.945  1.00  0.00     0.058 A 
ATOM     65  C   UNL A   1      48.927  27.184  31.104  1.00  0.00     0.135 A 
ATOM     66  C   UNL A   1      49.187  28.077  28.885  1.00  0.00     0.135 A 
ATOM     67  F   UNL A   1      48.160  26.830  32.147  1.00  0.00    -0.206 F 
ATOM     68  C   UNL A   1      50.306  27.045  31.221  1.00  0.00     0.059 A 
ATOM     69  C   UNL A   1      50.568  27.924  28.971  1.00  0.00     0.059 A 
ATOM     70  F   UNL A   1      48.675  28.581  27.751  1.00  0.00    -0.206 F 
ATOM     71  C   UNL A   1      51.118  27.422  30.149  1.00  0.00     0.060 A 
BRANCH  71  72
ATOM     72  S   UNL A   1      52.906  27.227  30.303  1.00  0.00     0.124 S 
ATOM     73  O   UNL A   1      53.032  26.753  31.678  1.00  0.00    -0.237 OA
ATOM     74  O   UNL A   1      53.208  26.247  29.264  1.00  0.00    -0.237 OA
ATOM     75  O   UNL A   1      53.415  28.573  30.053  1.00  0.00    -0.744 OA
ENDBRANCH  71  72
ENDBRANCH  39  64
ENDBRANCH  13  14
ENDBRANCH   6   8
ENDBRANCH   3   4
ENDBRANCH   2   3
ENDBRANCH   1   2
BRANCH   1  76
ATOM     76  C   UNL A   1      32.017  27.378  23.745  1.00  0.00     0.002 C 
BRANCH  76  77
ATOM     77  C   UNL A   1      30.537  27.117  24.052  1.00  0.00     0.021 C 
BRANCH  77  78
ATOM     78  C   UNL A   1      30.130  25.642  24.022  1.00  0.00     0.116 C 
BRANCH  78  79
ATOM     79  N   UNL A   1      29.975  25.106  25.361  1.00  0.00    -0.351 N 
ATOM     80  C   UNL A   1      30.731  24.183  26.036  1.00  0.00     0.278 C 
ATOM     81  H   UNL A   1      29.207  25.460  25.864  1.00  0.00     0.163 HD
ATOM     82  O   UNL A   1      30.402  23.913  27.192  1.00  0.00    -0.268 OA
BRANCH  80  83
ATOM     83  C   UNL A   1      31.960  23.571  25.345  1.00  0.00     0.277 C 
ATOM     84  C   UNL A   1      33.228  23.806  26.207  1.00  0.00     0.114 C 
ATOM     85  N   UNL A   1      31.755  22.113  25.129  1.00  0.00    -0.325 N 
ATOM     86  C   UNL A   1      34.371  23.079  25.588  1.00  0.00    -0.006 A 
ATOM     87  C   UNL A   1      32.805  21.514  24.277  1.00  0.00     0.262 C 
ATOM     88  H   UNL A   1      30.849  21.974  24.680  1.00  0.00     0.347 HD
ATOM     89  H   UNL A   1      31.796  21.657  26.040  1.00  0.00     0.347 HD
ATOM     90  C   UNL A   1      34.148  22.045  24.697  1.00  0.00     0.083 A 
ATOM     91  C   UNL A   1      35.769  23.212  25.765  1.00  0.00     0.003 A 
ATOM     92  N   UNL A   1      35.368  21.637  24.224  1.00  0.00    -0.353 N 
ATOM     93  C   UNL A   1      36.375  22.296  24.900  1.00  0.00     0.046 A 
ATOM     94  C   UNL A   1      36.584  24.017  26.584  1.00  0.00     0.010 A 
ATOM     95  H   UNL A   1      35.505  20.973  23.510  1.00  0.00     0.166 HD
ATOM     96  C   UNL A   1      37.764  22.152  24.815  1.00  0.00     0.026 A 
ATOM     97  C   UNL A   1      37.974  23.874  26.521  1.00  0.00     0.001 A 
ATOM     98  C   UNL A   1      38.553  22.956  25.648  1.00  0.00     0.002 A 
BRANCH  87  99
ATOM     99  C   UNL A   1      32.652  19.996  24.337  1.00  0.00     0.016 A 
ATOM    100  C   UNL A   1      32.585  19.189  23.192  1.00  0.00     0.014 A 
ATOM    101  C   UNL A   1      32.673  19.354  25.589  1.00  0.00     0.014 A 
ATOM    102  C   UNL A   1      32.516  17.797  23.298  1.00  0.00     0.047 A 
ATOM    103  C   UNL A   1      32.639  17.956  25.693  1.00  0.00     0.047 A 
ATOM    104  C   UNL A   1      32.567  17.171  24.544  1.00  0.00     0.129 A 
BRANCH 104 105
ATOM    105  O   UNL A   1      32.534  15.808  24.494  1.00  0.00    -0.406 OA
BRANCH 105 106
ATOM    106  C   UNL A   1      33.062  15.104  25.606  1.00  0.00     0.573 C 
ATOM    107  F   UNL A   1      34.340  15.465  25.856  1.00  0.00    -0.132 F 
ATOM    108  F   UNL A   1      32.311  15.306  26.709  1.00  0.00    -0.132 F 
ATOM    109  F   UNL A   1      33.048  13.782  25.324  1.00  0.00    -0.132 F 
ENDBRANCH 105 106
ENDBRANCH 104 105
ENDBRANCH  87  99
ENDBRANCH  80  83
ENDBRANCH  78  79
ENDBRANCH  77  78
ENDBRANCH  76  77
ENDBRANCH   1  76
TORSDOF 19
ENDMDL
MODEL 2
REMARK VINA RESULT:     -11.6      4.390      8.521
REMARK SMILES O=C(NCCCCCCNC(=O)[C@H]1Cc2c([nH]c3ccccc23)[C@@H](c2ccc(OC(F)(F)F)cc2)[NH2+]1)c1ccc(-c2c3nc(c(-c4c(F)cc(S(=O)(=O)[O-])cc4F)c4ccc([nH]4)c(-c4c(F)cc(S(=O)(=O)[O-])cc4F)c4nc(c(-c5c(F)cc(S(=O)(=O)[O-])cc5F)c5ccc2[nH]5)C=C4)C=C3)cc1
REMARK SMILES IDX 6 1 5 2 4 3 3 4 1 5 2 6 37 8 38 9 102 10 39 11 101 12 40 13
REMARK SMILES IDX 41 14 42 15 95 16 43 17 100 18 94 19 96 20 44 21 99 22 93 23
REMARK SMILES IDX 92 24 45 26 79 27 58 28 78 29 59 30 62 31 77 32 97 33 60 34
REMARK SMILES IDX 61 35 76 37 98 38 63 39 46 40 47 41 56 42 48 43 49 44 55 45
REMARK SMILES IDX 57 46 50 47 51 48 52 49 53 50 54 51 80 52 81 53 90 54 82 55
REMARK SMILES IDX 83 56 89 57 91 58 84 59 85 60 86 61 87 62 88 63 64 64 65 65
REMARK SMILES IDX 74 66 66 67 67 68 73 69 75 70 68 71 69 72 70 73 71 74 72 75
REMARK SMILES IDX 7 76 8 77 9 78 10 79 11 80 12 82 13 83 14 84 36 85 15 86
REMARK SMILES IDX 24 87 16 90 23 91 17 92 18 93 22 94 19 96 21 97 20 98 25 99
REMARK SMILES IDX 26 100 35 101 27 102 34 103 28 104 29 105 30 106 31 107
REMARK SMILES IDX 32 108 33 109
REMARK H PARENT 3 7 96 25 62 36 10 81 36 88 36 89 17 95
REMARK Flexibility Score: inf
ROOT
ATOM      1  C   UNL A   1      36.026  23.138  23.686  1.00  0.00     0.002 C 
ENDROOT
BRANCH   1   2
ATOM      2  C   UNL A   1      35.998  24.069  24.898  1.00  0.00     0.021 C 
BRANCH   2   3
ATOM      3  C   UNL A   1      36.320  23.402  26.231  1.00  0.00     0.116 C 
BRANCH   3   4
ATOM      4  N   UNL A   1      37.375  22.408  26.121  1.00  0.00    -0.352 N 
ATOM      5  O   UNL A   1      39.491  21.638  25.985  1.00  0.00    -0.269 OA
ATOM      6  C   UNL A   1      38.733  22.560  26.273  1.00  0.00     0.251 C 
ATOM      7  H   UNL A   1      37.075  21.495  25.906  1.00  0.00     0.163 HD
BRANCH   6   8
ATOM      8  C   UNL A   1      39.280  23.848  26.755  1.00  0.00     0.039 A 
ATOM      9  C   UNL A   1      39.707  24.826  25.853  1.00  0.00     0.014 A 
ATOM     10  C   UNL A   1      39.376  24.078  28.131  1.00  0.00     0.014 A 
ATOM     11  C   UNL A   1      40.367  25.957  26.321  1.00  0.00     0.010 A 
ATOM     12  C   UNL A   1      39.968  25.255  28.601  1.00  0.00     0.010 A 
ATOM     13  C   UNL A   1      40.508  26.185  27.700  1.00  0.00    -0.014 A 
BRANCH  13  14
ATOM     14  C   UNL A   1      41.206  27.412  28.167  1.00  0.00     0.031 A 
ATOM     15  C   UNL A   1      42.691  27.578  27.984  1.00  0.00     0.074 A 
ATOM     16  C   UNL A   1      40.482  28.403  28.724  1.00  0.00     0.049 A 
ATOM     17  N   UNL A   1      43.449  28.604  28.281  1.00  0.00    -0.248 NA
ATOM     18  C   UNL A   1      43.426  26.446  27.397  1.00  0.00     0.031 C 
ATOM     19  C   UNL A   1      39.038  28.353  28.971  1.00  0.00     0.029 A 
ATOM     20  N   UNL A   1      40.849  29.649  29.161  1.00  0.00    -0.354 N 
ATOM     21  C   UNL A   1      44.746  28.234  27.947  1.00  0.00     0.074 A 
ATOM     22  C   UNL A   1      44.677  26.881  27.440  1.00  0.00     0.031 C 
ATOM     23  C   UNL A   1      38.635  29.534  29.462  1.00  0.00     0.029 A 
ATOM     24  C   UNL A   1      39.796  30.406  29.614  1.00  0.00     0.049 A 
ATOM     25  H   UNL A   1      41.780  29.971  29.150  1.00  0.00     0.167 HD
ATOM     26  C   UNL A   1      45.888  28.959  28.048  1.00  0.00     0.037 A 
ATOM     27  C   UNL A   1      39.762  31.661  30.099  1.00  0.00     0.037 A 
ATOM     28  C   UNL A   1      45.948  30.316  28.528  1.00  0.00     0.049 A 
ATOM     29  C   UNL A   1      41.039  32.447  30.185  1.00  0.00     0.074 A 
ATOM     30  C   UNL A   1      47.050  31.148  28.626  1.00  0.00     0.029 A 
ATOM     31  N   UNL A   1      44.859  31.043  28.990  1.00  0.00    -0.354 N 
ATOM     32  N   UNL A   1      42.250  32.092  29.830  1.00  0.00    -0.248 NA
ATOM     33  C   UNL A   1      40.944  33.806  30.734  1.00  0.00     0.031 C 
ATOM     34  C   UNL A   1      46.635  32.365  29.180  1.00  0.00     0.029 A 
ATOM     35  C   UNL A   1      45.266  32.307  29.387  1.00  0.00     0.049 A 
ATOM     36  H   UNL A   1      43.934  30.708  29.029  1.00  0.00     0.167 HD
ATOM     37  C   UNL A   1      43.059  33.191  30.092  1.00  0.00     0.074 A 
ATOM     38  C   UNL A   1      42.196  34.226  30.625  1.00  0.00     0.031 C 
ATOM     39  C   UNL A   1      44.395  33.329  29.908  1.00  0.00     0.037 A 
BRANCH  26  40
ATOM     40  C   UNL A   1      47.175  28.290  27.647  1.00  0.00     0.058 A 
ATOM     41  C   UNL A   1      47.962  27.584  28.569  1.00  0.00     0.135 A 
ATOM     42  C   UNL A   1      47.610  28.330  26.312  1.00  0.00     0.135 A 
ATOM     43  F   UNL A   1      47.601  27.525  29.862  1.00  0.00    -0.206 F 
ATOM     44  C   UNL A   1      49.151  26.967  28.190  1.00  0.00     0.059 A 
ATOM     45  C   UNL A   1      48.784  27.701  25.905  1.00  0.00     0.059 A 
ATOM     46  F   UNL A   1      46.894  28.989  25.387  1.00  0.00    -0.206 F 
ATOM     47  C   UNL A   1      49.556  27.036  26.856  1.00  0.00     0.060 A 
BRANCH  47  48
ATOM     48  S   UNL A   1      51.107  26.243  26.380  1.00  0.00     0.124 S 
ATOM     49  O   UNL A   1      50.951  24.920  26.977  1.00  0.00    -0.237 OA
ATOM     50  O   UNL A   1      51.050  26.290  24.922  1.00  0.00    -0.237 OA
ATOM     51  O   UNL A   1      52.124  27.092  26.992  1.00  0.00    -0.744 OA
ENDBRANCH  47  48
ENDBRANCH  26  40
BRANCH  27  52
ATOM     52  C   UNL A   1      38.466  32.255  30.514  1.00  0.00     0.058 A 
ATOM     53  C   UNL A   1      37.704  33.018  29.618  1.00  0.00     0.135 A 
ATOM     54  C   UNL A   1      37.949  32.044  31.802  1.00  0.00     0.135 A 
ATOM     55  F   UNL A   1      38.160  33.248  28.376  1.00  0.00    -0.206 F 
ATOM     56  C   UNL A   1      36.478  33.560  29.985  1.00  0.00     0.059 A 
ATOM     57  C   UNL A   1      36.713  32.556  32.184  1.00  0.00     0.059 A 
ATOM     58  F   UNL A   1      38.634  31.306  32.688  1.00  0.00    -0.206 F 
ATOM     59  C   UNL A   1      35.989  33.321  31.270  1.00  0.00     0.060 A 
BRANCH  59  60
ATOM     60  S   UNL A   1      34.367  33.975  31.719  1.00  0.00     0.124 S 
ATOM     61  O   UNL A   1      33.843  32.904  32.560  1.00  0.00    -0.237 OA
ATOM     62  O   UNL A   1      34.715  35.215  32.408  1.00  0.00    -0.237 OA
ATOM     63  O   UNL A   1      33.708  34.148  30.429  1.00  0.00    -0.744 OA
ENDBRANCH  59  60
ENDBRANCH  27  52
BRANCH  39  64
ATOM     64  C   UNL A   1      44.996  34.664  30.245  1.00  0.00     0.058 A 
ATOM     65  C   UNL A   1      45.516  34.939  31.519  1.00  0.00     0.135 A 
ATOM     66  C   UNL A   1      45.073  35.672  29.271  1.00  0.00     0.135 A 
ATOM     67  F   UNL A   1      45.460  34.010  32.486  1.00  0.00    -0.206 F 
ATOM     68  C   UNL A   1      46.064  36.180  31.826  1.00  0.00     0.059 A 
ATOM     69  C   UNL A   1      45.638  36.913  29.549  1.00  0.00     0.059 A 
ATOM     70  F   UNL A   1      44.598  35.455  28.033  1.00  0.00    -0.206 F 
ATOM     71  C   UNL A   1      46.117  37.162  30.834  1.00  0.00     0.060 A 
BRANCH  71  72
ATOM     72  S   UNL A   1      46.842  38.766  31.236  1.00  0.00     0.124 S 
ATOM     73  O   UNL A   1      47.453  39.138  29.965  1.00  0.00    -0.237 OA
ATOM     74  O   UNL A   1      45.676  39.549  31.634  1.00  0.00    -0.237 OA
ATOM     75  O   UNL A   1      47.776  38.452  32.315  1.00  0.00    -0.744 OA
ENDBRANCH  71  72
ENDBRANCH  39  64
ENDBRANCH  13  14
ENDBRANCH   6   8
ENDBRANCH   3   4
ENDBRANCH   2   3
ENDBRANCH   1   2
BRANCH   1  76
ATOM     76  C   UNL A   1      34.771  23.164  22.808  1.00  0.00     0.002 C 
BRANCH  76  77
ATOM     77  C   UNL A   1      34.032  24.507  22.747  1.00  0.00     0.021 C 
BRANCH  77  78
ATOM     78  C   UNL A   1      32.615  24.481  23.323  1.00  0.00     0.116 C 
BRANCH  78  79
ATOM     79  N   UNL A   1      32.547  23.682  24.533  1.00  0.00    -0.351 N 
ATOM     80  C   UNL A   1      32.296  24.056  25.826  1.00  0.00     0.278 C 
ATOM     81  H   UNL A   1      32.709  22.719  24.403  1.00  0.00     0.163 HD
ATOM     82  O   UNL A   1      32.266  23.169  26.681  1.00  0.00    -0.268 OA
BRANCH  80  83
ATOM     83  C   UNL A   1      32.022  25.536  26.139  1.00  0.00     0.277 C 
ATOM     84  C   UNL A   1      33.360  26.309  26.272  1.00  0.00     0.114 C 
ATOM     85  N   UNL A   1      31.190  26.142  25.064  1.00  0.00    -0.325 N 
ATOM     86  C   UNL A   1      33.062  27.760  26.428  1.00  0.00    -0.006 A 
ATOM     87  C   UNL A   1      30.712  27.498  25.414  1.00  0.00     0.262 C 
ATOM     88  H   UNL A   1      30.381  25.542  24.899  1.00  0.00     0.347 HD
ATOM     89  H   UNL A   1      31.772  26.223  24.231  1.00  0.00     0.347 HD
ATOM     90  C   UNL A   1      31.838  28.274  26.042  1.00  0.00     0.083 A 
ATOM     91  C   UNL A   1      33.859  28.832  26.899  1.00  0.00     0.003 A 
ATOM     92  N   UNL A   1      31.817  29.598  26.390  1.00  0.00    -0.353 N 
ATOM     93  C   UNL A   1      33.057  29.976  26.865  1.00  0.00     0.046 A 
ATOM     94  C   UNL A   1      35.189  28.945  27.346  1.00  0.00     0.010 A 
ATOM     95  H   UNL A   1      31.035  30.193  26.312  1.00  0.00     0.166 HD
ATOM     96  C   UNL A   1      33.528  31.233  27.262  1.00  0.00     0.026 A 
ATOM     97  C   UNL A   1      35.678  30.198  27.732  1.00  0.00     0.001 A 
ATOM     98  C   UNL A   1      34.857  31.323  27.691  1.00  0.00     0.002 A 
BRANCH  87  99
ATOM     99  C   UNL A   1      30.104  28.122  24.160  1.00  0.00     0.016 A 
ATOM    100  C   UNL A   1      28.747  28.003  23.829  1.00  0.00     0.014 A 
ATOM    101  C   UNL A   1      30.908  28.935  23.340  1.00  0.00     0.014 A 
ATOM    102  C   UNL A   1      28.222  28.652  22.708  1.00  0.00     0.047 A 
ATOM    103  C   UNL A   1      30.374  29.612  22.236  1.00  0.00     0.047 A 
ATOM    104  C   UNL A   1      29.023  29.479  21.920  1.00  0.00     0.129 A 
BRANCH 104 105
ATOM    105  O   UNL A   1      28.369  30.081  20.885  1.00  0.00    -0.406 OA
BRANCH 105 106
ATOM    106  C   UNL A   1      28.031  31.449  21.037  1.00  0.00     0.573 C 
ATOM    107  F   UNL A   1      27.281  31.651  22.142  1.00  0.00    -0.132 F 
ATOM    108  F   UNL A   1      29.138  32.219  21.095  1.00  0.00    -0.132 F 
ATOM    109  F   UNL A   1      27.306  31.835  19.963  1.00  0.00    -0.132 F 
ENDBRANCH 105 106
ENDBRANCH 104 105
ENDBRANCH  87  99
ENDBRANCH  80  83
ENDBRANCH  78  79
ENDBRANCH  77  78
ENDBRANCH  76  77
ENDBRANCH   1  76
TORSDOF 19
ENDMDL
MODEL 3
REMARK VINA RESULT:     -11.6      5.861     10.777
REMARK SMILES O=C(NCCCCCCNC(=O)[C@H]1Cc2c([nH]c3ccccc23)[C@@H](c2ccc(OC(F)(F)F)cc2)[NH2+]1)c1ccc(-c2c3nc(c(-c4c(F)cc(S(=O)(=O)[O-])cc4F)c4ccc([nH]4)c(-c4c(F)cc(S(=O)(=O)[O-])cc4F)c4nc(c(-c5c(F)cc(S(=O)(=O)[O-])cc5F)c5ccc2[nH]5)C=C4)C=C3)cc1
REMARK SMILES IDX 6 1 5 2 4 3 3 4 1 5 2 6 37 8 38 9 102 10 39 11 101 12 40 13
REMARK SMILES IDX 41 14 42 15 95 16 43 17 100 18 94 19 96 20 44 21 99 22 93 23
REMARK SMILES IDX 92 24 45 26 79 27 58 28 78 29 59 30 62 31 77 32 97 33 60 34
REMARK SMILES IDX 61 35 76 37 98 38 63 39 46 40 47 41 56 42 48 43 49 44 55 45
REMARK SMILES IDX 57 46 50 47 51 48 52 49 53 50 54 51 80 52 81 53 90 54 82 55
REMARK SMILES IDX 83 56 89 57 91 58 84 59 85 60 86 61 87 62 88 63 64 64 65 65
REMARK SMILES IDX 74 66 66 67 67 68 73 69 75 70 68 71 69 72 70 73 71 74 72 75
REMARK SMILES IDX 7 76 8 77 9 78 10 79 11 80 12 82 13 83 14 84 36 85 15 86
REMARK SMILES IDX 24 87 16 90 23 91 17 92 18 93 22 94 19 96 21 97 20 98 25 99
REMARK SMILES IDX 26 100 35 101 27 102 34 103 28 104 29 105 30 106 31 107
REMARK SMILES IDX 32 108 33 109
REMARK H PARENT 3 7 96 25 62 36 10 81 36 88 36 89 17 95
REMARK Flexibility Score: inf
ROOT
ATOM      1  C   UNL A   1      37.846  22.574  25.590  1.00  0.00     0.002 C 
ENDROOT
BRANCH   1   2
ATOM      2  C   UNL A   1      37.805  23.919  26.316  1.00  0.00     0.021 C 
BRANCH   2   3
ATOM      3  C   UNL A   1      39.101  24.314  27.015  1.00  0.00     0.116 C 
BRANCH   3   4
ATOM      4  N   UNL A   1      40.056  24.940  26.114  1.00  0.00    -0.352 N 
ATOM      5  O   UNL A   1      41.340  26.597  25.282  1.00  0.00    -0.269 OA
ATOM      6  C   UNL A   1      40.682  26.159  26.221  1.00  0.00     0.251 C 
ATOM      7  H   UNL A   1      40.287  24.416  25.314  1.00  0.00     0.163 HD
BRANCH   6   8
ATOM      8  C   UNL A   1      40.534  26.957  27.461  1.00  0.00     0.039 A 
ATOM      9  C   UNL A   1      41.151  28.204  27.584  1.00  0.00     0.014 A 
ATOM     10  C   UNL A   1      39.775  26.444  28.517  1.00  0.00     0.014 A 
ATOM     11  C   UNL A   1      41.138  28.862  28.809  1.00  0.00     0.010 A 
ATOM     12  C   UNL A   1      39.697  27.147  29.723  1.00  0.00     0.010 A 
ATOM     13  C   UNL A   1      40.413  28.342  29.895  1.00  0.00    -0.014 A 
BRANCH  13  14
ATOM     14  C   UNL A   1      40.408  29.078  31.187  1.00  0.00     0.031 A 
ATOM     15  C   UNL A   1      41.498  28.866  32.205  1.00  0.00     0.074 A 
ATOM     16  C   UNL A   1      39.433  29.977  31.422  1.00  0.00     0.049 A 
ATOM     17  N   UNL A   1      41.677  29.465  33.356  1.00  0.00    -0.248 NA
ATOM     18  C   UNL A   1      42.515  27.849  31.898  1.00  0.00     0.031 C 
ATOM     19  C   UNL A   1      38.313  30.259  30.519  1.00  0.00     0.029 A 
ATOM     20  N   UNL A   1      39.234  30.835  32.472  1.00  0.00    -0.354 N 
ATOM     21  C   UNL A   1      42.803  28.880  33.922  1.00  0.00     0.074 A 
ATOM     22  C   UNL A   1      43.258  27.866  32.996  1.00  0.00     0.031 C 
ATOM     23  C   UNL A   1      37.579  31.259  31.028  1.00  0.00     0.029 A 
ATOM     24  C   UNL A   1      38.143  31.655  32.314  1.00  0.00     0.049 A 
ATOM     25  H   UNL A   1      39.819  30.862  33.264  1.00  0.00     0.167 HD
ATOM     26  C   UNL A   1      43.407  29.168  35.102  1.00  0.00     0.037 A 
ATOM     27  C   UNL A   1      37.648  32.619  33.113  1.00  0.00     0.037 A 
ATOM     28  C   UNL A   1      42.967  30.198  36.009  1.00  0.00     0.049 A 
ATOM     29  C   UNL A   1      38.344  32.928  34.406  1.00  0.00     0.074 A 
ATOM     30  C   UNL A   1      43.537  30.594  37.206  1.00  0.00     0.029 A 
ATOM     31  N   UNL A   1      41.848  30.998  35.818  1.00  0.00    -0.354 N 
ATOM     32  N   UNL A   1      39.429  32.388  34.907  1.00  0.00    -0.248 NA
ATOM     33  C   UNL A   1      37.751  33.980  35.243  1.00  0.00     0.031 C 
ATOM     34  C   UNL A   1      42.745  31.608  37.757  1.00  0.00     0.029 A 
ATOM     35  C   UNL A   1      41.705  31.874  36.882  1.00  0.00     0.049 A 
ATOM     36  H   UNL A   1      41.247  30.949  35.040  1.00  0.00     0.167 HD
ATOM     37  C   UNL A   1      39.662  33.050  36.106  1.00  0.00     0.074 A 
ATOM     38  C   UNL A   1      38.611  34.037  36.250  1.00  0.00     0.031 C 
ATOM     39  C   UNL A   1      40.658  32.856  37.007  1.00  0.00     0.037 A 
BRANCH  26  40
ATOM     40  C   UNL A   1      44.603  28.342  35.492  1.00  0.00     0.058 A 
ATOM     41  C   UNL A   1      44.477  27.167  36.249  1.00  0.00     0.135 A 
ATOM     42  C   UNL A   1      45.891  28.716  35.074  1.00  0.00     0.135 A 
ATOM     43  F   UNL A   1      43.271  26.770  36.687  1.00  0.00    -0.206 F 
ATOM     44  C   UNL A   1      45.589  26.409  36.606  1.00  0.00     0.059 A 
ATOM     45  C   UNL A   1      47.014  27.961  35.400  1.00  0.00     0.059 A 
ATOM     46  F   UNL A   1      46.068  29.830  34.346  1.00  0.00    -0.206 F 
ATOM     47  C   UNL A   1      46.854  26.816  36.180  1.00  0.00     0.060 A 
BRANCH  47  48
ATOM     48  S   UNL A   1      48.288  25.831  36.660  1.00  0.00     0.124 S 
ATOM     49  O   UNL A   1      47.703  24.497  36.759  1.00  0.00    -0.237 OA
ATOM     50  O   UNL A   1      49.203  26.040  35.541  1.00  0.00    -0.237 OA
ATOM     51  O   UNL A   1      48.704  26.429  37.924  1.00  0.00    -0.744 OA
ENDBRANCH  47  48
ENDBRANCH  26  40
BRANCH  27  52
ATOM     52  C   UNL A   1      36.441  33.376  32.691  1.00  0.00     0.058 A 
ATOM     53  C   UNL A   1      35.176  32.770  32.687  1.00  0.00     0.135 A 
ATOM     54  C   UNL A   1      36.525  34.725  32.315  1.00  0.00     0.135 A 
ATOM     55  F   UNL A   1      35.049  31.480  33.036  1.00  0.00    -0.206 F 
ATOM     56  C   UNL A   1      34.035  33.473  32.318  1.00  0.00     0.059 A 
ATOM     57  C   UNL A   1      35.394  35.456  31.965  1.00  0.00     0.059 A 
ATOM     58  F   UNL A   1      37.711  35.353  32.320  1.00  0.00    -0.206 F 
ATOM     59  C   UNL A   1      34.154  34.817  31.961  1.00  0.00     0.060 A 
BRANCH  59  60
ATOM     60  S   UNL A   1      32.660  35.741  31.543  1.00  0.00     0.124 S 
ATOM     61  O   UNL A   1      31.711  35.220  32.521  1.00  0.00    -0.237 OA
ATOM     62  O   UNL A   1      33.087  37.124  31.742  1.00  0.00    -0.237 OA
ATOM     63  O   UNL A   1      32.411  35.364  30.155  1.00  0.00    -0.744 OA
ENDBRANCH  59  60
ENDBRANCH  27  52
BRANCH  39  64
ATOM     64  C   UNL A   1      40.679  33.762  38.205  1.00  0.00     0.058 A 
ATOM     65  C   UNL A   1      41.465  34.924  38.238  1.00  0.00     0.135 A 
ATOM     66  C   UNL A   1      39.885  33.473  39.326  1.00  0.00     0.135 A 
ATOM     67  F   UNL A   1      42.247  35.241  37.194  1.00  0.00    -0.206 F 
ATOM     68  C   UNL A   1      41.486  35.754  39.354  1.00  0.00     0.059 A 
ATOM     69  C   UNL A   1      39.872  34.301  40.444  1.00  0.00     0.059 A 
ATOM     70  F   UNL A   1      39.108  32.377  39.340  1.00  0.00    -0.206 F 
ATOM     71  C   UNL A   1      40.689  35.431  40.454  1.00  0.00     0.060 A 
BRANCH  71  72
ATOM     72  S   UNL A   1      40.711  36.520  41.894  1.00  0.00     0.124 S 
ATOM     73  O   UNL A   1      39.415  37.182  41.781  1.00  0.00    -0.237 OA
ATOM     74  O   UNL A   1      40.849  35.579  43.000  1.00  0.00    -0.237 OA
ATOM     75  O   UNL A   1      41.874  37.371  41.655  1.00  0.00    -0.744 OA
ENDBRANCH  71  72
ENDBRANCH  39  64
ENDBRANCH  13  14
ENDBRANCH   6   8
ENDBRANCH   3   4
ENDBRANCH   2   3
ENDBRANCH   1   2
BRANCH   1  76
ATOM     76  C   UNL A   1      36.515  22.110  24.988  1.00  0.00     0.002 C 
BRANCH  76  77
ATOM     77  C   UNL A   1      36.072  22.843  23.715  1.00  0.00     0.021 C 
BRANCH  77  78
ATOM     78  C   UNL A   1      35.085  23.988  23.950  1.00  0.00     0.116 C 
BRANCH  78  79
ATOM     79  N   UNL A   1      34.209  23.713  25.073  1.00  0.00    -0.351 N 
ATOM     80  C   UNL A   1      33.228  24.485  25.639  1.00  0.00     0.278 C 
ATOM     81  H   UNL A   1      34.340  22.833  25.496  1.00  0.00     0.163 HD
ATOM     82  O   UNL A   1      32.597  24.005  26.583  1.00  0.00    -0.268 OA
BRANCH  80  83
ATOM     83  C   UNL A   1      32.936  25.875  25.050  1.00  0.00     0.277 C 
ATOM     84  C   UNL A   1      31.406  26.073  24.887  1.00  0.00     0.114 C 
ATOM     85  N   UNL A   1      33.494  26.934  25.934  1.00  0.00    -0.325 N 
ATOM     86  C   UNL A   1      31.147  27.475  24.455  1.00  0.00    -0.006 A 
ATOM     87  C   UNL A   1      33.436  28.277  25.315  1.00  0.00     0.262 C 
ATOM     88  H   UNL A   1      34.468  26.709  26.138  1.00  0.00     0.347 HD
ATOM     89  H   UNL A   1      32.929  26.959  26.782  1.00  0.00     0.347 HD
ATOM     90  C   UNL A   1      32.100  28.459  24.649  1.00  0.00     0.083 A 
ATOM     91  C   UNL A   1      30.009  28.076  23.866  1.00  0.00     0.003 A 
ATOM     92  N   UNL A   1      31.628  29.609  24.073  1.00  0.00    -0.353 N 
ATOM     93  C   UNL A   1      30.333  29.416  23.635  1.00  0.00     0.046 A 
ATOM     94  C   UNL A   1      28.727  27.615  23.510  1.00  0.00     0.010 A 
ATOM     95  H   UNL A   1      32.137  30.448  23.984  1.00  0.00     0.166 HD
ATOM     96  C   UNL A   1      29.430  30.317  23.061  1.00  0.00     0.026 A 
ATOM     97  C   UNL A   1      27.808  28.508  22.949  1.00  0.00     0.001 A 
ATOM     98  C   UNL A   1      28.158  29.838  22.727  1.00  0.00     0.002 A 
BRANCH  87  99
ATOM     99  C   UNL A   1      33.780  29.306  26.388  1.00  0.00     0.016 A 
ATOM    100  C   UNL A   1      34.985  29.288  27.105  1.00  0.00     0.014 A 
ATOM    101  C   UNL A   1      32.902  30.383  26.612  1.00  0.00     0.014 A 
ATOM    102  C   UNL A   1      35.286  30.293  28.028  1.00  0.00     0.047 A 
ATOM    103  C   UNL A   1      33.220  31.408  27.513  1.00  0.00     0.047 A 
ATOM    104  C   UNL A   1      34.421  31.370  28.221  1.00  0.00     0.129 A 
BRANCH 104 105
ATOM    105  O   UNL A   1      34.861  32.298  29.119  1.00  0.00    -0.406 OA
BRANCH 105 106
ATOM    106  C   UNL A   1      35.615  33.386  28.612  1.00  0.00     0.573 C 
ATOM    107  F   UNL A   1      35.952  33.192  27.319  1.00  0.00    -0.132 F 
ATOM    108  F   UNL A   1      34.936  34.546  28.735  1.00  0.00    -0.132 F 
ATOM    109  F   UNL A   1      36.757  33.490  29.330  1.00  0.00    -0.132 F 
ENDBRANCH 105 106
ENDBRANCH 104 105
ENDBRANCH  87  99
ENDBRANCH  80  83
ENDBRANCH  78  79
ENDBRANCH  77  78
ENDBRANCH  76  77
ENDBRANCH   1  76
TORSDOF 19
ENDMDL
