MODEL 1
REMARK VINA RESULT:     -11.5      0.000      0.000
REMARK SMILES O=C(NCCCCCCNC(=O)c1ccc(-c2c3nc(c(-c4c(F)cc(S(=O)(=O)[O-])cc4F)c4ccc([nH]4)c(-c4c(F)cc(S(=O)(=O)[O-])cc4F)c4nc(c(-c5c(F)cc(S(=O)(=O)[O-])cc5F)c5ccc2[nH]5)C=C4)C=C3)cc1)C1=Cc2cc(C(F)(F)F)ccc2O[C@@H]1C(F)(F)F
REMARK SMILES IDX 7 1 6 2 5 3 4 4 3 5 1 6 2 7 79 9 80 10 92 11 81 12 91 13
REMARK SMILES IDX 82 14 90 15 83 16 89 17 88 18 93 19 94 20 95 21 96 22 84 23
REMARK SMILES IDX 85 24 86 25 87 26 8 27 9 28 10 29 11 30 12 32 13 33 14 34
REMARK SMILES IDX 78 35 15 36 77 37 16 38 17 39 18 40 71 41 19 42 76 43 70 44
REMARK SMILES IDX 72 45 20 46 75 47 69 48 68 49 21 51 55 52 34 53 54 54 35 55
REMARK SMILES IDX 38 56 53 57 73 58 36 59 37 60 52 62 74 63 39 64 22 65 23 66
REMARK SMILES IDX 32 67 24 68 25 69 31 70 33 71 26 72 27 73 28 74 29 75 30 76
REMARK SMILES IDX 56 77 57 78 66 79 58 80 59 81 65 82 67 83 60 84 61 85 62 86
REMARK SMILES IDX 63 87 64 88 40 89 41 90 50 91 42 92 43 93 49 94 51 95 44 96
REMARK SMILES IDX 45 97 46 98 47 99 48 100
REMARK H PARENT 3 8 10 31 72 50 38 61
REMARK Flexibility Score: inf
ROOT
ATOM      1  C   UNL A   1      32.409  27.223  24.237  1.00  0.00     0.002 C 
ENDROOT
BRANCH   1   2
ATOM      2  C   UNL A   1      31.191  27.512  25.124  1.00  0.00     0.002 C 
BRANCH   2   3
ATOM      3  C   UNL A   1      30.940  26.548  26.282  1.00  0.00     0.021 C 
BRANCH   3   4
ATOM      4  C   UNL A   1      30.679  25.096  25.895  1.00  0.00     0.116 C 
BRANCH   4   5
ATOM      5  N   UNL A   1      31.357  24.104  26.715  1.00  0.00    -0.352 N 
ATOM      6  O   UNL A   1      33.087  22.887  27.482  1.00  0.00    -0.270 OA
ATOM      7  C   UNL A   1      32.607  23.560  26.572  1.00  0.00     0.251 C 
ATOM      8  H   UNL A   1      30.842  23.775  27.486  1.00  0.00     0.163 HD
BRANCH   7   9
ATOM      9  C   UNL A   1      33.447  23.833  25.371  1.00  0.00     0.067 C 
ATOM     10  C   UNL A   1      34.605  24.503  25.498  1.00  0.00     0.025 C 
ATOM     11  C   UNL A   1      33.261  22.844  24.248  1.00  0.00     0.314 C 
ATOM     12  C   UNL A   1      35.774  23.659  25.177  1.00  0.00     0.018 A 
ATOM     13  O   UNL A   1      34.398  21.952  24.097  1.00  0.00    -0.475 OA
ATOM     14  C   UNL A   1      36.991  23.984  25.791  1.00  0.00     0.025 A 
ATOM     15  C   UNL A   1      35.598  22.396  24.591  1.00  0.00     0.128 A 
ATOM     16  C   UNL A   1      37.996  23.014  25.917  1.00  0.00     0.056 A 
ATOM     17  C   UNL A   1      36.632  21.464  24.626  1.00  0.00     0.048 A 
ATOM     18  C   UNL A   1      37.817  21.763  25.304  1.00  0.00     0.017 A 
BRANCH  11  19
ATOM     19  C   UNL A   1      32.943  23.550  22.921  1.00  0.00     0.429 C 
ATOM     20  F   UNL A   1      31.705  24.102  22.941  1.00  0.00    -0.167 F 
ATOM     21  F   UNL A   1      33.814  24.557  22.664  1.00  0.00    -0.167 F 
ATOM     22  F   UNL A   1      32.989  22.706  21.862  1.00  0.00    -0.167 F 
ENDBRANCH  11  19
BRANCH  16  23
ATOM     23  C   UNL A   1      39.208  23.288  26.777  1.00  0.00     0.416 C 
ATOM     24  F   UNL A   1      40.179  23.971  26.122  1.00  0.00    -0.166 F 
ATOM     25  F   UNL A   1      38.899  24.027  27.883  1.00  0.00    -0.166 F 
ATOM     26  F   UNL A   1      39.777  22.148  27.258  1.00  0.00    -0.166 F 
ENDBRANCH  16  23
ENDBRANCH   7   9
ENDBRANCH   4   5
ENDBRANCH   3   4
ENDBRANCH   2   3
ENDBRANCH   1   2
BRANCH   1  27
ATOM     27  C   UNL A   1      33.627  28.141  24.393  1.00  0.00     0.021 C 
BRANCH  27  28
ATOM     28  C   UNL A   1      34.080  28.442  25.821  1.00  0.00     0.116 C 
BRANCH  28  29
ATOM     29  N   UNL A   1      33.731  29.782  26.256  1.00  0.00    -0.352 N 
ATOM     30  C   UNL A   1      34.293  30.579  27.223  1.00  0.00     0.251 C 
ATOM     31  H   UNL A   1      32.967  30.185  25.782  1.00  0.00     0.163 HD
ATOM     32  O   UNL A   1      33.745  31.640  27.512  1.00  0.00    -0.269 OA
BRANCH  30  33
ATOM     33  C   UNL A   1      35.529  30.173  27.935  1.00  0.00     0.039 A 
ATOM     34  C   UNL A   1      36.749  30.271  27.256  1.00  0.00     0.014 A 
ATOM     35  C   UNL A   1      35.499  29.649  29.230  1.00  0.00     0.014 A 
ATOM     36  C   UNL A   1      37.937  29.894  27.890  1.00  0.00     0.010 A 
ATOM     37  C   UNL A   1      36.691  29.330  29.883  1.00  0.00     0.010 A 
ATOM     38  C   UNL A   1      37.923  29.443  29.218  1.00  0.00    -0.014 A 
BRANCH  38  39
ATOM     39  C   UNL A   1      39.185  29.086  29.921  1.00  0.00     0.031 A 
ATOM     40  C   UNL A   1      39.593  29.814  31.174  1.00  0.00     0.074 A 
ATOM     41  C   UNL A   1      39.990  28.137  29.403  1.00  0.00     0.049 A 
ATOM     42  N   UNL A   1      40.673  29.670  31.899  1.00  0.00    -0.248 NA
ATOM     43  C   UNL A   1      38.675  30.854  31.666  1.00  0.00     0.031 C 
ATOM     44  C   UNL A   1      39.725  27.383  28.175  1.00  0.00     0.029 A 
ATOM     45  N   UNL A   1      41.197  27.649  29.838  1.00  0.00    -0.354 N 
ATOM     46  C   UNL A   1      40.577  30.611  32.917  1.00  0.00     0.074 A 
ATOM     47  C   UNL A   1      39.350  31.347  32.694  1.00  0.00     0.031 C 
ATOM     48  C   UNL A   1      40.727  26.513  27.969  1.00  0.00     0.029 A 
ATOM     49  C   UNL A   1      41.721  26.669  29.027  1.00  0.00     0.049 A 
ATOM     50  H   UNL A   1      41.645  27.969  30.654  1.00  0.00     0.167 HD
ATOM     51  C   UNL A   1      41.424  30.832  33.952  1.00  0.00     0.037 A 
ATOM     52  C   UNL A   1      42.874  25.978  29.121  1.00  0.00     0.037 A 
ATOM     53  C   UNL A   1      42.628  30.078  34.186  1.00  0.00     0.049 A 
ATOM     54  C   UNL A   1      43.799  26.242  30.278  1.00  0.00     0.074 A 
ATOM     55  C   UNL A   1      43.512  30.175  35.246  1.00  0.00     0.029 A 
ATOM     56  N   UNL A   1      43.124  29.092  33.345  1.00  0.00    -0.354 N 
ATOM     57  N   UNL A   1      43.658  27.089  31.270  1.00  0.00    -0.248 NA
ATOM     58  C   UNL A   1      45.039  25.455  30.330  1.00  0.00     0.031 C 
ATOM     59  C   UNL A   1      44.565  29.280  35.024  1.00  0.00     0.029 A 
ATOM     60  C   UNL A   1      44.312  28.591  33.848  1.00  0.00     0.049 A 
ATOM     61  H   UNL A   1      42.692  28.792  32.512  1.00  0.00     0.167 HD
ATOM     62  C   UNL A   1      44.775  26.916  32.079  1.00  0.00     0.074 A 
ATOM     63  C   UNL A   1      45.580  25.880  31.464  1.00  0.00     0.031 C 
ATOM     64  C   UNL A   1      45.103  27.556  33.229  1.00  0.00     0.037 A 
BRANCH  51  65
ATOM     65  C   UNL A   1      41.081  31.942  34.909  1.00  0.00     0.058 A 
ATOM     66  C   UNL A   1      40.208  31.743  35.990  1.00  0.00     0.135 A 
ATOM     67  C   UNL A   1      41.657  33.214  34.760  1.00  0.00     0.135 A 
ATOM     68  F   UNL A   1      39.621  30.550  36.176  1.00  0.00    -0.206 F 
ATOM     69  C   UNL A   1      39.890  32.775  36.868  1.00  0.00     0.059 A 
ATOM     70  C   UNL A   1      41.373  34.254  35.641  1.00  0.00     0.059 A 
ATOM     71  F   UNL A   1      42.501  33.459  33.745  1.00  0.00    -0.206 F 
ATOM     72  C   UNL A   1      40.474  34.028  36.682  1.00  0.00     0.060 A 
BRANCH  72  73
ATOM     73  S   UNL A   1      40.043  35.360  37.823  1.00  0.00     0.124 S 
ATOM     74  O   UNL A   1      39.739  36.448  36.896  1.00  0.00    -0.237 OA
ATOM     75  O   UNL A   1      38.903  34.803  38.541  1.00  0.00    -0.237 OA
ATOM     76  O   UNL A   1      41.256  35.534  38.617  1.00  0.00    -0.744 OA
ENDBRANCH  72  73
ENDBRANCH  51  65
BRANCH  52  77
ATOM     77  C   UNL A   1      43.202  24.944  28.104  1.00  0.00     0.058 A 
ATOM     78  C   UNL A   1      44.025  25.249  27.010  1.00  0.00     0.135 A 
ATOM     79  C   UNL A   1      42.720  23.630  28.215  1.00  0.00     0.135 A 
ATOM     80  F   UNL A   1      44.502  26.493  26.857  1.00  0.00    -0.206 F 
ATOM     81  C   UNL A   1      44.353  24.292  26.056  1.00  0.00     0.059 A 
ATOM     82  C   UNL A   1      43.055  22.649  27.286  1.00  0.00     0.059 A 
ATOM     83  F   UNL A   1      41.942  23.284  29.252  1.00  0.00    -0.206 F 
ATOM     84  C   UNL A   1      43.865  22.992  26.206  1.00  0.00     0.060 A 
BRANCH  84  85
ATOM     85  S   UNL A   1      44.348  21.742  24.995  1.00  0.00     0.124 S 
ATOM     86  O   UNL A   1      44.121  22.445  23.739  1.00  0.00    -0.237 OA
ATOM     87  O   UNL A   1      45.743  21.495  25.348  1.00  0.00    -0.237 OA
ATOM     88  O   UNL A   1      43.435  20.636  25.274  1.00  0.00    -0.744 OA
ENDBRANCH  84  85
ENDBRANCH  52  77
BRANCH  64  89
ATOM     89  C   UNL A   1      46.370  27.134  33.919  1.00  0.00     0.058 A 
ATOM     90  C   UNL A   1      47.596  27.766  33.662  1.00  0.00     0.135 A 
ATOM     91  C   UNL A   1      46.348  26.116  34.886  1.00  0.00     0.135 A 
ATOM     92  F   UNL A   1      47.675  28.740  32.742  1.00  0.00    -0.206 F 
ATOM     93  C   UNL A   1      48.761  27.391  34.325  1.00  0.00     0.059 A 
ATOM     94  C   UNL A   1      47.494  25.742  35.580  1.00  0.00     0.059 A 
ATOM     95  F   UNL A   1      45.198  25.485  35.176  1.00  0.00    -0.206 F 
ATOM     96  C   UNL A   1      48.698  26.377  35.284  1.00  0.00     0.060 A 
BRANCH  96  97
ATOM     97  S   UNL A   1      50.208  25.922  36.164  1.00  0.00     0.124 S 
ATOM     98  O   UNL A   1      49.962  26.491  37.485  1.00  0.00    -0.237 OA
ATOM     99  O   UNL A   1      50.189  24.464  36.089  1.00  0.00    -0.237 OA
ATOM    100  O   UNL A   1      51.262  26.569  35.387  1.00  0.00    -0.744 OA
ENDBRANCH  96  97
ENDBRANCH  64  89
ENDBRANCH  38  39
ENDBRANCH  30  33
ENDBRANCH  28  29
ENDBRANCH  27  28
ENDBRANCH   1  27
TORSDOF 18
ENDMDL
MODEL 2
REMARK VINA RESULT:     -11.5      4.731      6.055
REMARK SMILES O=C(NCCCCCCNC(=O)c1ccc(-c2c3nc(c(-c4c(F)cc(S(=O)(=O)[O-])cc4F)c4ccc([nH]4)c(-c4c(F)cc(S(=O)(=O)[O-])cc4F)c4nc(c(-c5c(F)cc(S(=O)(=O)[O-])cc5F)c5ccc2[nH]5)C=C4)C=C3)cc1)C1=Cc2cc(C(F)(F)F)ccc2O[C@@H]1C(F)(F)F
REMARK SMILES IDX 7 1 6 2 5 3 4 4 3 5 1 6 2 7 79 9 80 10 92 11 81 12 91 13
REMARK SMILES IDX 82 14 90 15 83 16 89 17 88 18 93 19 94 20 95 21 96 22 84 23
REMARK SMILES IDX 85 24 86 25 87 26 8 27 9 28 10 29 11 30 12 32 13 33 14 34
REMARK SMILES IDX 78 35 15 36 77 37 16 38 17 39 18 40 71 41 19 42 76 43 70 44
REMARK SMILES IDX 72 45 20 46 75 47 69 48 68 49 21 51 55 52 34 53 54 54 35 55
REMARK SMILES IDX 38 56 53 57 73 58 36 59 37 60 52 62 74 63 39 64 22 65 23 66
REMARK SMILES IDX 32 67 24 68 25 69 31 70 33 71 26 72 27 73 28 74 29 75 30 76
REMARK SMILES IDX 56 77 57 78 66 79 58 80 59 81 65 82 67 83 60 84 61 85 62 86
REMARK SMILES IDX 63 87 64 88 40 89 41 90 50 91 42 92 43 93 49 94 51 95 44 96
REMARK SMILES IDX 45 97 46 98 47 99 48 100
REMARK H PARENT 3 8 10 31 72 50 38 61
REMARK Flexibility Score: inf
ROOT
ATOM      1  C   UNL A   1      33.526  28.720  26.151  1.00  0.00     0.002 C 
ENDROOT
BRANCH   1   2
ATOM      2  C   UNL A   1      32.050  28.394  25.891  1.00  0.00     0.002 C 
BRANCH   2   3
ATOM      3  C   UNL A   1      31.405  27.352  26.803  1.00  0.00     0.021 C 
BRANCH   3   4
ATOM      4  C   UNL A   1      30.961  26.058  26.126  1.00  0.00     0.116 C 
BRANCH   4   5
ATOM      5  N   UNL A   1      31.229  24.842  26.878  1.00  0.00    -0.352 N 
ATOM      6  O   UNL A   1      32.350  22.986  27.480  1.00  0.00    -0.270 OA
ATOM      7  C   UNL A   1      32.120  23.834  26.620  1.00  0.00     0.251 C 
ATOM      8  H   UNL A   1      30.689  24.726  27.693  1.00  0.00     0.163 HD
BRANCH   7   9
ATOM      9  C   UNL A   1      32.894  23.781  25.347  1.00  0.00     0.067 C 
ATOM     10  C   UNL A   1      34.034  24.483  25.223  1.00  0.00     0.025 C 
ATOM     11  C   UNL A   1      32.691  22.517  24.551  1.00  0.00     0.314 C 
ATOM     12  C   UNL A   1      35.215  23.605  25.084  1.00  0.00     0.018 A 
ATOM     13  O   UNL A   1      33.849  21.640  24.590  1.00  0.00    -0.475 OA
ATOM     14  C   UNL A   1      36.447  24.112  25.518  1.00  0.00     0.025 A 
ATOM     15  C   UNL A   1      35.054  22.227  24.878  1.00  0.00     0.128 A 
ATOM     16  C   UNL A   1      37.489  23.234  25.853  1.00  0.00     0.056 A 
ATOM     17  C   UNL A   1      36.120  21.362  25.112  1.00  0.00     0.048 A 
ATOM     18  C   UNL A   1      37.324  21.859  25.617  1.00  0.00     0.017 A 
BRANCH  11  19
ATOM     19  C   UNL A   1      32.288  22.823  23.100  1.00  0.00     0.429 C 
ATOM     20  F   UNL A   1      33.372  22.867  22.287  1.00  0.00    -0.167 F 
ATOM     21  F   UNL A   1      31.461  21.874  22.596  1.00  0.00    -0.167 F 
ATOM     22  F   UNL A   1      31.647  24.011  22.980  1.00  0.00    -0.167 F 
ENDBRANCH  11  19
BRANCH  16  23
ATOM     23  C   UNL A   1      38.729  23.759  26.538  1.00  0.00     0.416 C 
ATOM     24  F   UNL A   1      39.707  22.827  26.651  1.00  0.00    -0.166 F 
ATOM     25  F   UNL A   1      39.280  24.814  25.869  1.00  0.00    -0.166 F 
ATOM     26  F   UNL A   1      38.477  24.225  27.793  1.00  0.00    -0.166 F 
ENDBRANCH  16  23
ENDBRANCH   7   9
ENDBRANCH   4   5
ENDBRANCH   3   4
ENDBRANCH   2   3
ENDBRANCH   1   2
BRANCH   1  27
ATOM     27  C   UNL A   1      33.835  29.768  27.227  1.00  0.00     0.021 C 
BRANCH  27  28
ATOM     28  C   UNL A   1      35.213  29.692  27.882  1.00  0.00     0.116 C 
BRANCH  28  29
ATOM     29  N   UNL A   1      35.264  30.353  29.174  1.00  0.00    -0.352 N 
ATOM     30  C   UNL A   1      36.317  30.547  30.034  1.00  0.00     0.251 C 
ATOM     31  H   UNL A   1      34.405  30.720  29.484  1.00  0.00     0.163 HD
ATOM     32  O   UNL A   1      36.099  31.026  31.144  1.00  0.00    -0.269 OA
BRANCH  30  33
ATOM     33  C   UNL A   1      37.701  30.171  29.656  1.00  0.00     0.039 A 
ATOM     34  C   UNL A   1      38.574  29.750  30.666  1.00  0.00     0.014 A 
ATOM     35  C   UNL A   1      38.165  30.277  28.342  1.00  0.00     0.014 A 
ATOM     36  C   UNL A   1      39.888  29.390  30.353  1.00  0.00     0.010 A 
ATOM     37  C   UNL A   1      39.458  29.861  28.021  1.00  0.00     0.010 A 
ATOM     38  C   UNL A   1      40.336  29.418  29.024  1.00  0.00    -0.014 A 
BRANCH  38  39
ATOM     39  C   UNL A   1      41.717  28.991  28.670  1.00  0.00     0.031 A 
ATOM     40  C   UNL A   1      42.844  29.987  28.656  1.00  0.00     0.074 A 
ATOM     41  C   UNL A   1      41.946  27.711  28.312  1.00  0.00     0.049 A 
ATOM     42  N   UNL A   1      44.101  29.809  28.336  1.00  0.00    -0.248 NA
ATOM     43  C   UNL A   1      42.513  31.370  29.034  1.00  0.00     0.031 C 
ATOM     44  C   UNL A   1      40.931  26.657  28.250  1.00  0.00     0.029 A 
ATOM     45  N   UNL A   1      43.103  27.081  27.926  1.00  0.00    -0.354 N 
ATOM     46  C   UNL A   1      44.704  31.056  28.452  1.00  0.00     0.074 A 
ATOM     47  C   UNL A   1      43.667  31.990  28.836  1.00  0.00     0.031 C 
ATOM     48  C   UNL A   1      41.514  25.507  27.874  1.00  0.00     0.029 A 
ATOM     49  C   UNL A   1      42.934  25.748  27.633  1.00  0.00     0.049 A 
ATOM     50  H   UNL A   1      43.971  27.540  27.866  1.00  0.00     0.167 HD
ATOM     51  C   UNL A   1      46.005  31.389  28.271  1.00  0.00     0.037 A 
ATOM     52  C   UNL A   1      43.820  24.824  27.213  1.00  0.00     0.037 A 
ATOM     53  C   UNL A   1      47.039  30.451  27.917  1.00  0.00     0.049 A 
ATOM     54  C   UNL A   1      45.259  25.219  27.017  1.00  0.00     0.074 A 
ATOM     55  C   UNL A   1      48.398  30.677  27.785  1.00  0.00     0.029 A 
ATOM     56  N   UNL A   1      46.830  29.109  27.632  1.00  0.00    -0.354 N 
ATOM     57  N   UNL A   1      45.825  26.388  27.200  1.00  0.00    -0.248 NA
ATOM     58  C   UNL A   1      46.181  24.168  26.563  1.00  0.00     0.031 C 
ATOM     59  C   UNL A   1      49.004  29.484  27.377  1.00  0.00     0.029 A 
ATOM     60  C   UNL A   1      48.029  28.502  27.300  1.00  0.00     0.049 A 
ATOM     61  H   UNL A   1      45.956  28.656  27.663  1.00  0.00     0.167 HD
ATOM     62  C   UNL A   1      47.173  26.207  26.910  1.00  0.00     0.074 A 
ATOM     63  C   UNL A   1      47.338  24.814  26.547  1.00  0.00     0.031 C 
ATOM     64  C   UNL A   1      48.182  27.112  26.945  1.00  0.00     0.037 A 
BRANCH  51  65
ATOM     65  C   UNL A   1      46.386  32.835  28.446  1.00  0.00     0.058 A 
ATOM     66  C   UNL A   1      46.333  33.748  27.382  1.00  0.00     0.135 A 
ATOM     67  C   UNL A   1      46.780  33.320  29.704  1.00  0.00     0.135 A 
ATOM     68  F   UNL A   1      45.972  33.338  26.156  1.00  0.00    -0.206 F 
ATOM     69  C   UNL A   1      46.693  35.082  27.549  1.00  0.00     0.059 A 
ATOM     70  C   UNL A   1      47.119  34.656  29.900  1.00  0.00     0.059 A 
ATOM     71  F   UNL A   1      46.846  32.491  30.758  1.00  0.00    -0.206 F 
ATOM     72  C   UNL A   1      47.089  35.526  28.811  1.00  0.00     0.060 A 
BRANCH  72  73
ATOM     73  S   UNL A   1      47.563  37.257  29.009  1.00  0.00     0.124 S 
ATOM     74  O   UNL A   1      48.016  37.275  30.397  1.00  0.00    -0.237 OA
ATOM     75  O   UNL A   1      48.604  37.415  28.000  1.00  0.00    -0.237 OA
ATOM     76  O   UNL A   1      46.323  37.982  28.745  1.00  0.00    -0.744 OA
ENDBRANCH  72  73
ENDBRANCH  51  65
BRANCH  52  77
ATOM     77  C   UNL A   1      43.377  23.424  26.981  1.00  0.00     0.058 A 
ATOM     78  C   UNL A   1      43.170  22.944  25.679  1.00  0.00     0.135 A 
ATOM     79  C   UNL A   1      43.172  22.535  28.047  1.00  0.00     0.135 A 
ATOM     80  F   UNL A   1      43.345  23.759  24.629  1.00  0.00    -0.206 F 
ATOM     81  C   UNL A   1      42.767  21.634  25.441  1.00  0.00     0.059 A 
ATOM     82  C   UNL A   1      42.792  21.213  27.833  1.00  0.00     0.059 A 
ATOM     83  F   UNL A   1      43.371  22.941  29.311  1.00  0.00    -0.206 F 
ATOM     84  C   UNL A   1      42.585  20.774  26.527  1.00  0.00     0.060 A 
BRANCH  84  85
ATOM     85  S   UNL A   1      42.122  19.058  26.203  1.00  0.00     0.124 S 
ATOM     86  O   UNL A   1      42.381  18.435  27.495  1.00  0.00    -0.237 OA
ATOM     87  O   UNL A   1      40.718  19.186  25.824  1.00  0.00    -0.237 OA
ATOM     88  O   UNL A   1      43.021  18.668  25.121  1.00  0.00    -0.744 OA
ENDBRANCH  84  85
ENDBRANCH  52  77
BRANCH  64  89
ATOM     89  C   UNL A   1      49.564  26.622  26.613  1.00  0.00     0.058 A 
ATOM     90  C   UNL A   1      50.395  26.044  27.584  1.00  0.00     0.135 A 
ATOM     91  C   UNL A   1      50.044  26.688  25.295  1.00  0.00     0.135 A 
ATOM     92  F   UNL A   1      49.989  25.963  28.861  1.00  0.00    -0.206 F 
ATOM     93  C   UNL A   1      51.663  25.565  27.265  1.00  0.00     0.059 A 
ATOM     94  C   UNL A   1      51.297  26.193  24.948  1.00  0.00     0.059 A 
ATOM     95  F   UNL A   1      49.284  27.223  24.325  1.00  0.00    -0.206 F 
ATOM     96  C   UNL A   1      52.104  25.644  25.942  1.00  0.00     0.060 A 
BRANCH  96  97
ATOM     97  S   UNL A   1      53.736  24.988  25.532  1.00  0.00     0.124 S 
ATOM     98  O   UNL A   1      54.465  25.219  26.775  1.00  0.00    -0.237 OA
ATOM     99  O   UNL A   1      53.444  23.592  25.219  1.00  0.00    -0.237 OA
ATOM    100  O   UNL A   1      54.154  25.804  24.397  1.00  0.00    -0.744 OA
ENDBRANCH  96  97
ENDBRANCH  64  89
ENDBRANCH  38  39
ENDBRANCH  30  33
ENDBRANCH  28  29
ENDBRANCH  27  28
ENDBRANCH   1  27
TORSDOF 18
ENDMDL
MODEL 3
REMARK VINA RESULT:     -11.2      3.428      9.365
REMARK SMILES O=C(NCCCCCCNC(=O)c1ccc(-c2c3nc(c(-c4c(F)cc(S(=O)(=O)[O-])cc4F)c4ccc([nH]4)c(-c4c(F)cc(S(=O)(=O)[O-])cc4F)c4nc(c(-c5c(F)cc(S(=O)(=O)[O-])cc5F)c5ccc2[nH]5)C=C4)C=C3)cc1)C1=Cc2cc(C(F)(F)F)ccc2O[C@@H]1C(F)(F)F
REMARK SMILES IDX 7 1 6 2 5 3 4 4 3 5 1 6 2 7 79 9 80 10 92 11 81 12 91 13
REMARK SMILES IDX 82 14 90 15 83 16 89 17 88 18 93 19 94 20 95 21 96 22 84 23
REMARK SMILES IDX 85 24 86 25 87 26 8 27 9 28 10 29 11 30 12 32 13 33 14 34
REMARK SMILES IDX 78 35 15 36 77 37 16 38 17 39 18 40 71 41 19 42 76 43 70 44
REMARK SMILES IDX 72 45 20 46 75 47 69 48 68 49 21 51 55 52 34 53 54 54 35 55
REMARK SMILES IDX 38 56 53 57 73 58 36 59 37 60 52 62 74 63 39 64 22 65 23 66
REMARK SMILES IDX 32 67 24 68 25 69 31 70 33 71 26 72 27 73 28 74 29 75 30 76
REMARK SMILES IDX 56 77 57 78 66 79 58 80 59 81 65 82 67 83 60 84 61 85 62 86
REMARK SMILES IDX 63 87 64 88 40 89 41 90 50 91 42 92 43 93 49 94 51 95 44 96
REMARK SMILES IDX 45 97 46 98 47 99 48 100
REMARK H PARENT 3 8 10 31 72 50 38 61
REMARK Flexibility Score: inf
ROOT
ATOM      1  C   UNL A   1      36.740  22.365  25.629  1.00  0.00     0.002 C 
ENDROOT
BRANCH   1   2
ATOM      2  C   UNL A   1      35.653  22.183  24.562  1.00  0.00     0.002 C 
BRANCH   2   3
ATOM      3  C   UNL A   1      35.479  23.320  23.557  1.00  0.00     0.021 C 
BRANCH   3   4
ATOM      4  C   UNL A   1      34.040  23.729  23.257  1.00  0.00     0.116 C 
BRANCH   4   5
ATOM      5  N   UNL A   1      33.877  25.068  22.711  1.00  0.00    -0.352 N 
ATOM      6  O   UNL A   1      33.566  27.296  22.755  1.00  0.00    -0.270 OA
ATOM      7  C   UNL A   1      33.443  26.213  23.325  1.00  0.00     0.251 C 
ATOM      8  H   UNL A   1      34.114  25.165  21.761  1.00  0.00     0.163 HD
BRANCH   7   9
ATOM      9  C   UNL A   1      32.897  26.200  24.712  1.00  0.00     0.067 C 
ATOM     10  C   UNL A   1      33.669  26.585  25.743  1.00  0.00     0.025 C 
ATOM     11  C   UNL A   1      31.399  26.348  24.789  1.00  0.00     0.314 C 
ATOM     12  C   UNL A   1      33.170  27.823  26.378  1.00  0.00     0.018 A 
ATOM     13  O   UNL A   1      30.990  27.651  25.285  1.00  0.00    -0.475 OA
ATOM     14  C   UNL A   1      34.109  28.637  27.026  1.00  0.00     0.025 A 
ATOM     15  C   UNL A   1      31.909  28.336  26.039  1.00  0.00     0.128 A 
ATOM     16  C   UNL A   1      33.832  29.996  27.238  1.00  0.00     0.056 A 
ATOM     17  C   UNL A   1      31.594  29.658  26.341  1.00  0.00     0.048 A 
ATOM     18  C   UNL A   1      32.557  30.491  26.918  1.00  0.00     0.017 A 
BRANCH  11  19
ATOM     19  C   UNL A   1      30.763  25.224  25.623  1.00  0.00     0.429 C 
ATOM     20  F   UNL A   1      29.511  25.555  26.022  1.00  0.00    -0.167 F 
ATOM     21  F   UNL A   1      30.656  24.072  24.918  1.00  0.00    -0.167 F 
ATOM     22  F   UNL A   1      31.478  24.940  26.739  1.00  0.00    -0.167 F 
ENDBRANCH  11  19
BRANCH  16  23
ATOM     23  C   UNL A   1      34.924  30.923  27.720  1.00  0.00     0.416 C 
ATOM     24  F   UNL A   1      35.023  30.968  29.071  1.00  0.00    -0.166 F 
ATOM     25  F   UNL A   1      36.154  30.556  27.257  1.00  0.00    -0.166 F 
ATOM     26  F   UNL A   1      34.749  32.204  27.292  1.00  0.00    -0.166 F 
ENDBRANCH  16  23
ENDBRANCH   7   9
ENDBRANCH   4   5
ENDBRANCH   3   4
ENDBRANCH   2   3
ENDBRANCH   1   2
BRANCH   1  27
ATOM     27  C   UNL A   1      37.566  23.656  25.579  1.00  0.00     0.021 C 
BRANCH  27  28
ATOM     28  C   UNL A   1      38.596  23.854  26.690  1.00  0.00     0.116 C 
BRANCH  28  29
ATOM     29  N   UNL A   1      39.964  23.841  26.203  1.00  0.00    -0.352 N 
ATOM     30  C   UNL A   1      41.023  24.664  26.500  1.00  0.00     0.251 C 
ATOM     31  H   UNL A   1      40.165  23.127  25.555  1.00  0.00     0.163 HD
ATOM     32  O   UNL A   1      42.067  24.544  25.864  1.00  0.00    -0.269 OA
BRANCH  30  33
ATOM     33  C   UNL A   1      40.920  25.703  27.553  1.00  0.00     0.039 A 
ATOM     34  C   UNL A   1      39.880  25.604  28.485  1.00  0.00     0.014 A 
ATOM     35  C   UNL A   1      41.792  26.794  27.604  1.00  0.00     0.014 A 
ATOM     36  C   UNL A   1      39.746  26.566  29.491  1.00  0.00     0.010 A 
ATOM     37  C   UNL A   1      41.694  27.721  28.643  1.00  0.00     0.010 A 
ATOM     38  C   UNL A   1      40.666  27.620  29.595  1.00  0.00    -0.014 A 
BRANCH  38  39
ATOM     39  C   UNL A   1      40.565  28.622  30.690  1.00  0.00     0.031 A 
ATOM     40  C   UNL A   1      41.457  28.526  31.898  1.00  0.00     0.074 A 
ATOM     41  C   UNL A   1      39.632  29.594  30.619  1.00  0.00     0.049 A 
ATOM     42  N   UNL A   1      41.485  29.280  32.967  1.00  0.00    -0.248 NA
ATOM     43  C   UNL A   1      42.433  27.425  31.916  1.00  0.00     0.031 C 
ATOM     44  C   UNL A   1      38.683  29.774  29.519  1.00  0.00     0.029 A 
ATOM     45  N   UNL A   1      39.324  30.607  31.493  1.00  0.00    -0.354 N 
ATOM     46  C   UNL A   1      42.463  28.736  33.792  1.00  0.00     0.074 A 
ATOM     47  C   UNL A   1      42.978  27.564  33.116  1.00  0.00     0.031 C 
ATOM     48  C   UNL A   1      37.916  30.847  29.772  1.00  0.00     0.029 A 
ATOM     49  C   UNL A   1      38.292  31.409  31.065  1.00  0.00     0.049 A 
ATOM     50  H   UNL A   1      39.798  30.747  32.344  1.00  0.00     0.167 HD
ATOM     51  C   UNL A   1      42.902  29.180  34.995  1.00  0.00     0.037 A 
ATOM     52  C   UNL A   1      37.710  32.475  31.650  1.00  0.00     0.037 A 
ATOM     53  C   UNL A   1      42.407  30.363  35.650  1.00  0.00     0.049 A 
ATOM     54  C   UNL A   1      38.214  32.948  32.987  1.00  0.00     0.074 A 
ATOM     55  C   UNL A   1      42.840  30.936  36.834  1.00  0.00     0.029 A 
ATOM     56  N   UNL A   1      41.364  31.151  35.185  1.00  0.00    -0.354 N 
ATOM     57  N   UNL A   1      39.187  32.461  33.720  1.00  0.00    -0.248 NA
ATOM     58  C   UNL A   1      37.544  34.117  33.574  1.00  0.00     0.031 C 
ATOM     59  C   UNL A   1      42.030  32.045  37.106  1.00  0.00     0.029 A 
ATOM     60  C   UNL A   1      41.123  32.189  36.069  1.00  0.00     0.049 A 
ATOM     61  H   UNL A   1      40.869  30.994  34.348  1.00  0.00     0.167 HD
ATOM     62  C   UNL A   1      39.264  33.281  34.841  1.00  0.00     0.074 A 
ATOM     63  C   UNL A   1      38.245  34.298  34.685  1.00  0.00     0.031 C 
ATOM     64  C   UNL A   1      40.107  33.200  35.901  1.00  0.00     0.037 A 
BRANCH  51  65
ATOM     65  C   UNL A   1      43.971  28.377  35.687  1.00  0.00     0.058 A 
ATOM     66  C   UNL A   1      43.657  27.367  36.609  1.00  0.00     0.135 A 
ATOM     67  C   UNL A   1      45.327  28.602  35.401  1.00  0.00     0.135 A 
ATOM     68  F   UNL A   1      42.378  27.115  36.928  1.00  0.00    -0.206 F 
ATOM     69  C   UNL A   1      44.651  26.633  37.251  1.00  0.00     0.059 A 
ATOM     70  C   UNL A   1      46.337  27.862  36.011  1.00  0.00     0.059 A 
ATOM     71  F   UNL A   1      45.685  29.554  34.525  1.00  0.00    -0.206 F 
ATOM     72  C   UNL A   1      45.988  26.891  36.949  1.00  0.00     0.060 A 
BRANCH  72  73
ATOM     73  S   UNL A   1      47.265  25.938  37.797  1.00  0.00     0.124 S 
ATOM     74  O   UNL A   1      48.177  25.632  36.697  1.00  0.00    -0.237 OA
ATOM     75  O   UNL A   1      47.762  26.888  38.785  1.00  0.00    -0.237 OA
ATOM     76  O   UNL A   1      46.534  24.797  38.341  1.00  0.00    -0.744 OA
ENDBRANCH  72  73
ENDBRANCH  51  65
BRANCH  52  77
ATOM     77  C   UNL A   1      36.605  33.188  30.958  1.00  0.00     0.058 A 
ATOM     78  C   UNL A   1      35.287  33.102  31.433  1.00  0.00     0.135 A 
ATOM     79  C   UNL A   1      36.843  33.983  29.826  1.00  0.00     0.135 A 
ATOM     80  F   UNL A   1      35.010  32.348  32.506  1.00  0.00    -0.206 F 
ATOM     81  C   UNL A   1      34.242  33.772  30.806  1.00  0.00     0.059 A 
ATOM     82  C   UNL A   1      35.817  34.682  29.196  1.00  0.00     0.059 A 
ATOM     83  F   UNL A   1      38.088  34.110  29.342  1.00  0.00    -0.206 F 
ATOM     84  C   UNL A   1      34.518  34.564  29.689  1.00  0.00     0.060 A 
BRANCH  84  85
ATOM     85  S   UNL A   1      33.164  35.479  28.920  1.00  0.00     0.124 S 
ATOM     86  O   UNL A   1      32.471  34.423  28.193  1.00  0.00    -0.237 OA
ATOM     87  O   UNL A   1      32.465  36.023  30.079  1.00  0.00    -0.237 OA
ATOM     88  O   UNL A   1      33.855  36.466  28.095  1.00  0.00    -0.744 OA
ENDBRANCH  84  85
ENDBRANCH  52  77
BRANCH  64  89
ATOM     89  C   UNL A   1      39.987  34.256  36.963  1.00  0.00     0.058 A 
ATOM     90  C   UNL A   1      40.710  35.457  36.896  1.00  0.00     0.135 A 
ATOM     91  C   UNL A   1      39.100  34.085  38.038  1.00  0.00     0.135 A 
ATOM     92  F   UNL A   1      41.578  35.668  35.893  1.00  0.00    -0.206 F 
ATOM     93  C   UNL A   1      40.573  36.444  37.867  1.00  0.00     0.059 A 
ATOM     94  C   UNL A   1      38.928  35.069  39.007  1.00  0.00     0.059 A 
ATOM     95  F   UNL A   1      38.376  32.958  38.145  1.00  0.00    -0.206 F 
ATOM     96  C   UNL A   1      39.677  36.240  38.919  1.00  0.00     0.060 A 
BRANCH  96  97
ATOM     97  S   UNL A   1      39.481  37.542  40.155  1.00  0.00     0.124 S 
ATOM     98  O   UNL A   1      40.608  38.416  39.842  1.00  0.00    -0.237 OA
ATOM     99  O   UNL A   1      38.159  38.077  39.842  1.00  0.00    -0.237 OA
ATOM    100  O   UNL A   1      39.576  36.824  41.423  1.00  0.00    -0.744 OA
ENDBRANCH  96  97
ENDBRANCH  64  89
ENDBRANCH  38  39
ENDBRANCH  30  33
ENDBRANCH  28  29
ENDBRANCH  27  28
ENDBRANCH   1  27
TORSDOF 18
ENDMDL
