MODEL 1
REMARK VINA RESULT:     -11.3      0.000      0.000
REMARK SMILES O=C(CO/N=C\c1ccccc1)Nc1ccccc1C(=O)NCCCCCCNC(=O)c1ccc(-c2c3nc(c(-c4c(F)cc(S(=O)(=O)[O-])cc4F)c4ccc([nH]4)c(-c4c(F)cc(S(=O)(=O)[O-])cc4F)c4nc(c(-c5c(F)cc(S(=O)(=O)[O-])cc5F)c5ccc2[nH]5)C=C4)C=C3)cc1
REMARK SMILES IDX 24 1 23 2 22 3 20 4 21 5 19 7 14 8 15 9 16 10 18 11 17 12
REMARK SMILES IDX 13 13 1 14 2 15 3 17 4 18 5 19 6 20 7 21 8 22 12 23 9 24
REMARK SMILES IDX 11 25 10 26 25 27 26 28 27 29 28 30 29 31 30 32 31 34 32 35
REMARK SMILES IDX 33 36 97 37 34 38 96 39 35 40 36 41 37 42 90 43 38 44 95 45
REMARK SMILES IDX 89 46 91 47 39 48 94 49 88 50 87 51 40 53 74 54 53 55 73 56
REMARK SMILES IDX 54 57 57 58 72 59 92 60 55 61 56 62 71 64 93 65 58 66 41 67
REMARK SMILES IDX 42 68 51 69 43 70 44 71 50 72 52 73 45 74 46 75 47 76 48 77
REMARK SMILES IDX 49 78 75 79 76 80 85 81 77 82 78 83 84 84 86 85 79 86 80 87
REMARK SMILES IDX 81 88 82 89 83 90 59 91 60 92 69 93 61 94 62 95 68 96 70 97
REMARK SMILES IDX 63 98 64 99 65 100 66 101 67 102
REMARK H PARENT 22 6 13 16 29 33 91 52 57 63
REMARK Flexibility Score: inf
ROOT
ATOM      1  C   UNL A   1      35.859  23.364  24.912  1.00  0.00     0.021 C 
ENDROOT
BRANCH   1   2
ATOM      2  C   UNL A   1      34.980  24.567  25.248  1.00  0.00     0.116 C 
BRANCH   2   3
ATOM      3  N   UNL A   1      34.137  25.096  24.208  1.00  0.00    -0.352 N 
ATOM      4  C   UNL A   1      33.286  26.189  24.241  1.00  0.00     0.253 C 
ATOM      5  O   UNL A   1      32.866  26.590  23.150  1.00  0.00    -0.269 OA
ATOM      6  H   UNL A   1      34.170  24.614  23.350  1.00  0.00     0.163 HD
BRANCH   4   7
ATOM      7  C   UNL A   1      32.694  26.777  25.498  1.00  0.00     0.063 A 
ATOM      8  C   UNL A   1      31.559  26.384  26.239  1.00  0.00     0.054 A 
ATOM      9  C   UNL A   1      31.038  27.259  27.218  1.00  0.00     0.027 A 
ATOM     10  C   UNL A   1      31.704  28.431  27.577  1.00  0.00     0.002 A 
ATOM     11  C   UNL A   1      33.367  27.953  25.912  1.00  0.00     0.016 A 
ATOM     12  C   UNL A   1      32.894  28.760  26.950  1.00  0.00     0.001 A 
BRANCH   8  13
ATOM     13  N   UNL A   1      30.876  25.149  26.172  1.00  0.00    -0.322 N 
ATOM     14  O   UNL A   1      32.254  23.869  27.522  1.00  0.00    -0.271 OA
ATOM     15  C   UNL A   1      31.289  23.974  26.771  1.00  0.00     0.265 C 
ATOM     16  H   UNL A   1      30.037  25.124  25.657  1.00  0.00     0.170 HD
BRANCH  15  17
ATOM     17  C   UNL A   1      30.514  22.756  26.270  1.00  0.00     0.363 C 
BRANCH  17  18
ATOM     18  O   UNL A   1      31.226  21.867  25.432  1.00  0.00    -0.386 OA
BRANCH  18  19
ATOM     19  N   UNL A   1      31.827  22.606  24.411  1.00  0.00    -0.094 NA
ATOM     20  C   UNL A   1      32.639  21.891  23.692  1.00  0.00     0.162 C 
BRANCH  20  21
ATOM     21  C   UNL A   1      32.890  20.445  23.785  1.00  0.00    -0.004 A 
ATOM     22  C   UNL A   1      33.936  20.009  24.599  1.00  0.00     0.010 A 
ATOM     23  C   UNL A   1      32.180  19.546  22.987  1.00  0.00     0.010 A 
ATOM     24  C   UNL A   1      34.266  18.655  24.626  1.00  0.00     0.001 A 
ATOM     25  C   UNL A   1      32.523  18.194  23.016  1.00  0.00     0.001 A 
ATOM     26  C   UNL A   1      33.565  17.749  23.830  1.00  0.00     0.000 A 
ENDBRANCH  20  21
ENDBRANCH  18  19
ENDBRANCH  17  18
ENDBRANCH  15  17
ENDBRANCH   8  13
ENDBRANCH   4   7
ENDBRANCH   2   3
ENDBRANCH   1   2
BRANCH   1  27
ATOM     27  C   UNL A   1      37.225  23.279  25.613  1.00  0.00     0.002 C 
BRANCH  27  28
ATOM     28  C   UNL A   1      37.889  21.900  25.752  1.00  0.00     0.002 C 
BRANCH  28  29
ATOM     29  C   UNL A   1      39.341  21.861  26.239  1.00  0.00     0.021 C 
BRANCH  29  30
ATOM     30  C   UNL A   1      39.955  23.167  26.717  1.00  0.00     0.116 C 
BRANCH  30  31
ATOM     31  N   UNL A   1      41.204  23.494  26.059  1.00  0.00    -0.352 N 
ATOM     32  C   UNL A   1      42.032  24.583  26.211  1.00  0.00     0.251 C 
ATOM     33  H   UNL A   1      41.510  22.832  25.397  1.00  0.00     0.163 HD
ATOM     34  O   UNL A   1      42.985  24.725  25.452  1.00  0.00    -0.269 OA
BRANCH  32  35
ATOM     35  C   UNL A   1      41.773  25.602  27.261  1.00  0.00     0.039 A 
ATOM     36  C   UNL A   1      40.775  25.353  28.209  1.00  0.00     0.014 A 
ATOM     37  C   UNL A   1      42.474  26.809  27.305  1.00  0.00     0.014 A 
ATOM     38  C   UNL A   1      40.529  26.277  29.232  1.00  0.00     0.010 A 
ATOM     39  C   UNL A   1      42.281  27.692  28.368  1.00  0.00     0.010 A 
ATOM     40  C   UNL A   1      41.307  27.440  29.348  1.00  0.00    -0.014 A 
BRANCH  40  41
ATOM     41  C   UNL A   1      41.112  28.403  30.470  1.00  0.00     0.031 A 
ATOM     42  C   UNL A   1      41.979  28.320  31.701  1.00  0.00     0.074 A 
ATOM     43  C   UNL A   1      40.119  29.316  30.420  1.00  0.00     0.049 A 
ATOM     44  N   UNL A   1      41.911  29.010  32.813  1.00  0.00    -0.248 NA
ATOM     45  C   UNL A   1      43.045  27.305  31.696  1.00  0.00     0.031 C 
ATOM     46  C   UNL A   1      39.174  29.481  29.314  1.00  0.00     0.029 A 
ATOM     47  N   UNL A   1      39.732  30.275  31.326  1.00  0.00    -0.354 N 
ATOM     48  C   UNL A   1      42.905  28.498  33.640  1.00  0.00     0.074 A 
ATOM     49  C   UNL A   1      43.517  27.397  32.930  1.00  0.00     0.031 C 
ATOM     50  C   UNL A   1      38.342  30.497  29.589  1.00  0.00     0.029 A 
ATOM     51  C   UNL A   1      38.660  31.033  30.910  1.00  0.00     0.049 A 
ATOM     52  H   UNL A   1      40.180  30.409  32.192  1.00  0.00     0.167 HD
ATOM     53  C   UNL A   1      43.298  28.923  34.866  1.00  0.00     0.037 A 
ATOM     54  C   UNL A   1      38.004  32.040  31.520  1.00  0.00     0.037 A 
ATOM     55  C   UNL A   1      42.712  30.042  35.558  1.00  0.00     0.049 A 
ATOM     56  C   UNL A   1      38.450  32.493  32.885  1.00  0.00     0.074 A 
ATOM     57  C   UNL A   1      43.077  30.584  36.779  1.00  0.00     0.029 A 
ATOM     58  N   UNL A   1      41.641  30.790  35.094  1.00  0.00    -0.354 N 
ATOM     59  N   UNL A   1      39.429  32.032  33.627  1.00  0.00    -0.248 NA
ATOM     60  C   UNL A   1      37.707  33.605  33.496  1.00  0.00     0.031 C 
ATOM     61  C   UNL A   1      42.195  31.626  37.075  1.00  0.00     0.029 A 
ATOM     62  C   UNL A   1      41.316  31.774  36.014  1.00  0.00     0.049 A 
ATOM     63  H   UNL A   1      41.180  30.645  34.236  1.00  0.00     0.167 HD
ATOM     64  C   UNL A   1      39.439  32.817  34.776  1.00  0.00     0.074 A 
ATOM     65  C   UNL A   1      38.375  33.787  34.628  1.00  0.00     0.031 C 
ATOM     66  C   UNL A   1      40.260  32.742  35.853  1.00  0.00     0.037 A 
BRANCH  53  67
ATOM     67  C   UNL A   1      44.419  28.173  35.536  1.00  0.00     0.058 A 
ATOM     68  C   UNL A   1      45.761  28.557  35.382  1.00  0.00     0.135 A 
ATOM     69  C   UNL A   1      44.148  27.064  36.355  1.00  0.00     0.135 A 
ATOM     70  F   UNL A   1      46.082  29.601  34.602  1.00  0.00    -0.206 F 
ATOM     71  C   UNL A   1      46.796  27.842  35.977  1.00  0.00     0.059 A 
ATOM     72  C   UNL A   1      45.164  26.357  36.988  1.00  0.00     0.059 A 
ATOM     73  F   UNL A   1      42.883  26.655  36.541  1.00  0.00    -0.206 F 
ATOM     74  C   UNL A   1      46.487  26.740  36.776  1.00  0.00     0.060 A 
BRANCH  74  75
ATOM     75  S   UNL A   1      47.843  25.813  37.525  1.00  0.00     0.124 S 
ATOM     76  O   UNL A   1      47.151  25.105  38.598  1.00  0.00    -0.237 OA
ATOM     77  O   UNL A   1      48.305  24.986  36.415  1.00  0.00    -0.237 OA
ATOM     78  O   UNL A   1      48.770  26.854  37.956  1.00  0.00    -0.744 OA
ENDBRANCH  74  75
ENDBRANCH  53  67
BRANCH  54  79
ATOM     79  C   UNL A   1      36.868  32.712  30.831  1.00  0.00     0.058 A 
ATOM     80  C   UNL A   1      37.092  33.743  29.907  1.00  0.00     0.135 A 
ATOM     81  C   UNL A   1      35.538  32.329  31.071  1.00  0.00     0.135 A 
ATOM     82  F   UNL A   1      38.345  34.153  29.651  1.00  0.00    -0.206 F 
ATOM     83  C   UNL A   1      36.043  34.381  29.253  1.00  0.00     0.059 A 
ATOM     84  C   UNL A   1      34.473  32.933  30.408  1.00  0.00     0.059 A 
ATOM     85  F   UNL A   1      35.266  31.340  31.936  1.00  0.00    -0.206 F 
ATOM     86  C   UNL A   1      34.735  33.964  29.507  1.00  0.00     0.060 A 
BRANCH  86  87
ATOM     87  S   UNL A   1      33.383  34.760  28.612  1.00  0.00     0.124 S 
ATOM     88  O   UNL A   1      32.459  35.075  29.694  1.00  0.00    -0.237 OA
ATOM     89  O   UNL A   1      34.056  35.898  27.993  1.00  0.00    -0.237 OA
ATOM     90  O   UNL A   1      32.942  33.722  27.685  1.00  0.00    -0.744 OA
ENDBRANCH  86  87
ENDBRANCH  54  79
BRANCH  66  91
ATOM     91  C   UNL A   1      40.073  33.759  36.948  1.00  0.00     0.058 A 
ATOM     92  C   UNL A   1      40.724  35.001  36.923  1.00  0.00     0.135 A 
ATOM     93  C   UNL A   1      39.175  33.511  37.999  1.00  0.00     0.135 A 
ATOM     94  F   UNL A   1      41.599  35.288  35.946  1.00  0.00    -0.206 F 
ATOM     95  C   UNL A   1      40.504  35.957  37.910  1.00  0.00     0.059 A 
ATOM     96  C   UNL A   1      38.916  34.463  38.980  1.00  0.00     0.059 A 
ATOM     97  F   UNL A   1      38.518  32.342  38.065  1.00  0.00    -0.206 F 
ATOM     98  C   UNL A   1      39.593  35.680  38.932  1.00  0.00     0.060 A 
BRANCH  98  99
ATOM     99  S   UNL A   1      39.278  36.949  40.177  1.00  0.00     0.124 S 
ATOM    100  O   UNL A   1      38.475  36.214  41.148  1.00  0.00    -0.237 OA
ATOM    101  O   UNL A   1      40.627  37.303  40.609  1.00  0.00    -0.237 OA
ATOM    102  O   UNL A   1      38.572  37.988  39.435  1.00  0.00    -0.744 OA
ENDBRANCH  98  99
ENDBRANCH  66  91
ENDBRANCH  40  41
ENDBRANCH  32  35
ENDBRANCH  30  31
ENDBRANCH  29  30
ENDBRANCH  28  29
ENDBRANCH  27  28
ENDBRANCH   1  27
TORSDOF 21
ENDMDL
MODEL 2
REMARK VINA RESULT:     -11.3      0.985      3.688
REMARK SMILES O=C(CO/N=C\c1ccccc1)Nc1ccccc1C(=O)NCCCCCCNC(=O)c1ccc(-c2c3nc(c(-c4c(F)cc(S(=O)(=O)[O-])cc4F)c4ccc([nH]4)c(-c4c(F)cc(S(=O)(=O)[O-])cc4F)c4nc(c(-c5c(F)cc(S(=O)(=O)[O-])cc5F)c5ccc2[nH]5)C=C4)C=C3)cc1
REMARK SMILES IDX 24 1 23 2 22 3 20 4 21 5 19 7 14 8 15 9 16 10 18 11 17 12
REMARK SMILES IDX 13 13 1 14 2 15 3 17 4 18 5 19 6 20 7 21 8 22 12 23 9 24
REMARK SMILES IDX 11 25 10 26 25 27 26 28 27 29 28 30 29 31 30 32 31 34 32 35
REMARK SMILES IDX 33 36 97 37 34 38 96 39 35 40 36 41 37 42 90 43 38 44 95 45
REMARK SMILES IDX 89 46 91 47 39 48 94 49 88 50 87 51 40 53 74 54 53 55 73 56
REMARK SMILES IDX 54 57 57 58 72 59 92 60 55 61 56 62 71 64 93 65 58 66 41 67
REMARK SMILES IDX 42 68 51 69 43 70 44 71 50 72 52 73 45 74 46 75 47 76 48 77
REMARK SMILES IDX 49 78 75 79 76 80 85 81 77 82 78 83 84 84 86 85 79 86 80 87
REMARK SMILES IDX 81 88 82 89 83 90 59 91 60 92 69 93 61 94 62 95 68 96 70 97
REMARK SMILES IDX 63 98 64 99 65 100 66 101 67 102
REMARK H PARENT 22 6 13 16 29 33 91 52 57 63
REMARK Flexibility Score: inf
ROOT
ATOM      1  C   UNL A   1      35.045  22.602  23.690  1.00  0.00     0.021 C 
ENDROOT
BRANCH   1   2
ATOM      2  C   UNL A   1      33.675  23.151  23.297  1.00  0.00     0.116 C 
BRANCH   2   3
ATOM      3  N   UNL A   1      32.944  22.458  22.268  1.00  0.00    -0.352 N 
ATOM      4  C   UNL A   1      32.192  21.298  22.357  1.00  0.00     0.253 C 
ATOM      5  O   UNL A   1      31.457  21.046  21.396  1.00  0.00    -0.269 OA
ATOM      6  H   UNL A   1      32.982  22.868  21.374  1.00  0.00     0.163 HD
BRANCH   4   7
ATOM      7  C   UNL A   1      32.359  20.248  23.427  1.00  0.00     0.063 A 
ATOM      8  C   UNL A   1      32.224  20.348  24.829  1.00  0.00     0.054 A 
ATOM      9  C   UNL A   1      32.706  19.300  25.643  1.00  0.00     0.027 A 
ATOM     10  C   UNL A   1      33.172  18.105  25.096  1.00  0.00     0.002 A 
ATOM     11  C   UNL A   1      32.800  19.008  22.902  1.00  0.00     0.016 A 
ATOM     12  C   UNL A   1      33.182  17.942  23.720  1.00  0.00     0.001 A 
BRANCH   8  13
ATOM     13  N   UNL A   1      31.588  21.377  25.558  1.00  0.00    -0.322 N 
ATOM     14  O   UNL A   1      33.412  22.222  26.706  1.00  0.00    -0.271 OA
ATOM     15  C   UNL A   1      32.207  22.206  26.475  1.00  0.00     0.265 C 
ATOM     16  H   UNL A   1      30.627  21.516  25.400  1.00  0.00     0.170 HD
BRANCH  15  17
ATOM     17  C   UNL A   1      31.209  23.004  27.312  1.00  0.00     0.363 C 
BRANCH  17  18
ATOM     18  O   UNL A   1      31.333  24.412  27.255  1.00  0.00    -0.386 OA
BRANCH  18  19
ATOM     19  N   UNL A   1      30.298  24.916  26.465  1.00  0.00    -0.094 NA
ATOM     20  C   UNL A   1      30.536  26.122  26.046  1.00  0.00     0.162 C 
BRANCH  20  21
ATOM     21  C   UNL A   1      31.761  26.915  26.229  1.00  0.00    -0.004 A 
ATOM     22  C   UNL A   1      31.788  27.857  27.257  1.00  0.00     0.010 A 
ATOM     23  C   UNL A   1      32.819  26.811  25.323  1.00  0.00     0.010 A 
ATOM     24  C   UNL A   1      32.894  28.696  27.390  1.00  0.00     0.001 A 
ATOM     25  C   UNL A   1      33.917  27.660  25.461  1.00  0.00     0.001 A 
ATOM     26  C   UNL A   1      33.954  28.603  26.489  1.00  0.00     0.000 A 
ENDBRANCH  20  21
ENDBRANCH  18  19
ENDBRANCH  17  18
ENDBRANCH  15  17
ENDBRANCH   8  13
ENDBRANCH   4   7
ENDBRANCH   2   3
ENDBRANCH   1   2
BRANCH   1  27
ATOM     27  C   UNL A   1      36.044  23.595  24.309  1.00  0.00     0.002 C 
BRANCH  27  28
ATOM     28  C   UNL A   1      37.194  23.038  25.163  1.00  0.00     0.002 C 
BRANCH  28  29
ATOM     29  C   UNL A   1      37.902  24.006  26.114  1.00  0.00     0.021 C 
BRANCH  29  30
ATOM     30  C   UNL A   1      39.172  23.518  26.795  1.00  0.00     0.116 C 
BRANCH  30  31
ATOM     31  N   UNL A   1      40.382  23.848  26.068  1.00  0.00    -0.352 N 
ATOM     32  C   UNL A   1      41.284  24.870  26.261  1.00  0.00     0.251 C 
ATOM     33  H   UNL A   1      40.592  23.247  25.317  1.00  0.00     0.163 HD
ATOM     34  O   UNL A   1      42.180  25.042  25.441  1.00  0.00    -0.269 OA
BRANCH  32  35
ATOM     35  C   UNL A   1      41.173  25.781  27.429  1.00  0.00     0.039 A 
ATOM     36  C   UNL A   1      42.137  26.780  27.597  1.00  0.00     0.014 A 
ATOM     37  C   UNL A   1      40.156  25.644  28.375  1.00  0.00     0.014 A 
ATOM     38  C   UNL A   1      42.042  27.677  28.668  1.00  0.00     0.010 A 
ATOM     39  C   UNL A   1      40.019  26.585  29.397  1.00  0.00     0.010 A 
ATOM     40  C   UNL A   1      40.959  27.616  29.559  1.00  0.00    -0.014 A 
BRANCH  40  41
ATOM     41  C   UNL A   1      40.798  28.605  30.664  1.00  0.00     0.031 A 
ATOM     42  C   UNL A   1      41.663  28.515  31.896  1.00  0.00     0.074 A 
ATOM     43  C   UNL A   1      39.835  29.550  30.599  1.00  0.00     0.049 A 
ATOM     44  N   UNL A   1      41.620  29.225  32.995  1.00  0.00    -0.248 NA
ATOM     45  C   UNL A   1      42.694  27.464  31.907  1.00  0.00     0.031 C 
ATOM     46  C   UNL A   1      38.896  29.727  29.490  1.00  0.00     0.029 A 
ATOM     47  N   UNL A   1      39.483  30.537  31.488  1.00  0.00    -0.354 N 
ATOM     48  C   UNL A   1      42.597  28.695  33.830  1.00  0.00     0.074 A 
ATOM     49  C   UNL A   1      43.171  27.562  33.139  1.00  0.00     0.031 C 
ATOM     50  C   UNL A   1      38.099  30.776  29.749  1.00  0.00     0.029 A 
ATOM     51  C   UNL A   1      38.436  31.323  31.059  1.00  0.00     0.049 A 
ATOM     52  H   UNL A   1      39.936  30.671  32.351  1.00  0.00     0.167 HD
ATOM     53  C   UNL A   1      43.006  29.128  35.048  1.00  0.00     0.037 A 
ATOM     54  C   UNL A   1      37.815  32.363  31.652  1.00  0.00     0.037 A 
ATOM     55  C   UNL A   1      42.459  30.278  35.721  1.00  0.00     0.049 A 
ATOM     56  C   UNL A   1      38.279  32.824  33.009  1.00  0.00     0.074 A 
ATOM     57  C   UNL A   1      42.844  30.828  36.932  1.00  0.00     0.029 A 
ATOM     58  N   UNL A   1      41.413  31.054  35.244  1.00  0.00    -0.354 N 
ATOM     59  N   UNL A   1      39.242  32.343  33.758  1.00  0.00    -0.248 NA
ATOM     60  C   UNL A   1      37.574  33.971  33.600  1.00  0.00     0.031 C 
ATOM     61  C   UNL A   1      41.997  31.905  37.211  1.00  0.00     0.029 A 
ATOM     62  C   UNL A   1      41.123  32.063  36.148  1.00  0.00     0.049 A 
ATOM     63  H   UNL A   1      40.946  30.909  34.390  1.00  0.00     0.167 HD
ATOM     64  C   UNL A   1      39.281  33.148  34.893  1.00  0.00     0.074 A 
ATOM     65  C   UNL A   1      38.249  34.150  34.729  1.00  0.00     0.031 C 
ATOM     66  C   UNL A   1      40.099  33.064  35.970  1.00  0.00     0.037 A 
BRANCH  53  67
ATOM     67  C   UNL A   1      44.102  28.352  35.730  1.00  0.00     0.058 A 
ATOM     68  C   UNL A   1      45.459  28.635  35.505  1.00  0.00     0.135 A 
ATOM     69  C   UNL A   1      43.793  27.322  36.633  1.00  0.00     0.135 A 
ATOM     70  F   UNL A   1      45.815  29.601  34.643  1.00  0.00    -0.206 F 
ATOM     71  C   UNL A   1      46.469  27.896  36.113  1.00  0.00     0.059 A 
ATOM     72  C   UNL A   1      44.786  26.593  37.280  1.00  0.00     0.059 A 
ATOM     73  F   UNL A   1      42.513  27.010  36.891  1.00  0.00    -0.206 F 
ATOM     74  C   UNL A   1      46.121  26.873  36.996  1.00  0.00     0.060 A 
BRANCH  74  75
ATOM     75  S   UNL A   1      47.443  25.911  37.761  1.00  0.00     0.124 S 
ATOM     76  O   UNL A   1      47.280  26.264  39.168  1.00  0.00    -0.237 OA
ATOM     77  O   UNL A   1      47.079  24.543  37.405  1.00  0.00    -0.237 OA
ATOM     78  O   UNL A   1      48.651  26.423  37.122  1.00  0.00    -0.744 OA
ENDBRANCH  74  75
ENDBRANCH  53  67
BRANCH  54  79
ATOM     79  C   UNL A   1      36.701  33.060  30.953  1.00  0.00     0.058 A 
ATOM     80  C   UNL A   1      35.370  32.883  31.361  1.00  0.00     0.135 A 
ATOM     81  C   UNL A   1      36.943  33.925  29.874  1.00  0.00     0.135 A 
ATOM     82  F   UNL A   1      35.086  32.058  32.381  1.00  0.00    -0.206 F 
ATOM     83  C   UNL A   1      34.318  33.528  30.720  1.00  0.00     0.059 A 
ATOM     84  C   UNL A   1      35.908  34.604  29.235  1.00  0.00     0.059 A 
ATOM     85  F   UNL A   1      38.198  34.141  29.449  1.00  0.00    -0.206 F 
ATOM     86  C   UNL A   1      34.598  34.392  29.660  1.00  0.00     0.060 A 
BRANCH  86  87
ATOM     87  S   UNL A   1      33.229  35.267  28.871  1.00  0.00     0.124 S 
ATOM     88  O   UNL A   1      32.629  34.209  28.067  1.00  0.00    -0.237 OA
ATOM     89  O   UNL A   1      32.451  35.715  30.022  1.00  0.00    -0.237 OA
ATOM     90  O   UNL A   1      33.899  36.327  28.125  1.00  0.00    -0.744 OA
ENDBRANCH  86  87
ENDBRANCH  54  79
BRANCH  66  91
ATOM     91  C   UNL A   1      39.949  34.105  37.048  1.00  0.00     0.058 A 
ATOM     92  C   UNL A   1      40.545  35.371  36.942  1.00  0.00     0.135 A 
ATOM     93  C   UNL A   1      39.137  33.855  38.167  1.00  0.00     0.135 A 
ATOM     94  F   UNL A   1      41.336  35.661  35.897  1.00  0.00    -0.206 F 
ATOM     95  C   UNL A   1      40.356  36.347  37.916  1.00  0.00     0.059 A 
ATOM     96  C   UNL A   1      38.910  34.825  39.137  1.00  0.00     0.059 A 
ATOM     97  F   UNL A   1      38.536  32.663  38.312  1.00  0.00    -0.206 F 
ATOM     98  C   UNL A   1      39.531  36.066  39.007  1.00  0.00     0.060 A 
BRANCH  98  99
ATOM     99  S   UNL A   1      39.253  37.359  40.236  1.00  0.00     0.124 S 
ATOM    100  O   UNL A   1      38.415  38.295  39.493  1.00  0.00    -0.237 OA
ATOM    101  O   UNL A   1      38.588  36.629  41.311  1.00  0.00    -0.237 OA
ATOM    102  O   UNL A   1      40.598  37.831  40.547  1.00  0.00    -0.744 OA
ENDBRANCH  98  99
ENDBRANCH  66  91
ENDBRANCH  40  41
ENDBRANCH  32  35
ENDBRANCH  30  31
ENDBRANCH  29  30
ENDBRANCH  28  29
ENDBRANCH  27  28
ENDBRANCH   1  27
TORSDOF 21
ENDMDL
MODEL 3
REMARK VINA RESULT:     -11.1      6.198     10.977
REMARK SMILES O=C(CO/N=C\c1ccccc1)Nc1ccccc1C(=O)NCCCCCCNC(=O)c1ccc(-c2c3nc(c(-c4c(F)cc(S(=O)(=O)[O-])cc4F)c4ccc([nH]4)c(-c4c(F)cc(S(=O)(=O)[O-])cc4F)c4nc(c(-c5c(F)cc(S(=O)(=O)[O-])cc5F)c5ccc2[nH]5)C=C4)C=C3)cc1
REMARK SMILES IDX 24 1 23 2 22 3 20 4 21 5 19 7 14 8 15 9 16 10 18 11 17 12
REMARK SMILES IDX 13 13 1 14 2 15 3 17 4 18 5 19 6 20 7 21 8 22 12 23 9 24
REMARK SMILES IDX 11 25 10 26 25 27 26 28 27 29 28 30 29 31 30 32 31 34 32 35
REMARK SMILES IDX 33 36 97 37 34 38 96 39 35 40 36 41 37 42 90 43 38 44 95 45
REMARK SMILES IDX 89 46 91 47 39 48 94 49 88 50 87 51 40 53 74 54 53 55 73 56
REMARK SMILES IDX 54 57 57 58 72 59 92 60 55 61 56 62 71 64 93 65 58 66 41 67
REMARK SMILES IDX 42 68 51 69 43 70 44 71 50 72 52 73 45 74 46 75 47 76 48 77
REMARK SMILES IDX 49 78 75 79 76 80 85 81 77 82 78 83 84 84 86 85 79 86 80 87
REMARK SMILES IDX 81 88 82 89 83 90 59 91 60 92 69 93 61 94 62 95 68 96 70 97
REMARK SMILES IDX 63 98 64 99 65 100 66 101 67 102
REMARK H PARENT 22 6 13 16 29 33 91 52 57 63
REMARK Flexibility Score: inf
ROOT
ATOM      1  C   UNL A   1      38.338  24.252  26.612  1.00  0.00     0.021 C 
ENDROOT
BRANCH   1   2
ATOM      2  C   UNL A   1      37.228  23.457  25.927  1.00  0.00     0.116 C 
BRANCH   2   3
ATOM      3  N   UNL A   1      37.341  23.227  24.510  1.00  0.00    -0.352 N 
ATOM      4  C   UNL A   1      36.353  22.907  23.593  1.00  0.00     0.253 C 
ATOM      5  O   UNL A   1      36.659  23.010  22.400  1.00  0.00    -0.269 OA
ATOM      6  H   UNL A   1      38.249  23.309  24.140  1.00  0.00     0.163 HD
BRANCH   4   7
ATOM      7  C   UNL A   1      35.034  22.265  23.942  1.00  0.00     0.063 A 
ATOM      8  C   UNL A   1      33.715  22.699  23.688  1.00  0.00     0.054 A 
ATOM      9  C   UNL A   1      32.642  22.072  24.360  1.00  0.00     0.027 A 
ATOM     10  C   UNL A   1      32.837  20.939  25.148  1.00  0.00     0.002 A 
ATOM     11  C   UNL A   1      35.195  21.089  24.718  1.00  0.00     0.016 A 
ATOM     12  C   UNL A   1      34.113  20.421  25.296  1.00  0.00     0.001 A 
BRANCH   8  13
ATOM     13  N   UNL A   1      33.299  23.683  22.764  1.00  0.00    -0.322 N 
ATOM     14  O   UNL A   1      33.782  25.590  23.984  1.00  0.00    -0.271 OA
ATOM     15  C   UNL A   1      33.315  25.047  22.988  1.00  0.00     0.265 C 
ATOM     16  H   UNL A   1      32.973  23.372  21.889  1.00  0.00     0.170 HD
BRANCH  15  17
ATOM     17  C   UNL A   1      32.529  25.824  21.933  1.00  0.00     0.363 C 
BRANCH  17  18
ATOM     18  O   UNL A   1      32.262  27.181  22.230  1.00  0.00    -0.386 OA
BRANCH  18  19
ATOM     19  N   UNL A   1      30.901  27.419  22.026  1.00  0.00    -0.094 NA
ATOM     20  C   UNL A   1      30.295  27.793  23.113  1.00  0.00     0.162 C 
BRANCH  20  21
ATOM     21  C   UNL A   1      30.891  28.069  24.429  1.00  0.00    -0.004 A 
ATOM     22  C   UNL A   1      30.924  27.037  25.367  1.00  0.00     0.010 A 
ATOM     23  C   UNL A   1      31.301  29.360  24.768  1.00  0.00     0.010 A 
ATOM     24  C   UNL A   1      31.386  27.295  26.656  1.00  0.00     0.001 A 
ATOM     25  C   UNL A   1      31.755  29.610  26.064  1.00  0.00     0.001 A 
ATOM     26  C   UNL A   1      31.795  28.582  27.007  1.00  0.00     0.000 A 
ENDBRANCH  20  21
ENDBRANCH  18  19
ENDBRANCH  17  18
ENDBRANCH  15  17
ENDBRANCH   8  13
ENDBRANCH   4   7
ENDBRANCH   2   3
ENDBRANCH   1   2
BRANCH   1  27
ATOM     27  C   UNL A   1      39.774  23.727  26.452  1.00  0.00     0.002 C 
BRANCH  27  28
ATOM     28  C   UNL A   1      40.183  22.470  27.236  1.00  0.00     0.002 C 
BRANCH  28  29
ATOM     29  C   UNL A   1      40.038  21.118  26.530  1.00  0.00     0.021 C 
BRANCH  29  30
ATOM     30  C   UNL A   1      40.776  19.931  27.131  1.00  0.00     0.116 C 
BRANCH  30  31
ATOM     31  N   UNL A   1      41.662  19.267  26.196  1.00  0.00    -0.352 N 
ATOM     32  C   UNL A   1      42.781  19.735  25.546  1.00  0.00     0.251 C 
ATOM     33  H   UNL A   1      41.426  18.333  25.993  1.00  0.00     0.163 HD
ATOM     34  O   UNL A   1      43.314  19.036  24.690  1.00  0.00    -0.269 OA
BRANCH  32  35
ATOM     35  C   UNL A   1      43.336  21.080  25.846  1.00  0.00     0.039 A 
ATOM     36  C   UNL A   1      43.343  22.046  24.834  1.00  0.00     0.014 A 
ATOM     37  C   UNL A   1      43.878  21.391  27.093  1.00  0.00     0.014 A 
ATOM     38  C   UNL A   1      43.827  23.334  25.093  1.00  0.00     0.010 A 
ATOM     39  C   UNL A   1      44.288  22.696  27.372  1.00  0.00     0.010 A 
ATOM     40  C   UNL A   1      44.268  23.687  26.378  1.00  0.00    -0.014 A 
BRANCH  40  41
ATOM     41  C   UNL A   1      44.721  25.073  26.696  1.00  0.00     0.031 A 
ATOM     42  C   UNL A   1      43.739  26.091  27.219  1.00  0.00     0.074 A 
ATOM     43  C   UNL A   1      45.997  25.444  26.461  1.00  0.00     0.049 A 
ATOM     44  N   UNL A   1      43.919  27.362  27.474  1.00  0.00    -0.248 NA
ATOM     45  C   UNL A   1      42.362  25.626  27.454  1.00  0.00     0.031 C 
ATOM     46  C   UNL A   1      47.045  24.578  25.915  1.00  0.00     0.029 A 
ATOM     47  N   UNL A   1      46.632  26.649  26.645  1.00  0.00    -0.354 N 
ATOM     48  C   UNL A   1      42.680  27.849  27.878  1.00  0.00     0.074 A 
ATOM     49  C   UNL A   1      41.743  26.753  27.769  1.00  0.00     0.031 C 
ATOM     50  C   UNL A   1      48.194  25.267  25.840  1.00  0.00     0.029 A 
ATOM     51  C   UNL A   1      47.962  26.637  26.289  1.00  0.00     0.049 A 
ATOM     52  H   UNL A   1      46.178  27.447  27.000  1.00  0.00     0.167 HD
ATOM     53  C   UNL A   1      42.354  29.085  28.330  1.00  0.00     0.037 A 
ATOM     54  C   UNL A   1      48.890  27.614  26.317  1.00  0.00     0.037 A 
ATOM     55  C   UNL A   1      43.295  30.166  28.472  1.00  0.00     0.049 A 
ATOM     56  C   UNL A   1      48.507  28.983  26.814  1.00  0.00     0.074 A 
ATOM     57  C   UNL A   1      43.073  31.437  28.973  1.00  0.00     0.029 A 
ATOM     58  N   UNL A   1      44.633  30.105  28.116  1.00  0.00    -0.354 N 
ATOM     59  N   UNL A   1      47.342  29.408  27.244  1.00  0.00    -0.248 NA
ATOM     60  C   UNL A   1      49.563  30.006  26.835  1.00  0.00     0.031 C 
ATOM     61  C   UNL A   1      44.264  32.161  28.871  1.00  0.00     0.029 A 
ATOM     62  C   UNL A   1      45.244  31.325  28.362  1.00  0.00     0.049 A 
ATOM     63  H   UNL A   1      45.084  29.313  27.743  1.00  0.00     0.167 HD
ATOM     64  C   UNL A   1      47.534  30.734  27.616  1.00  0.00     0.074 A 
ATOM     65  C   UNL A   1      48.927  31.041  27.368  1.00  0.00     0.031 C 
ATOM     66  C   UNL A   1      46.636  31.617  28.121  1.00  0.00     0.037 A 
BRANCH  53  67
ATOM     67  C   UNL A   1      40.917  29.331  28.705  1.00  0.00     0.058 A 
ATOM     68  C   UNL A   1      40.508  29.428  30.046  1.00  0.00     0.135 A 
ATOM     69  C   UNL A   1      39.935  29.489  27.713  1.00  0.00     0.135 A 
ATOM     70  F   UNL A   1      41.400  29.273  31.038  1.00  0.00    -0.206 F 
ATOM     71  C   UNL A   1      39.175  29.624  30.390  1.00  0.00     0.059 A 
ATOM     72  C   UNL A   1      38.601  29.721  28.033  1.00  0.00     0.059 A 
ATOM     73  F   UNL A   1      40.268  29.411  26.415  1.00  0.00    -0.206 F 
ATOM     74  C   UNL A   1      38.227  29.765  29.375  1.00  0.00     0.060 A 
BRANCH  74  75
ATOM     75  S   UNL A   1      36.499  30.000  29.838  1.00  0.00     0.124 S 
ATOM     76  O   UNL A   1      36.404  31.457  29.870  1.00  0.00    -0.237 OA
ATOM     77  O   UNL A   1      35.791  29.343  28.744  1.00  0.00    -0.237 OA
ATOM     78  O   UNL A   1      36.400  29.337  31.134  1.00  0.00    -0.744 OA
ENDBRANCH  74  75
ENDBRANCH  53  67
BRANCH  54  79
ATOM     79  C   UNL A   1      50.285  27.328  25.883  1.00  0.00     0.058 A 
ATOM     80  C   UNL A   1      51.260  26.924  26.808  1.00  0.00     0.135 A 
ATOM     81  C   UNL A   1      50.670  27.437  24.537  1.00  0.00     0.135 A 
ATOM     82  F   UNL A   1      50.944  26.815  28.109  1.00  0.00    -0.206 F 
ATOM     83  C   UNL A   1      52.567  26.650  26.421  1.00  0.00     0.059 A 
ATOM     84  C   UNL A   1      51.966  27.142  24.121  1.00  0.00     0.059 A 
ATOM     85  F   UNL A   1      49.776  27.808  23.608  1.00  0.00    -0.206 F 
ATOM     86  C   UNL A   1      52.909  26.757  25.072  1.00  0.00     0.060 A 
BRANCH  86  87
ATOM     87  S   UNL A   1      54.595  26.345  24.571  1.00  0.00     0.124 S 
ATOM     88  O   UNL A   1      54.671  24.933  24.925  1.00  0.00    -0.237 OA
ATOM     89  O   UNL A   1      54.570  26.646  23.142  1.00  0.00    -0.237 OA
ATOM     90  O   UNL A   1      55.411  27.246  25.379  1.00  0.00    -0.744 OA
ENDBRANCH  86  87
ENDBRANCH  54  79
BRANCH  66  91
ATOM     91  C   UNL A   1      47.131  32.993  28.481  1.00  0.00     0.058 A 
ATOM     92  C   UNL A   1      47.113  34.050  27.559  1.00  0.00     0.135 A 
ATOM     93  C   UNL A   1      47.561  33.271  29.789  1.00  0.00     0.135 A 
ATOM     94  F   UNL A   1      46.719  33.839  26.294  1.00  0.00    -0.206 F 
ATOM     95  C   UNL A   1      47.521  35.332  27.916  1.00  0.00     0.059 A 
ATOM     96  C   UNL A   1      47.945  34.550  30.176  1.00  0.00     0.059 A 
ATOM     97  F   UNL A   1      47.589  32.297  30.713  1.00  0.00    -0.206 F 
ATOM     98  C   UNL A   1      47.930  35.574  29.229  1.00  0.00     0.060 A 
BRANCH  98  99
ATOM     99  S   UNL A   1      48.406  37.253  29.692  1.00  0.00     0.124 S 
ATOM    100  O   UNL A   1      49.777  37.315  29.197  1.00  0.00    -0.237 OA
ATOM    101  O   UNL A   1      47.433  38.063  28.966  1.00  0.00    -0.237 OA
ATOM    102  O   UNL A   1      48.261  37.261  31.144  1.00  0.00    -0.744 OA
ENDBRANCH  98  99
ENDBRANCH  66  91
ENDBRANCH  40  41
ENDBRANCH  32  35
ENDBRANCH  30  31
ENDBRANCH  29  30
ENDBRANCH  28  29
ENDBRANCH  27  28
ENDBRANCH   1  27
TORSDOF 21
ENDMDL
