MODEL 1
REMARK VINA RESULT:     -10.7      0.000      0.000
REMARK SMILES CC(C)[C@H](Sc1ccncc1)C(=O)NCCCCCCNC(=O)c1ccc(-c2c3nc(c(-c4c(F)cc(S(=O)(=O)[O-])cc4F)c4ccc([nH]4)c(-c4c(F)cc(S(=O)(=O)[O-])cc4F)c4nc(c(-c5c(F)cc(S(=O)(=O)[O-])cc5F)c5ccc2[nH]5)C=C4)C=C3)cc1
REMARK SMILES IDX 18 1 17 2 16 3 15 4 14 5 12 6 13 7 4 9 2 10 1 11 3 12 5 13
REMARK SMILES IDX 6 14 7 15 11 16 8 17 10 18 9 19 19 20 20 21 21 22 22 23
REMARK SMILES IDX 23 25 24 26 25 27 89 28 26 29 88 30 27 31 28 32 29 33 82 34
REMARK SMILES IDX 30 35 87 36 81 37 83 38 31 39 86 40 80 41 79 42 32 44 66 45
REMARK SMILES IDX 45 46 65 47 46 48 49 49 64 50 84 51 47 52 48 53 63 55 85 56
REMARK SMILES IDX 50 57 33 58 34 59 43 60 35 61 36 62 42 63 44 64 37 65 38 66
REMARK SMILES IDX 39 67 40 68 41 69 67 70 68 71 77 72 69 73 70 74 76 75 78 76
REMARK SMILES IDX 71 77 72 78 73 79 74 80 75 81 51 82 52 83 61 84 53 85 54 86
REMARK SMILES IDX 60 87 62 88 55 89 56 90 57 91 58 92 59 93
REMARK H PARENT 14 8 21 24 83 43 49 54
REMARK Flexibility Score: inf
ROOT
ATOM      1  C   UNL A   1      38.746  22.108  26.039  1.00  0.00     0.002 C 
ENDROOT
BRANCH   1   2
ATOM      2  C   UNL A   1      38.146  20.867  25.369  1.00  0.00     0.002 C 
BRANCH   2   3
ATOM      3  C   UNL A   1      36.663  20.971  24.998  1.00  0.00     0.021 C 
BRANCH   3   4
ATOM      4  C   UNL A   1      36.288  22.268  24.293  1.00  0.00     0.116 C 
BRANCH   4   5
ATOM      5  N   UNL A   1      35.384  23.089  25.076  1.00  0.00    -0.355 N 
ATOM      6  C   UNL A   1      34.018  23.080  25.119  1.00  0.00     0.233 C 
ATOM      7  O   UNL A   1      33.468  23.803  25.958  1.00  0.00    -0.274 OA
ATOM      8  H   UNL A   1      35.818  23.750  25.663  1.00  0.00     0.163 HD
BRANCH   6   9
ATOM      9  C   UNL A   1      33.179  22.182  24.186  1.00  0.00     0.143 C 
BRANCH   9  10
ATOM     10  C   UNL A   1      32.398  22.957  23.067  1.00  0.00     0.006 C 
ATOM     11  C   UNL A   1      31.053  23.566  23.468  1.00  0.00     0.009 C 
ATOM     12  C   UNL A   1      33.176  24.024  22.281  1.00  0.00     0.009 C 
ENDBRANCH   9  10
BRANCH   9  13
ATOM     13  S   UNL A   1      32.355  20.918  25.290  1.00  0.00    -0.112 SA
BRANCH  13  14
ATOM     14  C   UNL A   1      32.591  19.333  24.527  1.00  0.00     0.011 A 
ATOM     15  C   UNL A   1      32.962  18.169  25.189  1.00  0.00     0.035 A 
ATOM     16  C   UNL A   1      32.363  19.273  23.149  1.00  0.00     0.035 A 
ATOM     17  C   UNL A   1      33.145  17.016  24.441  1.00  0.00     0.112 A 
ATOM     18  C   UNL A   1      32.556  18.073  22.491  1.00  0.00     0.112 A 
ATOM     19  N   UNL A   1      32.952  16.942  23.107  1.00  0.00    -0.265 NA
ENDBRANCH  13  14
ENDBRANCH   9  13
ENDBRANCH   6   9
ENDBRANCH   4   5
ENDBRANCH   3   4
ENDBRANCH   2   3
ENDBRANCH   1   2
BRANCH   1  20
ATOM     20  C   UNL A   1      40.007  21.863  26.873  1.00  0.00     0.021 C 
BRANCH  20  21
ATOM     21  C   UNL A   1      40.733  23.123  27.324  1.00  0.00     0.116 C 
BRANCH  21  22
ATOM     22  N   UNL A   1      41.353  23.826  26.216  1.00  0.00    -0.352 N 
ATOM     23  C   UNL A   1      41.595  25.168  26.066  1.00  0.00     0.251 C 
ATOM     24  H   UNL A   1      41.640  23.259  25.463  1.00  0.00     0.163 HD
ATOM     25  O   UNL A   1      41.966  25.603  24.981  1.00  0.00    -0.269 OA
BRANCH  23  26
ATOM     26  C   UNL A   1      41.389  26.087  27.208  1.00  0.00     0.039 A 
ATOM     27  C   UNL A   1      42.278  27.151  27.383  1.00  0.00     0.014 A 
ATOM     28  C   UNL A   1      40.346  25.888  28.115  1.00  0.00     0.014 A 
ATOM     29  C   UNL A   1      42.096  28.035  28.448  1.00  0.00     0.010 A 
ATOM     30  C   UNL A   1      40.119  26.816  29.128  1.00  0.00     0.010 A 
ATOM     31  C   UNL A   1      41.005  27.887  29.319  1.00  0.00    -0.014 A 
BRANCH  31  32
ATOM     32  C   UNL A   1      40.802  28.811  30.464  1.00  0.00     0.031 A 
ATOM     33  C   UNL A   1      41.662  28.679  31.693  1.00  0.00     0.074 A 
ATOM     34  C   UNL A   1      39.824  29.737  30.415  1.00  0.00     0.049 A 
ATOM     35  N   UNL A   1      41.607  29.345  32.818  1.00  0.00    -0.248 NA
ATOM     36  C   UNL A   1      42.708  27.643  31.665  1.00  0.00     0.031 C 
ATOM     37  C   UNL A   1      38.901  29.938  29.295  1.00  0.00     0.029 A 
ATOM     38  N   UNL A   1      39.440  30.683  31.333  1.00  0.00    -0.354 N 
ATOM     39  C   UNL A   1      42.598  28.804  33.629  1.00  0.00     0.074 A 
ATOM     40  C   UNL A   1      43.196  27.713  32.894  1.00  0.00     0.031 C 
ATOM     41  C   UNL A   1      38.078  30.959  29.580  1.00  0.00     0.029 A 
ATOM     42  C   UNL A   1      38.386  31.462  30.916  1.00  0.00     0.049 A 
ATOM     43  H   UNL A   1      39.878  30.794  32.207  1.00  0.00     0.167 HD
ATOM     44  C   UNL A   1      42.995  29.201  34.861  1.00  0.00     0.037 A 
ATOM     45  C   UNL A   1      37.740  32.465  31.543  1.00  0.00     0.037 A 
ATOM     46  C   UNL A   1      42.412  30.307  35.576  1.00  0.00     0.049 A 
ATOM     47  C   UNL A   1      38.193  32.880  32.918  1.00  0.00     0.074 A 
ATOM     48  C   UNL A   1      42.763  30.812  36.815  1.00  0.00     0.029 A 
ATOM     49  N   UNL A   1      41.359  31.082  35.112  1.00  0.00    -0.354 N 
ATOM     50  N   UNL A   1      39.162  32.385  33.651  1.00  0.00    -0.248 NA
ATOM     51  C   UNL A   1      37.472  33.995  33.546  1.00  0.00     0.031 C 
ATOM     52  C   UNL A   1      41.897  31.867  37.119  1.00  0.00     0.029 A 
ATOM     53  C   UNL A   1      41.041  32.055  36.045  1.00  0.00     0.049 A 
ATOM     54  H   UNL A   1      40.904  30.959  34.247  1.00  0.00     0.167 HD
ATOM     55  C   UNL A   1      39.195  33.158  34.809  1.00  0.00     0.074 A 
ATOM     56  C   UNL A   1      38.151  34.153  34.674  1.00  0.00     0.031 C 
ATOM     57  C   UNL A   1      40.015  33.054  35.884  1.00  0.00     0.037 A 
BRANCH  44  58
ATOM     58  C   UNL A   1      44.121  28.443  35.511  1.00  0.00     0.058 A 
ATOM     59  C   UNL A   1      43.880  27.350  36.360  1.00  0.00     0.135 A 
ATOM     60  C   UNL A   1      45.459  28.786  35.254  1.00  0.00     0.135 A 
ATOM     61  F   UNL A   1      42.621  26.989  36.655  1.00  0.00    -0.206 F 
ATOM     62  C   UNL A   1      44.920  26.643  36.952  1.00  0.00     0.059 A 
ATOM     63  C   UNL A   1      46.517  28.072  35.812  1.00  0.00     0.059 A 
ATOM     64  F   UNL A   1      45.750  29.822  34.452  1.00  0.00    -0.206 F 
ATOM     65  C   UNL A   1      46.236  27.011  36.670  1.00  0.00     0.060 A 
BRANCH  65  66
ATOM     66  S   UNL A   1      47.574  26.073  37.438  1.00  0.00     0.124 S 
ATOM     67  O   UNL A   1      48.668  26.305  36.501  1.00  0.00    -0.237 OA
ATOM     68  O   UNL A   1      47.703  26.724  38.738  1.00  0.00    -0.237 OA
ATOM     69  O   UNL A   1      47.057  24.708  37.473  1.00  0.00    -0.744 OA
ENDBRANCH  65  66
ENDBRANCH  44  58
BRANCH  45  70
ATOM     70  C   UNL A   1      36.613  33.167  30.869  1.00  0.00     0.058 A 
ATOM     71  C   UNL A   1      36.850  34.080  29.830  1.00  0.00     0.135 A 
ATOM     72  C   UNL A   1      35.281  32.951  31.256  1.00  0.00     0.135 A 
ATOM     73  F   UNL A   1      38.106  34.325  29.426  1.00  0.00    -0.206 F 
ATOM     74  C   UNL A   1      35.813  34.776  29.218  1.00  0.00     0.059 A 
ATOM     75  C   UNL A   1      34.224  33.613  30.639  1.00  0.00     0.059 A 
ATOM     76  F   UNL A   1      34.998  32.074  32.231  1.00  0.00    -0.206 F 
ATOM     77  C   UNL A   1      34.501  34.537  29.632  1.00  0.00     0.060 A 
BRANCH  77  78
ATOM     78  S   UNL A   1      33.160  35.428  28.817  1.00  0.00     0.124 S 
ATOM     79  O   UNL A   1      32.425  35.961  29.958  1.00  0.00    -0.237 OA
ATOM     80  O   UNL A   1      33.886  36.405  28.011  1.00  0.00    -0.237 OA
ATOM     81  O   UNL A   1      32.477  34.385  28.057  1.00  0.00    -0.744 OA
ENDBRANCH  77  78
ENDBRANCH  45  70
BRANCH  57  82
ATOM     82  C   UNL A   1      39.865  34.081  36.974  1.00  0.00     0.058 A 
ATOM     83  C   UNL A   1      40.517  35.321  36.922  1.00  0.00     0.135 A 
ATOM     84  C   UNL A   1      39.011  33.832  38.062  1.00  0.00     0.135 A 
ATOM     85  F   UNL A   1      41.347  35.607  35.906  1.00  0.00    -0.206 F 
ATOM     86  C   UNL A   1      40.353  36.269  37.927  1.00  0.00     0.059 A 
ATOM     87  C   UNL A   1      38.808  34.778  39.061  1.00  0.00     0.059 A 
ATOM     88  F   UNL A   1      38.353  32.667  38.154  1.00  0.00    -0.206 F 
ATOM     89  C   UNL A   1      39.495  35.989  38.993  1.00  0.00     0.060 A 
BRANCH  89  90
ATOM     90  S   UNL A   1      39.269  37.239  40.275  1.00  0.00     0.124 S 
ATOM     91  O   UNL A   1      38.461  38.234  39.576  1.00  0.00    -0.237 OA
ATOM     92  O   UNL A   1      38.586  36.490  41.324  1.00  0.00    -0.237 OA
ATOM     93  O   UNL A   1      40.633  37.650  40.593  1.00  0.00    -0.744 OA
ENDBRANCH  89  90
ENDBRANCH  57  82
ENDBRANCH  31  32
ENDBRANCH  23  26
ENDBRANCH  21  22
ENDBRANCH  20  21
ENDBRANCH   1  20
TORSDOF 19
ENDMDL
MODEL 2
REMARK VINA RESULT:     -10.7      1.690      3.180
REMARK SMILES CC(C)[C@H](Sc1ccncc1)C(=O)NCCCCCCNC(=O)c1ccc(-c2c3nc(c(-c4c(F)cc(S(=O)(=O)[O-])cc4F)c4ccc([nH]4)c(-c4c(F)cc(S(=O)(=O)[O-])cc4F)c4nc(c(-c5c(F)cc(S(=O)(=O)[O-])cc5F)c5ccc2[nH]5)C=C4)C=C3)cc1
REMARK SMILES IDX 18 1 17 2 16 3 15 4 14 5 12 6 13 7 4 9 2 10 1 11 3 12 5 13
REMARK SMILES IDX 6 14 7 15 11 16 8 17 10 18 9 19 19 20 20 21 21 22 22 23
REMARK SMILES IDX 23 25 24 26 25 27 89 28 26 29 88 30 27 31 28 32 29 33 82 34
REMARK SMILES IDX 30 35 87 36 81 37 83 38 31 39 86 40 80 41 79 42 32 44 66 45
REMARK SMILES IDX 45 46 65 47 46 48 49 49 64 50 84 51 47 52 48 53 63 55 85 56
REMARK SMILES IDX 50 57 33 58 34 59 43 60 35 61 36 62 42 63 44 64 37 65 38 66
REMARK SMILES IDX 39 67 40 68 41 69 67 70 68 71 77 72 69 73 70 74 76 75 78 76
REMARK SMILES IDX 71 77 72 78 73 79 74 80 75 81 51 82 52 83 61 84 53 85 54 86
REMARK SMILES IDX 60 87 62 88 55 89 56 90 57 91 58 92 59 93
REMARK H PARENT 14 8 21 24 83 43 49 54
REMARK Flexibility Score: inf
ROOT
ATOM      1  C   UNL A   1      37.301  22.088  25.724  1.00  0.00     0.002 C 
ENDROOT
BRANCH   1   2
ATOM      2  C   UNL A   1      35.829  21.793  26.038  1.00  0.00     0.002 C 
BRANCH   2   3
ATOM      3  C   UNL A   1      35.062  21.035  24.949  1.00  0.00     0.021 C 
BRANCH   3   4
ATOM      4  C   UNL A   1      33.551  21.217  25.013  1.00  0.00     0.116 C 
BRANCH   4   5
ATOM      5  N   UNL A   1      33.127  21.965  26.181  1.00  0.00    -0.355 N 
ATOM      6  C   UNL A   1      32.517  23.185  26.258  1.00  0.00     0.233 C 
ATOM      7  O   UNL A   1      32.145  23.569  27.373  1.00  0.00    -0.274 OA
ATOM      8  H   UNL A   1      33.304  21.529  27.046  1.00  0.00     0.163 HD
BRANCH   6   9
ATOM      9  C   UNL A   1      32.263  24.050  25.005  1.00  0.00     0.143 C 
BRANCH   9  10
ATOM     10  C   UNL A   1      33.531  24.800  24.465  1.00  0.00     0.006 C 
ATOM     11  C   UNL A   1      34.578  25.209  25.504  1.00  0.00     0.009 C 
ATOM     12  C   UNL A   1      34.275  24.158  23.283  1.00  0.00     0.009 C 
ENDBRANCH   9  10
BRANCH   9  13
ATOM     13  S   UNL A   1      30.635  24.920  25.299  1.00  0.00    -0.112 SA
BRANCH  13  14
ATOM     14  C   UNL A   1      30.990  26.655  25.413  1.00  0.00     0.011 A 
ATOM     15  C   UNL A   1      31.567  27.288  26.509  1.00  0.00     0.035 A 
ATOM     16  C   UNL A   1      30.670  27.425  24.291  1.00  0.00     0.035 A 
ATOM     17  C   UNL A   1      31.744  28.662  26.457  1.00  0.00     0.112 A 
ATOM     18  C   UNL A   1      30.898  28.788  24.328  1.00  0.00     0.112 A 
ATOM     19  N   UNL A   1      31.421  29.426  25.393  1.00  0.00    -0.265 NA
ENDBRANCH  13  14
ENDBRANCH   9  13
ENDBRANCH   6   9
ENDBRANCH   4   5
ENDBRANCH   3   4
ENDBRANCH   2   3
ENDBRANCH   1   2
BRANCH   1  20
ATOM     20  C   UNL A   1      37.639  23.559  25.471  1.00  0.00     0.021 C 
BRANCH  20  21
ATOM     21  C   UNL A   1      38.578  24.186  26.493  1.00  0.00     0.116 C 
BRANCH  21  22
ATOM     22  N   UNL A   1      39.971  24.077  26.099  1.00  0.00    -0.352 N 
ATOM     23  C   UNL A   1      41.042  24.846  26.477  1.00  0.00     0.251 C 
ATOM     24  H   UNL A   1      40.176  23.347  25.470  1.00  0.00     0.163 HD
ATOM     25  O   UNL A   1      42.118  24.717  25.901  1.00  0.00    -0.269 OA
BRANCH  23  26
ATOM     26  C   UNL A   1      40.892  25.838  27.564  1.00  0.00     0.039 A 
ATOM     27  C   UNL A   1      39.921  25.621  28.544  1.00  0.00     0.014 A 
ATOM     28  C   UNL A   1      41.683  26.989  27.605  1.00  0.00     0.014 A 
ATOM     29  C   UNL A   1      39.768  26.540  29.583  1.00  0.00     0.010 A 
ATOM     30  C   UNL A   1      41.585  27.862  28.684  1.00  0.00     0.010 A 
ATOM     31  C   UNL A   1      40.612  27.659  29.674  1.00  0.00    -0.014 A 
BRANCH  31  32
ATOM     32  C   UNL A   1      40.457  28.653  30.766  1.00  0.00     0.031 A 
ATOM     33  C   UNL A   1      41.320  28.553  31.997  1.00  0.00     0.074 A 
ATOM     34  C   UNL A   1      39.519  29.616  30.671  1.00  0.00     0.049 A 
ATOM     35  N   UNL A   1      41.301  29.283  33.083  1.00  0.00    -0.248 NA
ATOM     36  C   UNL A   1      42.321  27.473  32.021  1.00  0.00     0.031 C 
ATOM     37  C   UNL A   1      38.597  29.794  29.546  1.00  0.00     0.029 A 
ATOM     38  N   UNL A   1      39.182  30.627  31.536  1.00  0.00    -0.354 N 
ATOM     39  C   UNL A   1      42.274  28.746  33.918  1.00  0.00     0.074 A 
ATOM     40  C   UNL A   1      42.820  27.591  33.242  1.00  0.00     0.031 C 
ATOM     41  C   UNL A   1      37.819  30.864  29.778  1.00  0.00     0.029 A 
ATOM     42  C   UNL A   1      38.159  31.426  31.082  1.00  0.00     0.049 A 
ATOM     43  H   UNL A   1      39.631  30.768  32.401  1.00  0.00     0.167 HD
ATOM     44  C   UNL A   1      42.697  29.193  35.124  1.00  0.00     0.037 A 
ATOM     45  C   UNL A   1      37.560  32.489  31.655  1.00  0.00     0.037 A 
ATOM     46  C   UNL A   1      42.167  30.360  35.779  1.00  0.00     0.049 A 
ATOM     47  C   UNL A   1      38.041  32.960  33.003  1.00  0.00     0.074 A 
ATOM     48  C   UNL A   1      42.548  30.918  36.986  1.00  0.00     0.029 A 
ATOM     49  N   UNL A   1      41.144  31.153  35.278  1.00  0.00    -0.354 N 
ATOM     50  N   UNL A   1      38.994  32.466  33.758  1.00  0.00    -0.248 NA
ATOM     51  C   UNL A   1      37.372  34.138  33.571  1.00  0.00     0.031 C 
ATOM     52  C   UNL A   1      41.729  32.025  37.235  1.00  0.00     0.029 A 
ATOM     53  C   UNL A   1      40.874  32.189  36.156  1.00  0.00     0.049 A 
ATOM     54  H   UNL A   1      40.678  31.002  34.423  1.00  0.00     0.167 HD
ATOM     55  C   UNL A   1      39.067  33.299  34.870  1.00  0.00     0.074 A 
ATOM     56  C   UNL A   1      38.066  34.329  34.685  1.00  0.00     0.031 C 
ATOM     57  C   UNL A   1      39.890  33.220  35.945  1.00  0.00     0.037 A 
BRANCH  44  58
ATOM     58  C   UNL A   1      43.795  28.425  35.809  1.00  0.00     0.058 A 
ATOM     59  C   UNL A   1      43.514  27.379  36.704  1.00  0.00     0.135 A 
ATOM     60  C   UNL A   1      45.144  28.710  35.542  1.00  0.00     0.135 A 
ATOM     61  F   UNL A   1      42.242  27.075  37.010  1.00  0.00    -0.206 F 
ATOM     62  C   UNL A   1      44.528  26.662  37.329  1.00  0.00     0.059 A 
ATOM     63  C   UNL A   1      46.175  27.984  36.133  1.00  0.00     0.059 A 
ATOM     64  F   UNL A   1      45.472  29.699  34.697  1.00  0.00    -0.206 F 
ATOM     65  C   UNL A   1      45.856  26.971  37.036  1.00  0.00     0.060 A 
BRANCH  65  66
ATOM     66  S   UNL A   1      47.159  26.021  37.848  1.00  0.00     0.124 S 
ATOM     67  O   UNL A   1      46.904  24.679  37.335  1.00  0.00    -0.237 OA
ATOM     68  O   UNL A   1      48.369  26.669  37.354  1.00  0.00    -0.237 OA
ATOM     69  O   UNL A   1      46.884  26.212  39.269  1.00  0.00    -0.744 OA
ENDBRANCH  65  66
ENDBRANCH  44  58
BRANCH  45  70
ATOM     70  C   UNL A   1      36.459  33.200  30.949  1.00  0.00     0.058 A 
ATOM     71  C   UNL A   1      36.729  34.056  29.870  1.00  0.00     0.135 A 
ATOM     72  C   UNL A   1      35.121  33.050  31.344  1.00  0.00     0.135 A 
ATOM     73  F   UNL A   1      37.993  34.236  29.457  1.00  0.00    -0.206 F 
ATOM     74  C   UNL A   1      35.717  34.760  29.226  1.00  0.00     0.059 A 
ATOM     75  C   UNL A   1      34.088  33.722  30.696  1.00  0.00     0.059 A 
ATOM     76  F   UNL A   1      34.806  32.229  32.357  1.00  0.00    -0.206 F 
ATOM     77  C   UNL A   1      34.398  34.588  29.649  1.00  0.00     0.060 A 
BRANCH  77  78
ATOM     78  S   UNL A   1      33.089  35.489  28.792  1.00  0.00     0.124 S 
ATOM     79  O   UNL A   1      32.423  34.416  28.063  1.00  0.00    -0.237 OA
ATOM     80  O   UNL A   1      32.339  36.068  29.903  1.00  0.00    -0.237 OA
ATOM     81  O   UNL A   1      33.822  36.449  27.973  1.00  0.00    -0.744 OA
ENDBRANCH  77  78
ENDBRANCH  45  70
BRANCH  57  82
ATOM     82  C   UNL A   1      39.791  34.312  36.977  1.00  0.00     0.058 A 
ATOM     83  C   UNL A   1      38.971  34.194  38.108  1.00  0.00     0.135 A 
ATOM     84  C   UNL A   1      40.573  35.473  36.850  1.00  0.00     0.135 A 
ATOM     85  F   UNL A   1      38.200  33.107  38.275  1.00  0.00    -0.206 F 
ATOM     86  C   UNL A   1      38.904  35.203  39.064  1.00  0.00     0.059 A 
ATOM     87  C   UNL A   1      40.546  36.479  37.809  1.00  0.00     0.059 A 
ATOM     88  F   UNL A   1      41.385  35.630  35.794  1.00  0.00    -0.206 F 
ATOM     89  C   UNL A   1      39.697  36.342  38.907  1.00  0.00     0.060 A 
BRANCH  89  90
ATOM     90  S   UNL A   1      39.623  37.630  40.169  1.00  0.00     0.124 S 
ATOM     91  O   UNL A   1      41.021  38.041  40.251  1.00  0.00    -0.237 OA
ATOM     92  O   UNL A   1      38.710  38.599  39.572  1.00  0.00    -0.237 OA
ATOM     93  O   UNL A   1      39.106  36.929  41.340  1.00  0.00    -0.744 OA
ENDBRANCH  89  90
ENDBRANCH  57  82
ENDBRANCH  31  32
ENDBRANCH  23  26
ENDBRANCH  21  22
ENDBRANCH  20  21
ENDBRANCH   1  20
TORSDOF 19
ENDMDL
MODEL 3
REMARK VINA RESULT:     -10.7      2.337      3.608
REMARK SMILES CC(C)[C@H](Sc1ccncc1)C(=O)NCCCCCCNC(=O)c1ccc(-c2c3nc(c(-c4c(F)cc(S(=O)(=O)[O-])cc4F)c4ccc([nH]4)c(-c4c(F)cc(S(=O)(=O)[O-])cc4F)c4nc(c(-c5c(F)cc(S(=O)(=O)[O-])cc5F)c5ccc2[nH]5)C=C4)C=C3)cc1
REMARK SMILES IDX 18 1 17 2 16 3 15 4 14 5 12 6 13 7 4 9 2 10 1 11 3 12 5 13
REMARK SMILES IDX 6 14 7 15 11 16 8 17 10 18 9 19 19 20 20 21 21 22 22 23
REMARK SMILES IDX 23 25 24 26 25 27 89 28 26 29 88 30 27 31 28 32 29 33 82 34
REMARK SMILES IDX 30 35 87 36 81 37 83 38 31 39 86 40 80 41 79 42 32 44 66 45
REMARK SMILES IDX 45 46 65 47 46 48 49 49 64 50 84 51 47 52 48 53 63 55 85 56
REMARK SMILES IDX 50 57 33 58 34 59 43 60 35 61 36 62 42 63 44 64 37 65 38 66
REMARK SMILES IDX 39 67 40 68 41 69 67 70 68 71 77 72 69 73 70 74 76 75 78 76
REMARK SMILES IDX 71 77 72 78 73 79 74 80 75 81 51 82 52 83 61 84 53 85 54 86
REMARK SMILES IDX 60 87 62 88 55 89 56 90 57 91 58 92 59 93
REMARK H PARENT 14 8 21 24 83 43 49 54
REMARK Flexibility Score: inf
ROOT
ATOM      1  C   UNL A   1      37.045  24.044  26.462  1.00  0.00     0.002 C 
ENDROOT
BRANCH   1   2
ATOM      2  C   UNL A   1      35.717  23.463  25.963  1.00  0.00     0.002 C 
BRANCH   2   3
ATOM      3  C   UNL A   1      35.061  24.219  24.803  1.00  0.00     0.021 C 
BRANCH   3   4
ATOM      4  C   UNL A   1      34.249  25.434  25.234  1.00  0.00     0.116 C 
BRANCH   4   5
ATOM      5  N   UNL A   1      33.084  25.076  26.021  1.00  0.00    -0.355 N 
ATOM      6  C   UNL A   1      31.837  25.634  26.033  1.00  0.00     0.233 C 
ATOM      7  O   UNL A   1      30.968  25.078  26.714  1.00  0.00    -0.274 OA
ATOM      8  H   UNL A   1      33.211  24.319  26.638  1.00  0.00     0.163 HD
BRANCH   6   9
ATOM      9  C   UNL A   1      31.500  26.893  25.206  1.00  0.00     0.143 C 
BRANCH   9  10
ATOM     10  C   UNL A   1      31.568  28.238  26.013  1.00  0.00     0.006 C 
ATOM     11  C   UNL A   1      31.687  28.117  27.534  1.00  0.00     0.009 C 
ATOM     12  C   UNL A   1      32.593  29.284  25.547  1.00  0.00     0.009 C 
ENDBRANCH   9  10
BRANCH   9  13
ATOM     13  S   UNL A   1      30.031  26.436  24.145  1.00  0.00    -0.112 SA
BRANCH  13  14
ATOM     14  C   UNL A   1      29.586  27.888  23.226  1.00  0.00     0.011 A 
ATOM     15  C   UNL A   1      30.470  28.690  22.511  1.00  0.00     0.035 A 
ATOM     16  C   UNL A   1      28.229  28.223  23.221  1.00  0.00     0.035 A 
ATOM     17  C   UNL A   1      29.969  29.816  21.876  1.00  0.00     0.112 A 
ATOM     18  C   UNL A   1      27.823  29.359  22.546  1.00  0.00     0.112 A 
ATOM     19  N   UNL A   1      28.667  30.170  21.878  1.00  0.00    -0.265 NA
ENDBRANCH  13  14
ENDBRANCH   9  13
ENDBRANCH   6   9
ENDBRANCH   4   5
ENDBRANCH   3   4
ENDBRANCH   2   3
ENDBRANCH   1   2
BRANCH   1  20
ATOM     20  C   UNL A   1      38.295  23.240  26.097  1.00  0.00     0.021 C 
BRANCH  20  21
ATOM     21  C   UNL A   1      39.511  23.510  26.973  1.00  0.00     0.116 C 
BRANCH  21  22
ATOM     22  N   UNL A   1      40.678  23.881  26.194  1.00  0.00    -0.352 N 
ATOM     23  C   UNL A   1      41.454  25.009  26.277  1.00  0.00     0.251 C 
ATOM     24  H   UNL A   1      40.952  23.229  25.507  1.00  0.00     0.163 HD
ATOM     25  O   UNL A   1      42.296  25.234  25.413  1.00  0.00    -0.269 OA
BRANCH  23  26
ATOM     26  C   UNL A   1      41.261  25.958  27.395  1.00  0.00     0.039 A 
ATOM     27  C   UNL A   1      42.125  27.049  27.508  1.00  0.00     0.014 A 
ATOM     28  C   UNL A   1      40.252  25.761  28.343  1.00  0.00     0.014 A 
ATOM     29  C   UNL A   1      41.954  27.962  28.551  1.00  0.00     0.010 A 
ATOM     30  C   UNL A   1      40.033  26.714  29.333  1.00  0.00     0.010 A 
ATOM     31  C   UNL A   1      40.895  27.813  29.462  1.00  0.00    -0.014 A 
BRANCH  31  32
ATOM     32  C   UNL A   1      40.704  28.768  30.583  1.00  0.00     0.031 A 
ATOM     33  C   UNL A   1      41.563  28.655  31.815  1.00  0.00     0.074 A 
ATOM     34  C   UNL A   1      39.738  29.705  30.511  1.00  0.00     0.049 A 
ATOM     35  N   UNL A   1      41.516  29.350  32.923  1.00  0.00    -0.248 NA
ATOM     36  C   UNL A   1      42.596  27.606  31.813  1.00  0.00     0.031 C 
ATOM     37  C   UNL A   1      38.818  29.889  29.387  1.00  0.00     0.029 A 
ATOM     38  N   UNL A   1      39.366  30.678  31.406  1.00  0.00    -0.354 N 
ATOM     39  C   UNL A   1      42.500  28.817  33.748  1.00  0.00     0.074 A 
ATOM     40  C   UNL A   1      43.085  27.700  33.040  1.00  0.00     0.031 C 
ATOM     41  C   UNL A   1      38.007  30.928  29.647  1.00  0.00     0.029 A 
ATOM     42  C   UNL A   1      38.322  31.459  30.970  1.00  0.00     0.049 A 
ATOM     43  H   UNL A   1      39.805  30.804  32.277  1.00  0.00     0.167 HD
ATOM     44  C   UNL A   1      42.903  29.238  34.970  1.00  0.00     0.037 A 
ATOM     45  C   UNL A   1      37.688  32.485  31.572  1.00  0.00     0.037 A 
ATOM     46  C   UNL A   1      42.334  30.368  35.657  1.00  0.00     0.049 A 
ATOM     47  C   UNL A   1      38.147  32.928  32.936  1.00  0.00     0.074 A 
ATOM     48  C   UNL A   1      42.692  30.900  36.884  1.00  0.00     0.029 A 
ATOM     49  N   UNL A   1      41.291  31.145  35.174  1.00  0.00    -0.354 N 
ATOM     50  N   UNL A   1      39.110  32.440  33.682  1.00  0.00    -0.248 NA
ATOM     51  C   UNL A   1      37.440  34.067  33.537  1.00  0.00     0.031 C 
ATOM     52  C   UNL A   1      41.838  31.973  37.161  1.00  0.00     0.029 A 
ATOM     53  C   UNL A   1      40.985  32.145  36.083  1.00  0.00     0.049 A 
ATOM     54  H   UNL A   1      40.834  31.007  34.313  1.00  0.00     0.167 HD
ATOM     55  C   UNL A   1      39.152  33.240  34.820  1.00  0.00     0.074 A 
ATOM     56  C   UNL A   1      38.121  34.245  34.660  1.00  0.00     0.031 C 
ATOM     57  C   UNL A   1      39.971  33.152  35.898  1.00  0.00     0.037 A 
BRANCH  44  58
ATOM     58  C   UNL A   1      44.019  28.483  35.638  1.00  0.00     0.058 A 
ATOM     59  C   UNL A   1      43.765  27.417  36.517  1.00  0.00     0.135 A 
ATOM     60  C   UNL A   1      45.361  28.800  35.370  1.00  0.00     0.135 A 
ATOM     61  F   UNL A   1      42.501  27.081  36.824  1.00  0.00    -0.206 F 
ATOM     62  C   UNL A   1      44.796  26.712  37.127  1.00  0.00     0.059 A 
ATOM     63  C   UNL A   1      46.410  28.087  35.945  1.00  0.00     0.059 A 
ATOM     64  F   UNL A   1      45.665  29.810  34.540  1.00  0.00    -0.206 F 
ATOM     65  C   UNL A   1      46.116  27.053  36.832  1.00  0.00     0.060 A 
BRANCH  65  66
ATOM     66  S   UNL A   1      47.443  26.118  37.624  1.00  0.00     0.124 S 
ATOM     67  O   UNL A   1      46.723  25.444  38.698  1.00  0.00    -0.237 OA
ATOM     68  O   UNL A   1      47.910  25.262  36.538  1.00  0.00    -0.237 OA
ATOM     69  O   UNL A   1      48.381  27.153  38.050  1.00  0.00    -0.744 OA
ENDBRANCH  65  66
ENDBRANCH  44  58
BRANCH  45  70
ATOM     70  C   UNL A   1      36.570  33.184  30.881  1.00  0.00     0.058 A 
ATOM     71  C   UNL A   1      36.815  34.041  29.797  1.00  0.00     0.135 A 
ATOM     72  C   UNL A   1      35.239  33.022  31.296  1.00  0.00     0.135 A 
ATOM     73  F   UNL A   1      38.071  34.233  29.365  1.00  0.00    -0.206 F 
ATOM     74  C   UNL A   1      35.787  34.735  29.167  1.00  0.00     0.059 A 
ATOM     75  C   UNL A   1      34.190  33.682  30.662  1.00  0.00     0.059 A 
ATOM     76  F   UNL A   1      34.947  32.200  32.314  1.00  0.00    -0.206 F 
ATOM     77  C   UNL A   1      34.476  34.550  29.609  1.00  0.00     0.060 A 
BRANCH  77  78
ATOM     78  S   UNL A   1      33.146  35.437  28.771  1.00  0.00     0.124 S 
ATOM     79  O   UNL A   1      33.893  36.411  27.984  1.00  0.00    -0.237 OA
ATOM     80  O   UNL A   1      32.495  34.370  28.017  1.00  0.00    -0.237 OA
ATOM     81  O   UNL A   1      32.360  35.984  29.873  1.00  0.00    -0.744 OA
ENDBRANCH  77  78
ENDBRANCH  45  70
BRANCH  57  82
ATOM     82  C   UNL A   1      39.834  34.207  36.962  1.00  0.00     0.058 A 
ATOM     83  C   UNL A   1      40.465  35.456  36.857  1.00  0.00     0.135 A 
ATOM     84  C   UNL A   1      39.014  33.977  38.080  1.00  0.00     0.135 A 
ATOM     85  F   UNL A   1      41.262  35.725  35.811  1.00  0.00    -0.206 F 
ATOM     86  C   UNL A   1      40.313  36.429  37.839  1.00  0.00     0.059 A 
ATOM     87  C   UNL A   1      38.823  34.948  39.057  1.00  0.00     0.059 A 
ATOM     88  F   UNL A   1      38.377  32.805  38.222  1.00  0.00    -0.206 F 
ATOM     89  C   UNL A   1      39.488  36.167  38.935  1.00  0.00     0.060 A 
BRANCH  89  90
ATOM     90  S   UNL A   1      39.277  37.449  40.188  1.00  0.00     0.124 S 
ATOM     91  O   UNL A   1      38.857  36.664  41.344  1.00  0.00    -0.237 OA
ATOM     92  O   UNL A   1      40.613  38.031  40.267  1.00  0.00    -0.237 OA
ATOM     93  O   UNL A   1      38.255  38.319  39.614  1.00  0.00    -0.744 OA
ENDBRANCH  89  90
ENDBRANCH  57  82
ENDBRANCH  31  32
ENDBRANCH  23  26
ENDBRANCH  21  22
ENDBRANCH  20  21
ENDBRANCH   1  20
TORSDOF 19
ENDMDL
