MODEL 1
REMARK VINA RESULT:     -10.7      0.000      0.000
REMARK SMILES CCCc1sc(C(=O)NCCC(=O)NCCCCCCNC(=O)c2ccc(-c3c4nc(c(-c5c(F)cc(S(=O)(=O)[O-])cc5F)c5ccc([nH]5)c(-c5c(F)cc(S(=O)(=O)[O-])cc5F)c5nc(c(-c6c(F)cc(S(=O)(=O)[O-])cc6F)c6ccc3[nH]6)C=C5)C=C4)cc2)cc1CC
REMARK SMILES IDX 16 1 15 2 14 3 12 4 13 5 11 7 10 8 9 9 7 10 8 11 6 13 4 14
REMARK SMILES IDX 5 15 91 16 90 17 3 18 2 19 1 20 92 21 93 22 17 23 18 24
REMARK SMILES IDX 19 25 20 26 21 27 22 28 23 30 24 31 25 32 89 33 26 34 88 35
REMARK SMILES IDX 27 36 28 37 29 38 82 39 30 40 87 41 81 42 83 43 31 44 86 45
REMARK SMILES IDX 80 46 79 47 32 49 66 50 45 51 65 52 46 53 49 54 64 55 84 56
REMARK SMILES IDX 47 57 48 58 63 60 85 61 50 62 33 63 34 64 43 65 35 66 36 67
REMARK SMILES IDX 42 68 44 69 37 70 38 71 39 72 40 73 41 74 67 75 68 76 77 77
REMARK SMILES IDX 69 78 70 79 76 80 78 81 71 82 72 83 73 84 74 85 75 86 51 87
REMARK SMILES IDX 52 88 61 89 53 90 54 91 60 92 62 93 55 94 56 95 57 96 58 97
REMARK SMILES IDX 59 98
REMARK H PARENT 14 6 9 12 21 29 83 48 49 59
REMARK Flexibility Score: inf
ROOT
ATOM      1  C   UNL A   1      35.977  22.059  25.190  1.00  0.00     0.021 C 
ENDROOT
BRANCH   1   2
ATOM      2  C   UNL A   1      34.712  22.479  25.942  1.00  0.00     0.116 C 
BRANCH   2   3
ATOM      3  N   UNL A   1      33.696  21.445  25.864  1.00  0.00    -0.356 N 
ATOM      4  C   UNL A   1      32.715  21.263  24.938  1.00  0.00     0.221 C 
ATOM      5  O   UNL A   1      31.897  20.358  25.113  1.00  0.00    -0.275 OA
ATOM      6  H   UNL A   1      33.720  20.777  26.587  1.00  0.00     0.163 HD
BRANCH   4   7
ATOM      7  C   UNL A   1      32.623  22.163  23.722  1.00  0.00     0.121 C 
BRANCH   7   8
ATOM      8  C   UNL A   1      31.534  23.218  23.884  1.00  0.00     0.126 C 
BRANCH   8   9
ATOM      9  N   UNL A   1      30.902  23.176  25.187  1.00  0.00    -0.351 N 
ATOM     10  C   UNL A   1      30.656  24.111  26.163  1.00  0.00     0.261 C 
ATOM     11  O   UNL A   1      30.291  23.625  27.232  1.00  0.00    -0.268 OA
ATOM     12  H   UNL A   1      30.577  22.277  25.426  1.00  0.00     0.163 HD
BRANCH  10  13
ATOM     13  C   UNL A   1      30.770  25.544  25.917  1.00  0.00     0.092 A 
ATOM     14  C   UNL A   1      30.830  27.675  24.630  1.00  0.00     0.009 A 
ATOM     15  S   UNL A   1      30.139  26.125  24.426  1.00  0.00    -0.135 S 
ATOM     16  C   UNL A   1      31.403  27.824  25.882  1.00  0.00    -0.034 A 
ATOM     17  C   UNL A   1      31.319  26.593  26.625  1.00  0.00     0.029 A 
BRANCH  14  18
ATOM     18  C   UNL A   1      30.765  28.650  23.483  1.00  0.00     0.047 C 
BRANCH  18  19
ATOM     19  C   UNL A   1      29.382  28.693  22.822  1.00  0.00     0.002 C 
ATOM     20  C   UNL A   1      28.641  30.007  23.034  1.00  0.00     0.004 C 
ENDBRANCH  18  19
ENDBRANCH  14  18
BRANCH  16  21
ATOM     21  C   UNL A   1      32.114  29.056  26.380  1.00  0.00     0.033 C 
ATOM     22  C   UNL A   1      33.569  29.151  25.948  1.00  0.00     0.009 C 
ENDBRANCH  16  21
ENDBRANCH  10  13
ENDBRANCH   8   9
ENDBRANCH   7   8
ENDBRANCH   4   7
ENDBRANCH   2   3
ENDBRANCH   1   2
BRANCH   1  23
ATOM     23  C   UNL A   1      36.916  23.209  24.817  1.00  0.00     0.002 C 
BRANCH  23  24
ATOM     24  C   UNL A   1      37.840  23.692  25.936  1.00  0.00     0.002 C 
BRANCH  24  25
ATOM     25  C   UNL A   1      38.966  22.730  26.325  1.00  0.00     0.021 C 
BRANCH  25  26
ATOM     26  C   UNL A   1      40.175  23.379  26.996  1.00  0.00     0.116 C 
BRANCH  26  27
ATOM     27  N   UNL A   1      41.099  23.947  26.026  1.00  0.00    -0.352 N 
ATOM     28  C   UNL A   1      41.591  25.223  25.931  1.00  0.00     0.251 C 
ATOM     29  H   UNL A   1      41.420  23.321  25.337  1.00  0.00     0.163 HD
ATOM     30  O   UNL A   1      42.206  25.567  24.926  1.00  0.00    -0.269 OA
BRANCH  28  31
ATOM     31  C   UNL A   1      41.366  26.190  27.027  1.00  0.00     0.039 A 
ATOM     32  C   UNL A   1      40.380  25.916  27.979  1.00  0.00     0.014 A 
ATOM     33  C   UNL A   1      42.107  27.374  27.106  1.00  0.00     0.014 A 
ATOM     34  C   UNL A   1      40.174  26.802  29.040  1.00  0.00     0.010 A 
ATOM     35  C   UNL A   1      41.944  28.224  28.198  1.00  0.00     0.010 A 
ATOM     36  C   UNL A   1      40.974  27.949  29.174  1.00  0.00    -0.014 A 
BRANCH  36  37
ATOM     37  C   UNL A   1      40.809  28.871  30.327  1.00  0.00     0.031 A 
ATOM     38  C   UNL A   1      41.669  28.711  31.552  1.00  0.00     0.074 A 
ATOM     39  C   UNL A   1      39.843  29.810  30.296  1.00  0.00     0.049 A 
ATOM     40  N   UNL A   1      41.625  29.367  32.682  1.00  0.00    -0.248 NA
ATOM     41  C   UNL A   1      42.699  27.661  31.508  1.00  0.00     0.031 C 
ATOM     42  C   UNL A   1      38.914  30.032  29.184  1.00  0.00     0.029 A 
ATOM     43  N   UNL A   1      39.470  30.745  31.228  1.00  0.00    -0.354 N 
ATOM     44  C   UNL A   1      42.604  28.801  33.490  1.00  0.00     0.074 A 
ATOM     45  C   UNL A   1      43.201  27.720  32.734  1.00  0.00     0.031 C 
ATOM     46  C   UNL A   1      38.090  31.046  29.494  1.00  0.00     0.029 A 
ATOM     47  C   UNL A   1      38.406  31.524  30.836  1.00  0.00     0.049 A 
ATOM     48  H   UNL A   1      39.922  30.849  32.097  1.00  0.00     0.167 HD
ATOM     49  C   UNL A   1      42.985  29.161  34.738  1.00  0.00     0.037 A 
ATOM     50  C   UNL A   1      37.752  32.505  31.489  1.00  0.00     0.037 A 
ATOM     51  C   UNL A   1      42.410  30.258  35.473  1.00  0.00     0.049 A 
ATOM     52  C   UNL A   1      38.203  32.893  32.871  1.00  0.00     0.074 A 
ATOM     53  C   UNL A   1      42.770  30.742  36.719  1.00  0.00     0.029 A 
ATOM     54  N   UNL A   1      41.356  31.043  35.028  1.00  0.00    -0.354 N 
ATOM     55  N   UNL A   1      39.174  32.387  33.593  1.00  0.00    -0.248 NA
ATOM     56  C   UNL A   1      37.476  33.991  33.524  1.00  0.00     0.031 C 
ATOM     57  C   UNL A   1      41.911  31.797  37.044  1.00  0.00     0.029 A 
ATOM     58  C   UNL A   1      41.043  31.997  35.982  1.00  0.00     0.049 A 
ATOM     59  H   UNL A   1      40.899  30.938  34.163  1.00  0.00     0.167 HD
ATOM     60  C   UNL A   1      39.192  33.122  34.773  1.00  0.00     0.074 A 
ATOM     61  C   UNL A   1      38.143  34.115  34.664  1.00  0.00     0.031 C 
ATOM     62  C   UNL A   1      40.004  32.988  35.851  1.00  0.00     0.037 A 
BRANCH  49  63
ATOM     63  C   UNL A   1      44.085  28.370  35.392  1.00  0.00     0.058 A 
ATOM     64  C   UNL A   1      45.434  28.733  35.251  1.00  0.00     0.135 A 
ATOM     65  C   UNL A   1      43.785  27.271  36.213  1.00  0.00     0.135 A 
ATOM     66  F   UNL A   1      45.778  29.767  34.467  1.00  0.00    -0.206 F 
ATOM     67  C   UNL A   1      46.448  28.022  35.884  1.00  0.00     0.059 A 
ATOM     68  C   UNL A   1      44.782  26.560  36.875  1.00  0.00     0.059 A 
ATOM     69  F   UNL A   1      42.512  26.880  36.382  1.00  0.00    -0.206 F 
ATOM     70  C   UNL A   1      46.112  26.938  36.695  1.00  0.00     0.060 A 
BRANCH  70  71
ATOM     71  S   UNL A   1      47.440  26.039  37.528  1.00  0.00     0.124 S 
ATOM     72  O   UNL A   1      48.574  26.322  36.655  1.00  0.00    -0.237 OA
ATOM     73  O   UNL A   1      47.475  26.679  38.839  1.00  0.00    -0.237 OA
ATOM     74  O   UNL A   1      46.971  24.657  37.521  1.00  0.00    -0.744 OA
ENDBRANCH  70  71
ENDBRANCH  49  63
BRANCH  50  75
ATOM     75  C   UNL A   1      36.611  33.202  30.838  1.00  0.00     0.058 A 
ATOM     76  C   UNL A   1      36.818  34.063  29.750  1.00  0.00     0.135 A 
ATOM     77  C   UNL A   1      35.294  33.024  31.290  1.00  0.00     0.135 A 
ATOM     78  F   UNL A   1      38.059  34.269  29.285  1.00  0.00    -0.206 F 
ATOM     79  C   UNL A   1      35.765  34.742  29.148  1.00  0.00     0.059 A 
ATOM     80  C   UNL A   1      34.221  33.673  30.688  1.00  0.00     0.059 A 
ATOM     81  F   UNL A   1      35.041  32.197  32.316  1.00  0.00    -0.206 F 
ATOM     82  C   UNL A   1      34.468  34.541  29.625  1.00  0.00     0.060 A 
BRANCH  82  83
ATOM     83  S   UNL A   1      33.102  35.402  28.816  1.00  0.00     0.124 S 
ATOM     84  O   UNL A   1      32.283  35.792  29.958  1.00  0.00    -0.237 OA
ATOM     85  O   UNL A   1      33.788  36.488  28.123  1.00  0.00    -0.237 OA
ATOM     86  O   UNL A   1      32.529  34.379  27.947  1.00  0.00    -0.744 OA
ENDBRANCH  82  83
ENDBRANCH  50  75
BRANCH  62  87
ATOM     87  C   UNL A   1      39.820  33.960  36.982  1.00  0.00     0.058 A 
ATOM     88  C   UNL A   1      40.349  35.258  36.932  1.00  0.00     0.135 A 
ATOM     89  C   UNL A   1      39.059  33.602  38.107  1.00  0.00     0.135 A 
ATOM     90  F   UNL A   1      41.089  35.647  35.882  1.00  0.00    -0.206 F 
ATOM     91  C   UNL A   1      40.147  36.164  37.969  1.00  0.00     0.059 A 
ATOM     92  C   UNL A   1      38.824  34.500  39.144  1.00  0.00     0.059 A 
ATOM     93  F   UNL A   1      38.523  32.375  38.199  1.00  0.00    -0.206 F 
ATOM     94  C   UNL A   1      39.382  35.776  39.071  1.00  0.00     0.060 A 
BRANCH  94  95
ATOM     95  S   UNL A   1      39.097  36.971  40.393  1.00  0.00     0.124 S 
ATOM     96  O   UNL A   1      38.645  38.137  39.644  1.00  0.00    -0.237 OA
ATOM     97  O   UNL A   1      38.081  36.306  41.204  1.00  0.00    -0.237 OA
ATOM     98  O   UNL A   1      40.407  37.098  41.025  1.00  0.00    -0.744 OA
ENDBRANCH  94  95
ENDBRANCH  62  87
ENDBRANCH  36  37
ENDBRANCH  28  31
ENDBRANCH  26  27
ENDBRANCH  25  26
ENDBRANCH  24  25
ENDBRANCH  23  24
ENDBRANCH   1  23
TORSDOF 22
ENDMDL
MODEL 2
REMARK VINA RESULT:     -10.6      6.064      8.310
REMARK SMILES CCCc1sc(C(=O)NCCC(=O)NCCCCCCNC(=O)c2ccc(-c3c4nc(c(-c5c(F)cc(S(=O)(=O)[O-])cc5F)c5ccc([nH]5)c(-c5c(F)cc(S(=O)(=O)[O-])cc5F)c5nc(c(-c6c(F)cc(S(=O)(=O)[O-])cc6F)c6ccc3[nH]6)C=C5)C=C4)cc2)cc1CC
REMARK SMILES IDX 16 1 15 2 14 3 12 4 13 5 11 7 10 8 9 9 7 10 8 11 6 13 4 14
REMARK SMILES IDX 5 15 91 16 90 17 3 18 2 19 1 20 92 21 93 22 17 23 18 24
REMARK SMILES IDX 19 25 20 26 21 27 22 28 23 30 24 31 25 32 89 33 26 34 88 35
REMARK SMILES IDX 27 36 28 37 29 38 82 39 30 40 87 41 81 42 83 43 31 44 86 45
REMARK SMILES IDX 80 46 79 47 32 49 66 50 45 51 65 52 46 53 49 54 64 55 84 56
REMARK SMILES IDX 47 57 48 58 63 60 85 61 50 62 33 63 34 64 43 65 35 66 36 67
REMARK SMILES IDX 42 68 44 69 37 70 38 71 39 72 40 73 41 74 67 75 68 76 77 77
REMARK SMILES IDX 69 78 70 79 76 80 78 81 71 82 72 83 73 84 74 85 75 86 51 87
REMARK SMILES IDX 52 88 61 89 53 90 54 91 60 92 62 93 55 94 56 95 57 96 58 97
REMARK SMILES IDX 59 98
REMARK H PARENT 14 6 9 12 21 29 83 48 49 59
REMARK Flexibility Score: inf
ROOT
ATOM      1  C   UNL A   1      36.347  23.013  25.973  1.00  0.00     0.021 C 
ENDROOT
BRANCH   1   2
ATOM      2  C   UNL A   1      34.981  23.672  25.763  1.00  0.00     0.116 C 
BRANCH   2   3
ATOM      3  N   UNL A   1      34.717  23.876  24.350  1.00  0.00    -0.356 N 
ATOM      4  C   UNL A   1      33.960  23.135  23.495  1.00  0.00     0.221 C 
ATOM      5  O   UNL A   1      33.942  23.444  22.302  1.00  0.00    -0.275 OA
ATOM      6  H   UNL A   1      35.148  24.667  23.952  1.00  0.00     0.163 HD
BRANCH   4   7
ATOM      7  C   UNL A   1      33.167  21.945  23.996  1.00  0.00     0.121 C 
BRANCH   7   8
ATOM      8  C   UNL A   1      31.709  22.309  24.256  1.00  0.00     0.126 C 
BRANCH   8   9
ATOM      9  N   UNL A   1      31.463  22.690  25.632  1.00  0.00    -0.351 N 
ATOM     10  C   UNL A   1      31.413  23.891  26.298  1.00  0.00     0.261 C 
ATOM     11  O   UNL A   1      31.398  23.776  27.522  1.00  0.00    -0.268 OA
ATOM     12  H   UNL A   1      31.295  21.918  26.219  1.00  0.00     0.163 HD
BRANCH  10  13
ATOM     13  C   UNL A   1      31.332  25.168  25.599  1.00  0.00     0.092 A 
ATOM     14  C   UNL A   1      31.703  27.589  25.148  1.00  0.00     0.009 A 
ATOM     15  S   UNL A   1      32.503  26.355  26.019  1.00  0.00    -0.135 S 
ATOM     16  C   UNL A   1      30.643  27.093  24.407  1.00  0.00    -0.034 A 
ATOM     17  C   UNL A   1      30.474  25.683  24.649  1.00  0.00     0.029 A 
BRANCH  14  18
ATOM     18  C   UNL A   1      32.194  29.006  25.289  1.00  0.00     0.047 C 
BRANCH  18  19
ATOM     19  C   UNL A   1      31.749  29.657  26.604  1.00  0.00     0.002 C 
ATOM     20  C   UNL A   1      32.837  30.481  27.280  1.00  0.00     0.004 C 
ENDBRANCH  18  19
ENDBRANCH  14  18
BRANCH  16  21
ATOM     21  C   UNL A   1      29.718  27.911  23.543  1.00  0.00     0.033 C 
ATOM     22  C   UNL A   1      30.291  28.266  22.181  1.00  0.00     0.009 C 
ENDBRANCH  16  21
ENDBRANCH  10  13
ENDBRANCH   8   9
ENDBRANCH   7   8
ENDBRANCH   4   7
ENDBRANCH   2   3
ENDBRANCH   1   2
BRANCH   1  23
ATOM     23  C   UNL A   1      36.389  21.511  25.685  1.00  0.00     0.002 C 
BRANCH  23  24
ATOM     24  C   UNL A   1      37.391  21.074  24.615  1.00  0.00     0.002 C 
BRANCH  24  25
ATOM     25  C   UNL A   1      38.355  19.958  25.028  1.00  0.00     0.021 C 
BRANCH  25  26
ATOM     26  C   UNL A   1      39.433  20.365  26.030  1.00  0.00     0.116 C 
BRANCH  26  27
ATOM     27  N   UNL A   1      40.496  19.377  26.121  1.00  0.00    -0.352 N 
ATOM     28  C   UNL A   1      41.853  19.560  26.211  1.00  0.00     0.251 C 
ATOM     29  H   UNL A   1      40.199  18.439  26.119  1.00  0.00     0.163 HD
ATOM     30  O   UNL A   1      42.608  18.600  26.078  1.00  0.00    -0.269 OA
BRANCH  28  31
ATOM     31  C   UNL A   1      42.408  20.909  26.451  1.00  0.00     0.039 A 
ATOM     32  C   UNL A   1      42.748  21.705  25.353  1.00  0.00     0.014 A 
ATOM     33  C   UNL A   1      42.614  21.382  27.751  1.00  0.00     0.014 A 
ATOM     34  C   UNL A   1      43.244  22.995  25.559  1.00  0.00     0.010 A 
ATOM     35  C   UNL A   1      43.049  22.691  27.954  1.00  0.00     0.010 A 
ATOM     36  C   UNL A   1      43.372  23.509  26.860  1.00  0.00    -0.014 A 
BRANCH  36  37
ATOM     37  C   UNL A   1      43.842  24.899  27.095  1.00  0.00     0.031 A 
ATOM     38  C   UNL A   1      45.291  25.251  26.889  1.00  0.00     0.074 A 
ATOM     39  C   UNL A   1      42.978  25.825  27.555  1.00  0.00     0.049 A 
ATOM     40  N   UNL A   1      45.904  26.384  27.113  1.00  0.00    -0.248 NA
ATOM     41  C   UNL A   1      46.170  24.182  26.388  1.00  0.00     0.031 C 
ATOM     42  C   UNL A   1      41.560  25.592  27.839  1.00  0.00     0.029 A 
ATOM     43  N   UNL A   1      43.167  27.145  27.878  1.00  0.00    -0.354 N 
ATOM     44  C   UNL A   1      47.240  26.163  26.798  1.00  0.00     0.074 A 
ATOM     45  C   UNL A   1      47.356  24.775  26.406  1.00  0.00     0.031 C 
ATOM     46  C   UNL A   1      41.005  26.733  28.279  1.00  0.00     0.029 A 
ATOM     47  C   UNL A   1      42.032  27.768  28.343  1.00  0.00     0.049 A 
ATOM     48  H   UNL A   1      44.033  27.604  27.785  1.00  0.00     0.167 HD
ATOM     49  C   UNL A   1      48.270  27.041  26.815  1.00  0.00     0.037 A 
ATOM     50  C   UNL A   1      41.842  29.029  28.781  1.00  0.00     0.037 A 
ATOM     51  C   UNL A   1      48.142  28.431  27.175  1.00  0.00     0.049 A 
ATOM     52  C   UNL A   1      43.002  29.987  28.779  1.00  0.00     0.074 A 
ATOM     53  C   UNL A   1      49.114  29.415  27.162  1.00  0.00     0.029 A 
ATOM     54  N   UNL A   1      46.969  29.031  27.608  1.00  0.00    -0.354 N 
ATOM     55  N   UNL A   1      44.245  29.777  28.417  1.00  0.00    -0.248 NA
ATOM     56  C   UNL A   1      42.733  31.358  29.236  1.00  0.00     0.031 C 
ATOM     57  C   UNL A   1      48.538  30.604  27.623  1.00  0.00     0.029 A 
ATOM     58  C   UNL A   1      47.197  30.369  27.882  1.00  0.00     0.049 A 
ATOM     59  H   UNL A   1      46.103  28.574  27.708  1.00  0.00     0.167 HD
ATOM     60  C   UNL A   1      44.899  30.993  28.577  1.00  0.00     0.074 A 
ATOM     61  C   UNL A   1      43.913  31.938  29.057  1.00  0.00     0.031 C 
ATOM     62  C   UNL A   1      46.199  31.301  28.346  1.00  0.00     0.037 A 
BRANCH  49  63
ATOM     63  C   UNL A   1      49.630  26.534  26.423  1.00  0.00     0.058 A 
ATOM     64  C   UNL A   1      50.433  25.815  27.322  1.00  0.00     0.135 A 
ATOM     65  C   UNL A   1      50.115  26.721  25.118  1.00  0.00     0.135 A 
ATOM     66  F   UNL A   1      50.025  25.619  28.585  1.00  0.00    -0.206 F 
ATOM     67  C   UNL A   1      51.677  25.316  26.948  1.00  0.00     0.059 A 
ATOM     68  C   UNL A   1      51.345  26.210  24.715  1.00  0.00     0.059 A 
ATOM     69  F   UNL A   1      49.389  27.403  24.217  1.00  0.00    -0.206 F 
ATOM     70  C   UNL A   1      52.124  25.517  25.642  1.00  0.00     0.060 A 
BRANCH  70  71
ATOM     71  S   UNL A   1      53.731  24.844  25.166  1.00  0.00     0.124 S 
ATOM     72  O   UNL A   1      53.431  23.419  25.067  1.00  0.00    -0.237 OA
ATOM     73  O   UNL A   1      53.994  25.525  23.902  1.00  0.00    -0.237 OA
ATOM     74  O   UNL A   1      54.602  25.227  26.273  1.00  0.00    -0.744 OA
ENDBRANCH  70  71
ENDBRANCH  49  63
BRANCH  50  75
ATOM     75  C   UNL A   1      40.498  29.464  29.244  1.00  0.00     0.058 A 
ATOM     76  C   UNL A   1      39.462  29.698  28.328  1.00  0.00     0.135 A 
ATOM     77  C   UNL A   1      40.222  29.656  30.607  1.00  0.00     0.135 A 
ATOM     78  F   UNL A   1      39.678  29.533  27.015  1.00  0.00    -0.206 F 
ATOM     79  C   UNL A   1      38.207  30.130  28.743  1.00  0.00     0.059 A 
ATOM     80  C   UNL A   1      38.967  30.063  31.048  1.00  0.00     0.059 A 
ATOM     81  F   UNL A   1      41.175  29.427  31.524  1.00  0.00    -0.206 F 
ATOM     82  C   UNL A   1      37.969  30.311  30.107  1.00  0.00     0.060 A 
BRANCH  82  83
ATOM     83  S   UNL A   1      36.327  30.842  30.639  1.00  0.00     0.124 S 
ATOM     84  O   UNL A   1      36.000  29.830  31.636  1.00  0.00    -0.237 OA
ATOM     85  O   UNL A   1      36.587  32.183  31.153  1.00  0.00    -0.237 OA
ATOM     86  O   UNL A   1      35.544  30.793  29.408  1.00  0.00    -0.744 OA
ENDBRANCH  82  83
ENDBRANCH  50  75
BRANCH  62  87
ATOM     87  C   UNL A   1      46.625  32.724  28.572  1.00  0.00     0.058 A 
ATOM     88  C   UNL A   1      47.142  33.152  29.803  1.00  0.00     0.135 A 
ATOM     89  C   UNL A   1      46.561  33.658  27.525  1.00  0.00     0.135 A 
ATOM     90  F   UNL A   1      47.218  32.301  30.838  1.00  0.00    -0.206 F 
ATOM     91  C   UNL A   1      47.565  34.464  29.996  1.00  0.00     0.059 A 
ATOM     92  C   UNL A   1      47.002  34.967  27.688  1.00  0.00     0.059 A 
ATOM     93  F   UNL A   1      46.082  33.296  26.323  1.00  0.00    -0.206 F 
ATOM     94  C   UNL A   1      47.492  35.364  28.931  1.00  0.00     0.060 A 
BRANCH  94  95
ATOM     95  S   UNL A   1      48.076  37.054  29.182  1.00  0.00     0.124 S 
ATOM     96  O   UNL A   1      47.153  37.811  28.344  1.00  0.00    -0.237 OA
ATOM     97  O   UNL A   1      47.916  37.231  30.622  1.00  0.00    -0.237 OA
ATOM     98  O   UNL A   1      49.457  37.009  28.713  1.00  0.00    -0.744 OA
ENDBRANCH  94  95
ENDBRANCH  62  87
ENDBRANCH  36  37
ENDBRANCH  28  31
ENDBRANCH  26  27
ENDBRANCH  25  26
ENDBRANCH  24  25
ENDBRANCH  23  24
ENDBRANCH   1  23
TORSDOF 22
ENDMDL
MODEL 3
REMARK VINA RESULT:     -10.5      6.075     10.813
REMARK SMILES CCCc1sc(C(=O)NCCC(=O)NCCCCCCNC(=O)c2ccc(-c3c4nc(c(-c5c(F)cc(S(=O)(=O)[O-])cc5F)c5ccc([nH]5)c(-c5c(F)cc(S(=O)(=O)[O-])cc5F)c5nc(c(-c6c(F)cc(S(=O)(=O)[O-])cc6F)c6ccc3[nH]6)C=C5)C=C4)cc2)cc1CC
REMARK SMILES IDX 16 1 15 2 14 3 12 4 13 5 11 7 10 8 9 9 7 10 8 11 6 13 4 14
REMARK SMILES IDX 5 15 91 16 90 17 3 18 2 19 1 20 92 21 93 22 17 23 18 24
REMARK SMILES IDX 19 25 20 26 21 27 22 28 23 30 24 31 25 32 89 33 26 34 88 35
REMARK SMILES IDX 27 36 28 37 29 38 82 39 30 40 87 41 81 42 83 43 31 44 86 45
REMARK SMILES IDX 80 46 79 47 32 49 66 50 45 51 65 52 46 53 49 54 64 55 84 56
REMARK SMILES IDX 47 57 48 58 63 60 85 61 50 62 33 63 34 64 43 65 35 66 36 67
REMARK SMILES IDX 42 68 44 69 37 70 38 71 39 72 40 73 41 74 67 75 68 76 77 77
REMARK SMILES IDX 69 78 70 79 76 80 78 81 71 82 72 83 73 84 74 85 75 86 51 87
REMARK SMILES IDX 52 88 61 89 53 90 54 91 60 92 62 93 55 94 56 95 57 96 58 97
REMARK SMILES IDX 59 98
REMARK H PARENT 14 6 9 12 21 29 83 48 49 59
REMARK Flexibility Score: inf
ROOT
ATOM      1  C   UNL A   1      35.370  20.307  24.931  1.00  0.00     0.021 C 
ENDROOT
BRANCH   1   2
ATOM      2  C   UNL A   1      33.862  20.423  25.162  1.00  0.00     0.116 C 
BRANCH   2   3
ATOM      3  N   UNL A   1      33.189  20.894  23.964  1.00  0.00    -0.356 N 
ATOM      4  C   UNL A   1      32.466  22.030  23.768  1.00  0.00     0.221 C 
ATOM      5  O   UNL A   1      31.903  22.192  22.684  1.00  0.00    -0.275 OA
ATOM      6  H   UNL A   1      33.268  20.305  23.179  1.00  0.00     0.163 HD
BRANCH   4   7
ATOM      7  C   UNL A   1      32.343  23.067  24.865  1.00  0.00     0.121 C 
BRANCH   7   8
ATOM      8  C   UNL A   1      33.459  24.104  24.788  1.00  0.00     0.126 C 
BRANCH   8   9
ATOM      9  N   UNL A   1      33.674  24.597  23.442  1.00  0.00    -0.351 N 
ATOM     10  C   UNL A   1      33.200  25.671  22.729  1.00  0.00     0.261 C 
ATOM     11  O   UNL A   1      33.451  25.615  21.526  1.00  0.00    -0.268 OA
ATOM     12  H   UNL A   1      34.297  24.037  22.925  1.00  0.00     0.163 HD
BRANCH  10  13
ATOM     13  C   UNL A   1      32.514  26.789  23.366  1.00  0.00     0.092 A 
ATOM     14  C   UNL A   1      30.941  28.705  23.613  1.00  0.00     0.009 A 
ATOM     15  S   UNL A   1      31.028  27.289  22.659  1.00  0.00    -0.135 S 
ATOM     16  C   UNL A   1      31.935  28.738  24.578  1.00  0.00    -0.034 A 
ATOM     17  C   UNL A   1      32.806  27.599  24.445  1.00  0.00     0.029 A 
BRANCH  14  18
ATOM     18  C   UNL A   1      29.869  29.717  23.305  1.00  0.00     0.047 C 
BRANCH  18  19
ATOM     19  C   UNL A   1      28.769  29.154  22.397  1.00  0.00     0.002 C 
ATOM     20  C   UNL A   1      27.550  28.644  23.156  1.00  0.00     0.004 C 
ENDBRANCH  18  19
ENDBRANCH  14  18
BRANCH  16  21
ATOM     21  C   UNL A   1      32.156  29.851  25.570  1.00  0.00     0.033 C 
ATOM     22  C   UNL A   1      31.901  29.454  27.015  1.00  0.00     0.009 C 
ENDBRANCH  16  21
ENDBRANCH  10  13
ENDBRANCH   8   9
ENDBRANCH   7   8
ENDBRANCH   4   7
ENDBRANCH   2   3
ENDBRANCH   1   2
BRANCH   1  23
ATOM     23  C   UNL A   1      36.067  21.618  24.557  1.00  0.00     0.002 C 
BRANCH  23  24
ATOM     24  C   UNL A   1      37.596  21.575  24.569  1.00  0.00     0.002 C 
BRANCH  24  25
ATOM     25  C   UNL A   1      38.217  20.278  25.096  1.00  0.00     0.021 C 
BRANCH  25  26
ATOM     26  C   UNL A   1      39.300  20.459  26.158  1.00  0.00     0.116 C 
BRANCH  26  27
ATOM     27  N   UNL A   1      40.319  19.424  26.083  1.00  0.00    -0.352 N 
ATOM     28  C   UNL A   1      41.686  19.540  26.088  1.00  0.00     0.251 C 
ATOM     29  H   UNL A   1      39.977  18.503  26.019  1.00  0.00     0.163 HD
ATOM     30  O   UNL A   1      42.382  18.566  25.815  1.00  0.00    -0.269 OA
BRANCH  28  31
ATOM     31  C   UNL A   1      42.321  20.838  26.405  1.00  0.00     0.039 A 
ATOM     32  C   UNL A   1      42.730  21.663  25.354  1.00  0.00     0.014 A 
ATOM     33  C   UNL A   1      42.533  21.230  27.730  1.00  0.00     0.014 A 
ATOM     34  C   UNL A   1      43.303  22.907  25.632  1.00  0.00     0.010 A 
ATOM     35  C   UNL A   1      43.047  22.496  28.005  1.00  0.00     0.010 A 
ATOM     36  C   UNL A   1      43.440  23.346  26.959  1.00  0.00    -0.014 A 
BRANCH  36  37
ATOM     37  C   UNL A   1      43.993  24.689  27.272  1.00  0.00     0.031 A 
ATOM     38  C   UNL A   1      43.075  25.806  27.690  1.00  0.00     0.074 A 
ATOM     39  C   UNL A   1      45.312  24.919  27.119  1.00  0.00     0.049 A 
ATOM     40  N   UNL A   1      43.357  27.060  27.932  1.00  0.00    -0.248 NA
ATOM     41  C   UNL A   1      41.648  25.475  27.833  1.00  0.00     0.031 C 
ATOM     42  C   UNL A   1      46.297  23.929  26.673  1.00  0.00     0.029 A 
ATOM     43  N   UNL A   1      46.052  26.059  27.306  1.00  0.00    -0.354 N 
ATOM     44  C   UNL A   1      42.147  27.671  28.237  1.00  0.00     0.074 A 
ATOM     45  C   UNL A   1      41.120  26.659  28.110  1.00  0.00     0.031 C 
ATOM     46  C   UNL A   1      47.511  24.502  26.635  1.00  0.00     0.029 A 
ATOM     47  C   UNL A   1      47.389  25.904  27.019  1.00  0.00     0.049 A 
ATOM     48  H   UNL A   1      45.663  26.908  27.616  1.00  0.00     0.167 HD
ATOM     49  C   UNL A   1      41.915  28.952  28.608  1.00  0.00     0.037 A 
ATOM     50  C   UNL A   1      48.400  26.795  27.051  1.00  0.00     0.037 A 
ATOM     51  C   UNL A   1      42.945  29.947  28.764  1.00  0.00     0.049 A 
ATOM     52  C   UNL A   1      48.116  28.210  27.478  1.00  0.00     0.074 A 
ATOM     53  C   UNL A   1      42.819  31.255  29.197  1.00  0.00     0.029 A 
ATOM     54  N   UNL A   1      44.291  29.742  28.496  1.00  0.00    -0.354 N 
ATOM     55  N   UNL A   1      46.974  28.753  27.824  1.00  0.00    -0.248 NA
ATOM     56  C   UNL A   1      49.260  29.132  27.526  1.00  0.00     0.031 C 
ATOM     57  C   UNL A   1      44.083  31.854  29.155  1.00  0.00     0.029 A 
ATOM     58  C   UNL A   1      45.003  30.905  28.738  1.00  0.00     0.049 A 
ATOM     59  H   UNL A   1      44.682  28.896  28.179  1.00  0.00     0.167 HD
ATOM     60  C   UNL A   1      47.266  30.071  28.157  1.00  0.00     0.074 A 
ATOM     61  C   UNL A   1      48.693  30.241  27.983  1.00  0.00     0.031 C 
ATOM     62  C   UNL A   1      46.427  31.053  28.572  1.00  0.00     0.037 A 
BRANCH  49  63
ATOM     63  C   UNL A   1      40.493  29.356  28.884  1.00  0.00     0.058 A 
ATOM     64  C   UNL A   1      39.571  29.557  27.844  1.00  0.00     0.135 A 
ATOM     65  C   UNL A   1      40.031  29.492  30.204  1.00  0.00     0.135 A 
ATOM     66  F   UNL A   1      39.963  29.453  26.565  1.00  0.00    -0.206 F 
ATOM     67  C   UNL A   1      38.247  29.896  28.102  1.00  0.00     0.059 A 
ATOM     68  C   UNL A   1      38.705  29.808  30.484  1.00  0.00     0.059 A 
ATOM     69  F   UNL A   1      40.870  29.313  31.236  1.00  0.00    -0.206 F 
ATOM     70  C   UNL A   1      37.823  30.018  29.425  1.00  0.00     0.060 A 
BRANCH  70  71
ATOM     71  S   UNL A   1      36.095  30.438  29.742  1.00  0.00     0.124 S 
ATOM     72  O   UNL A   1      35.897  29.871  31.071  1.00  0.00    -0.237 OA
ATOM     73  O   UNL A   1      36.109  31.896  29.671  1.00  0.00    -0.237 OA
ATOM     74  O   UNL A   1      35.378  29.770  28.661  1.00  0.00    -0.744 OA
ENDBRANCH  70  71
ENDBRANCH  49  63
BRANCH  50  75
ATOM     75  C   UNL A   1      49.778  26.374  26.684  1.00  0.00     0.058 A 
ATOM     76  C   UNL A   1      50.207  26.401  25.349  1.00  0.00     0.135 A 
ATOM     77  C   UNL A   1      50.690  25.936  27.655  1.00  0.00     0.135 A 
ATOM     78  F   UNL A   1      49.369  26.807  24.383  1.00  0.00    -0.206 F 
ATOM     79  C   UNL A   1      51.483  25.985  24.985  1.00  0.00     0.059 A 
ATOM     80  C   UNL A   1      51.981  25.540  27.320  1.00  0.00     0.059 A 
ATOM     81  F   UNL A   1      50.334  25.909  28.949  1.00  0.00    -0.206 F 
ATOM     82  C   UNL A   1      52.365  25.555  25.979  1.00  0.00     0.060 A 
BRANCH  82  83
ATOM     83  S   UNL A   1      54.031  25.048  25.503  1.00  0.00     0.124 S 
ATOM     84  O   UNL A   1      53.763  23.824  24.757  1.00  0.00    -0.237 OA
ATOM     85  O   UNL A   1      54.487  26.189  24.714  1.00  0.00    -0.237 OA
ATOM     86  O   UNL A   1      54.706  24.873  26.785  1.00  0.00    -0.744 OA
ENDBRANCH  82  83
ENDBRANCH  50  75
BRANCH  62  87
ATOM     87  C   UNL A   1      47.034  32.387  28.903  1.00  0.00     0.058 A 
ATOM     88  C   UNL A   1      47.514  32.679  30.189  1.00  0.00     0.135 A 
ATOM     89  C   UNL A   1      47.182  33.366  27.907  1.00  0.00     0.135 A 
ATOM     90  F   UNL A   1      47.391  31.780  31.178  1.00  0.00    -0.206 F 
ATOM     91  C   UNL A   1      48.105  33.905  30.481  1.00  0.00     0.059 A 
ATOM     92  C   UNL A   1      47.791  34.589  28.171  1.00  0.00     0.059 A 
ATOM     93  F   UNL A   1      46.746  33.132  26.659  1.00  0.00    -0.206 F 
ATOM     94  C   UNL A   1      48.239  34.854  29.465  1.00  0.00     0.060 A 
BRANCH  94  95
ATOM     95  S   UNL A   1      49.038  36.426  29.846  1.00  0.00     0.124 S 
ATOM     96  O   UNL A   1      50.298  36.299  29.123  1.00  0.00    -0.237 OA
ATOM     97  O   UNL A   1      48.093  37.398  29.306  1.00  0.00    -0.237 OA
ATOM     98  O   UNL A   1      49.145  36.409  31.302  1.00  0.00    -0.744 OA
ENDBRANCH  94  95
ENDBRANCH  62  87
ENDBRANCH  36  37
ENDBRANCH  28  31
ENDBRANCH  26  27
ENDBRANCH  25  26
ENDBRANCH  24  25
ENDBRANCH  23  24
ENDBRANCH   1  23
TORSDOF 22
ENDMDL
