MODEL 1
REMARK VINA RESULT:     -12.6      0.000      0.000
REMARK SMILES C[NH2+][C@@]1(C(=O)NCCCCCCNC(=O)c2ccc(-c3c4nc(c(-c5c(F)cc(S(=O)(=O)[O-])cc5F)c5ccc([nH]5)c(-c5c(F)cc(S(=O)(=O)[O-])cc5F)c5nc(c(-c6c(F)cc(S(=O)(=O)[O-])cc6F)c6ccc3[nH]6)C=C5)C=C4)cc2)CC[C@H]([NH+]2CC[NH+](C)CC2)C1
REMARK SMILES IDX 10 1 9 2 8 3 7 4 6 5 4 6 5 7 3 9 82 10 92 11 83 12 84 13
REMARK SMILES IDX 2 14 1 15 85 18 86 19 91 20 87 22 90 23 88 24 89 25 11 27
REMARK SMILES IDX 12 28 13 29 14 30 15 32 16 33 17 34 81 35 18 36 80 37 19 38
REMARK SMILES IDX 20 39 21 40 74 41 22 42 79 43 73 44 75 45 23 46 78 47 72 48
REMARK SMILES IDX 71 49 24 51 58 52 37 53 57 54 38 55 41 56 56 57 76 58 39 59
REMARK SMILES IDX 40 60 55 62 77 63 42 64 25 65 26 66 35 67 27 68 28 69 34 70
REMARK SMILES IDX 36 71 29 72 30 73 31 74 32 75 33 76 59 77 60 78 69 79 61 80
REMARK SMILES IDX 62 81 68 82 70 83 63 84 64 85 65 86 66 87 67 88 43 89 44 90
REMARK SMILES IDX 53 91 45 92 46 93 52 94 54 95 47 96 48 97 49 98 50 99 51 100
REMARK H PARENT 6 8 2 16 2 17 85 21 88 26 13 31 75 50 41 61
REMARK Flexibility Score: inf
ROOT
ATOM      1  C   UNL A   1      33.108  29.431  27.221  1.00  0.00     0.002 C 
ENDROOT
BRANCH   1   2
ATOM      2  C   UNL A   1      32.566  29.943  25.864  1.00  0.00     0.002 C 
BRANCH   2   3
ATOM      3  C   UNL A   1      31.863  28.883  24.711  1.00  0.00     0.021 C 
BRANCH   3   4
ATOM      4  C   UNL A   1      32.430  27.937  22.889  1.00  0.00     0.116 C 
BRANCH   4   5
ATOM      5  N   UNL A   1      33.114  26.536  22.568  1.00  0.00    -0.351 N 
ATOM      6  C   UNL A   1      33.194  25.270  23.045  1.00  0.00     0.281 C 
ATOM      7  O   UNL A   1      34.144  24.645  22.555  1.00  0.00    -0.268 OA
ATOM      8  H   UNL A   1      33.659  26.615  21.751  1.00  0.00     0.163 HD
BRANCH   6   9
ATOM      9  C   UNL A   1      32.201  24.658  24.079  1.00  0.00     0.181 C 
ATOM     10  C   UNL A   1      32.433  25.314  25.453  1.00  0.00     0.085 C 
ATOM     11  C   UNL A   1      32.423  23.152  24.325  1.00  0.00     0.144 C 
ATOM     12  C   UNL A   1      33.007  24.209  26.338  1.00  0.00     0.072 C 
ATOM     13  C   UNL A   1      33.496  23.073  25.404  1.00  0.00     0.191 C 
BRANCH   9  14
ATOM     14  N   UNL A   1      30.762  24.780  23.674  1.00  0.00    -0.336 N 
ATOM     15  C   UNL A   1      29.947  25.732  24.415  1.00  0.00     0.331 C 
ATOM     16  H   UNL A   1      30.742  25.056  22.693  1.00  0.00     0.346 HD
ATOM     17  H   UNL A   1      30.353  23.868  23.875  1.00  0.00     0.346 HD
ENDBRANCH   9  14
BRANCH  13  18
ATOM     18  N   UNL A   1      34.875  23.097  24.915  1.00  0.00    -0.323 N 
ATOM     19  C   UNL A   1      35.567  21.453  24.460  1.00  0.00     0.324 C 
ATOM     20  C   UNL A   1      36.045  24.448  25.445  1.00  0.00     0.324 C 
ATOM     21  H   UNL A   1      34.729  23.545  24.010  1.00  0.00     0.348 HD
ATOM     22  C   UNL A   1      37.372  20.968  25.020  1.00  0.00     0.324 C 
ATOM     23  C   UNL A   1      37.895  23.964  25.986  1.00  0.00     0.324 C 
ATOM     24  N   UNL A   1      38.547  22.284  25.551  1.00  0.00    -0.328 N 
ATOM     25  C   UNL A   1      39.521  21.775  26.506  1.00  0.00     0.333 C 
ATOM     26  H   UNL A   1      39.014  22.514  24.674  1.00  0.00     0.348 HD
ENDBRANCH  13  18
ENDBRANCH   6   9
ENDBRANCH   4   5
ENDBRANCH   3   4
ENDBRANCH   2   3
ENDBRANCH   1   2
BRANCH   1  27
ATOM     27  C   UNL A   1      34.521  28.859  27.198  1.00  0.00     0.021 C 
BRANCH  27  28
ATOM     28  C   UNL A   1      35.566  29.849  27.668  1.00  0.00     0.116 C 
BRANCH  28  29
ATOM     29  N   UNL A   1      35.447  30.079  29.100  1.00  0.00    -0.352 N 
ATOM     30  C   UNL A   1      36.354  29.722  30.066  1.00  0.00     0.251 C 
ATOM     31  H   UNL A   1      34.631  30.536  29.407  1.00  0.00     0.163 HD
ATOM     32  O   UNL A   1      36.041  29.679  31.249  1.00  0.00    -0.269 OA
BRANCH  30  33
ATOM     33  C   UNL A   1      37.722  29.391  29.627  1.00  0.00     0.039 A 
ATOM     34  C   UNL A   1      38.096  29.599  28.300  1.00  0.00     0.014 A 
ATOM     35  C   UNL A   1      38.643  28.921  30.571  1.00  0.00     0.014 A 
ATOM     36  C   UNL A   1      39.412  29.343  27.917  1.00  0.00     0.010 A 
ATOM     37  C   UNL A   1      39.969  28.748  30.206  1.00  0.00     0.010 A 
ATOM     38  C   UNL A   1      40.355  28.919  28.869  1.00  0.00    -0.014 A 
BRANCH  38  39
ATOM     39  C   UNL A   1      41.731  28.542  28.475  1.00  0.00     0.031 A 
ATOM     40  C   UNL A   1      42.790  29.610  28.425  1.00  0.00     0.074 A 
ATOM     41  C   UNL A   1      42.008  27.276  28.111  1.00  0.00     0.049 A 
ATOM     42  N   UNL A   1      44.034  29.524  28.037  1.00  0.00    -0.248 NA
ATOM     43  C   UNL A   1      42.380  30.967  28.829  1.00  0.00     0.031 C 
ATOM     44  C   UNL A   1      41.043  26.175  28.063  1.00  0.00     0.029 A 
ATOM     45  N   UNL A   1      43.185  26.705  27.701  1.00  0.00    -0.354 N 
ATOM     46  C   UNL A   1      44.543  30.815  28.122  1.00  0.00     0.074 A 
ATOM     47  C   UNL A   1      43.460  31.675  28.538  1.00  0.00     0.031 C 
ATOM     48  C   UNL A   1      41.674  25.057  27.667  1.00  0.00     0.029 A 
ATOM     49  C   UNL A   1      43.077  25.366  27.411  1.00  0.00     0.049 A 
ATOM     50  H   UNL A   1      44.028  27.207  27.621  1.00  0.00     0.167 HD
ATOM     51  C   UNL A   1      45.810  31.240  27.905  1.00  0.00     0.037 A 
ATOM     52  C   UNL A   1      44.010  24.492  26.989  1.00  0.00     0.037 A 
ATOM     53  C   UNL A   1      46.891  30.363  27.547  1.00  0.00     0.049 A 
ATOM     54  C   UNL A   1      45.425  24.974  26.806  1.00  0.00     0.074 A 
ATOM     55  C   UNL A   1      48.228  30.667  27.376  1.00  0.00     0.029 A 
ATOM     56  N   UNL A   1      46.754  29.001  27.315  1.00  0.00    -0.354 N 
ATOM     57  N   UNL A   1      45.907  26.186  26.956  1.00  0.00    -0.248 NA
ATOM     58  C   UNL A   1      46.424  23.972  26.412  1.00  0.00     0.031 C 
ATOM     59  C   UNL A   1      48.897  29.493  27.013  1.00  0.00     0.029 A 
ATOM     60  C   UNL A   1      47.982  28.452  26.993  1.00  0.00     0.049 A 
ATOM     61  H   UNL A   1      45.908  28.501  27.371  1.00  0.00     0.167 HD
ATOM     62  C   UNL A   1      47.269  26.088  26.695  1.00  0.00     0.074 A 
ATOM     63  C   UNL A   1      47.535  24.695  26.391  1.00  0.00     0.031 C 
ATOM     64  C   UNL A   1      48.216  27.059  26.704  1.00  0.00     0.037 A 
BRANCH  51  65
ATOM     65  C   UNL A   1      46.087  32.709  28.067  1.00  0.00     0.058 A 
ATOM     66  C   UNL A   1      45.889  33.616  27.013  1.00  0.00     0.135 A 
ATOM     67  C   UNL A   1      46.553  33.217  29.288  1.00  0.00     0.135 A 
ATOM     68  F   UNL A   1      45.463  33.181  25.816  1.00  0.00    -0.206 F 
ATOM     69  C   UNL A   1      46.179  34.969  27.153  1.00  0.00     0.059 A 
ATOM     70  C   UNL A   1      46.823  34.572  29.460  1.00  0.00     0.059 A 
ATOM     71  F   UNL A   1      46.763  32.395  30.328  1.00  0.00    -0.206 F 
ATOM     72  C   UNL A   1      46.649  35.437  28.380  1.00  0.00     0.060 A 
BRANCH  72  73
ATOM     73  S   UNL A   1      47.025  37.195  28.548  1.00  0.00     0.124 S 
ATOM     74  O   UNL A   1      46.139  37.578  29.643  1.00  0.00    -0.237 OA
ATOM     75  O   UNL A   1      48.450  37.183  28.862  1.00  0.00    -0.237 OA
ATOM     76  O   UNL A   1      46.679  37.742  27.239  1.00  0.00    -0.744 OA
ENDBRANCH  72  73
ENDBRANCH  51  65
BRANCH  52  77
ATOM     77  C   UNL A   1      43.644  23.071  26.754  1.00  0.00     0.058 A 
ATOM     78  C   UNL A   1      43.312  22.226  27.824  1.00  0.00     0.135 A 
ATOM     79  C   UNL A   1      43.590  22.536  25.459  1.00  0.00     0.135 A 
ATOM     80  F   UNL A   1      43.351  22.691  29.082  1.00  0.00    -0.206 F 
ATOM     81  C   UNL A   1      42.951  20.898  27.620  1.00  0.00     0.059 A 
ATOM     82  C   UNL A   1      43.212  21.217  25.227  1.00  0.00     0.059 A 
ATOM     83  F   UNL A   1      43.879  23.310  24.400  1.00  0.00    -0.206 F 
ATOM     84  C   UNL A   1      42.902  20.403  26.316  1.00  0.00     0.060 A 
BRANCH  84  85
ATOM     85  S   UNL A   1      42.377  18.695  26.054  1.00  0.00     0.124 S 
ATOM     86  O   UNL A   1      40.978  18.871  25.684  1.00  0.00    -0.237 OA
ATOM     87  O   UNL A   1      43.271  18.259  24.985  1.00  0.00    -0.237 OA
ATOM     88  O   UNL A   1      42.614  18.069  27.351  1.00  0.00    -0.744 OA
ENDBRANCH  84  85
ENDBRANCH  52  77
BRANCH  64  89
ATOM     89  C   UNL A   1      49.627  26.646  26.403  1.00  0.00     0.058 A 
ATOM     90  C   UNL A   1      50.433  26.034  27.373  1.00  0.00     0.135 A 
ATOM     91  C   UNL A   1      50.154  26.808  25.112  1.00  0.00     0.135 A 
ATOM     92  F   UNL A   1      49.975  25.861  28.622  1.00  0.00    -0.206 F 
ATOM     93  C   UNL A   1      51.725  25.613  27.078  1.00  0.00     0.059 A 
ATOM     94  C   UNL A   1      51.434  26.373  24.788  1.00  0.00     0.059 A 
ATOM     95  F   UNL A   1      49.414  27.378  24.146  1.00  0.00    -0.206 F 
ATOM     96  C   UNL A   1      52.216  25.786  25.782  1.00  0.00     0.060 A 
BRANCH  96  97
ATOM     97  S   UNL A   1      53.880  25.200  25.401  1.00  0.00     0.124 S 
ATOM     98  O   UNL A   1      53.718  23.756  25.530  1.00  0.00    -0.237 OA
ATOM     99  O   UNL A   1      54.086  25.697  24.045  1.00  0.00    -0.237 OA
ATOM    100  O   UNL A   1      54.705  25.835  26.426  1.00  0.00    -0.744 OA
ENDBRANCH  96  97
ENDBRANCH  64  89
ENDBRANCH  38  39
ENDBRANCH  30  33
ENDBRANCH  28  29
ENDBRANCH  27  28
ENDBRANCH   1  27
TORSDOF 18
ENDMDL
MODEL 2
REMARK VINA RESULT:     -12.5      1.353      2.642
REMARK SMILES C[NH2+][C@@]1(C(=O)NCCCCCCNC(=O)c2ccc(-c3c4nc(c(-c5c(F)cc(S(=O)(=O)[O-])cc5F)c5ccc([nH]5)c(-c5c(F)cc(S(=O)(=O)[O-])cc5F)c5nc(c(-c6c(F)cc(S(=O)(=O)[O-])cc6F)c6ccc3[nH]6)C=C5)C=C4)cc2)CC[C@H]([NH+]2CC[NH+](C)CC2)C1
REMARK SMILES IDX 10 1 9 2 8 3 7 4 6 5 4 6 5 7 3 9 82 10 92 11 83 12 84 13
REMARK SMILES IDX 2 14 1 15 85 18 86 19 91 20 87 22 90 23 88 24 89 25 11 27
REMARK SMILES IDX 12 28 13 29 14 30 15 32 16 33 17 34 81 35 18 36 80 37 19 38
REMARK SMILES IDX 20 39 21 40 74 41 22 42 79 43 73 44 75 45 23 46 78 47 72 48
REMARK SMILES IDX 71 49 24 51 58 52 37 53 57 54 38 55 41 56 56 57 76 58 39 59
REMARK SMILES IDX 40 60 55 62 77 63 42 64 25 65 26 66 35 67 27 68 28 69 34 70
REMARK SMILES IDX 36 71 29 72 30 73 31 74 32 75 33 76 59 77 60 78 69 79 61 80
REMARK SMILES IDX 62 81 68 82 70 83 63 84 64 85 65 86 66 87 67 88 43 89 44 90
REMARK SMILES IDX 53 91 45 92 46 93 52 94 54 95 47 96 48 97 49 98 50 99 51 100
REMARK H PARENT 6 8 2 16 2 17 85 21 88 26 13 31 75 50 41 61
REMARK Flexibility Score: inf
ROOT
ATOM      1  C   UNL A   1      35.152  33.121  29.013  1.00  0.00     0.002 C 
ENDROOT
BRANCH   1   2
ATOM      2  C   UNL A   1      35.421  32.051  27.927  1.00  0.00     0.002 C 
BRANCH   2   3
ATOM      3  C   UNL A   1      34.308  30.785  27.605  1.00  0.00     0.021 C 
BRANCH   3   4
ATOM      4  C   UNL A   1      33.074  30.145  25.992  1.00  0.00     0.116 C 
BRANCH   4   5
ATOM      5  N   UNL A   1      33.396  29.678  24.504  1.00  0.00    -0.351 N 
ATOM      6  C   UNL A   1      32.856  28.967  23.485  1.00  0.00     0.281 C 
ATOM      7  O   UNL A   1      33.701  28.656  22.633  1.00  0.00    -0.268 OA
ATOM      8  H   UNL A   1      34.281  30.018  24.237  1.00  0.00     0.163 HD
BRANCH   6   9
ATOM      9  C   UNL A   1      31.347  28.594  23.378  1.00  0.00     0.181 C 
ATOM     10  C   UNL A   1      30.837  28.149  24.761  1.00  0.00     0.085 C 
ATOM     11  C   UNL A   1      31.078  27.387  22.457  1.00  0.00     0.144 C 
ATOM     12  C   UNL A   1      30.538  26.657  24.623  1.00  0.00     0.072 C 
ATOM     13  C   UNL A   1      31.253  26.158  23.342  1.00  0.00     0.191 C 
BRANCH   9  14
ATOM     14  N   UNL A   1      30.492  29.699  22.833  1.00  0.00    -0.336 N 
ATOM     15  C   UNL A   1      29.144  29.345  22.412  1.00  0.00     0.331 C 
ATOM     16  H   UNL A   1      30.411  30.411  23.558  1.00  0.00     0.346 HD
ATOM     17  H   UNL A   1      30.964  30.003  21.982  1.00  0.00     0.346 HD
ENDBRANCH   9  14
BRANCH  13  18
ATOM     18  N   UNL A   1      32.624  25.652  23.441  1.00  0.00    -0.323 N 
ATOM     19  C   UNL A   1      33.016  24.248  22.318  1.00  0.00     0.324 C 
ATOM     20  C   UNL A   1      33.585  25.830  25.027  1.00  0.00     0.324 C 
ATOM     21  H   UNL A   1      33.126  26.434  23.020  1.00  0.00     0.348 HD
ATOM     22  C   UNL A   1      34.009  22.711  22.994  1.00  0.00     0.324 C 
ATOM     23  C   UNL A   1      34.625  24.278  25.705  1.00  0.00     0.324 C 
ATOM     24  N   UNL A   1      34.967  22.859  24.561  1.00  0.00    -0.328 N 
ATOM     25  C   UNL A   1      35.075  21.578  25.243  1.00  0.00     0.333 C 
ATOM     26  H   UNL A   1      35.884  23.145  24.219  1.00  0.00     0.348 HD
ENDBRANCH  13  18
ENDBRANCH   6   9
ENDBRANCH   4   5
ENDBRANCH   3   4
ENDBRANCH   2   3
ENDBRANCH   1   2
BRANCH   1  27
ATOM     27  C   UNL A   1      36.376  33.876  29.517  1.00  0.00     0.021 C 
BRANCH  27  28
ATOM     28  C   UNL A   1      37.285  33.023  30.377  1.00  0.00     0.116 C 
BRANCH  28  29
ATOM     29  N   UNL A   1      36.532  31.952  31.012  1.00  0.00    -0.352 N 
ATOM     30  C   UNL A   1      36.755  30.604  30.881  1.00  0.00     0.251 C 
ATOM     31  H   UNL A   1      35.785  32.222  31.594  1.00  0.00     0.163 HD
ATOM     32  O   UNL A   1      35.903  29.783  31.199  1.00  0.00    -0.269 OA
BRANCH  30  33
ATOM     33  C   UNL A   1      38.061  30.178  30.344  1.00  0.00     0.039 A 
ATOM     34  C   UNL A   1      38.247  30.087  28.965  1.00  0.00     0.014 A 
ATOM     35  C   UNL A   1      39.112  29.924  31.233  1.00  0.00     0.014 A 
ATOM     36  C   UNL A   1      39.507  29.746  28.472  1.00  0.00     0.010 A 
ATOM     37  C   UNL A   1      40.381  29.670  30.737  1.00  0.00     0.010 A 
ATOM     38  C   UNL A   1      40.579  29.539  29.356  1.00  0.00    -0.014 A 
BRANCH  38  39
ATOM     39  C   UNL A   1      41.899  29.078  28.870  1.00  0.00     0.031 A 
ATOM     40  C   UNL A   1      43.024  30.073  28.771  1.00  0.00     0.074 A 
ATOM     41  C   UNL A   1      42.066  27.803  28.469  1.00  0.00     0.049 A 
ATOM     42  N   UNL A   1      44.233  29.911  28.304  1.00  0.00    -0.248 NA
ATOM     43  C   UNL A   1      42.734  31.446  29.221  1.00  0.00     0.031 C 
ATOM     44  C   UNL A   1      41.027  26.772  28.465  1.00  0.00     0.029 A 
ATOM     45  N   UNL A   1      43.173  27.163  27.977  1.00  0.00    -0.354 N 
ATOM     46  C   UNL A   1      44.833  31.163  28.377  1.00  0.00     0.074 A 
ATOM     47  C   UNL A   1      43.840  32.086  28.874  1.00  0.00     0.031 C 
ATOM     48  C   UNL A   1      41.554  25.622  28.012  1.00  0.00     0.029 A 
ATOM     49  C   UNL A   1      42.956  25.840  27.673  1.00  0.00     0.049 A 
ATOM     50  H   UNL A   1      44.042  27.608  27.853  1.00  0.00     0.167 HD
ATOM     51  C   UNL A   1      46.111  31.506  28.088  1.00  0.00     0.037 A 
ATOM     52  C   UNL A   1      43.800  24.915  27.180  1.00  0.00     0.037 A 
ATOM     53  C   UNL A   1      47.105  30.565  27.649  1.00  0.00     0.049 A 
ATOM     54  C   UNL A   1      45.230  25.303  26.917  1.00  0.00     0.074 A 
ATOM     55  C   UNL A   1      48.447  30.782  27.399  1.00  0.00     0.029 A 
ATOM     56  N   UNL A   1      46.861  29.221  27.405  1.00  0.00    -0.354 N 
ATOM     57  N   UNL A   1      45.803  26.477  27.055  1.00  0.00    -0.248 NA
ATOM     58  C   UNL A   1      46.132  24.244  26.445  1.00  0.00     0.031 C 
ATOM     59  C   UNL A   1      49.011  29.573  26.977  1.00  0.00     0.029 A 
ATOM     60  C   UNL A   1      48.027  28.597  26.998  1.00  0.00     0.049 A 
ATOM     61  H   UNL A   1      45.988  28.777  27.506  1.00  0.00     0.167 HD
ATOM     62  C   UNL A   1      47.136  26.292  26.708  1.00  0.00     0.074 A 
ATOM     63  C   UNL A   1      47.286  24.891  26.366  1.00  0.00     0.031 C 
ATOM     64  C   UNL A   1      48.146  27.197  26.672  1.00  0.00     0.037 A 
BRANCH  51  65
ATOM     65  C   UNL A   1      46.497  32.949  28.256  1.00  0.00     0.058 A 
ATOM     66  C   UNL A   1      47.006  33.439  29.471  1.00  0.00     0.135 A 
ATOM     67  C   UNL A   1      46.359  33.854  27.192  1.00  0.00     0.135 A 
ATOM     68  F   UNL A   1      47.138  32.622  30.527  1.00  0.00    -0.206 F 
ATOM     69  C   UNL A   1      47.329  34.781  29.635  1.00  0.00     0.059 A 
ATOM     70  C   UNL A   1      46.704  35.196  27.326  1.00  0.00     0.059 A 
ATOM     71  F   UNL A   1      45.876  33.441  26.010  1.00  0.00    -0.206 F 
ATOM     72  C   UNL A   1      47.171  35.653  28.558  1.00  0.00     0.060 A 
BRANCH  72  73
ATOM     73  S   UNL A   1      47.592  37.394  28.786  1.00  0.00     0.124 S 
ATOM     74  O   UNL A   1      47.555  37.513  30.240  1.00  0.00    -0.237 OA
ATOM     75  O   UNL A   1      48.916  37.479  28.178  1.00  0.00    -0.237 OA
ATOM     76  O   UNL A   1      46.530  38.096  28.071  1.00  0.00    -0.744 OA
ENDBRANCH  72  73
ENDBRANCH  51  65
BRANCH  52  77
ATOM     77  C   UNL A   1      43.323  23.527  26.946  1.00  0.00     0.058 A 
ATOM     78  C   UNL A   1      43.118  23.044  25.644  1.00  0.00     0.135 A 
ATOM     79  C   UNL A   1      43.089  22.646  28.013  1.00  0.00     0.135 A 
ATOM     80  F   UNL A   1      43.326  23.850  24.591  1.00  0.00    -0.206 F 
ATOM     81  C   UNL A   1      42.687  21.743  25.407  1.00  0.00     0.059 A 
ATOM     82  C   UNL A   1      42.678  21.333  27.801  1.00  0.00     0.059 A 
ATOM     83  F   UNL A   1      43.290  23.052  29.276  1.00  0.00    -0.206 F 
ATOM     84  C   UNL A   1      42.472  20.894  26.494  1.00  0.00     0.060 A 
BRANCH  84  85
ATOM     85  S   UNL A   1      41.968  19.188  26.177  1.00  0.00     0.124 S 
ATOM     86  O   UNL A   1      40.534  19.340  25.964  1.00  0.00    -0.237 OA
ATOM     87  O   UNL A   1      42.757  18.849  24.996  1.00  0.00    -0.237 OA
ATOM     88  O   UNL A   1      42.356  18.492  27.399  1.00  0.00    -0.744 OA
ENDBRANCH  84  85
ENDBRANCH  52  77
BRANCH  64  89
ATOM     89  C   UNL A   1      49.504  26.696  26.276  1.00  0.00     0.058 A 
ATOM     90  C   UNL A   1      49.994  26.861  24.973  1.00  0.00     0.135 A 
ATOM     91  C   UNL A   1      50.348  26.103  27.229  1.00  0.00     0.135 A 
ATOM     92  F   UNL A   1      49.223  27.419  24.027  1.00  0.00    -0.206 F 
ATOM     93  C   UNL A   1      51.270  26.435  24.620  1.00  0.00     0.059 A 
ATOM     94  C   UNL A   1      51.635  25.692  26.905  1.00  0.00     0.059 A 
ATOM     95  F   UNL A   1      49.927  25.935  28.494  1.00  0.00    -0.206 F 
ATOM     96  C   UNL A   1      52.084  25.853  25.594  1.00  0.00     0.060 A 
BRANCH  96  97
ATOM     97  S   UNL A   1      53.751  25.340  25.135  1.00  0.00     0.124 S 
ATOM     98  O   UNL A   1      53.617  23.887  25.123  1.00  0.00    -0.237 OA
ATOM     99  O   UNL A   1      53.927  25.971  23.831  1.00  0.00    -0.237 OA
ATOM    100  O   UNL A   1      54.581  25.886  26.205  1.00  0.00    -0.744 OA
ENDBRANCH  96  97
ENDBRANCH  64  89
ENDBRANCH  38  39
ENDBRANCH  30  33
ENDBRANCH  28  29
ENDBRANCH  27  28
ENDBRANCH   1  27
TORSDOF 18
ENDMDL
MODEL 3
REMARK VINA RESULT:     -12.2      6.759     12.274
REMARK SMILES C[NH2+][C@@]1(C(=O)NCCCCCCNC(=O)c2ccc(-c3c4nc(c(-c5c(F)cc(S(=O)(=O)[O-])cc5F)c5ccc([nH]5)c(-c5c(F)cc(S(=O)(=O)[O-])cc5F)c5nc(c(-c6c(F)cc(S(=O)(=O)[O-])cc6F)c6ccc3[nH]6)C=C5)C=C4)cc2)CC[C@H]([NH+]2CC[NH+](C)CC2)C1
REMARK SMILES IDX 10 1 9 2 8 3 7 4 6 5 4 6 5 7 3 9 82 10 92 11 83 12 84 13
REMARK SMILES IDX 2 14 1 15 85 18 86 19 91 20 87 22 90 23 88 24 89 25 11 27
REMARK SMILES IDX 12 28 13 29 14 30 15 32 16 33 17 34 81 35 18 36 80 37 19 38
REMARK SMILES IDX 20 39 21 40 74 41 22 42 79 43 73 44 75 45 23 46 78 47 72 48
REMARK SMILES IDX 71 49 24 51 58 52 37 53 57 54 38 55 41 56 56 57 76 58 39 59
REMARK SMILES IDX 40 60 55 62 77 63 42 64 25 65 26 66 35 67 27 68 28 69 34 70
REMARK SMILES IDX 36 71 29 72 30 73 31 74 32 75 33 76 59 77 60 78 69 79 61 80
REMARK SMILES IDX 62 81 68 82 70 83 63 84 64 85 65 86 66 87 67 88 43 89 44 90
REMARK SMILES IDX 53 91 45 92 46 93 52 94 54 95 47 96 48 97 49 98 50 99 51 100
REMARK H PARENT 6 8 2 16 2 17 85 21 88 26 13 31 75 50 41 61
REMARK Flexibility Score: inf
ROOT
ATOM      1  C   UNL A   1      40.570  22.195  26.388  1.00  0.00     0.002 C 
ENDROOT
BRANCH   1   2
ATOM      2  C   UNL A   1      39.077  21.794  26.475  1.00  0.00     0.002 C 
BRANCH   2   3
ATOM      3  C   UNL A   1      37.864  22.615  25.580  1.00  0.00     0.021 C 
BRANCH   3   4
ATOM      4  C   UNL A   1      36.737  22.304  23.800  1.00  0.00     0.116 C 
BRANCH   4   5
ATOM      5  N   UNL A   1      35.234  22.645  23.399  1.00  0.00    -0.351 N 
ATOM      6  C   UNL A   1      33.962  22.431  23.813  1.00  0.00     0.281 C 
ATOM      7  O   UNL A   1      33.134  22.681  22.926  1.00  0.00    -0.268 OA
ATOM      8  H   UNL A   1      35.227  23.193  22.581  1.00  0.00     0.163 HD
BRANCH   6   9
ATOM      9  C   UNL A   1      33.573  21.943  25.242  1.00  0.00     0.181 C 
ATOM     10  C   UNL A   1      32.051  21.718  25.302  1.00  0.00     0.085 C 
ATOM     11  C   UNL A   1      33.857  22.984  26.343  1.00  0.00     0.144 C 
ATOM     12  C   UNL A   1      31.518  22.798  26.242  1.00  0.00     0.072 C 
ATOM     13  C   UNL A   1      32.623  23.877  26.382  1.00  0.00     0.191 C 
BRANCH   9  14
ATOM     14  N   UNL A   1      34.305  20.708  25.673  1.00  0.00    -0.336 N 
ATOM     15  C   UNL A   1      34.224  19.551  24.793  1.00  0.00     0.331 C 
ATOM     16  H   UNL A   1      35.290  20.952  25.770  1.00  0.00     0.346 HD
ATOM     17  H   UNL A   1      33.847  20.417  26.536  1.00  0.00     0.346 HD
ENDBRANCH   9  14
BRANCH  13  18
ATOM     18  N   UNL A   1      32.640  25.005  25.448  1.00  0.00    -0.323 N 
ATOM     19  C   UNL A   1      33.975  26.236  25.742  1.00  0.00     0.324 C 
ATOM     20  C   UNL A   1      31.072  25.563  24.610  1.00  0.00     0.324 C 
ATOM     21  H   UNL A   1      32.950  24.524  24.604  1.00  0.00     0.348 HD
ATOM     22  C   UNL A   1      33.571  28.144  25.677  1.00  0.00     0.324 C 
ATOM     23  C   UNL A   1      30.670  27.507  24.512  1.00  0.00     0.324 C 
ATOM     24  N   UNL A   1      32.027  28.722  24.856  1.00  0.00    -0.328 N 
ATOM     25  C   UNL A   1      31.553  29.973  25.431  1.00  0.00     0.333 C 
ATOM     26  H   UNL A   1      32.345  28.884  23.901  1.00  0.00     0.348 HD
ENDBRANCH  13  18
ENDBRANCH   6   9
ENDBRANCH   4   5
ENDBRANCH   3   4
ENDBRANCH   2   3
ENDBRANCH   1   2
BRANCH   1  27
ATOM     27  C   UNL A   1      41.284  22.383  27.722  1.00  0.00     0.021 C 
BRANCH  27  28
ATOM     28  C   UNL A   1      42.250  23.550  27.716  1.00  0.00     0.116 C 
BRANCH  28  29
ATOM     29  N   UNL A   1      42.229  24.225  26.427  1.00  0.00    -0.352 N 
ATOM     30  C   UNL A   1      41.702  25.463  26.159  1.00  0.00     0.251 C 
ATOM     31  H   UNL A   1      42.634  23.744  25.670  1.00  0.00     0.163 HD
ATOM     32  O   UNL A   1      41.457  25.818  25.012  1.00  0.00    -0.269 OA
BRANCH  30  33
ATOM     33  C   UNL A   1      41.439  26.355  27.304  1.00  0.00     0.039 A 
ATOM     34  C   UNL A   1      40.365  26.094  28.155  1.00  0.00     0.014 A 
ATOM     35  C   UNL A   1      42.310  27.422  27.549  1.00  0.00     0.014 A 
ATOM     36  C   UNL A   1      40.170  26.908  29.271  1.00  0.00     0.010 A 
ATOM     37  C   UNL A   1      42.163  28.176  28.703  1.00  0.00     0.010 A 
ATOM     38  C   UNL A   1      41.069  27.950  29.550  1.00  0.00    -0.014 A 
BRANCH  38  39
ATOM     39  C   UNL A   1      40.831  28.893  30.667  1.00  0.00     0.031 A 
ATOM     40  C   UNL A   1      41.666  28.766  31.913  1.00  0.00     0.074 A 
ATOM     41  C   UNL A   1      39.845  29.806  30.584  1.00  0.00     0.049 A 
ATOM     42  N   UNL A   1      41.581  29.428  33.036  1.00  0.00    -0.248 NA
ATOM     43  C   UNL A   1      42.709  27.725  31.908  1.00  0.00     0.031 C 
ATOM     44  C   UNL A   1      38.938  29.975  29.448  1.00  0.00     0.029 A 
ATOM     45  N   UNL A   1      39.437  30.758  31.481  1.00  0.00    -0.354 N 
ATOM     46  C   UNL A   1      42.535  28.865  33.876  1.00  0.00     0.074 A 
ATOM     47  C   UNL A   1      43.144  27.770  33.158  1.00  0.00     0.031 C 
ATOM     48  C   UNL A   1      38.091  30.985  29.710  1.00  0.00     0.029 A 
ATOM     49  C   UNL A   1      38.381  31.518  31.037  1.00  0.00     0.049 A 
ATOM     50  H   UNL A   1      39.858  30.885  32.362  1.00  0.00     0.167 HD
ATOM     51  C   UNL A   1      42.896  29.249  35.123  1.00  0.00     0.037 A 
ATOM     52  C   UNL A   1      37.728  32.530  31.638  1.00  0.00     0.037 A 
ATOM     53  C   UNL A   1      42.321  30.377  35.803  1.00  0.00     0.049 A 
ATOM     54  C   UNL A   1      38.180  32.976  33.003  1.00  0.00     0.074 A 
ATOM     55  C   UNL A   1      42.658  30.906  37.035  1.00  0.00     0.029 A 
ATOM     56  N   UNL A   1      41.290  31.157  35.298  1.00  0.00    -0.354 N 
ATOM     57  N   UNL A   1      39.131  32.477  33.759  1.00  0.00    -0.248 NA
ATOM     58  C   UNL A   1      37.485  34.128  33.591  1.00  0.00     0.031 C 
ATOM     59  C   UNL A   1      41.813  31.991  37.288  1.00  0.00     0.029 A 
ATOM     60  C   UNL A   1      40.973  32.159  36.198  1.00  0.00     0.049 A 
ATOM     61  H   UNL A   1      40.850  31.019  34.428  1.00  0.00     0.167 HD
ATOM     62  C   UNL A   1      39.162  33.268  34.902  1.00  0.00     0.074 A 
ATOM     63  C   UNL A   1      38.143  34.285  34.731  1.00  0.00     0.031 C 
ATOM     64  C   UNL A   1      39.958  33.163  35.995  1.00  0.00     0.037 A 
BRANCH  51  65
ATOM     65  C   UNL A   1      43.967  28.451  35.812  1.00  0.00     0.058 A 
ATOM     66  C   UNL A   1      45.331  28.741  35.634  1.00  0.00     0.135 A 
ATOM     67  C   UNL A   1      43.631  27.387  36.662  1.00  0.00     0.135 A 
ATOM     68  F   UNL A   1      45.710  29.735  34.815  1.00  0.00    -0.206 F 
ATOM     69  C   UNL A   1      46.322  27.979  36.243  1.00  0.00     0.059 A 
ATOM     70  C   UNL A   1      44.606  26.630  37.306  1.00  0.00     0.059 A 
ATOM     71  F   UNL A   1      42.344  27.064  36.866  1.00  0.00    -0.206 F 
ATOM     72  C   UNL A   1      45.949  26.923  37.075  1.00  0.00     0.060 A 
BRANCH  72  73
ATOM     73  S   UNL A   1      47.246  25.941  37.858  1.00  0.00     0.124 S 
ATOM     74  O   UNL A   1      48.353  26.892  37.887  1.00  0.00    -0.237 OA
ATOM     75  O   UNL A   1      46.656  25.618  39.153  1.00  0.00    -0.237 OA
ATOM     76  O   UNL A   1      47.413  24.812  36.949  1.00  0.00    -0.744 OA
ENDBRANCH  72  73
ENDBRANCH  51  65
BRANCH  52  77
ATOM     77  C   UNL A   1      36.610  33.212  30.936  1.00  0.00     0.058 A 
ATOM     78  C   UNL A   1      35.287  33.076  31.384  1.00  0.00     0.135 A 
ATOM     79  C   UNL A   1      36.841  34.034  29.823  1.00  0.00     0.135 A 
ATOM     80  F   UNL A   1      35.015  32.299  32.443  1.00  0.00    -0.206 F 
ATOM     81  C   UNL A   1      34.231  33.721  30.747  1.00  0.00     0.059 A 
ATOM     82  C   UNL A   1      35.805  34.706  29.182  1.00  0.00     0.059 A 
ATOM     83  F   UNL A   1      38.092  34.213  29.368  1.00  0.00    -0.206 F 
ATOM     84  C   UNL A   1      34.501  34.536  29.647  1.00  0.00     0.060 A 
BRANCH  84  85
ATOM     85  S   UNL A   1      33.133  35.415  28.860  1.00  0.00     0.124 S 
ATOM     86  O   UNL A   1      32.506  34.351  28.086  1.00  0.00    -0.237 OA
ATOM     87  O   UNL A   1      32.376  35.899  30.011  1.00  0.00    -0.237 OA
ATOM     88  O   UNL A   1      33.805  36.452  28.083  1.00  0.00    -0.744 OA
ENDBRANCH  84  85
ENDBRANCH  52  77
BRANCH  64  89
ATOM     89  C   UNL A   1      39.778  34.188  37.077  1.00  0.00     0.058 A 
ATOM     90  C   UNL A   1      39.046  33.904  38.239  1.00  0.00     0.135 A 
ATOM     91  C   UNL A   1      40.398  35.443  36.977  1.00  0.00     0.135 A 
ATOM     92  F   UNL A   1      38.432  32.719  38.379  1.00  0.00    -0.206 F 
ATOM     93  C   UNL A   1      38.917  34.840  39.260  1.00  0.00     0.059 A 
ATOM     94  C   UNL A   1      40.302  36.385  37.995  1.00  0.00     0.059 A 
ATOM     95  F   UNL A   1      41.119  35.756  35.888  1.00  0.00    -0.206 F 
ATOM     96  C   UNL A   1      39.551  36.077  39.128  1.00  0.00     0.060 A 
BRANCH  96  97
ATOM     97  S   UNL A   1      39.409  37.269  40.476  1.00  0.00     0.124 S 
ATOM     98  O   UNL A   1      38.666  36.501  41.469  1.00  0.00    -0.237 OA
ATOM     99  O   UNL A   1      40.805  37.544  40.802  1.00  0.00    -0.237 OA
ATOM    100  O   UNL A   1      38.684  38.382  39.869  1.00  0.00    -0.744 OA
ENDBRANCH  96  97
ENDBRANCH  64  89
ENDBRANCH  38  39
ENDBRANCH  30  33
ENDBRANCH  28  29
ENDBRANCH  27  28
ENDBRANCH   1  27
TORSDOF 18
ENDMDL
