MODEL 1
REMARK VINA RESULT:     -12.1      0.000      0.000
REMARK SMILES COc1ccc(C(=O)NCCCCCCNC(=O)c2ccc(-c3c4nc(c(-c5c(F)cc(S(=O)(=O)[O-])cc5F)c5ccc([nH]5)c(-c5c(F)cc(S(=O)(=O)[O-])cc5F)c5nc(c(-c6c(F)cc(S(=O)(=O)[O-])cc6F)c6ccc3[nH]6)C=C5)C=C4)cc2)cc1S(=O)(=O)N(C)Cc1cccc(F)c1
REMARK SMILES IDX 12 1 11 2 10 3 9 4 7 5 8 6 6 8 3 9 4 10 86 11 5 12 85 13
REMARK SMILES IDX 2 14 1 15 87 16 88 17 89 18 90 19 91 20 92 21 93 22 94 23
REMARK SMILES IDX 99 24 95 25 97 26 96 27 98 28 13 29 14 30 15 31 16 32 17 33
REMARK SMILES IDX 18 35 19 36 20 37 84 38 21 39 83 40 22 41 23 42 24 43 77 44
REMARK SMILES IDX 25 45 82 46 76 47 78 48 26 49 81 50 75 51 74 52 27 54 61 55
REMARK SMILES IDX 40 56 60 57 41 58 44 59 59 60 79 61 42 62 43 63 58 65 80 66
REMARK SMILES IDX 45 67 28 68 29 69 38 70 30 71 31 72 37 73 39 74 32 75 33 76
REMARK SMILES IDX 34 77 35 78 36 79 62 80 63 81 72 82 64 83 65 84 71 85 73 86
REMARK SMILES IDX 66 87 67 88 68 89 69 90 70 91 46 92 47 93 56 94 48 95 49 96
REMARK SMILES IDX 55 97 57 98 50 99 51 100 52 101 53 102 54 103
REMARK H PARENT 9 7 16 34 78 53 44 64
REMARK Flexibility Score: inf
ROOT
ATOM      1  C   UNL A   1      33.793  27.813  25.360  1.00  0.00     0.002 C 
ENDROOT
BRANCH   1   2
ATOM      2  C   UNL A   1      34.021  28.267  23.912  1.00  0.00     0.021 C 
BRANCH   2   3
ATOM      3  C   UNL A   1      32.738  28.250  23.075  1.00  0.00     0.116 C 
BRANCH   3   4
ATOM      4  N   UNL A   1      32.931  27.415  21.898  1.00  0.00    -0.352 N 
ATOM      5  C   UNL A   1      32.995  26.059  21.714  1.00  0.00     0.251 C 
ATOM      6  O   UNL A   1      33.189  25.639  20.572  1.00  0.00    -0.269 OA
ATOM      7  H   UNL A   1      33.036  27.929  21.067  1.00  0.00     0.163 HD
BRANCH   5   8
ATOM      8  C   UNL A   1      32.760  25.079  22.808  1.00  0.00     0.041 A 
ATOM      9  C   UNL A   1      32.149  23.429  25.015  1.00  0.00     0.138 A 
ATOM     10  C   UNL A   1      31.133  23.903  24.180  1.00  0.00     0.049 A 
ATOM     11  C   UNL A   1      33.475  23.700  24.688  1.00  0.00     0.125 A 
ATOM     12  C   UNL A   1      31.434  24.739  23.099  1.00  0.00     0.018 A 
ATOM     13  C   UNL A   1      33.772  24.483  23.554  1.00  0.00     0.039 A 
BRANCH   9  14
ATOM     14  O   UNL A   1      31.751  22.622  26.039  1.00  0.00    -0.495 OA
ATOM     15  C   UNL A   1      30.381  22.818  26.391  1.00  0.00     0.278 C 
ENDBRANCH   9  14
BRANCH  11  16
ATOM     16  S   UNL A   1      34.892  23.206  25.635  1.00  0.00     0.246 S 
ATOM     17  O   UNL A   1      35.949  24.127  25.264  1.00  0.00    -0.207 OA
ATOM     18  O   UNL A   1      34.427  23.127  27.005  1.00  0.00    -0.207 OA
BRANCH  16  19
ATOM     19  N   UNL A   1      35.376  21.651  25.156  1.00  0.00    -0.196 NA
ATOM     20  C   UNL A   1      36.812  21.342  25.306  1.00  0.00     0.125 C 
BRANCH  19  21
ATOM     21  C   UNL A   1      34.476  20.567  25.672  1.00  0.00     0.137 C 
BRANCH  21  22
ATOM     22  C   UNL A   1      33.921  19.626  24.624  1.00  0.00    -0.030 A 
ATOM     23  C   UNL A   1      32.799  19.985  23.857  1.00  0.00     0.005 A 
ATOM     24  C   UNL A   1      34.468  18.347  24.447  1.00  0.00     0.044 A 
ATOM     25  C   UNL A   1      32.212  19.067  22.979  1.00  0.00     0.003 A 
ATOM     26  C   UNL A   1      33.854  17.432  23.599  1.00  0.00     0.123 A 
ATOM     27  C   UNL A   1      32.729  17.778  22.867  1.00  0.00     0.039 A 
ATOM     28  F   UNL A   1      34.353  16.192  23.510  1.00  0.00    -0.207 F 
ENDBRANCH  21  22
ENDBRANCH  19  21
ENDBRANCH  16  19
ENDBRANCH  11  16
ENDBRANCH   5   8
ENDBRANCH   3   4
ENDBRANCH   2   3
ENDBRANCH   1   2
BRANCH   1  29
ATOM     29  C   UNL A   1      33.164  28.874  26.273  1.00  0.00     0.002 C 
BRANCH  29  30
ATOM     30  C   UNL A   1      34.134  29.943  26.785  1.00  0.00     0.021 C 
BRANCH  30  31
ATOM     31  C   UNL A   1      35.193  29.418  27.750  1.00  0.00     0.116 C 
BRANCH  31  32
ATOM     32  N   UNL A   1      35.263  30.226  28.958  1.00  0.00    -0.352 N 
ATOM     33  C   UNL A   1      36.297  30.354  29.853  1.00  0.00     0.251 C 
ATOM     34  H   UNL A   1      34.457  30.753  29.163  1.00  0.00     0.163 HD
ATOM     35  O   UNL A   1      36.109  30.891  30.940  1.00  0.00    -0.269 OA
BRANCH  33  36
ATOM     36  C   UNL A   1      37.633  29.830  29.501  1.00  0.00     0.039 A 
ATOM     37  C   UNL A   1      38.026  29.812  28.161  1.00  0.00     0.014 A 
ATOM     38  C   UNL A   1      38.495  29.362  30.497  1.00  0.00     0.014 A 
ATOM     39  C   UNL A   1      39.312  29.379  27.825  1.00  0.00     0.010 A 
ATOM     40  C   UNL A   1      39.797  28.994  30.167  1.00  0.00     0.010 A 
ATOM     41  C   UNL A   1      40.218  29.001  28.829  1.00  0.00    -0.014 A 
BRANCH  41  42
ATOM     42  C   UNL A   1      41.616  28.618  28.505  1.00  0.00     0.031 A 
ATOM     43  C   UNL A   1      42.693  29.665  28.456  1.00  0.00     0.074 A 
ATOM     44  C   UNL A   1      41.896  27.339  28.180  1.00  0.00     0.049 A 
ATOM     45  N   UNL A   1      43.946  29.545  28.101  1.00  0.00    -0.248 NA
ATOM     46  C   UNL A   1      42.304  31.035  28.830  1.00  0.00     0.031 C 
ATOM     47  C   UNL A   1      40.925  26.242  28.151  1.00  0.00     0.029 A 
ATOM     48  N   UNL A   1      43.073  26.749  27.799  1.00  0.00    -0.354 N 
ATOM     49  C   UNL A   1      44.491  30.820  28.197  1.00  0.00     0.074 A 
ATOM     50  C   UNL A   1      43.421  31.708  28.595  1.00  0.00     0.031 C 
ATOM     51  C   UNL A   1      41.551  25.111  27.789  1.00  0.00     0.029 A 
ATOM     52  C   UNL A   1      42.955  25.407  27.519  1.00  0.00     0.049 A 
ATOM     53  H   UNL A   1      43.925  27.239  27.730  1.00  0.00     0.167 HD
ATOM     54  C   UNL A   1      45.772  31.209  27.992  1.00  0.00     0.037 A 
ATOM     55  C   UNL A   1      43.869  24.519  27.082  1.00  0.00     0.037 A 
ATOM     56  C   UNL A   1      46.836  30.313  27.618  1.00  0.00     0.049 A 
ATOM     57  C   UNL A   1      45.281  24.979  26.848  1.00  0.00     0.074 A 
ATOM     58  C   UNL A   1      48.178  30.600  27.443  1.00  0.00     0.029 A 
ATOM     59  N   UNL A   1      46.678  28.960  27.359  1.00  0.00    -0.354 N 
ATOM     60  N   UNL A   1      45.794  26.178  27.000  1.00  0.00    -0.248 NA
ATOM     61  C   UNL A   1      46.242  23.969  26.382  1.00  0.00     0.031 C 
ATOM     62  C   UNL A   1      48.824  29.428  27.033  1.00  0.00     0.029 A 
ATOM     63  C   UNL A   1      47.895  28.401  27.001  1.00  0.00     0.049 A 
ATOM     64  H   UNL A   1      45.828  28.469  27.420  1.00  0.00     0.167 HD
ATOM     65  C   UNL A   1      47.140  26.060  26.674  1.00  0.00     0.074 A 
ATOM     66  C   UNL A   1      47.366  24.672  26.326  1.00  0.00     0.031 C 
ATOM     67  C   UNL A   1      48.103  27.015  26.662  1.00  0.00     0.037 A 
BRANCH  54  68
ATOM     68  C   UNL A   1      46.096  32.667  28.173  1.00  0.00     0.058 A 
ATOM     69  C   UNL A   1      46.535  33.176  29.407  1.00  0.00     0.135 A 
ATOM     70  C   UNL A   1      46.003  33.560  27.095  1.00  0.00     0.135 A 
ATOM     71  F   UNL A   1      46.629  32.370  30.477  1.00  0.00    -0.206 F 
ATOM     72  C   UNL A   1      46.839  34.523  29.572  1.00  0.00     0.059 A 
ATOM     73  C   UNL A   1      46.330  34.907  27.229  1.00  0.00     0.059 A 
ATOM     74  F   UNL A   1      45.589  33.128  25.892  1.00  0.00    -0.206 F 
ATOM     75  C   UNL A   1      46.733  35.381  28.476  1.00  0.00     0.060 A 
BRANCH  75  76
ATOM     76  S   UNL A   1      47.137  37.126  28.706  1.00  0.00     0.124 S 
ATOM     77  O   UNL A   1      47.956  37.078  29.913  1.00  0.00    -0.237 OA
ATOM     78  O   UNL A   1      47.847  37.447  27.471  1.00  0.00    -0.237 OA
ATOM     79  O   UNL A   1      45.831  37.760  28.858  1.00  0.00    -0.744 OA
ENDBRANCH  75  76
ENDBRANCH  54  68
BRANCH  55  80
ATOM     80  C   UNL A   1      43.477  23.104  26.852  1.00  0.00     0.058 A 
ATOM     81  C   UNL A   1      43.371  22.588  25.551  1.00  0.00     0.135 A 
ATOM     82  C   UNL A   1      43.218  22.234  27.924  1.00  0.00     0.135 A 
ATOM     83  F   UNL A   1      43.603  23.381  24.495  1.00  0.00    -0.206 F 
ATOM     84  C   UNL A   1      43.007  21.266  25.320  1.00  0.00     0.059 A 
ATOM     85  C   UNL A   1      42.877  20.901  27.717  1.00  0.00     0.059 A 
ATOM     86  F   UNL A   1      43.321  22.674  29.186  1.00  0.00    -0.206 F 
ATOM     87  C   UNL A   1      42.764  20.429  26.410  1.00  0.00     0.060 A 
BRANCH  87  88
ATOM     88  S   UNL A   1      42.338  18.701  26.098  1.00  0.00     0.124 S 
ATOM     89  O   UNL A   1      42.561  18.103  27.409  1.00  0.00    -0.237 OA
ATOM     90  O   UNL A   1      40.947  18.801  25.669  1.00  0.00    -0.237 OA
ATOM     91  O   UNL A   1      43.280  18.307  25.055  1.00  0.00    -0.744 OA
ENDBRANCH  87  88
ENDBRANCH  55  80
BRANCH  67  92
ATOM     92  C   UNL A   1      49.496  26.592  26.289  1.00  0.00     0.058 A 
ATOM     93  C   UNL A   1      50.001  26.785  24.994  1.00  0.00     0.135 A 
ATOM     94  C   UNL A   1      50.357  26.049  27.256  1.00  0.00     0.135 A 
ATOM     95  F   UNL A   1      49.216  27.292  24.031  1.00  0.00    -0.206 F 
ATOM     96  C   UNL A   1      51.309  26.440  24.667  1.00  0.00     0.059 A 
ATOM     97  C   UNL A   1      51.676  25.722  26.958  1.00  0.00     0.059 A 
ATOM     98  F   UNL A   1      49.926  25.852  28.512  1.00  0.00    -0.206 F 
ATOM     99  C   UNL A   1      52.141  25.915  25.658  1.00  0.00     0.060 A 
BRANCH  99 100
ATOM    100  S   UNL A   1      53.850  25.520  25.231  1.00  0.00     0.124 S 
ATOM    101  O   UNL A   1      53.924  24.108  25.592  1.00  0.00    -0.237 OA
ATOM    102  O   UNL A   1      53.890  25.812  23.802  1.00  0.00    -0.237 OA
ATOM    103  O   UNL A   1      54.628  26.425  26.071  1.00  0.00    -0.744 OA
ENDBRANCH  99 100
ENDBRANCH  67  92
ENDBRANCH  41  42
ENDBRANCH  33  36
ENDBRANCH  31  32
ENDBRANCH  30  31
ENDBRANCH  29  30
ENDBRANCH   1  29
TORSDOF 21
ENDMDL
MODEL 2
REMARK VINA RESULT:     -11.7      0.405      8.011
REMARK SMILES COc1ccc(C(=O)NCCCCCCNC(=O)c2ccc(-c3c4nc(c(-c5c(F)cc(S(=O)(=O)[O-])cc5F)c5ccc([nH]5)c(-c5c(F)cc(S(=O)(=O)[O-])cc5F)c5nc(c(-c6c(F)cc(S(=O)(=O)[O-])cc6F)c6ccc3[nH]6)C=C5)C=C4)cc2)cc1S(=O)(=O)N(C)Cc1cccc(F)c1
REMARK SMILES IDX 12 1 11 2 10 3 9 4 7 5 8 6 6 8 3 9 4 10 86 11 5 12 85 13
REMARK SMILES IDX 2 14 1 15 87 16 88 17 89 18 90 19 91 20 92 21 93 22 94 23
REMARK SMILES IDX 99 24 95 25 97 26 96 27 98 28 13 29 14 30 15 31 16 32 17 33
REMARK SMILES IDX 18 35 19 36 20 37 84 38 21 39 83 40 22 41 23 42 24 43 77 44
REMARK SMILES IDX 25 45 82 46 76 47 78 48 26 49 81 50 75 51 74 52 27 54 61 55
REMARK SMILES IDX 40 56 60 57 41 58 44 59 59 60 79 61 42 62 43 63 58 65 80 66
REMARK SMILES IDX 45 67 28 68 29 69 38 70 30 71 31 72 37 73 39 74 32 75 33 76
REMARK SMILES IDX 34 77 35 78 36 79 62 80 63 81 72 82 64 83 65 84 71 85 73 86
REMARK SMILES IDX 66 87 67 88 68 89 69 90 70 91 46 92 47 93 56 94 48 95 49 96
REMARK SMILES IDX 55 97 57 98 50 99 51 100 52 101 53 102 54 103
REMARK H PARENT 9 7 16 34 78 53 44 64
REMARK Flexibility Score: inf
ROOT
ATOM      1  C   UNL A   1      33.861  28.260  24.904  1.00  0.00     0.002 C 
ENDROOT
BRANCH   1   2
ATOM      2  C   UNL A   1      33.567  28.794  23.495  1.00  0.00     0.021 C 
BRANCH   2   3
ATOM      3  C   UNL A   1      32.291  28.202  22.890  1.00  0.00     0.116 C 
BRANCH   3   4
ATOM      4  N   UNL A   1      32.634  27.337  21.770  1.00  0.00    -0.352 N 
ATOM      5  C   UNL A   1      32.840  25.987  21.659  1.00  0.00     0.251 C 
ATOM      6  O   UNL A   1      33.143  25.536  20.554  1.00  0.00    -0.269 OA
ATOM      7  H   UNL A   1      32.740  27.821  20.920  1.00  0.00     0.163 HD
BRANCH   5   8
ATOM      8  C   UNL A   1      32.633  25.039  22.788  1.00  0.00     0.041 A 
ATOM      9  C   UNL A   1      32.083  23.456  25.058  1.00  0.00     0.138 A 
ATOM     10  C   UNL A   1      31.044  23.918  24.246  1.00  0.00     0.049 A 
ATOM     11  C   UNL A   1      33.400  23.703  24.677  1.00  0.00     0.125 A 
ATOM     12  C   UNL A   1      31.315  24.721  23.134  1.00  0.00     0.018 A 
ATOM     13  C   UNL A   1      33.665  24.453  23.513  1.00  0.00     0.039 A 
BRANCH   9  14
ATOM     14  O   UNL A   1      31.714  22.681  26.117  1.00  0.00    -0.495 OA
ATOM     15  C   UNL A   1      30.458  23.073  26.671  1.00  0.00     0.278 C 
ENDBRANCH   9  14
BRANCH  11  16
ATOM     16  S   UNL A   1      34.844  23.219  25.587  1.00  0.00     0.246 S 
ATOM     17  O   UNL A   1      35.818  24.271  25.362  1.00  0.00    -0.207 OA
ATOM     18  O   UNL A   1      34.372  22.922  26.924  1.00  0.00    -0.207 OA
BRANCH  16  19
ATOM     19  N   UNL A   1      35.475  21.788  24.926  1.00  0.00    -0.196 NA
ATOM     20  C   UNL A   1      36.943  21.729  24.784  1.00  0.00     0.125 C 
BRANCH  19  21
ATOM     21  C   UNL A   1      34.883  20.548  25.529  1.00  0.00     0.137 C 
BRANCH  21  22
ATOM     22  C   UNL A   1      34.133  19.649  24.568  1.00  0.00    -0.030 A 
ATOM     23  C   UNL A   1      32.966  20.098  23.927  1.00  0.00     0.005 A 
ATOM     24  C   UNL A   1      34.545  18.326  24.354  1.00  0.00     0.044 A 
ATOM     25  C   UNL A   1      32.206  19.227  23.138  1.00  0.00     0.003 A 
ATOM     26  C   UNL A   1      33.762  17.460  23.598  1.00  0.00     0.123 A 
ATOM     27  C   UNL A   1      32.595  17.896  22.992  1.00  0.00     0.039 A 
ATOM     28  F   UNL A   1      34.140  16.181  23.476  1.00  0.00    -0.207 F 
ENDBRANCH  21  22
ENDBRANCH  19  21
ENDBRANCH  16  19
ENDBRANCH  11  16
ENDBRANCH   5   8
ENDBRANCH   3   4
ENDBRANCH   2   3
ENDBRANCH   1   2
BRANCH   1  29
ATOM     29  C   UNL A   1      33.374  29.162  26.045  1.00  0.00     0.002 C 
BRANCH  29  30
ATOM     30  C   UNL A   1      33.981  28.853  27.416  1.00  0.00     0.021 C 
BRANCH  30  31
ATOM     31  C   UNL A   1      35.355  29.474  27.647  1.00  0.00     0.116 C 
BRANCH  31  32
ATOM     32  N   UNL A   1      35.437  30.127  28.946  1.00  0.00    -0.352 N 
ATOM     33  C   UNL A   1      36.490  30.169  29.826  1.00  0.00     0.251 C 
ATOM     34  H   UNL A   1      34.625  30.604  29.232  1.00  0.00     0.163 HD
ATOM     35  O   UNL A   1      36.315  30.561  30.976  1.00  0.00    -0.269 OA
BRANCH  33  36
ATOM     36  C   UNL A   1      37.828  29.728  29.384  1.00  0.00     0.039 A 
ATOM     37  C   UNL A   1      38.129  29.729  28.020  1.00  0.00     0.014 A 
ATOM     38  C   UNL A   1      38.783  29.316  30.317  1.00  0.00     0.014 A 
ATOM     39  C   UNL A   1      39.413  29.376  27.597  1.00  0.00     0.010 A 
ATOM     40  C   UNL A   1      40.079  29.027  29.900  1.00  0.00     0.010 A 
ATOM     41  C   UNL A   1      40.407  29.056  28.536  1.00  0.00    -0.014 A 
BRANCH  41  42
ATOM     42  C   UNL A   1      41.800  28.759  28.117  1.00  0.00     0.031 A 
ATOM     43  C   UNL A   1      42.195  27.355  27.749  1.00  0.00     0.074 A 
ATOM     44  C   UNL A   1      42.725  29.740  28.143  1.00  0.00     0.049 A 
ATOM     45  N   UNL A   1      43.377  26.881  27.451  1.00  0.00    -0.248 NA
ATOM     46  C   UNL A   1      41.123  26.346  27.741  1.00  0.00     0.031 C 
ATOM     47  C   UNL A   1      42.471  31.132  28.524  1.00  0.00     0.029 A 
ATOM     48  N   UNL A   1      44.067  29.715  27.859  1.00  0.00    -0.354 N 
ATOM     49  C   UNL A   1      43.195  25.521  27.232  1.00  0.00     0.074 A 
ATOM     50  C   UNL A   1      41.798  25.236  27.480  1.00  0.00     0.031 C 
ATOM     51  C   UNL A   1      43.615  31.828  28.433  1.00  0.00     0.029 A 
ATOM     52  C   UNL A   1      44.691  30.928  28.029  1.00  0.00     0.049 A 
ATOM     53  H   UNL A   1      44.539  28.904  27.562  1.00  0.00     0.167 HD
ATOM     54  C   UNL A   1      44.106  24.598  26.840  1.00  0.00     0.037 A 
ATOM     55  C   UNL A   1      45.986  31.274  27.891  1.00  0.00     0.037 A 
ATOM     56  C   UNL A   1      45.490  24.896  26.573  1.00  0.00     0.049 A 
ATOM     57  C   UNL A   1      46.981  30.229  27.468  1.00  0.00     0.074 A 
ATOM     58  C   UNL A   1      46.479  24.044  26.116  1.00  0.00     0.029 A 
ATOM     59  N   UNL A   1      46.080  26.140  26.744  1.00  0.00    -0.354 N 
ATOM     60  N   UNL A   1      46.781  28.958  27.207  1.00  0.00    -0.248 NA
ATOM     61  C   UNL A   1      48.378  30.660  27.320  1.00  0.00     0.031 C 
ATOM     62  C   UNL A   1      47.678  24.762  26.053  1.00  0.00     0.029 A 
ATOM     63  C   UNL A   1      47.426  26.072  26.424  1.00  0.00     0.049 A 
ATOM     64  H   UNL A   1      45.612  26.950  27.047  1.00  0.00     0.167 HD
ATOM     65  C   UNL A   1      48.021  28.446  26.840  1.00  0.00     0.074 A 
ATOM     66  C   UNL A   1      48.962  29.544  26.903  1.00  0.00     0.031 C 
ATOM     67  C   UNL A   1      48.350  27.179  26.486  1.00  0.00     0.037 A 
BRANCH  54  68
ATOM     68  C   UNL A   1      43.634  23.180  26.669  1.00  0.00     0.058 A 
ATOM     69  C   UNL A   1      43.502  22.596  25.398  1.00  0.00     0.135 A 
ATOM     70  C   UNL A   1      43.345  22.383  27.788  1.00  0.00     0.135 A 
ATOM     71  F   UNL A   1      43.752  23.316  24.293  1.00  0.00    -0.206 F 
ATOM     72  C   UNL A   1      43.071  21.283  25.242  1.00  0.00     0.059 A 
ATOM     73  C   UNL A   1      42.940  21.057  27.656  1.00  0.00     0.059 A 
ATOM     74  F   UNL A   1      43.454  22.890  29.026  1.00  0.00    -0.206 F 
ATOM     75  C   UNL A   1      42.792  20.522  26.378  1.00  0.00     0.060 A 
BRANCH  75  76
ATOM     76  S   UNL A   1      42.239  18.817  26.157  1.00  0.00     0.124 S 
ATOM     77  O   UNL A   1      40.848  19.012  25.760  1.00  0.00    -0.237 OA
ATOM     78  O   UNL A   1      43.134  18.331  25.111  1.00  0.00    -0.237 OA
ATOM     79  O   UNL A   1      42.438  18.221  27.475  1.00  0.00    -0.744 OA
ENDBRANCH  75  76
ENDBRANCH  54  68
BRANCH  55  80
ATOM     80  C   UNL A   1      46.410  32.677  28.140  1.00  0.00     0.058 A 
ATOM     81  C   UNL A   1      46.893  33.071  29.398  1.00  0.00     0.135 A 
ATOM     82  C   UNL A   1      46.358  33.647  27.126  1.00  0.00     0.135 A 
ATOM     83  F   UNL A   1      46.956  32.181  30.400  1.00  0.00    -0.206 F 
ATOM     84  C   UNL A   1      47.294  34.379  29.647  1.00  0.00     0.059 A 
ATOM     85  C   UNL A   1      46.778  34.956  27.345  1.00  0.00     0.059 A 
ATOM     86  F   UNL A   1      45.920  33.318  25.902  1.00  0.00    -0.206 F 
ATOM     87  C   UNL A   1      47.236  35.314  28.612  1.00  0.00     0.060 A 
BRANCH  87  88
ATOM     88  S   UNL A   1      47.804  36.999  28.934  1.00  0.00     0.124 S 
ATOM     89  O   UNL A   1      46.556  37.748  28.860  1.00  0.00    -0.237 OA
ATOM     90  O   UNL A   1      48.398  36.874  30.261  1.00  0.00    -0.237 OA
ATOM     91  O   UNL A   1      48.753  37.244  27.852  1.00  0.00    -0.744 OA
ENDBRANCH  87  88
ENDBRANCH  55  80
BRANCH  67  92
ATOM     92  C   UNL A   1      49.780  26.913  26.108  1.00  0.00     0.058 A 
ATOM     93  C   UNL A   1      50.707  26.420  27.040  1.00  0.00     0.135 A 
ATOM     94  C   UNL A   1      50.210  27.089  24.783  1.00  0.00     0.135 A 
ATOM     95  F   UNL A   1      50.349  26.242  28.320  1.00  0.00    -0.206 F 
ATOM     96  C   UNL A   1      52.016  26.125  26.673  1.00  0.00     0.059 A 
ATOM     97  C   UNL A   1      51.507  26.776  24.389  1.00  0.00     0.059 A 
ATOM     98  F   UNL A   1      49.360  27.550  23.852  1.00  0.00    -0.206 F 
ATOM     99  C   UNL A   1      52.406  26.300  25.344  1.00  0.00     0.060 A 
BRANCH  99 100
ATOM    100  S   UNL A   1      54.093  25.866  24.872  1.00  0.00     0.124 S 
ATOM    101  O   UNL A   1      54.082  24.417  25.041  1.00  0.00    -0.237 OA
ATOM    102  O   UNL A   1      54.163  26.342  23.493  1.00  0.00    -0.237 OA
ATOM    103  O   UNL A   1      54.913  26.605  25.826  1.00  0.00    -0.744 OA
ENDBRANCH  99 100
ENDBRANCH  67  92
ENDBRANCH  41  42
ENDBRANCH  33  36
ENDBRANCH  31  32
ENDBRANCH  30  31
ENDBRANCH  29  30
ENDBRANCH   1  29
TORSDOF 21
ENDMDL
MODEL 3
REMARK VINA RESULT:     -11.4      1.345      2.070
REMARK SMILES COc1ccc(C(=O)NCCCCCCNC(=O)c2ccc(-c3c4nc(c(-c5c(F)cc(S(=O)(=O)[O-])cc5F)c5ccc([nH]5)c(-c5c(F)cc(S(=O)(=O)[O-])cc5F)c5nc(c(-c6c(F)cc(S(=O)(=O)[O-])cc6F)c6ccc3[nH]6)C=C5)C=C4)cc2)cc1S(=O)(=O)N(C)Cc1cccc(F)c1
REMARK SMILES IDX 12 1 11 2 10 3 9 4 7 5 8 6 6 8 3 9 4 10 86 11 5 12 85 13
REMARK SMILES IDX 2 14 1 15 87 16 88 17 89 18 90 19 91 20 92 21 93 22 94 23
REMARK SMILES IDX 99 24 95 25 97 26 96 27 98 28 13 29 14 30 15 31 16 32 17 33
REMARK SMILES IDX 18 35 19 36 20 37 84 38 21 39 83 40 22 41 23 42 24 43 77 44
REMARK SMILES IDX 25 45 82 46 76 47 78 48 26 49 81 50 75 51 74 52 27 54 61 55
REMARK SMILES IDX 40 56 60 57 41 58 44 59 59 60 79 61 42 62 43 63 58 65 80 66
REMARK SMILES IDX 45 67 28 68 29 69 38 70 30 71 31 72 37 73 39 74 32 75 33 76
REMARK SMILES IDX 34 77 35 78 36 79 62 80 63 81 72 82 64 83 65 84 71 85 73 86
REMARK SMILES IDX 66 87 67 88 68 89 69 90 70 91 46 92 47 93 56 94 48 95 49 96
REMARK SMILES IDX 55 97 57 98 50 99 51 100 52 101 53 102 54 103
REMARK H PARENT 9 7 16 34 78 53 44 64
REMARK Flexibility Score: inf
ROOT
ATOM      1  C   UNL A   1      33.529  31.846  27.626  1.00  0.00     0.002 C 
ENDROOT
BRANCH   1   2
ATOM      2  C   UNL A   1      32.942  30.497  27.188  1.00  0.00     0.021 C 
BRANCH   2   3
ATOM      3  C   UNL A   1      34.017  29.489  26.772  1.00  0.00     0.116 C 
BRANCH   3   4
ATOM      4  N   UNL A   1      33.956  29.272  25.334  1.00  0.00    -0.352 N 
ATOM      5  C   UNL A   1      33.637  28.185  24.564  1.00  0.00     0.251 C 
ATOM      6  O   UNL A   1      33.693  28.306  23.339  1.00  0.00    -0.269 OA
ATOM      7  H   UNL A   1      34.192  30.069  24.808  1.00  0.00     0.163 HD
BRANCH   5   8
ATOM      8  C   UNL A   1      33.148  26.901  25.136  1.00  0.00     0.041 A 
ATOM      9  C   UNL A   1      32.191  24.610  26.477  1.00  0.00     0.138 A 
ATOM     10  C   UNL A   1      31.387  25.746  26.350  1.00  0.00     0.049 A 
ATOM     11  C   UNL A   1      33.434  24.587  25.849  1.00  0.00     0.125 A 
ATOM     12  C   UNL A   1      31.869  26.889  25.704  1.00  0.00     0.018 A 
ATOM     13  C   UNL A   1      33.882  25.719  25.138  1.00  0.00     0.039 A 
BRANCH   9  14
ATOM     14  O   UNL A   1      31.627  23.549  27.123  1.00  0.00    -0.495 OA
ATOM     15  C   UNL A   1      30.720  22.823  26.294  1.00  0.00     0.278 C 
ENDBRANCH   9  14
BRANCH  11  16
ATOM     16  S   UNL A   1      34.599  23.250  25.918  1.00  0.00     0.246 S 
ATOM     17  O   UNL A   1      35.799  23.746  25.273  1.00  0.00    -0.207 OA
ATOM     18  O   UNL A   1      34.621  22.835  27.305  1.00  0.00    -0.207 OA
BRANCH  16  19
ATOM     19  N   UNL A   1      34.020  21.950  24.992  1.00  0.00    -0.196 NA
ATOM     20  C   UNL A   1      33.554  22.277  23.630  1.00  0.00     0.125 C 
BRANCH  19  21
ATOM     21  C   UNL A   1      34.913  20.745  25.044  1.00  0.00     0.137 C 
BRANCH  21  22
ATOM     22  C   UNL A   1      34.213  19.408  24.923  1.00  0.00    -0.030 A 
ATOM     23  C   UNL A   1      32.918  19.226  25.439  1.00  0.00     0.005 A 
ATOM     24  C   UNL A   1      34.867  18.303  24.362  1.00  0.00     0.044 A 
ATOM     25  C   UNL A   1      32.321  17.960  25.439  1.00  0.00     0.003 A 
ATOM     26  C   UNL A   1      34.280  17.043  24.401  1.00  0.00     0.123 A 
ATOM     27  C   UNL A   1      33.015  16.861  24.938  1.00  0.00     0.039 A 
ATOM     28  F   UNL A   1      34.962  15.992  23.928  1.00  0.00    -0.207 F 
ENDBRANCH  21  22
ENDBRANCH  19  21
ENDBRANCH  16  19
ENDBRANCH  11  16
ENDBRANCH   5   8
ENDBRANCH   3   4
ENDBRANCH   2   3
ENDBRANCH   1   2
BRANCH   1  29
ATOM     29  C   UNL A   1      34.962  31.776  28.168  1.00  0.00     0.002 C 
BRANCH  29  30
ATOM     30  C   UNL A   1      35.579  33.128  28.539  1.00  0.00     0.021 C 
BRANCH  30  31
ATOM     31  C   UNL A   1      36.550  33.071  29.715  1.00  0.00     0.116 C 
BRANCH  31  32
ATOM     32  N   UNL A   1      36.136  32.087  30.704  1.00  0.00    -0.352 N 
ATOM     33  C   UNL A   1      36.723  30.889  31.028  1.00  0.00     0.251 C 
ATOM     34  H   UNL A   1      35.322  32.311  31.210  1.00  0.00     0.163 HD
ATOM     35  O   UNL A   1      36.118  30.072  31.716  1.00  0.00    -0.269 OA
BRANCH  33  36
ATOM     36  C   UNL A   1      38.081  30.585  30.533  1.00  0.00     0.039 A 
ATOM     37  C   UNL A   1      39.128  30.464  31.450  1.00  0.00     0.014 A 
ATOM     38  C   UNL A   1      38.317  30.419  29.166  1.00  0.00     0.014 A 
ATOM     39  C   UNL A   1      40.403  30.113  30.998  1.00  0.00     0.010 A 
ATOM     40  C   UNL A   1      39.571  30.006  28.725  1.00  0.00     0.010 A 
ATOM     41  C   UNL A   1      40.626  29.848  29.637  1.00  0.00    -0.014 A 
BRANCH  41  42
ATOM     42  C   UNL A   1      41.950  29.393  29.144  1.00  0.00     0.031 A 
ATOM     43  C   UNL A   1      43.086  30.370  29.020  1.00  0.00     0.074 A 
ATOM     44  C   UNL A   1      42.104  28.117  28.735  1.00  0.00     0.049 A 
ATOM     45  N   UNL A   1      44.282  30.187  28.523  1.00  0.00    -0.248 NA
ATOM     46  C   UNL A   1      42.836  31.741  29.493  1.00  0.00     0.031 C 
ATOM     47  C   UNL A   1      41.062  27.087  28.767  1.00  0.00     0.029 A 
ATOM     48  N   UNL A   1      43.189  27.471  28.200  1.00  0.00    -0.354 N 
ATOM     49  C   UNL A   1      44.921  31.418  28.612  1.00  0.00     0.074 A 
ATOM     50  C   UNL A   1      43.965  32.352  29.165  1.00  0.00     0.031 C 
ATOM     51  C   UNL A   1      41.564  25.938  28.289  1.00  0.00     0.029 A 
ATOM     52  C   UNL A   1      42.948  26.156  27.878  1.00  0.00     0.049 A 
ATOM     53  H   UNL A   1      44.060  27.909  28.059  1.00  0.00     0.167 HD
ATOM     54  C   UNL A   1      46.197  31.734  28.284  1.00  0.00     0.037 A 
ATOM     55  C   UNL A   1      43.746  25.234  27.304  1.00  0.00     0.037 A 
ATOM     56  C   UNL A   1      47.150  30.791  27.755  1.00  0.00     0.049 A 
ATOM     57  C   UNL A   1      45.153  25.613  26.935  1.00  0.00     0.074 A 
ATOM     58  C   UNL A   1      48.482  30.999  27.444  1.00  0.00     0.029 A 
ATOM     59  N   UNL A   1      46.871  29.465  27.457  1.00  0.00    -0.354 N 
ATOM     60  N   UNL A   1      45.761  26.767  27.081  1.00  0.00    -0.248 NA
ATOM     61  C   UNL A   1      45.986  24.569  26.322  1.00  0.00     0.031 C 
ATOM     62  C   UNL A   1      48.997  29.810  26.916  1.00  0.00     0.029 A 
ATOM     63  C   UNL A   1      48.000  28.848  26.943  1.00  0.00     0.049 A 
ATOM     64  H   UNL A   1      46.000  29.027  27.591  1.00  0.00     0.167 HD
ATOM     65  C   UNL A   1      47.053  26.579  26.602  1.00  0.00     0.074 A 
ATOM     66  C   UNL A   1      47.143  25.199  26.171  1.00  0.00     0.031 C 
ATOM     67  C   UNL A   1      48.073  27.470  26.524  1.00  0.00     0.037 A 
BRANCH  54  68
ATOM     68  C   UNL A   1      46.639  33.157  28.490  1.00  0.00     0.058 A 
ATOM     69  C   UNL A   1      47.201  33.584  29.704  1.00  0.00     0.135 A 
ATOM     70  C   UNL A   1      46.534  34.096  27.452  1.00  0.00     0.135 A 
ATOM     71  F   UNL A   1      47.313  32.732  30.735  1.00  0.00    -0.206 F 
ATOM     72  C   UNL A   1      47.615  34.899  29.892  1.00  0.00     0.059 A 
ATOM     73  C   UNL A   1      46.968  35.410  27.608  1.00  0.00     0.059 A 
ATOM     74  F   UNL A   1      46.005  33.742  26.270  1.00  0.00    -0.206 F 
ATOM     75  C   UNL A   1      47.494  35.805  28.837  1.00  0.00     0.060 A 
BRANCH  75  76
ATOM     76  S   UNL A   1      48.040  37.506  29.096  1.00  0.00     0.124 S 
ATOM     77  O   UNL A   1      47.157  37.933  30.177  1.00  0.00    -0.237 OA
ATOM     78  O   UNL A   1      49.444  37.331  29.457  1.00  0.00    -0.237 OA
ATOM     79  O   UNL A   1      47.803  38.140  27.803  1.00  0.00    -0.744 OA
ENDBRANCH  75  76
ENDBRANCH  54  68
BRANCH  55  80
ATOM     80  C   UNL A   1      43.234  23.860  27.059  1.00  0.00     0.058 A 
ATOM     81  C   UNL A   1      43.422  22.842  28.007  1.00  0.00     0.135 A 
ATOM     82  C   UNL A   1      42.536  23.539  25.884  1.00  0.00     0.135 A 
ATOM     83  F   UNL A   1      44.090  23.099  29.142  1.00  0.00    -0.206 F 
ATOM     84  C   UNL A   1      42.949  21.552  27.793  1.00  0.00     0.059 A 
ATOM     85  C   UNL A   1      42.031  22.262  25.660  1.00  0.00     0.059 A 
ATOM     86  F   UNL A   1      42.316  24.481  24.955  1.00  0.00    -0.206 F 
ATOM     87  C   UNL A   1      42.252  21.272  26.617  1.00  0.00     0.060 A 
BRANCH  87  88
ATOM     88  S   UNL A   1      41.601  19.605  26.371  1.00  0.00     0.124 S 
ATOM     89  O   UNL A   1      40.212  19.880  26.025  1.00  0.00    -0.237 OA
ATOM     90  O   UNL A   1      42.443  19.104  25.289  1.00  0.00    -0.237 OA
ATOM     91  O   UNL A   1      41.816  18.967  27.667  1.00  0.00    -0.744 OA
ENDBRANCH  87  88
ENDBRANCH  55  80
BRANCH  67  92
ATOM     92  C   UNL A   1      49.385  26.977  25.981  1.00  0.00     0.058 A 
ATOM     93  C   UNL A   1      49.745  27.174  24.639  1.00  0.00     0.135 A 
ATOM     94  C   UNL A   1      50.320  26.362  26.829  1.00  0.00     0.135 A 
ATOM     95  F   UNL A   1      48.885  27.750  23.785  1.00  0.00    -0.206 F 
ATOM     96  C   UNL A   1      50.983  26.764  24.153  1.00  0.00     0.059 A 
ATOM     97  C   UNL A   1      51.572  25.967  26.370  1.00  0.00     0.059 A 
ATOM     98  F   UNL A   1      50.028  26.158  28.123  1.00  0.00    -0.206 F 
ATOM     99  C   UNL A   1      51.893  26.167  25.028  1.00  0.00     0.060 A 
BRANCH  99 100
ATOM    100  S   UNL A   1      53.513  25.685  24.395  1.00  0.00     0.124 S 
ATOM    101  O   UNL A   1      54.388  26.635  25.072  1.00  0.00    -0.237 OA
ATOM    102  O   UNL A   1      53.621  24.298  24.837  1.00  0.00    -0.237 OA
ATOM    103  O   UNL A   1      53.382  25.867  22.953  1.00  0.00    -0.744 OA
ENDBRANCH  99 100
ENDBRANCH  67  92
ENDBRANCH  41  42
ENDBRANCH  33  36
ENDBRANCH  31  32
ENDBRANCH  30  31
ENDBRANCH  29  30
ENDBRANCH   1  29
TORSDOF 21
ENDMDL
