MODEL 1
REMARK VINA RESULT:     -11.7      0.000      0.000
REMARK SMILES Cc1cc2c(cc1S(=O)(=O)N(C)CC(=O)NCCCCCCNC(=O)c1ccc(-c3c4nc(c(-c5c(F)cc(S(=O)(=O)[O-])cc5F)c5ccc([nH]5)c(-c5c(F)cc(S(=O)(=O)[O-])cc5F)c5nc(c(-c6c(F)cc(S(=O)(=O)[O-])cc6F)c6ccc3[nH]6)C=C5)C=C4)cc1)OCC(=O)N2
REMARK SMILES IDX 19 1 18 2 17 3 16 4 14 5 15 6 13 8 11 9 12 10 8 11 9 12
REMARK SMILES IDX 10 13 7 14 1 15 2 16 3 17 4 18 6 19 5 20 96 21 92 22 94 23
REMARK SMILES IDX 93 25 95 26 20 27 21 28 22 29 23 30 24 31 25 33 26 34 27 35
REMARK SMILES IDX 91 36 28 37 90 38 29 39 30 40 31 41 84 42 32 43 89 44 83 45
REMARK SMILES IDX 85 46 33 47 88 48 82 49 81 50 34 52 68 53 47 54 67 55 48 56
REMARK SMILES IDX 51 57 66 58 86 59 49 60 50 61 65 63 87 64 52 65 35 66 36 67
REMARK SMILES IDX 45 68 37 69 38 70 44 71 46 72 39 73 40 74 41 75 42 76 43 77
REMARK SMILES IDX 69 78 70 79 79 80 71 81 72 82 78 83 80 84 73 85 74 86 75 87
REMARK SMILES IDX 76 88 77 89 53 90 54 91 63 92 55 93 56 94 62 95 64 96 57 97
REMARK SMILES IDX 58 98 59 99 60 100 61 101
REMARK H PARENT 16 7 96 24 23 32 85 51 51 62
REMARK Flexibility Score: inf
ROOT
ATOM      1  C   UNL A   1      31.834  29.166  26.517  1.00  0.00     0.002 C 
ENDROOT
BRANCH   1   2
ATOM      2  C   UNL A   1      31.434  27.836  27.155  1.00  0.00     0.021 C 
BRANCH   2   3
ATOM      3  C   UNL A   1      31.596  26.602  26.263  1.00  0.00     0.116 C 
BRANCH   3   4
ATOM      4  N   UNL A   1      31.807  25.405  27.056  1.00  0.00    -0.355 N 
ATOM      5  C   UNL A   1      31.563  24.089  26.777  1.00  0.00     0.235 C 
ATOM      6  O   UNL A   1      31.893  23.262  27.632  1.00  0.00    -0.274 OA
ATOM      7  H   UNL A   1      32.193  25.569  27.948  1.00  0.00     0.163 HD
BRANCH   5   8
ATOM      8  C   UNL A   1      30.958  23.652  25.443  1.00  0.00     0.202 C 
BRANCH   8   9
ATOM      9  N   UNL A   1      31.886  23.341  24.304  1.00  0.00    -0.192 NA
ATOM     10  C   UNL A   1      31.492  23.995  23.051  1.00  0.00     0.125 C 
BRANCH   9  11
ATOM     11  S   UNL A   1      32.257  21.676  24.197  1.00  0.00     0.243 S 
ATOM     12  O   UNL A   1      32.132  21.327  22.793  1.00  0.00    -0.207 OA
ATOM     13  O   UNL A   1      31.522  20.977  25.223  1.00  0.00    -0.207 OA
BRANCH  11  14
ATOM     14  C   UNL A   1      33.996  21.504  24.592  1.00  0.00     0.089 A 
ATOM     15  C   UNL A   1      34.085  18.932  24.402  1.00  0.00     0.046 C 
ATOM     16  C   UNL A   1      34.674  20.278  24.723  1.00  0.00    -0.029 A 
ATOM     17  C   UNL A   1      35.997  20.304  25.216  1.00  0.00     0.035 A 
ATOM     18  C   UNL A   1      36.649  21.514  25.477  1.00  0.00     0.084 A 
ATOM     19  C   UNL A   1      34.673  22.714  24.829  1.00  0.00     0.070 A 
ATOM     20  C   UNL A   1      35.995  22.721  25.256  1.00  0.00     0.144 A 
ATOM     21  N   UNL A   1      37.964  21.504  25.936  1.00  0.00    -0.320 N 
ATOM     22  O   UNL A   1      36.565  23.949  25.419  1.00  0.00    -0.482 OA
ATOM     23  C   UNL A   1      38.649  22.659  26.185  1.00  0.00     0.262 C 
ATOM     24  H   UNL A   1      38.412  20.640  26.084  1.00  0.00     0.170 HD
ATOM     25  C   UNL A   1      37.855  23.952  26.003  1.00  0.00     0.329 C 
ATOM     26  O   UNL A   1      39.821  22.643  26.552  1.00  0.00    -0.271 OA
ENDBRANCH  11  14
ENDBRANCH   9  11
ENDBRANCH   8   9
ENDBRANCH   5   8
ENDBRANCH   3   4
ENDBRANCH   2   3
ENDBRANCH   1   2
BRANCH   1  27
ATOM     27  C   UNL A   1      33.143  29.779  27.021  1.00  0.00     0.002 C 
BRANCH  27  28
ATOM     28  C   UNL A   1      34.364  28.855  27.019  1.00  0.00     0.021 C 
BRANCH  28  29
ATOM     29  C   UNL A   1      35.626  29.421  27.665  1.00  0.00     0.116 C 
BRANCH  29  30
ATOM     30  N   UNL A   1      35.447  29.751  29.070  1.00  0.00    -0.352 N 
ATOM     31  C   UNL A   1      36.382  29.829  30.076  1.00  0.00     0.251 C 
ATOM     32  H   UNL A   1      34.520  29.948  29.341  1.00  0.00     0.163 HD
ATOM     33  O   UNL A   1      36.024  29.981  31.239  1.00  0.00    -0.269 OA
BRANCH  31  34
ATOM     34  C   UNL A   1      37.818  29.695  29.753  1.00  0.00     0.039 A 
ATOM     35  C   UNL A   1      38.296  30.027  28.483  1.00  0.00     0.014 A 
ATOM     36  C   UNL A   1      38.693  29.208  30.727  1.00  0.00     0.014 A 
ATOM     37  C   UNL A   1      39.610  29.722  28.140  1.00  0.00     0.010 A 
ATOM     38  C   UNL A   1      40.032  28.969  30.401  1.00  0.00     0.010 A 
ATOM     39  C   UNL A   1      40.489  29.177  29.091  1.00  0.00    -0.014 A 
BRANCH  39  40
ATOM     40  C   UNL A   1      41.876  28.820  28.687  1.00  0.00     0.031 A 
ATOM     41  C   UNL A   1      42.206  27.427  28.220  1.00  0.00     0.074 A 
ATOM     42  C   UNL A   1      42.828  29.773  28.690  1.00  0.00     0.049 A 
ATOM     43  N   UNL A   1      43.354  26.946  27.813  1.00  0.00    -0.248 NA
ATOM     44  C   UNL A   1      41.112  26.443  28.212  1.00  0.00     0.031 C 
ATOM     45  C   UNL A   1      42.631  31.160  29.120  1.00  0.00     0.029 A 
ATOM     46  N   UNL A   1      44.144  29.730  28.302  1.00  0.00    -0.354 N 
ATOM     47  C   UNL A   1      43.126  25.606  27.520  1.00  0.00     0.074 A 
ATOM     48  C   UNL A   1      41.735  25.341  27.815  1.00  0.00     0.031 C 
ATOM     49  C   UNL A   1      43.769  31.845  28.930  1.00  0.00     0.029 A 
ATOM     50  C   UNL A   1      44.791  30.938  28.416  1.00  0.00     0.049 A 
ATOM     51  H   UNL A   1      44.582  28.912  27.974  1.00  0.00     0.167 HD
ATOM     52  C   UNL A   1      43.995  24.685  27.038  1.00  0.00     0.037 A 
ATOM     53  C   UNL A   1      46.066  31.278  28.148  1.00  0.00     0.037 A 
ATOM     54  C   UNL A   1      45.371  24.959  26.715  1.00  0.00     0.049 A 
ATOM     55  C   UNL A   1      47.012  30.234  27.629  1.00  0.00     0.074 A 
ATOM     56  C   UNL A   1      46.319  24.096  26.189  1.00  0.00     0.029 A 
ATOM     57  N   UNL A   1      45.998  26.185  26.883  1.00  0.00    -0.354 N 
ATOM     58  N   UNL A   1      46.773  28.975  27.349  1.00  0.00    -0.248 NA
ATOM     59  C   UNL A   1      48.403  30.650  27.398  1.00  0.00     0.031 C 
ATOM     60  C   UNL A   1      47.526  24.792  26.069  1.00  0.00     0.029 A 
ATOM     61  C   UNL A   1      47.322  26.097  26.486  1.00  0.00     0.049 A 
ATOM     62  H   UNL A   1      45.565  26.997  27.232  1.00  0.00     0.167 HD
ATOM     63  C   UNL A   1      47.982  28.449  26.911  1.00  0.00     0.074 A 
ATOM     64  C   UNL A   1      48.944  29.532  26.938  1.00  0.00     0.031 C 
ATOM     65  C   UNL A   1      48.269  27.182  26.525  1.00  0.00     0.037 A 
BRANCH  52  66
ATOM     66  C   UNL A   1      43.492  23.285  26.825  1.00  0.00     0.058 A 
ATOM     67  C   UNL A   1      43.305  22.760  25.538  1.00  0.00     0.135 A 
ATOM     68  C   UNL A   1      43.269  22.434  27.921  1.00  0.00     0.135 A 
ATOM     69  F   UNL A   1      43.488  23.537  24.458  1.00  0.00    -0.206 F 
ATOM     70  C   UNL A   1      42.905  21.442  25.343  1.00  0.00     0.059 A 
ATOM     71  C   UNL A   1      42.887  21.107  27.749  1.00  0.00     0.059 A 
ATOM     72  F   UNL A   1      43.432  22.890  29.173  1.00  0.00    -0.206 F 
ATOM     73  C   UNL A   1      42.701  20.622  26.454  1.00  0.00     0.060 A 
BRANCH  73  74
ATOM     74  S   UNL A   1      42.208  18.907  26.179  1.00  0.00     0.124 S 
ATOM     75  O   UNL A   1      43.130  18.507  25.120  1.00  0.00    -0.237 OA
ATOM     76  O   UNL A   1      42.445  18.302  27.486  1.00  0.00    -0.237 OA
ATOM     77  O   UNL A   1      40.807  19.014  25.784  1.00  0.00    -0.744 OA
ENDBRANCH  73  74
ENDBRANCH  52  66
BRANCH  53  78
ATOM     78  C   UNL A   1      46.516  32.674  28.378  1.00  0.00     0.058 A 
ATOM     79  C   UNL A   1      47.102  33.053  29.593  1.00  0.00     0.135 A 
ATOM     80  C   UNL A   1      46.400  33.647  27.373  1.00  0.00     0.135 A 
ATOM     81  F   UNL A   1      47.227  32.159  30.586  1.00  0.00    -0.206 F 
ATOM     82  C   UNL A   1      47.559  34.349  29.807  1.00  0.00     0.059 A 
ATOM     83  C   UNL A   1      46.871  34.942  27.553  1.00  0.00     0.059 A 
ATOM     84  F   UNL A   1      45.859  33.327  26.187  1.00  0.00    -0.206 F 
ATOM     85  C   UNL A   1      47.444  35.286  28.777  1.00  0.00     0.060 A 
BRANCH  85  86
ATOM     86  S   UNL A   1      48.103  36.947  29.037  1.00  0.00     0.124 S 
ATOM     87  O   UNL A   1      48.590  36.858  30.408  1.00  0.00    -0.237 OA
ATOM     88  O   UNL A   1      49.126  37.037  27.999  1.00  0.00    -0.237 OA
ATOM     89  O   UNL A   1      46.939  37.804  28.832  1.00  0.00    -0.744 OA
ENDBRANCH  85  86
ENDBRANCH  53  78
BRANCH  65  90
ATOM     90  C   UNL A   1      49.679  26.892  26.104  1.00  0.00     0.058 A 
ATOM     91  C   UNL A   1      50.631  26.418  27.020  1.00  0.00     0.135 A 
ATOM     92  C   UNL A   1      50.068  27.029  24.762  1.00  0.00     0.135 A 
ATOM     93  F   UNL A   1      50.309  26.277  28.316  1.00  0.00    -0.206 F 
ATOM     94  C   UNL A   1      51.925  26.100  26.622  1.00  0.00     0.059 A 
ATOM     95  C   UNL A   1      51.351  26.698  24.338  1.00  0.00     0.059 A 
ATOM     96  F   UNL A   1      49.191  27.472  23.846  1.00  0.00    -0.206 F 
ATOM     97  C   UNL A   1      52.275  26.241  25.278  1.00  0.00     0.060 A 
BRANCH  97  98
ATOM     98  S   UNL A   1      53.944  25.784  24.766  1.00  0.00     0.124 S 
ATOM     99  O   UNL A   1      53.897  24.329  24.875  1.00  0.00    -0.237 OA
ATOM    100  O   UNL A   1      54.013  26.317  23.409  1.00  0.00    -0.237 OA
ATOM    101  O   UNL A   1      54.795  26.459  25.742  1.00  0.00    -0.744 OA
ENDBRANCH  97  98
ENDBRANCH  65  90
ENDBRANCH  39  40
ENDBRANCH  31  34
ENDBRANCH  29  30
ENDBRANCH  28  29
ENDBRANCH  27  28
ENDBRANCH   1  27
TORSDOF 19
ENDMDL
MODEL 2
REMARK VINA RESULT:     -11.7      2.658      8.541
REMARK SMILES Cc1cc2c(cc1S(=O)(=O)N(C)CC(=O)NCCCCCCNC(=O)c1ccc(-c3c4nc(c(-c5c(F)cc(S(=O)(=O)[O-])cc5F)c5ccc([nH]5)c(-c5c(F)cc(S(=O)(=O)[O-])cc5F)c5nc(c(-c6c(F)cc(S(=O)(=O)[O-])cc6F)c6ccc3[nH]6)C=C5)C=C4)cc1)OCC(=O)N2
REMARK SMILES IDX 19 1 18 2 17 3 16 4 14 5 15 6 13 8 11 9 12 10 8 11 9 12
REMARK SMILES IDX 10 13 7 14 1 15 2 16 3 17 4 18 6 19 5 20 96 21 92 22 94 23
REMARK SMILES IDX 93 25 95 26 20 27 21 28 22 29 23 30 24 31 25 33 26 34 27 35
REMARK SMILES IDX 91 36 28 37 90 38 29 39 30 40 31 41 84 42 32 43 89 44 83 45
REMARK SMILES IDX 85 46 33 47 88 48 82 49 81 50 34 52 68 53 47 54 67 55 48 56
REMARK SMILES IDX 51 57 66 58 86 59 49 60 50 61 65 63 87 64 52 65 35 66 36 67
REMARK SMILES IDX 45 68 37 69 38 70 44 71 46 72 39 73 40 74 41 75 42 76 43 77
REMARK SMILES IDX 69 78 70 79 79 80 71 81 72 82 78 83 80 84 73 85 74 86 75 87
REMARK SMILES IDX 76 88 77 89 53 90 54 91 63 92 55 93 56 94 62 95 64 96 57 97
REMARK SMILES IDX 58 98 59 99 60 100 61 101
REMARK H PARENT 16 7 96 24 23 32 85 51 51 62
REMARK Flexibility Score: inf
ROOT
ATOM      1  C   UNL A   1      32.211  26.982  24.162  1.00  0.00     0.002 C 
ENDROOT
BRANCH   1   2
ATOM      2  C   UNL A   1      30.931  27.265  24.947  1.00  0.00     0.021 C 
BRANCH   2   3
ATOM      3  C   UNL A   1      30.083  26.037  25.289  1.00  0.00     0.116 C 
BRANCH   3   4
ATOM      4  N   UNL A   1      30.660  25.291  26.391  1.00  0.00    -0.355 N 
ATOM      5  C   UNL A   1      30.955  23.961  26.519  1.00  0.00     0.235 C 
ATOM      6  O   UNL A   1      31.497  23.603  27.568  1.00  0.00    -0.274 OA
ATOM      7  H   UNL A   1      30.879  25.835  27.183  1.00  0.00     0.163 HD
BRANCH   5   8
ATOM      8  C   UNL A   1      30.676  22.967  25.392  1.00  0.00     0.202 C 
BRANCH   8   9
ATOM      9  N   UNL A   1      31.728  22.764  24.339  1.00  0.00    -0.192 NA
ATOM     10  C   UNL A   1      31.390  23.403  23.062  1.00  0.00     0.125 C 
BRANCH   9  11
ATOM     11  S   UNL A   1      32.260  21.143  24.250  1.00  0.00     0.243 S 
ATOM     12  O   UNL A   1      32.142  20.759  22.855  1.00  0.00    -0.207 OA
ATOM     13  O   UNL A   1      31.619  20.393  25.303  1.00  0.00    -0.207 OA
BRANCH  11  14
ATOM     14  C   UNL A   1      34.015  21.150  24.609  1.00  0.00     0.089 A 
ATOM     15  C   UNL A   1      34.364  18.601  24.416  1.00  0.00     0.046 C 
ATOM     16  C   UNL A   1      34.818  20.001  24.726  1.00  0.00    -0.029 A 
ATOM     17  C   UNL A   1      36.141  20.163  25.192  1.00  0.00     0.035 A 
ATOM     18  C   UNL A   1      36.671  21.434  25.440  1.00  0.00     0.084 A 
ATOM     19  C   UNL A   1      34.569  22.424  24.832  1.00  0.00     0.070 A 
ATOM     20  C   UNL A   1      35.892  22.567  25.233  1.00  0.00     0.144 A 
ATOM     21  N   UNL A   1      37.989  21.560  25.871  1.00  0.00    -0.320 N 
ATOM     22  O   UNL A   1      36.336  23.848  25.384  1.00  0.00    -0.482 OA
ATOM     23  C   UNL A   1      38.557  22.779  26.107  1.00  0.00     0.262 C 
ATOM     24  H   UNL A   1      38.526  20.747  26.011  1.00  0.00     0.170 HD
ATOM     25  C   UNL A   1      37.631  23.984  25.942  1.00  0.00     0.329 C 
ATOM     26  O   UNL A   1      39.732  22.884  26.450  1.00  0.00    -0.271 OA
ENDBRANCH  11  14
ENDBRANCH   9  11
ENDBRANCH   8   9
ENDBRANCH   5   8
ENDBRANCH   3   4
ENDBRANCH   2   3
ENDBRANCH   1   2
BRANCH   1  27
ATOM     27  C   UNL A   1      33.502  26.946  24.984  1.00  0.00     0.002 C 
BRANCH  27  28
ATOM     28  C   UNL A   1      33.944  28.275  25.603  1.00  0.00     0.021 C 
BRANCH  28  29
ATOM     29  C   UNL A   1      33.844  28.366  27.123  1.00  0.00     0.116 C 
BRANCH  29  30
ATOM     30  N   UNL A   1      33.757  29.736  27.605  1.00  0.00    -0.352 N 
ATOM     31  C   UNL A   1      34.709  30.503  28.234  1.00  0.00     0.251 C 
ATOM     32  H   UNL A   1      32.889  30.178  27.459  1.00  0.00     0.163 HD
ATOM     33  O   UNL A   1      34.409  31.597  28.702  1.00  0.00    -0.269 OA
BRANCH  31  34
ATOM     34  C   UNL A   1      36.089  29.990  28.374  1.00  0.00     0.039 A 
ATOM     35  C   UNL A   1      36.523  29.436  29.580  1.00  0.00     0.014 A 
ATOM     36  C   UNL A   1      36.965  30.086  27.290  1.00  0.00     0.014 A 
ATOM     37  C   UNL A   1      37.870  29.130  29.752  1.00  0.00     0.010 A 
ATOM     38  C   UNL A   1      38.303  29.710  27.443  1.00  0.00     0.010 A 
ATOM     39  C   UNL A   1      38.778  29.276  28.690  1.00  0.00    -0.014 A 
BRANCH  39  40
ATOM     40  C   UNL A   1      40.219  28.981  28.911  1.00  0.00     0.031 A 
ATOM     41  C   UNL A   1      41.119  29.997  29.565  1.00  0.00     0.074 A 
ATOM     42  C   UNL A   1      40.704  27.771  28.572  1.00  0.00     0.049 A 
ATOM     43  N   UNL A   1      42.392  29.902  29.853  1.00  0.00    -0.248 NA
ATOM     44  C   UNL A   1      40.518  31.287  29.940  1.00  0.00     0.031 C 
ATOM     45  C   UNL A   1      39.931  26.703  27.934  1.00  0.00     0.029 A 
ATOM     46  N   UNL A   1      41.953  27.225  28.733  1.00  0.00    -0.354 N 
ATOM     47  C   UNL A   1      42.748  31.120  30.423  1.00  0.00     0.074 A 
ATOM     48  C   UNL A   1      41.562  31.948  30.422  1.00  0.00     0.031 C 
ATOM     49  C   UNL A   1      40.709  25.618  27.798  1.00  0.00     0.029 A 
ATOM     50  C   UNL A   1      42.048  25.928  28.291  1.00  0.00     0.049 A 
ATOM     51  H   UNL A   1      42.709  27.718  29.128  1.00  0.00     0.167 HD
ATOM     52  C   UNL A   1      43.951  31.506  30.913  1.00  0.00     0.037 A 
ATOM     53  C   UNL A   1      43.096  25.082  28.271  1.00  0.00     0.037 A 
ATOM     54  C   UNL A   1      45.122  30.670  30.942  1.00  0.00     0.049 A 
ATOM     55  C   UNL A   1      44.421  25.542  28.806  1.00  0.00     0.074 A 
ATOM     56  C   UNL A   1      46.377  30.965  31.450  1.00  0.00     0.029 A 
ATOM     57  N   UNL A   1      45.186  29.376  30.448  1.00  0.00    -0.354 N 
ATOM     58  N   UNL A   1      44.732  26.694  29.350  1.00  0.00    -0.248 NA
ATOM     59  C   UNL A   1      45.541  24.594  28.718  1.00  0.00     0.031 C 
ATOM     60  C   UNL A   1      47.208  29.861  31.234  1.00  0.00     0.029 A 
ATOM     61  C   UNL A   1      46.462  28.866  30.624  1.00  0.00     0.049 A 
ATOM     62  H   UNL A   1      44.437  28.893  30.033  1.00  0.00     0.167 HD
ATOM     63  C   UNL A   1      46.083  26.610  29.667  1.00  0.00     0.074 A 
ATOM     64  C   UNL A   1      46.523  25.285  29.278  1.00  0.00     0.031 C 
ATOM     65  C   UNL A   1      46.886  27.548  30.225  1.00  0.00     0.037 A 
BRANCH  52  66
ATOM     66  C   UNL A   1      44.072  32.900  31.462  1.00  0.00     0.058 A 
ATOM     67  C   UNL A   1      43.885  33.171  32.826  1.00  0.00     0.135 A 
ATOM     68  C   UNL A   1      44.457  33.964  30.628  1.00  0.00     0.135 A 
ATOM     69  F   UNL A   1      43.501  32.193  33.662  1.00  0.00    -0.206 F 
ATOM     70  C   UNL A   1      44.066  34.449  33.344  1.00  0.00     0.059 A 
ATOM     71  C   UNL A   1      44.662  35.247  31.128  1.00  0.00     0.059 A 
ATOM     72  F   UNL A   1      44.646  33.757  29.315  1.00  0.00    -0.206 F 
ATOM     73  C   UNL A   1      44.457  35.480  32.487  1.00  0.00     0.060 A 
BRANCH  73  74
ATOM     74  S   UNL A   1      44.712  37.126  33.184  1.00  0.00     0.124 S 
ATOM     75  O   UNL A   1      45.180  37.866  32.016  1.00  0.00    -0.237 OA
ATOM     76  O   UNL A   1      43.377  37.474  33.660  1.00  0.00    -0.237 OA
ATOM     77  O   UNL A   1      45.710  36.905  34.227  1.00  0.00    -0.744 OA
ENDBRANCH  73  74
ENDBRANCH  52  66
BRANCH  53  78
ATOM     78  C   UNL A   1      42.926  23.716  27.715  1.00  0.00     0.058 A 
ATOM     79  C   UNL A   1      42.517  22.651  28.530  1.00  0.00     0.135 A 
ATOM     80  C   UNL A   1      43.134  23.458  26.351  1.00  0.00     0.135 A 
ATOM     81  F   UNL A   1      42.312  22.849  29.841  1.00  0.00    -0.206 F 
ATOM     82  C   UNL A   1      42.321  21.375  28.013  1.00  0.00     0.059 A 
ATOM     83  C   UNL A   1      42.921  22.197  25.807  1.00  0.00     0.059 A 
ATOM     84  F   UNL A   1      43.512  24.449  25.530  1.00  0.00    -0.206 F 
ATOM     85  C   UNL A   1      42.520  21.159  26.648  1.00  0.00     0.060 A 
BRANCH  85  86
ATOM     86  S   UNL A   1      42.195  19.516  25.971  1.00  0.00     0.124 S 
ATOM     87  O   UNL A   1      40.748  19.553  25.796  1.00  0.00    -0.237 OA
ATOM     88  O   UNL A   1      42.988  19.527  24.745  1.00  0.00    -0.237 OA
ATOM     89  O   UNL A   1      42.684  18.622  27.016  1.00  0.00    -0.744 OA
ENDBRANCH  85  86
ENDBRANCH  53  78
BRANCH  65  90
ATOM     90  C   UNL A   1      48.324  27.180  30.448  1.00  0.00     0.058 A 
ATOM     91  C   UNL A   1      49.324  27.571  29.545  1.00  0.00     0.135 A 
ATOM     92  C   UNL A   1      48.714  26.488  31.605  1.00  0.00     0.135 A 
ATOM     93  F   UNL A   1      48.999  28.230  28.421  1.00  0.00    -0.206 F 
ATOM     94  C   UNL A   1      50.664  27.276  29.775  1.00  0.00     0.059 A 
ATOM     95  C   UNL A   1      50.051  26.199  31.865  1.00  0.00     0.059 A 
ATOM     96  F   UNL A   1      47.795  26.099  32.503  1.00  0.00    -0.206 F 
ATOM     97  C   UNL A   1      51.017  26.592  30.939  1.00  0.00     0.060 A 
BRANCH  97  98
ATOM     98  S   UNL A   1      52.763  26.254  31.247  1.00  0.00     0.124 S 
ATOM     99  O   UNL A   1      53.149  27.409  32.050  1.00  0.00    -0.237 OA
ATOM    100  O   UNL A   1      52.715  24.977  31.953  1.00  0.00    -0.237 OA
ATOM    101  O   UNL A   1      53.339  26.200  29.906  1.00  0.00    -0.744 OA
ENDBRANCH  97  98
ENDBRANCH  65  90
ENDBRANCH  39  40
ENDBRANCH  31  34
ENDBRANCH  29  30
ENDBRANCH  28  29
ENDBRANCH  27  28
ENDBRANCH   1  27
TORSDOF 19
ENDMDL
MODEL 3
REMARK VINA RESULT:     -11.5      0.403      7.991
REMARK SMILES Cc1cc2c(cc1S(=O)(=O)N(C)CC(=O)NCCCCCCNC(=O)c1ccc(-c3c4nc(c(-c5c(F)cc(S(=O)(=O)[O-])cc5F)c5ccc([nH]5)c(-c5c(F)cc(S(=O)(=O)[O-])cc5F)c5nc(c(-c6c(F)cc(S(=O)(=O)[O-])cc6F)c6ccc3[nH]6)C=C5)C=C4)cc1)OCC(=O)N2
REMARK SMILES IDX 19 1 18 2 17 3 16 4 14 5 15 6 13 8 11 9 12 10 8 11 9 12
REMARK SMILES IDX 10 13 7 14 1 15 2 16 3 17 4 18 6 19 5 20 96 21 92 22 94 23
REMARK SMILES IDX 93 25 95 26 20 27 21 28 22 29 23 30 24 31 25 33 26 34 27 35
REMARK SMILES IDX 91 36 28 37 90 38 29 39 30 40 31 41 84 42 32 43 89 44 83 45
REMARK SMILES IDX 85 46 33 47 88 48 82 49 81 50 34 52 68 53 47 54 67 55 48 56
REMARK SMILES IDX 51 57 66 58 86 59 49 60 50 61 65 63 87 64 52 65 35 66 36 67
REMARK SMILES IDX 45 68 37 69 38 70 44 71 46 72 39 73 40 74 41 75 42 76 43 77
REMARK SMILES IDX 69 78 70 79 79 80 71 81 72 82 78 83 80 84 73 85 74 86 75 87
REMARK SMILES IDX 76 88 77 89 53 90 54 91 63 92 55 93 56 94 62 95 64 96 57 97
REMARK SMILES IDX 58 98 59 99 60 100 61 101
REMARK H PARENT 16 7 96 24 23 32 85 51 51 62
REMARK Flexibility Score: inf
ROOT
ATOM      1  C   UNL A   1      31.793  29.314  26.546  1.00  0.00     0.002 C 
ENDROOT
BRANCH   1   2
ATOM      2  C   UNL A   1      31.522  27.964  27.210  1.00  0.00     0.021 C 
BRANCH   2   3
ATOM      3  C   UNL A   1      31.711  26.739  26.313  1.00  0.00     0.116 C 
BRANCH   3   4
ATOM      4  N   UNL A   1      31.749  25.517  27.095  1.00  0.00    -0.355 N 
ATOM      5  C   UNL A   1      31.411  24.231  26.769  1.00  0.00     0.235 C 
ATOM      6  O   UNL A   1      31.594  23.366  27.631  1.00  0.00    -0.274 OA
ATOM      7  H   UNL A   1      32.073  25.632  28.018  1.00  0.00     0.163 HD
BRANCH   5   8
ATOM      8  C   UNL A   1      30.882  23.869  25.382  1.00  0.00     0.202 C 
BRANCH   8   9
ATOM      9  N   UNL A   1      31.871  23.532  24.304  1.00  0.00    -0.192 NA
ATOM     10  C   UNL A   1      31.584  24.206  23.032  1.00  0.00     0.125 C 
BRANCH   9  11
ATOM     11  S   UNL A   1      32.191  21.856  24.209  1.00  0.00     0.243 S 
ATOM     12  O   UNL A   1      32.059  21.501  22.807  1.00  0.00    -0.207 OA
ATOM     13  O   UNL A   1      31.431  21.187  25.238  1.00  0.00    -0.207 OA
BRANCH  11  14
ATOM     14  C   UNL A   1      33.922  21.632  24.610  1.00  0.00     0.089 A 
ATOM     15  C   UNL A   1      33.942  19.061  24.397  1.00  0.00     0.046 C 
ATOM     16  C   UNL A   1      34.565  20.387  24.734  1.00  0.00    -0.029 A 
ATOM     17  C   UNL A   1      35.886  20.373  25.232  1.00  0.00     0.035 A 
ATOM     18  C   UNL A   1      36.570  21.561  25.508  1.00  0.00     0.084 A 
ATOM     19  C   UNL A   1      34.631  22.821  24.861  1.00  0.00     0.070 A 
ATOM     20  C   UNL A   1      35.951  22.788  25.295  1.00  0.00     0.144 A 
ATOM     21  N   UNL A   1      37.882  21.511  25.972  1.00  0.00    -0.320 N 
ATOM     22  O   UNL A   1      36.553  23.998  25.471  1.00  0.00    -0.482 OA
ATOM     23  C   UNL A   1      38.597  22.645  26.235  1.00  0.00     0.262 C 
ATOM     24  H   UNL A   1      38.306  20.634  26.115  1.00  0.00     0.170 HD
ATOM     25  C   UNL A   1      37.840  23.961  26.061  1.00  0.00     0.329 C 
ATOM     26  O   UNL A   1      39.767  22.593  26.608  1.00  0.00    -0.271 OA
ENDBRANCH  11  14
ENDBRANCH   9  11
ENDBRANCH   8   9
ENDBRANCH   5   8
ENDBRANCH   3   4
ENDBRANCH   2   3
ENDBRANCH   1   2
BRANCH   1  27
ATOM     27  C   UNL A   1      33.051  30.047  27.018  1.00  0.00     0.002 C 
BRANCH  27  28
ATOM     28  C   UNL A   1      34.342  29.225  27.041  1.00  0.00     0.021 C 
BRANCH  28  29
ATOM     29  C   UNL A   1      35.547  29.898  27.691  1.00  0.00     0.116 C 
BRANCH  29  30
ATOM     30  N   UNL A   1      35.430  30.000  29.137  1.00  0.00    -0.352 N 
ATOM     31  C   UNL A   1      36.400  29.878  30.104  1.00  0.00     0.251 C 
ATOM     32  H   UNL A   1      34.522  30.185  29.473  1.00  0.00     0.163 HD
ATOM     33  O   UNL A   1      36.088  29.851  31.291  1.00  0.00    -0.269 OA
BRANCH  31  34
ATOM     34  C   UNL A   1      37.818  29.744  29.707  1.00  0.00     0.039 A 
ATOM     35  C   UNL A   1      38.189  29.812  28.362  1.00  0.00     0.014 A 
ATOM     36  C   UNL A   1      38.784  29.525  30.692  1.00  0.00     0.014 A 
ATOM     37  C   UNL A   1      39.494  29.501  27.991  1.00  0.00     0.010 A 
ATOM     38  C   UNL A   1      40.111  29.284  30.322  1.00  0.00     0.010 A 
ATOM     39  C   UNL A   1      40.466  29.220  28.966  1.00  0.00    -0.014 A 
BRANCH  39  40
ATOM     40  C   UNL A   1      41.844  28.850  28.542  1.00  0.00     0.031 A 
ATOM     41  C   UNL A   1      42.958  29.863  28.581  1.00  0.00     0.074 A 
ATOM     42  C   UNL A   1      42.101  27.581  28.172  1.00  0.00     0.049 A 
ATOM     43  N   UNL A   1      44.220  29.711  28.268  1.00  0.00    -0.248 NA
ATOM     44  C   UNL A   1      42.615  31.224  29.025  1.00  0.00     0.031 C 
ATOM     45  C   UNL A   1      41.106  26.508  28.095  1.00  0.00     0.029 A 
ATOM     46  N   UNL A   1      43.276  26.969  27.814  1.00  0.00    -0.354 N 
ATOM     47  C   UNL A   1      44.815  30.953  28.457  1.00  0.00     0.074 A 
ATOM     48  C   UNL A   1      43.773  31.857  28.893  1.00  0.00     0.031 C 
ATOM     49  C   UNL A   1      41.719  25.364  27.756  1.00  0.00     0.029 A 
ATOM     50  C   UNL A   1      43.138  25.629  27.542  1.00  0.00     0.049 A 
ATOM     51  H   UNL A   1      44.135  27.446  27.756  1.00  0.00     0.167 HD
ATOM     52  C   UNL A   1      46.113  31.304  28.293  1.00  0.00     0.037 A 
ATOM     53  C   UNL A   1      44.047  24.715  27.154  1.00  0.00     0.037 A 
ATOM     54  C   UNL A   1      47.155  30.395  27.889  1.00  0.00     0.049 A 
ATOM     55  C   UNL A   1      45.477  25.134  26.965  1.00  0.00     0.074 A 
ATOM     56  C   UNL A   1      48.506  30.653  27.729  1.00  0.00     0.029 A 
ATOM     57  N   UNL A   1      46.966  29.056  27.586  1.00  0.00    -0.354 N 
ATOM     58  N   UNL A   1      46.019  26.312  27.159  1.00  0.00    -0.248 NA
ATOM     59  C   UNL A   1      46.416  24.106  26.495  1.00  0.00     0.031 C 
ATOM     60  C   UNL A   1      49.129  29.477  27.299  1.00  0.00     0.029 A 
ATOM     61  C   UNL A   1      48.172  28.478  27.224  1.00  0.00     0.049 A 
ATOM     62  H   UNL A   1      46.103  28.585  27.622  1.00  0.00     0.167 HD
ATOM     63  C   UNL A   1      47.363  26.167  26.834  1.00  0.00     0.074 A 
ATOM     64  C   UNL A   1      47.556  24.782  26.456  1.00  0.00     0.031 C 
ATOM     65  C   UNL A   1      48.347  27.100  26.844  1.00  0.00     0.037 A 
BRANCH  52  66
ATOM     66  C   UNL A   1      46.494  32.735  28.548  1.00  0.00     0.058 A 
ATOM     67  C   UNL A   1      46.478  33.693  27.522  1.00  0.00     0.135 A 
ATOM     68  C   UNL A   1      46.801  33.171  29.848  1.00  0.00     0.135 A 
ATOM     69  F   UNL A   1      46.207  33.326  26.259  1.00  0.00    -0.206 F 
ATOM     70  C   UNL A   1      46.763  35.030  27.774  1.00  0.00     0.059 A 
ATOM     71  C   UNL A   1      47.071  34.507  30.126  1.00  0.00     0.059 A 
ATOM     72  F   UNL A   1      46.831  32.293  30.863  1.00  0.00    -0.206 F 
ATOM     73  C   UNL A   1      47.056  35.429  29.080  1.00  0.00     0.060 A 
BRANCH  73  74
ATOM     74  S   UNL A   1      47.397  37.175  29.390  1.00  0.00     0.124 S 
ATOM     75  O   UNL A   1      47.366  37.721  28.037  1.00  0.00    -0.237 OA
ATOM     76  O   UNL A   1      46.287  37.560  30.255  1.00  0.00    -0.237 OA
ATOM     77  O   UNL A   1      48.710  37.157  30.029  1.00  0.00    -0.744 OA
ENDBRANCH  73  74
ENDBRANCH  52  66
BRANCH  53  78
ATOM     78  C   UNL A   1      43.621  23.313  26.911  1.00  0.00     0.058 A 
ATOM     79  C   UNL A   1      43.412  22.428  27.977  1.00  0.00     0.135 A 
ATOM     80  C   UNL A   1      43.381  22.844  25.610  1.00  0.00     0.135 A 
ATOM     81  F   UNL A   1      43.635  22.830  29.238  1.00  0.00    -0.206 F 
ATOM     82  C   UNL A   1      42.979  21.124  27.764  1.00  0.00     0.059 A 
ATOM     83  C   UNL A   1      42.925  21.553  25.373  1.00  0.00     0.059 A 
ATOM     84  F   UNL A   1      43.554  23.660  24.559  1.00  0.00    -0.206 F 
ATOM     85  C   UNL A   1      42.732  20.697  26.457  1.00  0.00     0.060 A 
BRANCH  85  86
ATOM     86  S   UNL A   1      42.103  19.025  26.193  1.00  0.00     0.124 S 
ATOM     87  O   UNL A   1      40.792  19.293  25.615  1.00  0.00    -0.237 OA
ATOM     88  O   UNL A   1      43.099  18.462  25.286  1.00  0.00    -0.237 OA
ATOM     89  O   UNL A   1      42.098  18.454  27.537  1.00  0.00    -0.744 OA
ENDBRANCH  85  86
ENDBRANCH  53  78
BRANCH  65  90
ATOM     90  C   UNL A   1      49.720  26.658  26.432  1.00  0.00     0.058 A 
ATOM     91  C   UNL A   1      50.569  25.989  27.328  1.00  0.00     0.135 A 
ATOM     92  C   UNL A   1      50.168  26.847  25.115  1.00  0.00     0.135 A 
ATOM     93  F   UNL A   1      50.187  25.791  28.599  1.00  0.00    -0.206 F 
ATOM     94  C   UNL A   1      51.822  25.533  26.935  1.00  0.00     0.059 A 
ATOM     95  C   UNL A   1      51.410  26.382  24.695  1.00  0.00     0.059 A 
ATOM     96  F   UNL A   1      49.389  27.475  24.220  1.00  0.00    -0.206 F 
ATOM     97  C   UNL A   1      52.233  25.732  25.615  1.00  0.00     0.060 A 
BRANCH  97  98
ATOM     98  S   UNL A   1      53.844  25.097  25.106  1.00  0.00     0.124 S 
ATOM     99  O   UNL A   1      53.533  23.700  24.822  1.00  0.00    -0.237 OA
ATOM    100  O   UNL A   1      54.155  25.926  23.946  1.00  0.00    -0.237 OA
ATOM    101  O   UNL A   1      54.685  25.328  26.277  1.00  0.00    -0.744 OA
ENDBRANCH  97  98
ENDBRANCH  65  90
ENDBRANCH  39  40
ENDBRANCH  31  34
ENDBRANCH  29  30
ENDBRANCH  28  29
ENDBRANCH  27  28
ENDBRANCH   1  27
TORSDOF 19
ENDMDL
