MODEL 1
REMARK VINA RESULT:     -12.0      0.000      0.000
REMARK SMILES COc1cc(OC)cc(-c2ccc([C@@H](C)C(=O)NCCCCCCNC(=O)c3ccc(-c4c5nc(c(-c6c(F)cc(S(=O)(=O)[O-])cc6F)c6ccc([nH]6)c(-c6c(F)cc(S(=O)(=O)[O-])cc6F)c6nc(c(-c7c(F)cc(S(=O)(=O)[O-])cc7F)c7ccc4[nH]7)C=C6)C=C5)cc3)cc2F)c1
REMARK SMILES IDX 21 1 20 2 19 3 18 4 16 5 17 6 14 8 15 9 13 10 10 11 11 12
REMARK SMILES IDX 95 13 12 14 94 15 96 16 9 17 3 18 4 19 97 20 5 21 8 22 2 23
REMARK SMILES IDX 1 24 6 25 7 26 22 27 23 28 24 29 25 30 26 31 27 33 28 34
REMARK SMILES IDX 29 35 93 36 30 37 92 38 31 39 32 40 33 41 86 42 34 43 91 44
REMARK SMILES IDX 85 45 87 46 35 47 90 48 84 49 83 50 36 52 70 53 49 54 69 55
REMARK SMILES IDX 50 56 53 57 68 58 88 59 51 60 52 61 67 63 89 64 54 65 37 66
REMARK SMILES IDX 38 67 47 68 39 69 40 70 46 71 48 72 41 73 42 74 43 75 44 76
REMARK SMILES IDX 45 77 71 78 72 79 81 80 73 81 74 82 80 83 82 84 75 85 76 86
REMARK SMILES IDX 77 87 78 88 79 89 55 90 56 91 65 92 57 93 58 94 64 95 66 96
REMARK SMILES IDX 59 97 60 98 61 99 62 100 63 101
REMARK H PARENT 18 7 25 32 87 51 53 62
REMARK Flexibility Score: inf
ROOT
ATOM      1  C   UNL A   1      35.050  22.999  26.037  1.00  0.00     0.002 C 
ENDROOT
BRANCH   1   2
ATOM      2  C   UNL A   1      35.606  21.572  26.078  1.00  0.00     0.021 C 
BRANCH   2   3
ATOM      3  C   UNL A   1      35.046  20.659  24.985  1.00  0.00     0.116 C 
BRANCH   3   4
ATOM      4  N   UNL A   1      34.202  19.617  25.536  1.00  0.00    -0.356 N 
ATOM      5  C   UNL A   1      32.962  19.177  25.187  1.00  0.00     0.227 C 
ATOM      6  O   UNL A   1      32.462  18.308  25.912  1.00  0.00    -0.274 OA
ATOM      7  H   UNL A   1      34.596  19.143  26.302  1.00  0.00     0.163 HD
BRANCH   5   8
ATOM      8  C   UNL A   1      32.187  19.688  23.964  1.00  0.00     0.105 C 
ATOM      9  C   UNL A   1      32.497  18.936  22.668  1.00  0.00     0.023 C 
BRANCH   8  10
ATOM     10  C   UNL A   1      32.154  21.204  23.861  1.00  0.00    -0.033 A 
ATOM     11  C   UNL A   1      32.179  24.067  23.794  1.00  0.00     0.018 A 
ATOM     12  C   UNL A   1      32.682  23.295  22.733  1.00  0.00     0.012 A 
ATOM     13  C   UNL A   1      31.655  23.363  24.885  1.00  0.00     0.131 A 
ATOM     14  C   UNL A   1      32.630  21.898  22.748  1.00  0.00     0.005 A 
ATOM     15  C   UNL A   1      31.655  21.965  24.932  1.00  0.00     0.044 A 
ATOM     16  F   UNL A   1      31.114  24.020  25.924  1.00  0.00    -0.206 F 
BRANCH  11  17
ATOM     17  C   UNL A   1      32.187  25.544  23.704  1.00  0.00    -0.008 A 
ATOM     18  C   UNL A   1      33.077  27.735  24.303  1.00  0.00     0.123 A 
ATOM     19  C   UNL A   1      32.142  28.347  23.466  1.00  0.00     0.092 A 
ATOM     20  C   UNL A   1      33.095  26.341  24.423  1.00  0.00     0.055 A 
ATOM     21  C   UNL A   1      31.234  27.585  22.737  1.00  0.00     0.123 A 
ATOM     22  C   UNL A   1      31.259  26.197  22.865  1.00  0.00     0.055 A 
BRANCH  18  23
ATOM     23  O   UNL A   1      33.884  28.598  24.994  1.00  0.00    -0.497 OA
ATOM     24  C   UNL A   1      34.032  28.331  26.384  1.00  0.00     0.278 C 
ENDBRANCH  18  23
BRANCH  21  25
ATOM     25  O   UNL A   1      30.374  28.295  21.945  1.00  0.00    -0.497 OA
ATOM     26  C   UNL A   1      29.694  29.389  22.552  1.00  0.00     0.278 C 
ENDBRANCH  21  25
ENDBRANCH  11  17
ENDBRANCH   8  10
ENDBRANCH   5   8
ENDBRANCH   3   4
ENDBRANCH   2   3
ENDBRANCH   1   2
BRANCH   1  27
ATOM     27  C   UNL A   1      36.031  24.063  25.528  1.00  0.00     0.002 C 
BRANCH  27  28
ATOM     28  C   UNL A   1      37.492  23.615  25.422  1.00  0.00     0.021 C 
BRANCH  28  29
ATOM     29  C   UNL A   1      38.401  24.132  26.535  1.00  0.00     0.116 C 
BRANCH  29  30
ATOM     30  N   UNL A   1      39.806  23.955  26.206  1.00  0.00    -0.352 N 
ATOM     31  C   UNL A   1      40.887  24.731  26.544  1.00  0.00     0.251 C 
ATOM     32  H   UNL A   1      40.013  23.163  25.659  1.00  0.00     0.163 HD
ATOM     33  O   UNL A   1      41.959  24.568  25.968  1.00  0.00    -0.269 OA
BRANCH  31  34
ATOM     34  C   UNL A   1      40.759  25.763  27.596  1.00  0.00     0.039 A 
ATOM     35  C   UNL A   1      39.669  25.711  28.469  1.00  0.00     0.014 A 
ATOM     36  C   UNL A   1      41.690  26.799  27.696  1.00  0.00     0.014 A 
ATOM     37  C   UNL A   1      39.542  26.671  29.477  1.00  0.00     0.010 A 
ATOM     38  C   UNL A   1      41.600  27.715  28.742  1.00  0.00     0.010 A 
ATOM     39  C   UNL A   1      40.520  27.666  29.637  1.00  0.00    -0.014 A 
BRANCH  39  40
ATOM     40  C   UNL A   1      40.425  28.672  30.726  1.00  0.00     0.031 A 
ATOM     41  C   UNL A   1      41.292  28.541  31.950  1.00  0.00     0.074 A 
ATOM     42  C   UNL A   1      39.516  29.662  30.643  1.00  0.00     0.049 A 
ATOM     43  N   UNL A   1      41.301  29.270  33.036  1.00  0.00    -0.248 NA
ATOM     44  C   UNL A   1      42.256  27.429  31.966  1.00  0.00     0.031 C 
ATOM     45  C   UNL A   1      38.587  29.865  29.527  1.00  0.00     0.029 A 
ATOM     46  N   UNL A   1      39.212  30.677  31.515  1.00  0.00    -0.354 N 
ATOM     47  C   UNL A   1      42.256  28.697  33.870  1.00  0.00     0.074 A 
ATOM     48  C   UNL A   1      42.767  27.530  33.185  1.00  0.00     0.031 C 
ATOM     49  C   UNL A   1      37.832  30.947  29.776  1.00  0.00     0.029 A 
ATOM     50  C   UNL A   1      38.194  31.493  31.081  1.00  0.00     0.049 A 
ATOM     51  H   UNL A   1      39.679  30.808  32.371  1.00  0.00     0.167 HD
ATOM     52  C   UNL A   1      42.683  29.118  35.084  1.00  0.00     0.037 A 
ATOM     53  C   UNL A   1      37.612  32.556  31.670  1.00  0.00     0.037 A 
ATOM     54  C   UNL A   1      42.189  30.296  35.746  1.00  0.00     0.049 A 
ATOM     55  C   UNL A   1      38.108  33.009  33.017  1.00  0.00     0.074 A 
ATOM     56  C   UNL A   1      42.598  30.842  36.952  1.00  0.00     0.029 A 
ATOM     57  N   UNL A   1      41.178  31.113  35.261  1.00  0.00    -0.354 N 
ATOM     58  N   UNL A   1      39.054  32.490  33.763  1.00  0.00    -0.248 NA
ATOM     59  C   UNL A   1      37.466  34.196  33.598  1.00  0.00     0.031 C 
ATOM     60  C   UNL A   1      41.805  31.964  37.216  1.00  0.00     0.029 A 
ATOM     61  C   UNL A   1      40.937  32.147  36.151  1.00  0.00     0.049 A 
ATOM     62  H   UNL A   1      40.702  30.978  34.410  1.00  0.00     0.167 HD
ATOM     63  C   UNL A   1      39.139  33.303  34.888  1.00  0.00     0.074 A 
ATOM     64  C   UNL A   1      38.157  34.353  34.718  1.00  0.00     0.031 C 
ATOM     65  C   UNL A   1      39.959  33.190  35.962  1.00  0.00     0.037 A 
BRANCH  52  66
ATOM     66  C   UNL A   1      43.742  28.300  35.774  1.00  0.00     0.058 A 
ATOM     67  C   UNL A   1      43.411  27.261  36.659  1.00  0.00     0.135 A 
ATOM     68  C   UNL A   1      45.104  28.535  35.522  1.00  0.00     0.135 A 
ATOM     69  F   UNL A   1      42.126  27.003  36.947  1.00  0.00    -0.206 F 
ATOM     70  C   UNL A   1      44.391  26.504  37.292  1.00  0.00     0.059 A 
ATOM     71  C   UNL A   1      46.102  27.771  36.123  1.00  0.00     0.059 A 
ATOM     72  F   UNL A   1      45.478  29.516  34.684  1.00  0.00    -0.206 F 
ATOM     73  C   UNL A   1      45.734  26.768  37.018  1.00  0.00     0.060 A 
BRANCH  73  74
ATOM     74  S   UNL A   1      46.994  25.774  37.846  1.00  0.00     0.124 S 
ATOM     75  O   UNL A   1      47.357  26.639  38.964  1.00  0.00    -0.237 OA
ATOM     76  O   UNL A   1      46.256  24.564  38.196  1.00  0.00    -0.237 OA
ATOM     77  O   UNL A   1      48.020  25.605  36.824  1.00  0.00    -0.744 OA
ENDBRANCH  73  74
ENDBRANCH  52  66
BRANCH  53  78
ATOM     78  C   UNL A   1      36.511  33.277  30.979  1.00  0.00     0.058 A 
ATOM     79  C   UNL A   1      36.768  34.090  29.866  1.00  0.00     0.135 A 
ATOM     80  C   UNL A   1      35.179  33.153  31.405  1.00  0.00     0.135 A 
ATOM     81  F   UNL A   1      38.025  34.244  29.424  1.00  0.00    -0.206 F 
ATOM     82  C   UNL A   1      35.748  34.770  29.208  1.00  0.00     0.059 A 
ATOM     83  C   UNL A   1      34.138  33.803  30.748  1.00  0.00     0.059 A 
ATOM     84  F   UNL A   1      34.877  32.372  32.453  1.00  0.00    -0.206 F 
ATOM     85  C   UNL A   1      34.434  34.618  29.656  1.00  0.00     0.060 A 
BRANCH  85  86
ATOM     86  S   UNL A   1      33.110  35.463  28.765  1.00  0.00     0.124 S 
ATOM     87  O   UNL A   1      32.309  35.992  29.863  1.00  0.00    -0.237 OA
ATOM     88  O   UNL A   1      33.850  36.448  27.980  1.00  0.00    -0.237 OA
ATOM     89  O   UNL A   1      32.492  34.392  27.989  1.00  0.00    -0.744 OA
ENDBRANCH  85  86
ENDBRANCH  53  78
BRANCH  65  90
ATOM     90  C   UNL A   1      39.857  34.250  37.024  1.00  0.00     0.058 A 
ATOM     91  C   UNL A   1      40.463  35.507  36.875  1.00  0.00     0.135 A 
ATOM     92  C   UNL A   1      39.098  34.021  38.183  1.00  0.00     0.135 A 
ATOM     93  F   UNL A   1      41.206  35.774  35.790  1.00  0.00    -0.206 F 
ATOM     94  C   UNL A   1      40.338  36.494  37.849  1.00  0.00     0.059 A 
ATOM     95  C   UNL A   1      38.935  35.003  39.156  1.00  0.00     0.059 A 
ATOM     96  F   UNL A   1      38.489  32.839  38.370  1.00  0.00    -0.206 F 
ATOM     97  C   UNL A   1      39.569  36.232  38.984  1.00  0.00     0.060 A 
BRANCH  97  98
ATOM     98  S   UNL A   1      39.385  37.533  40.223  1.00  0.00     0.124 S 
ATOM     99  O   UNL A   1      38.814  36.792  41.344  1.00  0.00    -0.237 OA
ATOM    100  O   UNL A   1      40.759  37.992  40.401  1.00  0.00    -0.237 OA
ATOM    101  O   UNL A   1      38.489  38.489  39.580  1.00  0.00    -0.744 OA
ENDBRANCH  97  98
ENDBRANCH  65  90
ENDBRANCH  39  40
ENDBRANCH  31  34
ENDBRANCH  29  30
ENDBRANCH  28  29
ENDBRANCH  27  28
ENDBRANCH   1  27
TORSDOF 20
ENDMDL
MODEL 2
REMARK VINA RESULT:     -11.9      0.680      2.131
REMARK SMILES COc1cc(OC)cc(-c2ccc([C@@H](C)C(=O)NCCCCCCNC(=O)c3ccc(-c4c5nc(c(-c6c(F)cc(S(=O)(=O)[O-])cc6F)c6ccc([nH]6)c(-c6c(F)cc(S(=O)(=O)[O-])cc6F)c6nc(c(-c7c(F)cc(S(=O)(=O)[O-])cc7F)c7ccc4[nH]7)C=C6)C=C5)cc3)cc2F)c1
REMARK SMILES IDX 21 1 20 2 19 3 18 4 16 5 17 6 14 8 15 9 13 10 10 11 11 12
REMARK SMILES IDX 95 13 12 14 94 15 96 16 9 17 3 18 4 19 97 20 5 21 8 22 2 23
REMARK SMILES IDX 1 24 6 25 7 26 22 27 23 28 24 29 25 30 26 31 27 33 28 34
REMARK SMILES IDX 29 35 93 36 30 37 92 38 31 39 32 40 33 41 86 42 34 43 91 44
REMARK SMILES IDX 85 45 87 46 35 47 90 48 84 49 83 50 36 52 70 53 49 54 69 55
REMARK SMILES IDX 50 56 53 57 68 58 88 59 51 60 52 61 67 63 89 64 54 65 37 66
REMARK SMILES IDX 38 67 47 68 39 69 40 70 46 71 48 72 41 73 42 74 43 75 44 76
REMARK SMILES IDX 45 77 71 78 72 79 81 80 73 81 74 82 80 83 82 84 75 85 76 86
REMARK SMILES IDX 77 87 78 88 79 89 55 90 56 91 65 92 57 93 58 94 64 95 66 96
REMARK SMILES IDX 59 97 60 98 61 99 62 100 63 101
REMARK H PARENT 18 7 25 32 87 51 53 62
REMARK Flexibility Score: inf
ROOT
ATOM      1  C   UNL A   1      35.029  22.569  25.966  1.00  0.00     0.002 C 
ENDROOT
BRANCH   1   2
ATOM      2  C   UNL A   1      35.821  21.271  25.784  1.00  0.00     0.021 C 
BRANCH   2   3
ATOM      3  C   UNL A   1      35.212  20.314  24.756  1.00  0.00     0.116 C 
BRANCH   3   4
ATOM      4  N   UNL A   1      34.335  19.343  25.379  1.00  0.00    -0.356 N 
ATOM      5  C   UNL A   1      33.026  19.038  25.167  1.00  0.00     0.227 C 
ATOM      6  O   UNL A   1      32.527  18.199  25.927  1.00  0.00    -0.274 OA
ATOM      7  H   UNL A   1      34.765  18.806  26.083  1.00  0.00     0.163 HD
BRANCH   5   8
ATOM      8  C   UNL A   1      32.172  19.664  24.055  1.00  0.00     0.105 C 
ATOM      9  C   UNL A   1      32.494  19.144  22.653  1.00  0.00     0.023 C 
BRANCH   8  10
ATOM     10  C   UNL A   1      32.019  21.171  24.188  1.00  0.00    -0.033 A 
ATOM     11  C   UNL A   1      31.635  24.005  24.318  1.00  0.00     0.018 A 
ATOM     12  C   UNL A   1      31.315  23.162  25.396  1.00  0.00     0.012 A 
ATOM     13  C   UNL A   1      32.161  23.388  23.177  1.00  0.00     0.131 A 
ATOM     14  C   UNL A   1      31.543  21.784  25.348  1.00  0.00     0.005 A 
ATOM     15  C   UNL A   1      32.335  22.002  23.100  1.00  0.00     0.044 A 
ATOM     16  F   UNL A   1      32.534  24.121  22.116  1.00  0.00    -0.206 F 
BRANCH  11  17
ATOM     17  C   UNL A   1      31.446  25.469  24.441  1.00  0.00    -0.008 A 
ATOM     18  C   UNL A   1      30.312  27.550  23.864  1.00  0.00     0.123 A 
ATOM     19  C   UNL A   1      31.145  28.249  24.740  1.00  0.00     0.092 A 
ATOM     20  C   UNL A   1      30.466  26.168  23.713  1.00  0.00     0.055 A 
ATOM     21  C   UNL A   1      32.120  27.584  25.478  1.00  0.00     0.123 A 
ATOM     22  C   UNL A   1      32.266  26.207  25.319  1.00  0.00     0.055 A 
BRANCH  18  23
ATOM     23  O   UNL A   1      29.425  28.327  23.170  1.00  0.00    -0.497 OA
ATOM     24  C   UNL A   1      29.995  29.358  22.372  1.00  0.00     0.278 C 
ENDBRANCH  18  23
BRANCH  21  25
ATOM     25  O   UNL A   1      32.868  28.372  26.309  1.00  0.00    -0.497 OA
ATOM     26  C   UNL A   1      33.254  29.649  25.811  1.00  0.00     0.278 C 
ENDBRANCH  21  25
ENDBRANCH  11  17
ENDBRANCH   8  10
ENDBRANCH   5   8
ENDBRANCH   3   4
ENDBRANCH   2   3
ENDBRANCH   1   2
BRANCH   1  27
ATOM     27  C   UNL A   1      35.747  23.840  25.491  1.00  0.00     0.002 C 
BRANCH  27  28
ATOM     28  C   UNL A   1      37.253  23.694  25.252  1.00  0.00     0.021 C 
BRANCH  28  29
ATOM     29  C   UNL A   1      38.133  24.232  26.377  1.00  0.00     0.116 C 
BRANCH  29  30
ATOM     30  N   UNL A   1      39.539  23.942  26.145  1.00  0.00    -0.352 N 
ATOM     31  C   UNL A   1      40.652  24.633  26.553  1.00  0.00     0.251 C 
ATOM     32  H   UNL A   1      39.718  23.131  25.617  1.00  0.00     0.163 HD
ATOM     33  O   UNL A   1      41.744  24.381  26.052  1.00  0.00    -0.269 OA
BRANCH  31  34
ATOM     34  C   UNL A   1      40.536  25.682  27.589  1.00  0.00     0.039 A 
ATOM     35  C   UNL A   1      39.535  25.571  28.559  1.00  0.00     0.014 A 
ATOM     36  C   UNL A   1      41.388  26.790  27.583  1.00  0.00     0.014 A 
ATOM     37  C   UNL A   1      39.422  26.547  29.552  1.00  0.00     0.010 A 
ATOM     38  C   UNL A   1      41.318  27.725  28.612  1.00  0.00     0.010 A 
ATOM     39  C   UNL A   1      40.329  27.618  29.602  1.00  0.00    -0.014 A 
BRANCH  39  40
ATOM     40  C   UNL A   1      40.251  28.645  30.673  1.00  0.00     0.031 A 
ATOM     41  C   UNL A   1      41.119  28.524  31.897  1.00  0.00     0.074 A 
ATOM     42  C   UNL A   1      39.355  29.646  30.574  1.00  0.00     0.049 A 
ATOM     43  N   UNL A   1      41.141  29.272  32.970  1.00  0.00    -0.248 NA
ATOM     44  C   UNL A   1      42.067  27.400  31.931  1.00  0.00     0.031 C 
ATOM     45  C   UNL A   1      38.427  29.843  29.457  1.00  0.00     0.029 A 
ATOM     46  N   UNL A   1      39.068  30.681  31.428  1.00  0.00    -0.354 N 
ATOM     47  C   UNL A   1      42.090  28.701  33.811  1.00  0.00     0.074 A 
ATOM     48  C   UNL A   1      42.583  27.515  33.146  1.00  0.00     0.031 C 
ATOM     49  C   UNL A   1      37.687  30.940  29.688  1.00  0.00     0.029 A 
ATOM     50  C   UNL A   1      38.060  31.503  30.982  1.00  0.00     0.049 A 
ATOM     51  H   UNL A   1      39.539  30.821  32.281  1.00  0.00     0.167 HD
ATOM     52  C   UNL A   1      42.527  29.138  35.017  1.00  0.00     0.037 A 
ATOM     53  C   UNL A   1      37.495  32.585  31.553  1.00  0.00     0.037 A 
ATOM     54  C   UNL A   1      42.051  30.335  35.659  1.00  0.00     0.049 A 
ATOM     55  C   UNL A   1      38.001  33.055  32.890  1.00  0.00     0.074 A 
ATOM     56  C   UNL A   1      42.470  30.896  36.853  1.00  0.00     0.029 A 
ATOM     57  N   UNL A   1      41.050  31.157  35.161  1.00  0.00    -0.354 N 
ATOM     58  N   UNL A   1      38.941  32.536  33.644  1.00  0.00    -0.248 NA
ATOM     59  C   UNL A   1      37.377  34.261  33.452  1.00  0.00     0.031 C 
ATOM     60  C   UNL A   1      41.693  32.034  37.099  1.00  0.00     0.029 A 
ATOM     61  C   UNL A   1      40.825  32.210  36.033  1.00  0.00     0.049 A 
ATOM     62  H   UNL A   1      40.570  31.013  34.314  1.00  0.00     0.167 HD
ATOM     63  C   UNL A   1      39.041  33.368  34.754  1.00  0.00     0.074 A 
ATOM     64  C   UNL A   1      38.073  34.429  34.568  1.00  0.00     0.031 C 
ATOM     65  C   UNL A   1      39.862  33.263  35.828  1.00  0.00     0.037 A 
BRANCH  52  66
ATOM     66  C   UNL A   1      43.576  28.317  35.719  1.00  0.00     0.058 A 
ATOM     67  C   UNL A   1      44.947  28.555  35.528  1.00  0.00     0.135 A 
ATOM     68  C   UNL A   1      43.207  27.304  36.618  1.00  0.00     0.135 A 
ATOM     69  F   UNL A   1      45.356  29.501  34.669  1.00  0.00    -0.206 F 
ATOM     70  C   UNL A   1      45.914  27.798  36.179  1.00  0.00     0.059 A 
ATOM     71  C   UNL A   1      44.158  26.552  37.303  1.00  0.00     0.059 A 
ATOM     72  F   UNL A   1      41.910  27.034  36.838  1.00  0.00    -0.206 F 
ATOM     73  C   UNL A   1      45.510  26.798  37.065  1.00  0.00     0.060 A 
BRANCH  73  74
ATOM     74  S   UNL A   1      46.778  25.826  37.906  1.00  0.00     0.124 S 
ATOM     75  O   UNL A   1      47.999  26.387  37.335  1.00  0.00    -0.237 OA
ATOM     76  O   UNL A   1      46.533  26.142  39.310  1.00  0.00    -0.237 OA
ATOM     77  O   UNL A   1      46.473  24.455  37.513  1.00  0.00    -0.744 OA
ENDBRANCH  73  74
ENDBRANCH  52  66
BRANCH  53  78
ATOM     78  C   UNL A   1      36.402  33.308  30.852  1.00  0.00     0.058 A 
ATOM     79  C   UNL A   1      35.064  33.147  31.241  1.00  0.00     0.135 A 
ATOM     80  C   UNL A   1      36.673  34.189  29.793  1.00  0.00     0.135 A 
ATOM     81  F   UNL A   1      34.754  32.313  32.245  1.00  0.00    -0.206 F 
ATOM     82  C   UNL A   1      34.031  33.818  30.596  1.00  0.00     0.059 A 
ATOM     83  C   UNL A   1      35.659  34.890  29.148  1.00  0.00     0.059 A 
ATOM     84  F   UNL A   1      37.938  34.393  29.394  1.00  0.00    -0.206 F 
ATOM     85  C   UNL A   1      34.339  34.691  29.550  1.00  0.00     0.060 A 
BRANCH  85  86
ATOM     86  S   UNL A   1      32.996  35.596  28.752  1.00  0.00     0.124 S 
ATOM     87  O   UNL A   1      33.730  36.607  27.999  1.00  0.00    -0.237 OA
ATOM     88  O   UNL A   1      32.351  34.552  27.961  1.00  0.00    -0.237 OA
ATOM     89  O   UNL A   1      32.211  36.092  29.879  1.00  0.00    -0.744 OA
ENDBRANCH  85  86
ENDBRANCH  53  78
BRANCH  65  90
ATOM     90  C   UNL A   1      39.778  34.343  36.871  1.00  0.00     0.058 A 
ATOM     91  C   UNL A   1      38.935  34.228  37.988  1.00  0.00     0.135 A 
ATOM     92  C   UNL A   1      40.592  35.483  36.779  1.00  0.00     0.135 A 
ATOM     93  F   UNL A   1      38.131  33.161  38.121  1.00  0.00    -0.206 F 
ATOM     94  C   UNL A   1      38.887  35.217  38.966  1.00  0.00     0.059 A 
ATOM     95  C   UNL A   1      40.581  36.471  37.759  1.00  0.00     0.059 A 
ATOM     96  F   UNL A   1      41.424  35.637  35.736  1.00  0.00    -0.206 F 
ATOM     97  C   UNL A   1      39.716  36.333  38.843  1.00  0.00     0.060 A 
BRANCH  97  98
ATOM     98  S   UNL A   1      39.670  37.592  40.136  1.00  0.00     0.124 S 
ATOM     99  O   UNL A   1      40.980  38.217  39.985  1.00  0.00    -0.237 OA
ATOM    100  O   UNL A   1      38.528  38.408  39.737  1.00  0.00    -0.237 OA
ATOM    101  O   UNL A   1      39.481  36.817  41.358  1.00  0.00    -0.744 OA
ENDBRANCH  97  98
ENDBRANCH  65  90
ENDBRANCH  39  40
ENDBRANCH  31  34
ENDBRANCH  29  30
ENDBRANCH  28  29
ENDBRANCH  27  28
ENDBRANCH   1  27
TORSDOF 20
ENDMDL
MODEL 3
REMARK VINA RESULT:     -11.6      3.122      5.279
REMARK SMILES COc1cc(OC)cc(-c2ccc([C@@H](C)C(=O)NCCCCCCNC(=O)c3ccc(-c4c5nc(c(-c6c(F)cc(S(=O)(=O)[O-])cc6F)c6ccc([nH]6)c(-c6c(F)cc(S(=O)(=O)[O-])cc6F)c6nc(c(-c7c(F)cc(S(=O)(=O)[O-])cc7F)c7ccc4[nH]7)C=C6)C=C5)cc3)cc2F)c1
REMARK SMILES IDX 21 1 20 2 19 3 18 4 16 5 17 6 14 8 15 9 13 10 10 11 11 12
REMARK SMILES IDX 95 13 12 14 94 15 96 16 9 17 3 18 4 19 97 20 5 21 8 22 2 23
REMARK SMILES IDX 1 24 6 25 7 26 22 27 23 28 24 29 25 30 26 31 27 33 28 34
REMARK SMILES IDX 29 35 93 36 30 37 92 38 31 39 32 40 33 41 86 42 34 43 91 44
REMARK SMILES IDX 85 45 87 46 35 47 90 48 84 49 83 50 36 52 70 53 49 54 69 55
REMARK SMILES IDX 50 56 53 57 68 58 88 59 51 60 52 61 67 63 89 64 54 65 37 66
REMARK SMILES IDX 38 67 47 68 39 69 40 70 46 71 48 72 41 73 42 74 43 75 44 76
REMARK SMILES IDX 45 77 71 78 72 79 81 80 73 81 74 82 80 83 82 84 75 85 76 86
REMARK SMILES IDX 77 87 78 88 79 89 55 90 56 91 65 92 57 93 58 94 64 95 66 96
REMARK SMILES IDX 59 97 60 98 61 99 62 100 63 101
REMARK H PARENT 18 7 25 32 87 51 53 62
REMARK Flexibility Score: inf
ROOT
ATOM      1  C   UNL A   1      33.476  26.033  26.069  1.00  0.00     0.002 C 
ENDROOT
BRANCH   1   2
ATOM      2  C   UNL A   1      33.174  27.467  25.625  1.00  0.00     0.021 C 
BRANCH   2   3
ATOM      3  C   UNL A   1      31.685  27.748  25.408  1.00  0.00     0.116 C 
BRANCH   3   4
ATOM      4  N   UNL A   1      31.388  28.033  24.019  1.00  0.00    -0.356 N 
ATOM      5  C   UNL A   1      30.650  27.361  23.095  1.00  0.00     0.227 C 
ATOM      6  O   UNL A   1      30.650  27.824  21.948  1.00  0.00    -0.274 OA
ATOM      7  H   UNL A   1      31.796  28.863  23.683  1.00  0.00     0.163 HD
BRANCH   5   8
ATOM      8  C   UNL A   1      29.835  26.097  23.406  1.00  0.00     0.105 C 
ATOM      9  C   UNL A   1      28.703  26.316  24.411  1.00  0.00     0.023 C 
BRANCH   8  10
ATOM     10  C   UNL A   1      30.696  24.864  23.633  1.00  0.00    -0.033 A 
ATOM     11  C   UNL A   1      32.190  22.461  24.070  1.00  0.00     0.018 A 
ATOM     12  C   UNL A   1      32.331  23.220  22.895  1.00  0.00     0.012 A 
ATOM     13  C   UNL A   1      31.285  22.946  25.022  1.00  0.00     0.131 A 
ATOM     14  C   UNL A   1      31.634  24.415  22.701  1.00  0.00     0.005 A 
ATOM     15  C   UNL A   1      30.539  24.111  24.807  1.00  0.00     0.044 A 
ATOM     16  F   UNL A   1      31.118  22.308  26.191  1.00  0.00    -0.206 F 
BRANCH  11  17
ATOM     17  C   UNL A   1      33.003  21.240  24.265  1.00  0.00    -0.008 A 
ATOM     18  C   UNL A   1      33.277  18.816  24.298  1.00  0.00     0.123 A 
ATOM     19  C   UNL A   1      34.620  18.970  24.644  1.00  0.00     0.092 A 
ATOM     20  C   UNL A   1      32.472  19.946  24.114  1.00  0.00     0.055 A 
ATOM     21  C   UNL A   1      35.176  20.237  24.795  1.00  0.00     0.123 A 
ATOM     22  C   UNL A   1      34.365  21.357  24.611  1.00  0.00     0.055 A 
BRANCH  18  23
ATOM     23  O   UNL A   1      32.847  17.518  24.222  1.00  0.00    -0.497 OA
ATOM     24  C   UNL A   1      33.737  16.606  23.591  1.00  0.00     0.278 C 
ENDBRANCH  18  23
BRANCH  21  25
ATOM     25  O   UNL A   1      36.503  20.262  25.125  1.00  0.00    -0.497 OA
ATOM     26  C   UNL A   1      37.233  19.053  24.951  1.00  0.00     0.278 C 
ENDBRANCH  21  25
ENDBRANCH  11  17
ENDBRANCH   8  10
ENDBRANCH   5   8
ENDBRANCH   3   4
ENDBRANCH   2   3
ENDBRANCH   1   2
BRANCH   1  27
ATOM     27  C   UNL A   1      34.296  25.203  25.072  1.00  0.00     0.002 C 
BRANCH  27  28
ATOM     28  C   UNL A   1      35.338  24.269  25.695  1.00  0.00     0.021 C 
BRANCH  28  29
ATOM     29  C   UNL A   1      36.702  24.287  25.010  1.00  0.00     0.116 C 
BRANCH  29  30
ATOM     30  N   UNL A   1      37.489  23.111  25.348  1.00  0.00    -0.352 N 
ATOM     31  C   UNL A   1      38.679  23.021  26.026  1.00  0.00     0.251 C 
ATOM     32  H   UNL A   1      37.113  22.254  25.045  1.00  0.00     0.163 HD
ATOM     33  O   UNL A   1      39.320  21.975  25.997  1.00  0.00    -0.269 OA
BRANCH  31  34
ATOM     34  C   UNL A   1      39.189  24.183  26.786  1.00  0.00     0.039 A 
ATOM     35  C   UNL A   1      40.034  25.095  26.147  1.00  0.00     0.014 A 
ATOM     36  C   UNL A   1      38.865  24.352  28.134  1.00  0.00     0.014 A 
ATOM     37  C   UNL A   1      40.513  26.204  26.848  1.00  0.00     0.010 A 
ATOM     38  C   UNL A   1      39.286  25.494  28.812  1.00  0.00     0.010 A 
ATOM     39  C   UNL A   1      40.122  26.426  28.179  1.00  0.00    -0.014 A 
BRANCH  39  40
ATOM     40  C   UNL A   1      40.588  27.620  28.930  1.00  0.00     0.031 A 
ATOM     41  C   UNL A   1      41.948  27.620  29.577  1.00  0.00     0.074 A 
ATOM     42  C   UNL A   1      39.765  28.674  29.086  1.00  0.00     0.049 A 
ATOM     43  N   UNL A   1      42.502  28.531  30.335  1.00  0.00    -0.248 NA
ATOM     44  C   UNL A   1      42.785  26.429  29.364  1.00  0.00     0.031 C 
ATOM     45  C   UNL A   1      38.406  28.772  28.546  1.00  0.00     0.029 A 
ATOM     46  N   UNL A   1      39.942  29.861  29.752  1.00  0.00    -0.354 N 
ATOM     47  C   UNL A   1      43.740  28.017  30.704  1.00  0.00     0.074 A 
ATOM     48  C   UNL A   1      43.835  26.693  30.128  1.00  0.00     0.031 C 
ATOM     49  C   UNL A   1      37.882  29.961  28.888  1.00  0.00     0.029 A 
ATOM     50  C   UNL A   1      38.848  30.693  29.701  1.00  0.00     0.049 A 
ATOM     51  H   UNL A   1      40.774  30.094  30.223  1.00  0.00     0.167 HD
ATOM     52  C   UNL A   1      44.718  28.604  31.435  1.00  0.00     0.037 A 
ATOM     53  C   UNL A   1      38.644  31.905  30.252  1.00  0.00     0.037 A 
ATOM     54  C   UNL A   1      44.627  29.932  31.980  1.00  0.00     0.049 A 
ATOM     55  C   UNL A   1      39.747  32.540  31.055  1.00  0.00     0.074 A 
ATOM     56  C   UNL A   1      45.584  30.641  32.686  1.00  0.00     0.029 A 
ATOM     57  N   UNL A   1      43.514  30.755  31.882  1.00  0.00    -0.354 N 
ATOM     58  N   UNL A   1      40.935  32.063  31.343  1.00  0.00    -0.248 NA
ATOM     59  C   UNL A   1      39.487  33.879  31.602  1.00  0.00     0.031 C 
ATOM     60  C   UNL A   1      45.035  31.875  33.051  1.00  0.00     0.029 A 
ATOM     61  C   UNL A   1      43.754  31.956  32.529  1.00  0.00     0.049 A 
ATOM     62  H   UNL A   1      42.677  30.520  31.420  1.00  0.00     0.167 HD
ATOM     63  C   UNL A   1      41.574  33.056  32.078  1.00  0.00     0.074 A 
ATOM     64  C   UNL A   1      40.645  34.161  32.183  1.00  0.00     0.031 C 
ATOM     65  C   UNL A   1      42.819  33.051  32.617  1.00  0.00     0.037 A 
BRANCH  52  66
ATOM     66  C   UNL A   1      45.974  27.812  31.684  1.00  0.00     0.058 A 
ATOM     67  C   UNL A   1      46.106  26.970  32.800  1.00  0.00     0.135 A 
ATOM     68  C   UNL A   1      47.046  27.870  30.779  1.00  0.00     0.135 A 
ATOM     69  F   UNL A   1      45.118  26.889  33.705  1.00  0.00    -0.206 F 
ATOM     70  C   UNL A   1      47.265  26.238  33.026  1.00  0.00     0.059 A 
ATOM     71  C   UNL A   1      48.206  27.123  30.969  1.00  0.00     0.059 A 
ATOM     72  F   UNL A   1      46.974  28.658  29.693  1.00  0.00    -0.206 F 
ATOM     73  C   UNL A   1      48.311  26.321  32.105  1.00  0.00     0.060 A 
BRANCH  73  74
ATOM     74  S   UNL A   1      49.809  25.360  32.412  1.00  0.00     0.124 S 
ATOM     75  O   UNL A   1      50.689  26.372  32.987  1.00  0.00    -0.237 OA
ATOM     76  O   UNL A   1      49.337  24.334  33.336  1.00  0.00    -0.237 OA
ATOM     77  O   UNL A   1      50.184  24.882  31.086  1.00  0.00    -0.744 OA
ENDBRANCH  73  74
ENDBRANCH  52  66
BRANCH  53  78
ATOM     78  C   UNL A   1      37.350  32.606  30.043  1.00  0.00     0.058 A 
ATOM     79  C   UNL A   1      36.242  32.334  30.859  1.00  0.00     0.135 A 
ATOM     80  C   UNL A   1      37.198  33.575  29.038  1.00  0.00     0.135 A 
ATOM     81  F   UNL A   1      36.335  31.413  31.831  1.00  0.00    -0.206 F 
ATOM     82  C   UNL A   1      35.025  32.982  30.677  1.00  0.00     0.059 A 
ATOM     83  C   UNL A   1      35.999  34.255  28.853  1.00  0.00     0.059 A 
ATOM     84  F   UNL A   1      38.233  33.885  28.242  1.00  0.00    -0.206 F 
ATOM     85  C   UNL A   1      34.914  33.944  29.672  1.00  0.00     0.060 A 
BRANCH  85  86
ATOM     86  S   UNL A   1      33.345  34.818  29.476  1.00  0.00     0.124 S 
ATOM     87  O   UNL A   1      32.594  33.889  28.639  1.00  0.00    -0.237 OA
ATOM     88  O   UNL A   1      32.891  34.945  30.858  1.00  0.00    -0.237 OA
ATOM     89  O   UNL A   1      33.738  36.070  28.836  1.00  0.00    -0.744 OA
ENDBRANCH  85  86
ENDBRANCH  53  78
BRANCH  65  90
ATOM     90  C   UNL A   1      43.266  34.292  33.337  1.00  0.00     0.058 A 
ATOM     91  C   UNL A   1      43.768  35.407  32.647  1.00  0.00     0.135 A 
ATOM     92  C   UNL A   1      43.139  34.387  34.732  1.00  0.00     0.135 A 
ATOM     93  F   UNL A   1      43.917  35.366  31.314  1.00  0.00    -0.206 F 
ATOM     94  C   UNL A   1      44.150  36.565  33.318  1.00  0.00     0.059 A 
ATOM     95  C   UNL A   1      43.488  35.545  35.421  1.00  0.00     0.059 A 
ATOM     96  F   UNL A   1      42.655  33.353  35.439  1.00  0.00    -0.206 F 
ATOM     97  C   UNL A   1      44.004  36.624  34.705  1.00  0.00     0.060 A 
BRANCH  97  98
ATOM     98  S   UNL A   1      44.470  38.145  35.561  1.00  0.00     0.124 S 
ATOM     99  O   UNL A   1      43.675  38.050  36.781  1.00  0.00    -0.237 OA
ATOM    100  O   UNL A   1      45.910  37.980  35.728  1.00  0.00    -0.237 OA
ATOM    101  O   UNL A   1      44.069  39.194  34.629  1.00  0.00    -0.744 OA
ENDBRANCH  97  98
ENDBRANCH  65  90
ENDBRANCH  39  40
ENDBRANCH  31  34
ENDBRANCH  29  30
ENDBRANCH  28  29
ENDBRANCH  27  28
ENDBRANCH   1  27
TORSDOF 20
ENDMDL
