MODEL 1
REMARK VINA RESULT:     -11.5      0.000      0.000
REMARK SMILES [NH3+]C1(C(=O)N2[C@@H](C(=O)NCCCCCCNC(=O)c3ccc(-c4c5nc(c(-c6c(F)cc(S(=O)(=O)[O-])cc6F)c6ccc([nH]6)c(-c6c(F)cc(S(=O)(=O)[O-])cc6F)c6nc(c(-c7c(F)cc(S(=O)(=O)[O-])cc7F)c7ccc4[nH]7)C=C6)C=C5)cc3)CC[C@@H]3CCCC[C@@H]32)CC1
REMARK SMILES IDX 12 1 11 2 10 3 9 4 7 5 8 6 6 8 5 9 92 10 85 11 87 12 91 13
REMARK SMILES IDX 86 14 88 15 90 16 89 17 3 18 4 19 2 20 93 21 94 22 1 23
REMARK SMILES IDX 13 27 14 28 15 29 16 30 17 31 18 33 19 34 20 35 84 36 21 37
REMARK SMILES IDX 83 38 22 39 23 40 24 41 77 42 25 43 82 44 76 45 78 46 26 47
REMARK SMILES IDX 81 48 75 49 74 50 27 52 61 53 40 54 60 55 41 56 44 57 59 58
REMARK SMILES IDX 79 59 42 60 43 61 58 63 80 64 45 65 28 66 29 67 38 68 30 69
REMARK SMILES IDX 31 70 37 71 39 72 32 73 33 74 34 75 35 76 36 77 62 78 63 79
REMARK SMILES IDX 72 80 64 81 65 82 71 83 73 84 66 85 67 86 68 87 69 88 70 89
REMARK SMILES IDX 46 90 47 91 56 92 48 93 49 94 55 95 57 96 50 97 51 98 52 99
REMARK SMILES IDX 53 100 54 101
REMARK H PARENT 9 7 1 24 1 25 1 26 16 32 78 51 44 62
REMARK Flexibility Score: inf
ROOT
ATOM      1  C   UNL A   1      33.931  22.213  23.979  1.00  0.00     0.002 C 
ENDROOT
BRANCH   1   2
ATOM      2  C   UNL A   1      33.103  22.542  22.728  1.00  0.00     0.021 C 
BRANCH   2   3
ATOM      3  C   UNL A   1      31.957  23.517  22.996  1.00  0.00     0.116 C 
BRANCH   3   4
ATOM      4  N   UNL A   1      31.962  24.553  21.983  1.00  0.00    -0.354 N 
ATOM      5  C   UNL A   1      31.807  25.893  22.126  1.00  0.00     0.242 C 
ATOM      6  O   UNL A   1      31.416  26.532  21.144  1.00  0.00    -0.273 OA
ATOM      7  H   UNL A   1      32.099  24.239  21.059  1.00  0.00     0.163 HD
BRANCH   5   8
ATOM      8  C   UNL A   1      31.980  26.587  23.488  1.00  0.00     0.175 C 
ATOM      9  N   UNL A   1      31.218  27.841  23.738  1.00  0.00    -0.322 N 
ATOM     10  C   UNL A   1      31.626  28.616  24.933  1.00  0.00     0.089 C 
ATOM     11  C   UNL A   1      33.512  26.774  23.665  1.00  0.00     0.036 C 
ATOM     12  C   UNL A   1      33.127  28.893  24.952  1.00  0.00     0.012 C 
ATOM     13  C   UNL A   1      31.130  27.917  26.221  1.00  0.00     0.025 C 
ATOM     14  C   UNL A   1      33.916  27.585  24.885  1.00  0.00     0.008 C 
ATOM     15  C   UNL A   1      33.454  29.727  26.194  1.00  0.00     0.006 C 
ATOM     16  C   UNL A   1      31.808  28.294  27.542  1.00  0.00     0.002 C 
ATOM     17  C   UNL A   1      33.175  28.974  27.484  1.00  0.00     0.000 C 
BRANCH   9  18
ATOM     18  C   UNL A   1      29.903  28.123  23.311  1.00  0.00     0.284 C 
ATOM     19  O   UNL A   1      28.965  27.380  23.601  1.00  0.00    -0.268 OA
BRANCH  18  20
ATOM     20  C   UNL A   1      29.539  29.358  22.507  1.00  0.00     0.174 C 
ATOM     21  C   UNL A   1      28.928  30.490  23.327  1.00  0.00     0.086 C 
ATOM     22  C   UNL A   1      28.136  29.838  22.247  1.00  0.00     0.086 C 
BRANCH  20  23
ATOM     23  N   UNL A   1      30.629  29.804  21.597  1.00  0.00    -0.345 N 
ATOM     24  H   UNL A   1      30.491  29.392  20.674  1.00  0.00     0.345 HD
ATOM     25  H   UNL A   1      31.529  29.504  21.972  1.00  0.00     0.345 HD
ATOM     26  H   UNL A   1      30.615  30.821  21.521  1.00  0.00     0.345 HD
ENDBRANCH  20  23
ENDBRANCH  18  20
ENDBRANCH   9  18
ENDBRANCH   5   8
ENDBRANCH   3   4
ENDBRANCH   2   3
ENDBRANCH   1   2
BRANCH   1  27
ATOM     27  C   UNL A   1      35.360  22.767  23.962  1.00  0.00     0.002 C 
BRANCH  27  28
ATOM     28  C   UNL A   1      35.548  24.057  24.762  1.00  0.00     0.021 C 
BRANCH  28  29
ATOM     29  C   UNL A   1      36.272  23.866  26.089  1.00  0.00     0.116 C 
BRANCH  29  30
ATOM     30  N   UNL A   1      37.202  22.751  26.039  1.00  0.00    -0.352 N 
ATOM     31  C   UNL A   1      38.559  22.761  26.206  1.00  0.00     0.251 C 
ATOM     32  H   UNL A   1      36.801  21.870  25.861  1.00  0.00     0.163 HD
ATOM     33  O   UNL A   1      39.219  21.760  25.919  1.00  0.00    -0.269 OA
BRANCH  31  34
ATOM     34  C   UNL A   1      39.229  23.974  26.714  1.00  0.00     0.039 A 
ATOM     35  C   UNL A   1      39.895  24.806  25.811  1.00  0.00     0.014 A 
ATOM     36  C   UNL A   1      39.212  24.284  28.078  1.00  0.00     0.014 A 
ATOM     37  C   UNL A   1      40.516  25.966  26.274  1.00  0.00     0.010 A 
ATOM     38  C   UNL A   1      39.762  25.481  28.524  1.00  0.00     0.010 A 
ATOM     39  C   UNL A   1      40.439  26.323  27.631  1.00  0.00    -0.014 A 
BRANCH  39  40
ATOM     40  C   UNL A   1      41.087  27.561  28.130  1.00  0.00     0.031 A 
ATOM     41  C   UNL A   1      42.580  27.721  28.038  1.00  0.00     0.074 A 
ATOM     42  C   UNL A   1      40.334  28.525  28.694  1.00  0.00     0.049 A 
ATOM     43  N   UNL A   1      43.329  28.724  28.419  1.00  0.00    -0.248 NA
ATOM     44  C   UNL A   1      43.336  26.594  27.466  1.00  0.00     0.031 C 
ATOM     45  C   UNL A   1      38.883  28.462  28.881  1.00  0.00     0.029 A 
ATOM     46  N   UNL A   1      40.683  29.746  29.209  1.00  0.00    -0.354 N 
ATOM     47  C   UNL A   1      44.638  28.349  28.139  1.00  0.00     0.074 A 
ATOM     48  C   UNL A   1      44.587  26.999  27.622  1.00  0.00     0.031 C 
ATOM     49  C   UNL A   1      38.461  29.612  29.428  1.00  0.00     0.029 A 
ATOM     50  C   UNL A   1      39.612  30.478  29.664  1.00  0.00     0.049 A 
ATOM     51  H   UNL A   1      41.612  30.069  29.248  1.00  0.00     0.167 HD
ATOM     52  C   UNL A   1      45.775  29.073  28.269  1.00  0.00     0.037 A 
ATOM     53  C   UNL A   1      39.563  31.712  30.203  1.00  0.00     0.037 A 
ATOM     54  C   UNL A   1      45.813  30.422  28.772  1.00  0.00     0.049 A 
ATOM     55  C   UNL A   1      40.839  32.494  30.354  1.00  0.00     0.074 A 
ATOM     56  C   UNL A   1      46.904  31.261  28.906  1.00  0.00     0.029 A 
ATOM     57  N   UNL A   1      44.708  31.127  29.229  1.00  0.00    -0.354 N 
ATOM     58  N   UNL A   1      42.062  32.149  30.028  1.00  0.00    -0.248 NA
ATOM     59  C   UNL A   1      40.727  33.837  30.939  1.00  0.00     0.031 C 
ATOM     60  C   UNL A   1      46.467  32.457  29.486  1.00  0.00     0.029 A 
ATOM     61  C   UNL A   1      45.094  32.384  29.664  1.00  0.00     0.049 A 
ATOM     62  H   UNL A   1      43.785  30.785  29.241  1.00  0.00     0.167 HD
ATOM     63  C   UNL A   1      42.862  33.242  30.339  1.00  0.00     0.074 A 
ATOM     64  C   UNL A   1      41.982  34.262  30.871  1.00  0.00     0.031 C 
ATOM     65  C   UNL A   1      44.203  33.390  30.191  1.00  0.00     0.037 A 
BRANCH  52  66
ATOM     66  C   UNL A   1      47.065  28.412  27.862  1.00  0.00     0.058 A 
ATOM     67  C   UNL A   1      47.561  28.508  26.550  1.00  0.00     0.135 A 
ATOM     68  C   UNL A   1      47.814  27.668  28.788  1.00  0.00     0.135 A 
ATOM     69  F   UNL A   1      46.881  29.195  25.619  1.00  0.00    -0.206 F 
ATOM     70  C   UNL A   1      48.723  27.849  26.159  1.00  0.00     0.059 A 
ATOM     71  C   UNL A   1      48.996  27.027  28.428  1.00  0.00     0.059 A 
ATOM     72  F   UNL A   1      47.391  27.545  30.056  1.00  0.00    -0.206 F 
ATOM     73  C   UNL A   1      49.430  27.104  27.104  1.00  0.00     0.060 A 
BRANCH  73  74
ATOM     74  S   UNL A   1      50.915  26.226  26.575  1.00  0.00     0.124 S 
ATOM     75  O   UNL A   1      51.940  27.246  26.769  1.00  0.00    -0.237 OA
ATOM     76  O   UNL A   1      50.959  25.099  27.501  1.00  0.00    -0.237 OA
ATOM     77  O   UNL A   1      50.629  25.881  25.186  1.00  0.00    -0.744 OA
ENDBRANCH  73  74
ENDBRANCH  52  66
BRANCH  53  78
ATOM     78  C   UNL A   1      38.251  32.297  30.587  1.00  0.00     0.058 A 
ATOM     79  C   UNL A   1      37.694  32.040  31.848  1.00  0.00     0.135 A 
ATOM     80  C   UNL A   1      37.550  33.152  29.723  1.00  0.00     0.135 A 
ATOM     81  F   UNL A   1      38.326  31.225  32.707  1.00  0.00    -0.206 F 
ATOM     82  C   UNL A   1      36.484  32.604  32.239  1.00  0.00     0.059 A 
ATOM     83  C   UNL A   1      36.350  33.747  30.101  1.00  0.00     0.059 A 
ATOM     84  F   UNL A   1      38.049  33.443  28.512  1.00  0.00    -0.206 F 
ATOM     85  C   UNL A   1      35.823  33.462  31.360  1.00  0.00     0.060 A 
BRANCH  85  86
ATOM     86  S   UNL A   1      34.287  34.240  31.905  1.00  0.00     0.124 S 
ATOM     87  O   UNL A   1      34.776  35.491  32.473  1.00  0.00    -0.237 OA
ATOM     88  O   UNL A   1      33.541  34.353  30.656  1.00  0.00    -0.237 OA
ATOM     89  O   UNL A   1      33.747  33.280  32.864  1.00  0.00    -0.744 OA
ENDBRANCH  85  86
ENDBRANCH  53  78
BRANCH  65  90
ATOM     90  C   UNL A   1      44.799  34.715  30.577  1.00  0.00     0.058 A 
ATOM     91  C   UNL A   1      45.342  34.940  31.852  1.00  0.00     0.135 A 
ATOM     92  C   UNL A   1      44.877  35.758  29.639  1.00  0.00     0.135 A 
ATOM     93  F   UNL A   1      45.287  33.978  32.788  1.00  0.00    -0.206 F 
ATOM     94  C   UNL A   1      45.920  36.159  32.191  1.00  0.00     0.059 A 
ATOM     95  C   UNL A   1      45.476  36.975  29.947  1.00  0.00     0.059 A 
ATOM     96  F   UNL A   1      44.383  35.593  28.402  1.00  0.00    -0.206 F 
ATOM     97  C   UNL A   1      45.985  37.170  31.230  1.00  0.00     0.060 A 
BRANCH  97  98
ATOM     98  S   UNL A   1      46.772  38.733  31.672  1.00  0.00     0.124 S 
ATOM     99  O   UNL A   1      47.547  38.349  32.847  1.00  0.00    -0.237 OA
ATOM    100  O   UNL A   1      47.546  39.043  30.475  1.00  0.00    -0.237 OA
ATOM    101  O   UNL A   1      45.642  39.622  31.929  1.00  0.00    -0.744 OA
ENDBRANCH  97  98
ENDBRANCH  65  90
ENDBRANCH  39  40
ENDBRANCH  31  34
ENDBRANCH  29  30
ENDBRANCH  28  29
ENDBRANCH  27  28
ENDBRANCH   1  27
TORSDOF 19
ENDMDL
MODEL 2
REMARK VINA RESULT:     -11.5      3.316      9.368
REMARK SMILES [NH3+]C1(C(=O)N2[C@@H](C(=O)NCCCCCCNC(=O)c3ccc(-c4c5nc(c(-c6c(F)cc(S(=O)(=O)[O-])cc6F)c6ccc([nH]6)c(-c6c(F)cc(S(=O)(=O)[O-])cc6F)c6nc(c(-c7c(F)cc(S(=O)(=O)[O-])cc7F)c7ccc4[nH]7)C=C6)C=C5)cc3)CC[C@@H]3CCCC[C@@H]32)CC1
REMARK SMILES IDX 12 1 11 2 10 3 9 4 7 5 8 6 6 8 5 9 92 10 85 11 87 12 91 13
REMARK SMILES IDX 86 14 88 15 90 16 89 17 3 18 4 19 2 20 93 21 94 22 1 23
REMARK SMILES IDX 13 27 14 28 15 29 16 30 17 31 18 33 19 34 20 35 84 36 21 37
REMARK SMILES IDX 83 38 22 39 23 40 24 41 77 42 25 43 82 44 76 45 78 46 26 47
REMARK SMILES IDX 81 48 75 49 74 50 27 52 61 53 40 54 60 55 41 56 44 57 59 58
REMARK SMILES IDX 79 59 42 60 43 61 58 63 80 64 45 65 28 66 29 67 38 68 30 69
REMARK SMILES IDX 31 70 37 71 39 72 32 73 33 74 34 75 35 76 36 77 62 78 63 79
REMARK SMILES IDX 72 80 64 81 65 82 71 83 73 84 66 85 67 86 68 87 69 88 70 89
REMARK SMILES IDX 46 90 47 91 56 92 48 93 49 94 55 95 57 96 50 97 51 98 52 99
REMARK SMILES IDX 53 100 54 101
REMARK H PARENT 9 7 1 24 1 25 1 26 16 32 78 51 44 62
REMARK Flexibility Score: inf
ROOT
ATOM      1  C   UNL A   1      32.530  26.263  23.530  1.00  0.00     0.002 C 
ENDROOT
BRANCH   1   2
ATOM      2  C   UNL A   1      31.087  26.096  24.031  1.00  0.00     0.021 C 
BRANCH   2   3
ATOM      3  C   UNL A   1      30.461  24.757  23.646  1.00  0.00     0.116 C 
BRANCH   3   4
ATOM      4  N   UNL A   1      30.279  23.953  24.837  1.00  0.00    -0.354 N 
ATOM      5  C   UNL A   1      31.134  23.075  25.418  1.00  0.00     0.242 C 
ATOM      6  O   UNL A   1      30.650  22.198  26.142  1.00  0.00    -0.273 OA
ATOM      7  H   UNL A   1      29.411  24.061  25.291  1.00  0.00     0.163 HD
BRANCH   5   8
ATOM      8  C   UNL A   1      32.638  23.075  25.095  1.00  0.00     0.175 C 
ATOM      9  N   UNL A   1      33.313  21.763  24.898  1.00  0.00    -0.322 N 
ATOM     10  C   UNL A   1      34.794  21.797  24.871  1.00  0.00     0.089 C 
ATOM     11  C   UNL A   1      33.301  23.926  26.212  1.00  0.00     0.036 C 
ATOM     12  C   UNL A   1      35.373  22.517  26.086  1.00  0.00     0.012 C 
ATOM     13  C   UNL A   1      35.292  22.390  23.531  1.00  0.00     0.025 C 
ATOM     14  C   UNL A   1      34.820  23.939  26.183  1.00  0.00     0.008 C 
ATOM     15  C   UNL A   1      36.901  22.473  25.998  1.00  0.00     0.006 C 
ATOM     16  C   UNL A   1      36.729  22.918  23.478  1.00  0.00     0.002 C 
ATOM     17  C   UNL A   1      37.432  23.238  24.796  1.00  0.00     0.000 C 
BRANCH   9  18
ATOM     18  C   UNL A   1      32.768  20.626  24.264  1.00  0.00     0.284 C 
ATOM     19  O   UNL A   1      32.200  20.713  23.175  1.00  0.00    -0.268 OA
BRANCH  18  20
ATOM     20  C   UNL A   1      32.869  19.226  24.843  1.00  0.00     0.174 C 
ATOM     21  C   UNL A   1      33.972  18.366  24.233  1.00  0.00     0.086 C 
ATOM     22  C   UNL A   1      32.545  17.957  24.099  1.00  0.00     0.086 C 
BRANCH  20  23
ATOM     23  N   UNL A   1      32.854  19.207  26.331  1.00  0.00    -0.345 N 
ATOM     24  H   UNL A   1      32.809  20.164  26.682  1.00  0.00     0.345 HD
ATOM     25  H   UNL A   1      33.703  18.759  26.674  1.00  0.00     0.345 HD
ATOM     26  H   UNL A   1      32.040  18.686  26.657  1.00  0.00     0.345 HD
ENDBRANCH  20  23
ENDBRANCH  18  20
ENDBRANCH   9  18
ENDBRANCH   5   8
ENDBRANCH   3   4
ENDBRANCH   2   3
ENDBRANCH   1   2
BRANCH   1  27
ATOM     27  C   UNL A   1      33.345  27.325  24.276  1.00  0.00     0.002 C 
BRANCH  27  28
ATOM     28  C   UNL A   1      32.987  27.474  25.756  1.00  0.00     0.021 C 
BRANCH  28  29
ATOM     29  C   UNL A   1      34.094  28.085  26.605  1.00  0.00     0.116 C 
BRANCH  29  30
ATOM     30  N   UNL A   1      33.757  29.428  27.045  1.00  0.00    -0.352 N 
ATOM     31  C   UNL A   1      34.490  30.284  27.820  1.00  0.00     0.251 C 
ATOM     32  H   UNL A   1      32.884  29.768  26.743  1.00  0.00     0.163 HD
ATOM     33  O   UNL A   1      33.963  31.302  28.276  1.00  0.00    -0.269 OA
BRANCH  31  34
ATOM     34  C   UNL A   1      35.901  29.977  28.122  1.00  0.00     0.039 A 
ATOM     35  C   UNL A   1      36.233  29.501  29.392  1.00  0.00     0.014 A 
ATOM     36  C   UNL A   1      36.898  30.169  27.159  1.00  0.00     0.014 A 
ATOM     37  C   UNL A   1      37.561  29.190  29.685  1.00  0.00     0.010 A 
ATOM     38  C   UNL A   1      38.206  29.782  27.427  1.00  0.00     0.010 A 
ATOM     39  C   UNL A   1      38.555  29.309  28.699  1.00  0.00    -0.014 A 
BRANCH  39  40
ATOM     40  C   UNL A   1      39.968  28.968  28.999  1.00  0.00     0.031 A 
ATOM     41  C   UNL A   1      40.857  29.970  29.684  1.00  0.00     0.074 A 
ATOM     42  C   UNL A   1      40.456  27.770  28.625  1.00  0.00     0.049 A 
ATOM     43  N   UNL A   1      42.114  29.859  30.028  1.00  0.00    -0.248 NA
ATOM     44  C   UNL A   1      40.263  31.278  30.002  1.00  0.00     0.031 C 
ATOM     45  C   UNL A   1      39.703  26.736  27.912  1.00  0.00     0.029 A 
ATOM     46  N   UNL A   1      41.700  27.218  28.795  1.00  0.00    -0.354 N 
ATOM     47  C   UNL A   1      42.461  31.079  30.596  1.00  0.00     0.074 A 
ATOM     48  C   UNL A   1      41.303  31.939  30.486  1.00  0.00     0.031 C 
ATOM     49  C   UNL A   1      40.486  25.659  27.745  1.00  0.00     0.029 A 
ATOM     50  C   UNL A   1      41.805  25.937  28.305  1.00  0.00     0.049 A 
ATOM     51  H   UNL A   1      42.446  27.692  29.227  1.00  0.00     0.167 HD
ATOM     52  C   UNL A   1      43.626  31.441  31.185  1.00  0.00     0.037 A 
ATOM     53  C   UNL A   1      42.846  25.082  28.315  1.00  0.00     0.037 A 
ATOM     54  C   UNL A   1      44.769  30.573  31.301  1.00  0.00     0.049 A 
ATOM     55  C   UNL A   1      44.136  25.509  28.959  1.00  0.00     0.074 A 
ATOM     56  C   UNL A   1      45.983  30.824  31.915  1.00  0.00     0.029 A 
ATOM     57  N   UNL A   1      44.840  29.285  30.788  1.00  0.00    -0.354 N 
ATOM     58  N   UNL A   1      44.429  26.645  29.546  1.00  0.00    -0.248 NA
ATOM     59  C   UNL A   1      45.235  24.534  28.949  1.00  0.00     0.031 C 
ATOM     60  C   UNL A   1      46.804  29.706  31.732  1.00  0.00     0.029 A 
ATOM     61  C   UNL A   1      46.083  28.737  31.053  1.00  0.00     0.049 A 
ATOM     62  H   UNL A   1      44.112  28.828  30.307  1.00  0.00     0.167 HD
ATOM     63  C   UNL A   1      45.735  26.512  30.003  1.00  0.00     0.074 A 
ATOM     64  C   UNL A   1      46.172  25.181  29.631  1.00  0.00     0.031 C 
ATOM     65  C   UNL A   1      46.501  27.407  30.676  1.00  0.00     0.037 A 
BRANCH  52  66
ATOM     66  C   UNL A   1      43.714  32.838  31.741  1.00  0.00     0.058 A 
ATOM     67  C   UNL A   1      43.281  33.141  33.044  1.00  0.00     0.135 A 
ATOM     68  C   UNL A   1      44.229  33.889  30.966  1.00  0.00     0.135 A 
ATOM     69  F   UNL A   1      42.768  32.179  33.827  1.00  0.00    -0.206 F 
ATOM     70  C   UNL A   1      43.308  34.442  33.537  1.00  0.00     0.059 A 
ATOM     71  C   UNL A   1      44.296  35.192  31.450  1.00  0.00     0.059 A 
ATOM     72  F   UNL A   1      44.661  33.658  29.715  1.00  0.00    -0.206 F 
ATOM     73  C   UNL A   1      43.811  35.463  32.729  1.00  0.00     0.060 A 
BRANCH  73  74
ATOM     74  S   UNL A   1      43.807  37.150  33.369  1.00  0.00     0.124 S 
ATOM     75  O   UNL A   1      43.736  37.928  32.136  1.00  0.00    -0.237 OA
ATOM     76  O   UNL A   1      42.607  37.167  34.199  1.00  0.00    -0.237 OA
ATOM     77  O   UNL A   1      45.069  37.241  34.096  1.00  0.00    -0.744 OA
ENDBRANCH  73  74
ENDBRANCH  52  66
BRANCH  53  78
ATOM     78  C   UNL A   1      42.685  23.720  27.740  1.00  0.00     0.058 A 
ATOM     79  C   UNL A   1      42.445  22.616  28.572  1.00  0.00     0.135 A 
ATOM     80  C   UNL A   1      42.728  23.499  26.355  1.00  0.00     0.135 A 
ATOM     81  F   UNL A   1      42.401  22.777  29.903  1.00  0.00    -0.206 F 
ATOM     82  C   UNL A   1      42.259  21.339  28.052  1.00  0.00     0.059 A 
ATOM     83  C   UNL A   1      42.521  22.236  25.810  1.00  0.00     0.059 A 
ATOM     84  F   UNL A   1      42.937  24.525  25.516  1.00  0.00    -0.206 F 
ATOM     85  C   UNL A   1      42.292  21.161  26.668  1.00  0.00     0.060 A 
BRANCH  85  86
ATOM     86  S   UNL A   1      41.982  19.510  26.004  1.00  0.00     0.124 S 
ATOM     87  O   UNL A   1      42.380  18.663  27.122  1.00  0.00    -0.237 OA
ATOM     88  O   UNL A   1      40.552  19.561  25.716  1.00  0.00    -0.237 OA
ATOM     89  O   UNL A   1      42.848  19.454  24.830  1.00  0.00    -0.744 OA
ENDBRANCH  85  86
ENDBRANCH  53  78
BRANCH  65  90
ATOM     90  C   UNL A   1      47.880  26.968  31.085  1.00  0.00     0.058 A 
ATOM     91  C   UNL A   1      48.989  27.125  30.240  1.00  0.00     0.135 A 
ATOM     92  C   UNL A   1      48.102  26.432  32.365  1.00  0.00     0.135 A 
ATOM     93  F   UNL A   1      48.830  27.626  29.004  1.00  0.00    -0.206 F 
ATOM     94  C   UNL A   1      50.266  26.745  30.638  1.00  0.00     0.059 A 
ATOM     95  C   UNL A   1      49.375  26.072  32.795  1.00  0.00     0.059 A 
ATOM     96  F   UNL A   1      47.078  26.270  33.218  1.00  0.00    -0.206 F 
ATOM     97  C   UNL A   1      50.450  26.222  31.920  1.00  0.00     0.060 A 
BRANCH  97  98
ATOM     98  S   UNL A   1      52.118  25.768  32.438  1.00  0.00     0.124 S 
ATOM     99  O   UNL A   1      52.926  26.368  31.382  1.00  0.00    -0.237 OA
ATOM    100  O   UNL A   1      52.220  26.398  33.750  1.00  0.00    -0.237 OA
ATOM    101  O   UNL A   1      52.086  24.308  32.450  1.00  0.00    -0.744 OA
ENDBRANCH  97  98
ENDBRANCH  65  90
ENDBRANCH  39  40
ENDBRANCH  31  34
ENDBRANCH  29  30
ENDBRANCH  28  29
ENDBRANCH  27  28
ENDBRANCH   1  27
TORSDOF 19
ENDMDL
MODEL 3
REMARK VINA RESULT:     -11.4      4.538     10.046
REMARK SMILES [NH3+]C1(C(=O)N2[C@@H](C(=O)NCCCCCCNC(=O)c3ccc(-c4c5nc(c(-c6c(F)cc(S(=O)(=O)[O-])cc6F)c6ccc([nH]6)c(-c6c(F)cc(S(=O)(=O)[O-])cc6F)c6nc(c(-c7c(F)cc(S(=O)(=O)[O-])cc7F)c7ccc4[nH]7)C=C6)C=C5)cc3)CC[C@@H]3CCCC[C@@H]32)CC1
REMARK SMILES IDX 12 1 11 2 10 3 9 4 7 5 8 6 6 8 5 9 92 10 85 11 87 12 91 13
REMARK SMILES IDX 86 14 88 15 90 16 89 17 3 18 4 19 2 20 93 21 94 22 1 23
REMARK SMILES IDX 13 27 14 28 15 29 16 30 17 31 18 33 19 34 20 35 84 36 21 37
REMARK SMILES IDX 83 38 22 39 23 40 24 41 77 42 25 43 82 44 76 45 78 46 26 47
REMARK SMILES IDX 81 48 75 49 74 50 27 52 61 53 40 54 60 55 41 56 44 57 59 58
REMARK SMILES IDX 79 59 42 60 43 61 58 63 80 64 45 65 28 66 29 67 38 68 30 69
REMARK SMILES IDX 31 70 37 71 39 72 32 73 33 74 34 75 35 76 36 77 62 78 63 79
REMARK SMILES IDX 72 80 64 81 65 82 71 83 73 84 66 85 67 86 68 87 69 88 70 89
REMARK SMILES IDX 46 90 47 91 56 92 48 93 49 94 55 95 57 96 50 97 51 98 52 99
REMARK SMILES IDX 53 100 54 101
REMARK H PARENT 9 7 1 24 1 25 1 26 16 32 78 51 44 62
REMARK Flexibility Score: inf
ROOT
ATOM      1  C   UNL A   1      31.019  27.498  24.859  1.00  0.00     0.002 C 
ENDROOT
BRANCH   1   2
ATOM      2  C   UNL A   1      30.191  26.305  25.357  1.00  0.00     0.021 C 
BRANCH   2   3
ATOM      3  C   UNL A   1      30.385  25.040  24.523  1.00  0.00     0.116 C 
BRANCH   3   4
ATOM      4  N   UNL A   1      30.255  23.877  25.378  1.00  0.00    -0.354 N 
ATOM      5  C   UNL A   1      31.121  22.851  25.567  1.00  0.00     0.242 C 
ATOM      6  O   UNL A   1      30.660  21.781  25.978  1.00  0.00    -0.273 OA
ATOM      7  H   UNL A   1      29.419  23.826  25.897  1.00  0.00     0.163 HD
BRANCH   5   8
ATOM      8  C   UNL A   1      32.602  22.956  25.165  1.00  0.00     0.175 C 
ATOM      9  N   UNL A   1      33.346  21.696  24.892  1.00  0.00    -0.322 N 
ATOM     10  C   UNL A   1      34.819  21.827  24.788  1.00  0.00     0.089 C 
ATOM     11  C   UNL A   1      33.270  23.817  26.271  1.00  0.00     0.036 C 
ATOM     12  C   UNL A   1      35.417  22.548  25.992  1.00  0.00     0.012 C 
ATOM     13  C   UNL A   1      35.204  22.486  23.442  1.00  0.00     0.025 C 
ATOM     14  C   UNL A   1      34.782  23.929  26.162  1.00  0.00     0.008 C 
ATOM     15  C   UNL A   1      36.938  22.605  25.822  1.00  0.00     0.006 C 
ATOM     16  C   UNL A   1      36.600  23.108  23.329  1.00  0.00     0.002 C 
ATOM     17  C   UNL A   1      37.353  23.435  24.618  1.00  0.00     0.000 C 
BRANCH   9  18
ATOM     18  C   UNL A   1      32.841  20.544  24.252  1.00  0.00     0.284 C 
ATOM     19  O   UNL A   1      32.335  20.607  23.131  1.00  0.00    -0.268 OA
BRANCH  18  20
ATOM     20  C   UNL A   1      32.909  19.158  24.866  1.00  0.00     0.174 C 
ATOM     21  C   UNL A   1      34.034  18.280  24.324  1.00  0.00     0.086 C 
ATOM     22  C   UNL A   1      32.612  17.874  24.138  1.00  0.00     0.086 C 
BRANCH  20  23
ATOM     23  N   UNL A   1      32.830  19.173  26.352  1.00  0.00    -0.345 N 
ATOM     24  H   UNL A   1      33.515  18.521  26.735  1.00  0.00     0.345 HD
ATOM     25  H   UNL A   1      31.895  18.893  26.646  1.00  0.00     0.345 HD
ATOM     26  H   UNL A   1      33.026  20.114  26.694  1.00  0.00     0.345 HD
ENDBRANCH  20  23
ENDBRANCH  18  20
ENDBRANCH   9  18
ENDBRANCH   5   8
ENDBRANCH   3   4
ENDBRANCH   2   3
ENDBRANCH   1   2
BRANCH   1  27
ATOM     27  C   UNL A   1      32.533  27.256  24.827  1.00  0.00     0.002 C 
BRANCH  27  28
ATOM     28  C   UNL A   1      33.250  27.554  26.144  1.00  0.00     0.021 C 
BRANCH  28  29
ATOM     29  C   UNL A   1      34.353  28.598  26.030  1.00  0.00     0.116 C 
BRANCH  29  30
ATOM     30  N   UNL A   1      33.893  29.915  26.437  1.00  0.00    -0.352 N 
ATOM     31  C   UNL A   1      34.370  30.716  27.437  1.00  0.00     0.251 C 
ATOM     32  H   UNL A   1      33.136  30.278  25.924  1.00  0.00     0.163 HD
ATOM     33  O   UNL A   1      33.726  31.708  27.787  1.00  0.00    -0.269 OA
BRANCH  31  34
ATOM     34  C   UNL A   1      35.644  30.381  28.103  1.00  0.00     0.039 A 
ATOM     35  C   UNL A   1      35.615  29.610  29.267  1.00  0.00     0.014 A 
ATOM     36  C   UNL A   1      36.862  30.838  27.590  1.00  0.00     0.014 A 
ATOM     37  C   UNL A   1      36.813  29.271  29.897  1.00  0.00     0.010 A 
ATOM     38  C   UNL A   1      38.057  30.431  28.173  1.00  0.00     0.010 A 
ATOM     39  C   UNL A   1      38.044  29.662  29.344  1.00  0.00    -0.014 A 
BRANCH  39  40
ATOM     40  C   UNL A   1      39.323  29.295  30.001  1.00  0.00     0.031 A 
ATOM     41  C   UNL A   1      39.760  30.006  31.253  1.00  0.00     0.074 A 
ATOM     42  C   UNL A   1      40.104  28.345  29.452  1.00  0.00     0.049 A 
ATOM     43  N   UNL A   1      40.840  29.828  31.970  1.00  0.00    -0.248 NA
ATOM     44  C   UNL A   1      38.880  31.074  31.753  1.00  0.00     0.031 C 
ATOM     45  C   UNL A   1      39.808  27.620  28.214  1.00  0.00     0.029 A 
ATOM     46  N   UNL A   1      41.303  27.823  29.865  1.00  0.00    -0.354 N 
ATOM     47  C   UNL A   1      40.772  30.763  32.997  1.00  0.00     0.074 A 
ATOM     48  C   UNL A   1      39.580  31.551  32.770  1.00  0.00     0.031 C 
ATOM     49  C   UNL A   1      40.776  26.717  27.993  1.00  0.00     0.029 A 
ATOM     50  C   UNL A   1      41.778  26.823  29.049  1.00  0.00     0.049 A 
ATOM     51  H   UNL A   1      41.778  28.134  30.668  1.00  0.00     0.167 HD
ATOM     52  C   UNL A   1      41.607  30.929  34.051  1.00  0.00     0.037 A 
ATOM     53  C   UNL A   1      42.892  26.072  29.147  1.00  0.00     0.037 A 
ATOM     54  C   UNL A   1      42.784  30.130  34.274  1.00  0.00     0.049 A 
ATOM     55  C   UNL A   1      43.814  26.283  30.316  1.00  0.00     0.074 A 
ATOM     56  C   UNL A   1      43.675  30.186  35.331  1.00  0.00     0.029 A 
ATOM     57  N   UNL A   1      43.235  29.131  33.423  1.00  0.00    -0.354 N 
ATOM     58  N   UNL A   1      43.704  27.129  31.312  1.00  0.00    -0.248 NA
ATOM     59  C   UNL A   1      45.009  25.430  30.379  1.00  0.00     0.031 C 
ATOM     60  C   UNL A   1      44.690  29.252  35.095  1.00  0.00     0.029 A 
ATOM     61  C   UNL A   1      44.403  28.577  33.920  1.00  0.00     0.049 A 
ATOM     62  H   UNL A   1      42.789  28.855  32.589  1.00  0.00     0.167 HD
ATOM     63  C   UNL A   1      44.797  26.891  32.137  1.00  0.00     0.074 A 
ATOM     64  C   UNL A   1      45.552  25.815  31.527  1.00  0.00     0.031 C 
ATOM     65  C   UNL A   1      45.141  27.503  33.298  1.00  0.00     0.037 A 
BRANCH  52  66
ATOM     66  C   UNL A   1      41.270  32.020  35.033  1.00  0.00     0.058 A 
ATOM     67  C   UNL A   1      40.345  31.817  36.071  1.00  0.00     0.135 A 
ATOM     68  C   UNL A   1      41.872  33.285  34.935  1.00  0.00     0.135 A 
ATOM     69  F   UNL A   1      39.729  30.632  36.206  1.00  0.00    -0.206 F 
ATOM     70  C   UNL A   1      39.990  32.842  36.943  1.00  0.00     0.059 A 
ATOM     71  C   UNL A   1      41.557  34.315  35.816  1.00  0.00     0.059 A 
ATOM     72  F   UNL A   1      42.766  33.535  33.966  1.00  0.00    -0.206 F 
ATOM     73  C   UNL A   1      40.597  34.091  36.803  1.00  0.00     0.060 A 
BRANCH  73  74
ATOM     74  S   UNL A   1      40.101  35.421  37.918  1.00  0.00     0.124 S 
ATOM     75  O   UNL A   1      39.951  36.537  36.990  1.00  0.00    -0.237 OA
ATOM     76  O   UNL A   1      38.863  34.903  38.491  1.00  0.00    -0.237 OA
ATOM     77  O   UNL A   1      41.223  35.523  38.845  1.00  0.00    -0.744 OA
ENDBRANCH  73  74
ENDBRANCH  52  66
BRANCH  53  78
ATOM     78  C   UNL A   1      43.160  25.017  28.134  1.00  0.00     0.058 A 
ATOM     79  C   UNL A   1      43.871  25.314  26.962  1.00  0.00     0.135 A 
ATOM     80  C   UNL A   1      42.751  23.689  28.333  1.00  0.00     0.135 A 
ATOM     81  F   UNL A   1      44.279  26.570  26.725  1.00  0.00    -0.206 F 
ATOM     82  C   UNL A   1      44.161  24.335  26.017  1.00  0.00     0.059 A 
ATOM     83  C   UNL A   1      43.050  22.688  27.415  1.00  0.00     0.059 A 
ATOM     84  F   UNL A   1      42.083  23.351  29.446  1.00  0.00    -0.206 F 
ATOM     85  C   UNL A   1      43.752  23.022  26.257  1.00  0.00     0.060 A 
BRANCH  85  86
ATOM     86  S   UNL A   1      44.194  21.748  25.056  1.00  0.00     0.124 S 
ATOM     87  O   UNL A   1      45.588  21.493  25.396  1.00  0.00    -0.237 OA
ATOM     88  O   UNL A   1      43.250  20.682  25.380  1.00  0.00    -0.237 OA
ATOM     89  O   UNL A   1      43.967  22.406  23.772  1.00  0.00    -0.744 OA
ENDBRANCH  85  86
ENDBRANCH  53  78
BRANCH  65  90
ATOM     90  C   UNL A   1      46.371  27.002  34.006  1.00  0.00     0.058 A 
ATOM     91  C   UNL A   1      47.637  27.560  33.774  1.00  0.00     0.135 A 
ATOM     92  C   UNL A   1      46.268  25.986  34.971  1.00  0.00     0.135 A 
ATOM     93  F   UNL A   1      47.791  28.529  32.857  1.00  0.00    -0.206 F 
ATOM     94  C   UNL A   1      48.764  27.112  34.456  1.00  0.00     0.059 A 
ATOM     95  C   UNL A   1      47.377  25.542  35.685  1.00  0.00     0.059 A 
ATOM     96  F   UNL A   1      45.078  25.425  35.239  1.00  0.00    -0.206 F 
ATOM     97  C   UNL A   1      48.623  26.104  35.412  1.00  0.00     0.060 A 
BRANCH  97  98
ATOM     98  S   UNL A   1      50.087  25.559  36.317  1.00  0.00     0.124 S 
ATOM     99  O   UNL A   1      51.099  26.485  35.821  1.00  0.00    -0.237 OA
ATOM    100  O   UNL A   1      49.683  25.746  37.706  1.00  0.00    -0.237 OA
ATOM    101  O   UNL A   1      50.248  24.170  35.897  1.00  0.00    -0.744 OA
ENDBRANCH  97  98
ENDBRANCH  65  90
ENDBRANCH  39  40
ENDBRANCH  31  34
ENDBRANCH  29  30
ENDBRANCH  28  29
ENDBRANCH  27  28
ENDBRANCH   1  27
TORSDOF 19
ENDMDL
