MODEL 1
REMARK VINA RESULT:     -10.5      0.000      0.000
REMARK SMILES CC(C)[C@H]([NH2+]Cc1ccc(N(C)C)cc1)C(=O)NCCCCCCNC(=O)c1ccc(-c2c3nc(c(-c4c(F)cc(S(=O)(=O)[O-])cc4F)c4ccc([nH]4)c(-c4c(F)cc(S(=O)(=O)[O-])cc4F)c4nc(c(-c5c(F)cc(S(=O)(=O)[O-])cc5F)c5ccc2[nH]5)C=C4)C=C3)cc1
REMARK SMILES IDX 21 1 20 2 19 3 18 4 16 5 17 6 4 8 2 9 1 10 3 11 5 12 6 15
REMARK SMILES IDX 7 16 8 17 15 18 9 19 14 20 10 21 11 22 12 23 13 24 22 25
REMARK SMILES IDX 23 26 24 27 25 28 26 29 27 31 28 32 29 33 93 34 30 35 92 36
REMARK SMILES IDX 31 37 32 38 33 39 86 40 34 41 91 42 85 43 87 44 35 45 90 46
REMARK SMILES IDX 84 47 83 48 36 50 70 51 49 52 69 53 50 54 53 55 68 56 88 57
REMARK SMILES IDX 51 58 52 59 67 61 89 62 54 63 37 64 38 65 47 66 39 67 40 68
REMARK SMILES IDX 46 69 48 70 41 71 42 72 43 73 44 74 45 75 71 76 72 77 81 78
REMARK SMILES IDX 73 79 74 80 80 81 82 82 75 83 76 84 77 85 78 86 79 87 55 88
REMARK SMILES IDX 56 89 65 90 57 91 58 92 64 93 66 94 59 95 60 96 61 97 62 98
REMARK SMILES IDX 63 99
REMARK H PARENT 18 7 5 13 5 14 25 30 87 49 53 60
REMARK Flexibility Score: inf
ROOT
ATOM      1  C   UNL A   1      30.663  28.326  24.785  1.00  0.00     0.002 C 
ENDROOT
BRANCH   1   2
ATOM      2  C   UNL A   1      31.293  28.211  23.394  1.00  0.00     0.021 C 
BRANCH   2   3
ATOM      3  C   UNL A   1      30.730  27.075  22.546  1.00  0.00     0.116 C 
BRANCH   3   4
ATOM      4  N   UNL A   1      31.694  26.640  21.560  1.00  0.00    -0.351 N 
ATOM      5  C   UNL A   1      32.597  25.621  21.612  1.00  0.00     0.278 C 
ATOM      6  O   UNL A   1      33.286  25.421  20.606  1.00  0.00    -0.268 OA
ATOM      7  H   UNL A   1      31.698  27.160  20.723  1.00  0.00     0.163 HD
BRANCH   5   8
ATOM      8  C   UNL A   1      32.737  24.730  22.875  1.00  0.00     0.275 C 
BRANCH   8   9
ATOM      9  C   UNL A   1      34.192  24.664  23.439  1.00  0.00     0.051 C 
ATOM     10  C   UNL A   1      34.276  24.709  24.974  1.00  0.00     0.014 C 
ATOM     11  C   UNL A   1      34.893  23.377  22.975  1.00  0.00     0.014 C 
ENDBRANCH   8   9
BRANCH   8  12
ATOM     12  N   UNL A   1      31.949  23.476  22.693  1.00  0.00    -0.332 N 
ATOM     13  H   UNL A   1      32.529  22.827  22.160  1.00  0.00     0.347 HD
ATOM     14  H   UNL A   1      31.090  23.776  22.233  1.00  0.00     0.347 HD
BRANCH  12  15
ATOM     15  C   UNL A   1      31.502  22.778  23.890  1.00  0.00     0.297 C 
BRANCH  15  16
ATOM     16  C   UNL A   1      32.085  21.387  24.017  1.00  0.00     0.006 A 
ATOM     17  C   UNL A   1      32.110  20.514  22.930  1.00  0.00     0.012 A 
ATOM     18  C   UNL A   1      32.528  20.901  25.248  1.00  0.00     0.012 A 
ATOM     19  C   UNL A   1      32.520  19.178  23.087  1.00  0.00     0.026 A 
ATOM     20  C   UNL A   1      32.932  19.565  25.393  1.00  0.00     0.026 A 
ATOM     21  C   UNL A   1      32.915  18.650  24.327  1.00  0.00     0.036 A 
BRANCH  21  22
ATOM     22  N   UNL A   1      33.237  17.311  24.508  1.00  0.00    -0.378 N 
ATOM     23  C   UNL A   1      32.824  16.544  25.678  1.00  0.00     0.143 C 
ATOM     24  C   UNL A   1      33.943  16.563  23.471  1.00  0.00     0.143 C 
ENDBRANCH  21  22
ENDBRANCH  15  16
ENDBRANCH  12  15
ENDBRANCH   8  12
ENDBRANCH   5   8
ENDBRANCH   3   4
ENDBRANCH   2   3
ENDBRANCH   1   2
BRANCH   1  25
ATOM     25  C   UNL A   1      31.638  28.695  25.908  1.00  0.00     0.002 C 
BRANCH  25  26
ATOM     26  C   UNL A   1      32.735  27.664  26.192  1.00  0.00     0.021 C 
BRANCH  26  27
ATOM     27  C   UNL A   1      33.965  28.208  26.917  1.00  0.00     0.116 C 
BRANCH  27  28
ATOM     28  N   UNL A   1      33.760  29.564  27.399  1.00  0.00    -0.352 N 
ATOM     29  C   UNL A   1      34.592  30.367  28.130  1.00  0.00     0.251 C 
ATOM     30  H   UNL A   1      32.891  29.965  27.164  1.00  0.00     0.163 HD
ATOM     31  O   UNL A   1      34.154  31.416  28.610  1.00  0.00    -0.269 OA
BRANCH  29  32
ATOM     32  C   UNL A   1      36.000  29.984  28.362  1.00  0.00     0.039 A 
ATOM     33  C   UNL A   1      36.902  30.073  27.299  1.00  0.00     0.014 A 
ATOM     34  C   UNL A   1      36.430  29.507  29.606  1.00  0.00     0.014 A 
ATOM     35  C   UNL A   1      38.242  29.732  27.494  1.00  0.00     0.010 A 
ATOM     36  C   UNL A   1      37.781  29.227  29.816  1.00  0.00     0.010 A 
ATOM     37  C   UNL A   1      38.699  29.333  28.762  1.00  0.00    -0.014 A 
BRANCH  37  38
ATOM     38  C   UNL A   1      40.140  29.050  28.989  1.00  0.00     0.031 A 
ATOM     39  C   UNL A   1      40.727  27.712  28.633  1.00  0.00     0.074 A 
ATOM     40  C   UNL A   1      40.913  29.999  29.552  1.00  0.00     0.049 A 
ATOM     41  N   UNL A   1      41.962  27.297  28.752  1.00  0.00    -0.248 NA
ATOM     42  C   UNL A   1      39.804  26.701  28.094  1.00  0.00     0.031 C 
ATOM     43  C   UNL A   1      40.445  31.313  30.001  1.00  0.00     0.029 A 
ATOM     44  N   UNL A   1      42.252  30.007  29.847  1.00  0.00    -0.354 N 
ATOM     45  C   UNL A   1      41.965  25.979  28.311  1.00  0.00     0.074 A 
ATOM     46  C   UNL A   1      40.599  25.647  27.969  1.00  0.00     0.031 C 
ATOM     47  C   UNL A   1      41.485  32.009  30.486  1.00  0.00     0.029 A 
ATOM     48  C   UNL A   1      42.687  31.185  30.409  1.00  0.00     0.049 A 
ATOM     49  H   UNL A   1      42.847  29.243  29.672  1.00  0.00     0.167 HD
ATOM     50  C   UNL A   1      43.015  25.130  28.182  1.00  0.00     0.037 A 
ATOM     51  C   UNL A   1      43.915  31.561  30.814  1.00  0.00     0.037 A 
ATOM     52  C   UNL A   1      44.377  25.473  28.505  1.00  0.00     0.049 A 
ATOM     53  C   UNL A   1      45.067  30.611  30.634  1.00  0.00     0.074 A 
ATOM     54  C   UNL A   1      45.519  24.707  28.348  1.00  0.00     0.029 A 
ATOM     55  N   UNL A   1      44.781  26.682  29.053  1.00  0.00    -0.354 N 
ATOM     56  N   UNL A   1      45.063  29.393  30.145  1.00  0.00    -0.248 NA
ATOM     57  C   UNL A   1      46.391  31.091  31.050  1.00  0.00     0.031 C 
ATOM     58  C   UNL A   1      46.608  25.437  28.838  1.00  0.00     0.029 A 
ATOM     59  C   UNL A   1      46.151  26.676  29.259  1.00  0.00     0.049 A 
ATOM     60  H   UNL A   1      44.183  27.434  29.265  1.00  0.00     0.167 HD
ATOM     61  C   UNL A   1      46.386  28.967  30.181  1.00  0.00     0.074 A 
ATOM     62  C   UNL A   1      47.164  30.067  30.715  1.00  0.00     0.031 C 
ATOM     63  C   UNL A   1      46.909  27.774  29.806  1.00  0.00     0.037 A 
BRANCH  50  64
ATOM     64  C   UNL A   1      42.733  23.747  27.661  1.00  0.00     0.058 A 
ATOM     65  C   UNL A   1      42.679  23.476  26.284  1.00  0.00     0.135 A 
ATOM     66  C   UNL A   1      42.547  22.673  28.546  1.00  0.00     0.135 A 
ATOM     67  F   UNL A   1      42.835  24.468  25.392  1.00  0.00    -0.206 F 
ATOM     68  C   UNL A   1      42.425  22.195  25.803  1.00  0.00     0.059 A 
ATOM     69  C   UNL A   1      42.318  21.379  28.087  1.00  0.00     0.059 A 
ATOM     70  F   UNL A   1      42.588  22.875  29.872  1.00  0.00    -0.206 F 
ATOM     71  C   UNL A   1      42.244  21.152  26.713  1.00  0.00     0.060 A 
BRANCH  71  72
ATOM     72  S   UNL A   1      41.918  19.495  26.074  1.00  0.00     0.124 S 
ATOM     73  O   UNL A   1      42.268  18.667  27.225  1.00  0.00    -0.237 OA
ATOM     74  O   UNL A   1      40.497  19.560  25.750  1.00  0.00    -0.237 OA
ATOM     75  O   UNL A   1      42.816  19.389  24.929  1.00  0.00    -0.744 OA
ENDBRANCH  71  72
ENDBRANCH  50  64
BRANCH  51  76
ATOM     76  C   UNL A   1      44.121  32.911  31.397  1.00  0.00     0.058 A 
ATOM     77  C   UNL A   1      44.093  33.111  32.785  1.00  0.00     0.135 A 
ATOM     78  C   UNL A   1      44.369  34.026  30.580  1.00  0.00     0.135 A 
ATOM     79  F   UNL A   1      43.855  32.076  33.607  1.00  0.00    -0.206 F 
ATOM     80  C   UNL A   1      44.287  34.369  33.345  1.00  0.00     0.059 A 
ATOM     81  C   UNL A   1      44.591  35.290  31.117  1.00  0.00     0.059 A 
ATOM     82  F   UNL A   1      44.425  33.884  29.247  1.00  0.00    -0.206 F 
ATOM     83  C   UNL A   1      44.538  35.453  32.502  1.00  0.00     0.060 A 
BRANCH  83  84
ATOM     84  S   UNL A   1      44.845  37.073  33.238  1.00  0.00     0.124 S 
ATOM     85  O   UNL A   1      44.786  36.764  34.662  1.00  0.00    -0.237 OA
ATOM     86  O   UNL A   1      46.165  37.407  32.709  1.00  0.00    -0.237 OA
ATOM     87  O   UNL A   1      43.749  37.888  32.721  1.00  0.00    -0.744 OA
ENDBRANCH  83  84
ENDBRANCH  51  76
BRANCH  63  88
ATOM     88  C   UNL A   1      48.396  27.606  29.956  1.00  0.00     0.058 A 
ATOM     89  C   UNL A   1      48.961  27.067  31.123  1.00  0.00     0.135 A 
ATOM     90  C   UNL A   1      49.266  27.984  28.921  1.00  0.00     0.135 A 
ATOM     91  F   UNL A   1      48.174  26.693  32.144  1.00  0.00    -0.206 F 
ATOM     92  C   UNL A   1      50.339  26.947  31.275  1.00  0.00     0.059 A 
ATOM     93  C   UNL A   1      50.645  27.848  29.041  1.00  0.00     0.059 A 
ATOM     94  F   UNL A   1      48.777  28.494  27.778  1.00  0.00    -0.206 F 
ATOM     95  C   UNL A   1      51.173  27.348  30.230  1.00  0.00     0.060 A 
BRANCH  95  96
ATOM     96  S   UNL A   1      52.960  27.196  30.439  1.00  0.00     0.124 S 
ATOM     97  O   UNL A   1      53.065  25.914  31.128  1.00  0.00    -0.237 OA
ATOM     98  O   UNL A   1      53.442  27.218  29.062  1.00  0.00    -0.237 OA
ATOM     99  O   UNL A   1      53.308  28.369  31.236  1.00  0.00    -0.744 OA
ENDBRANCH  95  96
ENDBRANCH  63  88
ENDBRANCH  37  38
ENDBRANCH  29  32
ENDBRANCH  27  28
ENDBRANCH  26  27
ENDBRANCH  25  26
ENDBRANCH   1  25
TORSDOF 21
ENDMDL
MODEL 2
REMARK VINA RESULT:     -10.4      2.830      9.434
REMARK SMILES CC(C)[C@H]([NH2+]Cc1ccc(N(C)C)cc1)C(=O)NCCCCCCNC(=O)c1ccc(-c2c3nc(c(-c4c(F)cc(S(=O)(=O)[O-])cc4F)c4ccc([nH]4)c(-c4c(F)cc(S(=O)(=O)[O-])cc4F)c4nc(c(-c5c(F)cc(S(=O)(=O)[O-])cc5F)c5ccc2[nH]5)C=C4)C=C3)cc1
REMARK SMILES IDX 21 1 20 2 19 3 18 4 16 5 17 6 4 8 2 9 1 10 3 11 5 12 6 15
REMARK SMILES IDX 7 16 8 17 15 18 9 19 14 20 10 21 11 22 12 23 13 24 22 25
REMARK SMILES IDX 23 26 24 27 25 28 26 29 27 31 28 32 29 33 93 34 30 35 92 36
REMARK SMILES IDX 31 37 32 38 33 39 86 40 34 41 91 42 85 43 87 44 35 45 90 46
REMARK SMILES IDX 84 47 83 48 36 50 70 51 49 52 69 53 50 54 53 55 68 56 88 57
REMARK SMILES IDX 51 58 52 59 67 61 89 62 54 63 37 64 38 65 47 66 39 67 40 68
REMARK SMILES IDX 46 69 48 70 41 71 42 72 43 73 44 74 45 75 71 76 72 77 81 78
REMARK SMILES IDX 73 79 74 80 80 81 82 82 75 83 76 84 77 85 78 86 79 87 55 88
REMARK SMILES IDX 56 89 65 90 57 91 58 92 64 93 66 94 59 95 60 96 61 97 62 98
REMARK SMILES IDX 63 99
REMARK H PARENT 18 7 5 13 5 14 25 30 87 49 53 60
REMARK Flexibility Score: inf
ROOT
ATOM      1  C   UNL A   1      33.106  29.189  25.713  1.00  0.00     0.002 C 
ENDROOT
BRANCH   1   2
ATOM      2  C   UNL A   1      32.689  27.752  25.391  1.00  0.00     0.021 C 
BRANCH   2   3
ATOM      3  C   UNL A   1      33.837  26.854  24.944  1.00  0.00     0.116 C 
BRANCH   3   4
ATOM      4  N   UNL A   1      33.969  26.860  23.504  1.00  0.00    -0.351 N 
ATOM      5  C   UNL A   1      33.363  26.075  22.569  1.00  0.00     0.278 C 
ATOM      6  O   UNL A   1      33.610  26.312  21.382  1.00  0.00    -0.268 OA
ATOM      7  H   UNL A   1      34.590  27.533  23.144  1.00  0.00     0.163 HD
BRANCH   5   8
ATOM      8  C   UNL A   1      32.380  24.945  22.977  1.00  0.00     0.275 C 
BRANCH   8   9
ATOM      9  C   UNL A   1      32.911  23.509  22.670  1.00  0.00     0.051 C 
ATOM     10  C   UNL A   1      34.363  23.265  23.113  1.00  0.00     0.014 C 
ATOM     11  C   UNL A   1      32.033  22.450  23.357  1.00  0.00     0.014 C 
ENDBRANCH   8   9
BRANCH   8  12
ATOM     12  N   UNL A   1      30.991  25.326  22.590  1.00  0.00    -0.332 N 
ATOM     13  H   UNL A   1      30.483  24.463  22.393  1.00  0.00     0.347 HD
ATOM     14  H   UNL A   1      31.107  25.957  21.799  1.00  0.00     0.347 HD
BRANCH  12  15
ATOM     15  C   UNL A   1      30.204  26.083  23.554  1.00  0.00     0.297 C 
BRANCH  15  16
ATOM     16  C   UNL A   1      29.763  27.432  23.028  1.00  0.00     0.006 A 
ATOM     17  C   UNL A   1      30.681  28.330  22.486  1.00  0.00     0.012 A 
ATOM     18  C   UNL A   1      28.440  27.857  23.156  1.00  0.00     0.012 A 
ATOM     19  C   UNL A   1      30.292  29.634  22.131  1.00  0.00     0.026 A 
ATOM     20  C   UNL A   1      28.064  29.161  22.800  1.00  0.00     0.026 A 
ATOM     21  C   UNL A   1      28.980  30.104  22.303  1.00  0.00     0.036 A 
BRANCH  21  22
ATOM     22  N   UNL A   1      28.608  31.416  22.037  1.00  0.00    -0.378 N 
ATOM     23  C   UNL A   1      28.908  32.526  22.934  1.00  0.00     0.143 C 
ATOM     24  C   UNL A   1      27.963  31.770  20.776  1.00  0.00     0.143 C 
ENDBRANCH  21  22
ENDBRANCH  15  16
ENDBRANCH  12  15
ENDBRANCH   8  12
ENDBRANCH   5   8
ENDBRANCH   3   4
ENDBRANCH   2   3
ENDBRANCH   1   2
BRANCH   1  25
ATOM     25  C   UNL A   1      34.335  29.318  26.619  1.00  0.00     0.002 C 
BRANCH  25  26
ATOM     26  C   UNL A   1      34.293  30.474  27.625  1.00  0.00     0.021 C 
BRANCH  26  27
ATOM     27  C   UNL A   1      35.635  30.828  28.262  1.00  0.00     0.116 C 
BRANCH  27  28
ATOM     28  N   UNL A   1      35.606  30.692  29.709  1.00  0.00    -0.352 N 
ATOM     29  C   UNL A   1      36.559  30.205  30.561  1.00  0.00     0.251 C 
ATOM     30  H   UNL A   1      34.775  30.997  30.141  1.00  0.00     0.163 HD
ATOM     31  O   UNL A   1      36.264  29.990  31.740  1.00  0.00    -0.269 OA
BRANCH  29  32
ATOM     32  C   UNL A   1      37.928  29.921  30.081  1.00  0.00     0.039 A 
ATOM     33  C   UNL A   1      38.903  29.561  31.014  1.00  0.00     0.014 A 
ATOM     34  C   UNL A   1      38.264  30.039  28.728  1.00  0.00     0.014 A 
ATOM     35  C   UNL A   1      40.200  29.273  30.588  1.00  0.00     0.010 A 
ATOM     36  C   UNL A   1      39.544  29.690  28.296  1.00  0.00     0.010 A 
ATOM     37  C   UNL A   1      40.525  29.307  29.220  1.00  0.00    -0.014 A 
BRANCH  37  38
ATOM     38  C   UNL A   1      41.883  28.920  28.758  1.00  0.00     0.031 A 
ATOM     39  C   UNL A   1      42.992  29.934  28.691  1.00  0.00     0.074 A 
ATOM     40  C   UNL A   1      42.104  27.650  28.365  1.00  0.00     0.049 A 
ATOM     41  N   UNL A   1      44.237  29.770  28.323  1.00  0.00    -0.248 NA
ATOM     42  C   UNL A   1      42.653  31.317  29.062  1.00  0.00     0.031 C 
ATOM     43  C   UNL A   1      41.092  26.591  28.324  1.00  0.00     0.029 A 
ATOM     44  N   UNL A   1      43.247  27.033  27.924  1.00  0.00    -0.354 N 
ATOM     45  C   UNL A   1      44.829  31.024  28.412  1.00  0.00     0.074 A 
ATOM     46  C   UNL A   1      43.793  31.950  28.820  1.00  0.00     0.031 C 
ATOM     47  C   UNL A   1      41.666  25.450  27.910  1.00  0.00     0.029 A 
ATOM     48  C   UNL A   1      43.076  25.700  27.631  1.00  0.00     0.049 A 
ATOM     49  H   UNL A   1      44.108  27.499  27.827  1.00  0.00     0.167 HD
ATOM     50  C   UNL A   1      46.122  31.369  28.195  1.00  0.00     0.037 A 
ATOM     51  C   UNL A   1      43.957  24.782  27.190  1.00  0.00     0.037 A 
ATOM     52  C   UNL A   1      47.153  30.439  27.809  1.00  0.00     0.049 A 
ATOM     53  C   UNL A   1      45.392  25.183  26.984  1.00  0.00     0.074 A 
ATOM     54  C   UNL A   1      48.505  30.676  27.629  1.00  0.00     0.029 A 
ATOM     55  N   UNL A   1      46.947  29.093  27.541  1.00  0.00    -0.354 N 
ATOM     56  N   UNL A   1      45.950  26.360  27.146  1.00  0.00    -0.248 NA
ATOM     57  C   UNL A   1      46.317  24.130  26.548  1.00  0.00     0.031 C 
ATOM     58  C   UNL A   1      49.108  29.484  27.213  1.00  0.00     0.029 A 
ATOM     59  C   UNL A   1      48.142  28.493  27.177  1.00  0.00     0.049 A 
ATOM     60  H   UNL A   1      46.079  28.632  27.599  1.00  0.00     0.167 HD
ATOM     61  C   UNL A   1      47.296  26.184  26.845  1.00  0.00     0.074 A 
ATOM     62  C   UNL A   1      47.470  24.784  26.517  1.00  0.00     0.031 C 
ATOM     63  C   UNL A   1      48.296  27.100  26.839  1.00  0.00     0.037 A 
BRANCH  50  64
ATOM     64  C   UNL A   1      46.498  32.814  28.379  1.00  0.00     0.058 A 
ATOM     65  C   UNL A   1      46.441  33.731  27.316  1.00  0.00     0.135 A 
ATOM     66  C   UNL A   1      46.888  33.298  29.639  1.00  0.00     0.135 A 
ATOM     67  F   UNL A   1      46.089  33.320  26.087  1.00  0.00    -0.206 F 
ATOM     68  C   UNL A   1      46.782  35.069  27.489  1.00  0.00     0.059 A 
ATOM     69  C   UNL A   1      47.207  34.638  29.840  1.00  0.00     0.059 A 
ATOM     70  F   UNL A   1      46.960  32.466  30.689  1.00  0.00    -0.206 F 
ATOM     71  C   UNL A   1      47.165  35.513  28.755  1.00  0.00     0.060 A 
BRANCH  71  72
ATOM     72  S   UNL A   1      47.602  37.252  28.964  1.00  0.00     0.124 S 
ATOM     73  O   UNL A   1      47.765  37.337  30.413  1.00  0.00    -0.237 OA
ATOM     74  O   UNL A   1      48.829  37.363  28.182  1.00  0.00    -0.237 OA
ATOM     75  O   UNL A   1      46.449  37.961  28.420  1.00  0.00    -0.744 OA
ENDBRANCH  71  72
ENDBRANCH  50  64
BRANCH  51  76
ATOM     76  C   UNL A   1      43.511  23.386  26.947  1.00  0.00     0.058 A 
ATOM     77  C   UNL A   1      43.329  22.901  25.644  1.00  0.00     0.135 A 
ATOM     78  C   UNL A   1      43.276  22.502  28.013  1.00  0.00     0.135 A 
ATOM     79  F   UNL A   1      43.537  23.710  24.593  1.00  0.00    -0.206 F 
ATOM     80  C   UNL A   1      42.915  21.596  25.402  1.00  0.00     0.059 A 
ATOM     81  C   UNL A   1      42.885  21.184  27.797  1.00  0.00     0.059 A 
ATOM     82  F   UNL A   1      43.455  22.912  29.278  1.00  0.00    -0.206 F 
ATOM     83  C   UNL A   1      42.698  20.744  26.487  1.00  0.00     0.060 A 
BRANCH  83  84
ATOM     84  S   UNL A   1      42.215  19.034  26.164  1.00  0.00     0.124 S 
ATOM     85  O   UNL A   1      40.804  19.186  25.826  1.00  0.00    -0.237 OA
ATOM     86  O   UNL A   1      43.101  18.666  25.063  1.00  0.00    -0.237 OA
ATOM     87  O   UNL A   1      42.493  18.364  27.431  1.00  0.00    -0.744 OA
ENDBRANCH  83  84
ENDBRANCH  51  76
BRANCH  63  88
ATOM     88  C   UNL A   1      49.669  26.605  26.475  1.00  0.00     0.058 A 
ATOM     89  C   UNL A   1      50.105  26.562  25.141  1.00  0.00     0.135 A 
ATOM     90  C   UNL A   1      50.560  26.172  27.470  1.00  0.00     0.135 A 
ATOM     91  F   UNL A   1      49.290  26.961  24.151  1.00  0.00    -0.206 F 
ATOM     92  C   UNL A   1      51.361  26.069  24.802  1.00  0.00     0.059 A 
ATOM     93  C   UNL A   1      51.830  25.700  27.156  1.00  0.00     0.059 A 
ATOM     94  F   UNL A   1      50.197  26.203  28.763  1.00  0.00    -0.206 F 
ATOM     95  C   UNL A   1      52.214  25.634  25.818  1.00  0.00     0.060 A 
BRANCH  95  96
ATOM     96  S   UNL A   1      53.839  24.988  25.368  1.00  0.00     0.124 S 
ATOM     97  O   UNL A   1      53.491  23.683  24.815  1.00  0.00    -0.237 OA
ATOM     98  O   UNL A   1      54.316  25.977  24.407  1.00  0.00    -0.237 OA
ATOM     99  O   UNL A   1      54.556  24.961  26.639  1.00  0.00    -0.744 OA
ENDBRANCH  95  96
ENDBRANCH  63  88
ENDBRANCH  37  38
ENDBRANCH  29  32
ENDBRANCH  27  28
ENDBRANCH  26  27
ENDBRANCH  25  26
ENDBRANCH   1  25
TORSDOF 21
ENDMDL
MODEL 3
REMARK VINA RESULT:     -10.3      2.638      8.766
REMARK SMILES CC(C)[C@H]([NH2+]Cc1ccc(N(C)C)cc1)C(=O)NCCCCCCNC(=O)c1ccc(-c2c3nc(c(-c4c(F)cc(S(=O)(=O)[O-])cc4F)c4ccc([nH]4)c(-c4c(F)cc(S(=O)(=O)[O-])cc4F)c4nc(c(-c5c(F)cc(S(=O)(=O)[O-])cc5F)c5ccc2[nH]5)C=C4)C=C3)cc1
REMARK SMILES IDX 21 1 20 2 19 3 18 4 16 5 17 6 4 8 2 9 1 10 3 11 5 12 6 15
REMARK SMILES IDX 7 16 8 17 15 18 9 19 14 20 10 21 11 22 12 23 13 24 22 25
REMARK SMILES IDX 23 26 24 27 25 28 26 29 27 31 28 32 29 33 93 34 30 35 92 36
REMARK SMILES IDX 31 37 32 38 33 39 86 40 34 41 91 42 85 43 87 44 35 45 90 46
REMARK SMILES IDX 84 47 83 48 36 50 70 51 49 52 69 53 50 54 53 55 68 56 88 57
REMARK SMILES IDX 51 58 52 59 67 61 89 62 54 63 37 64 38 65 47 66 39 67 40 68
REMARK SMILES IDX 46 69 48 70 41 71 42 72 43 73 44 74 45 75 71 76 72 77 81 78
REMARK SMILES IDX 73 79 74 80 80 81 82 82 75 83 76 84 77 85 78 86 79 87 55 88
REMARK SMILES IDX 56 89 65 90 57 91 58 92 64 93 66 94 59 95 60 96 61 97 62 98
REMARK SMILES IDX 63 99
REMARK H PARENT 18 7 5 13 5 14 25 30 87 49 53 60
REMARK Flexibility Score: inf
ROOT
ATOM      1  C   UNL A   1      33.604  30.383  27.209  1.00  0.00     0.002 C 
ENDROOT
BRANCH   1   2
ATOM      2  C   UNL A   1      33.203  28.913  27.360  1.00  0.00     0.021 C 
BRANCH   2   3
ATOM      3  C   UNL A   1      31.834  28.577  26.778  1.00  0.00     0.116 C 
BRANCH   3   4
ATOM      4  N   UNL A   1      31.681  29.144  25.457  1.00  0.00    -0.351 N 
ATOM      5  C   UNL A   1      31.707  28.537  24.237  1.00  0.00     0.278 C 
ATOM      6  O   UNL A   1      31.501  29.244  23.245  1.00  0.00    -0.268 OA
ATOM      7  H   UNL A   1      31.535  30.118  25.434  1.00  0.00     0.163 HD
BRANCH   5   8
ATOM      8  C   UNL A   1      31.960  27.011  24.100  1.00  0.00     0.275 C 
BRANCH   8   9
ATOM      9  C   UNL A   1      33.437  26.648  23.749  1.00  0.00     0.051 C 
ATOM     10  C   UNL A   1      34.066  25.597  24.678  1.00  0.00     0.014 C 
ATOM     11  C   UNL A   1      33.534  26.112  22.312  1.00  0.00     0.014 C 
ENDBRANCH   8   9
BRANCH   8  12
ATOM     12  N   UNL A   1      30.837  26.384  23.345  1.00  0.00    -0.332 N 
ATOM     13  H   UNL A   1      31.236  25.947  22.513  1.00  0.00     0.347 HD
ATOM     14  H   UNL A   1      30.186  27.148  23.169  1.00  0.00     0.347 HD
BRANCH  12  15
ATOM     15  C   UNL A   1      30.042  25.373  24.029  1.00  0.00     0.297 C 
BRANCH  15  16
ATOM     16  C   UNL A   1      30.802  24.086  24.269  1.00  0.00     0.006 A 
ATOM     17  C   UNL A   1      31.025  23.611  25.561  1.00  0.00     0.012 A 
ATOM     18  C   UNL A   1      31.385  23.386  23.213  1.00  0.00     0.012 A 
ATOM     19  C   UNL A   1      31.850  22.495  25.787  1.00  0.00     0.026 A 
ATOM     20  C   UNL A   1      32.209  22.274  23.451  1.00  0.00     0.026 A 
ATOM     21  C   UNL A   1      32.493  21.808  24.746  1.00  0.00     0.036 A 
BRANCH  21  22
ATOM     22  N   UNL A   1      33.379  20.761  24.967  1.00  0.00    -0.378 N 
ATOM     23  C   UNL A   1      34.791  20.963  25.269  1.00  0.00     0.143 C 
ATOM     24  C   UNL A   1      32.911  19.378  24.998  1.00  0.00     0.143 C 
ENDBRANCH  21  22
ENDBRANCH  15  16
ENDBRANCH  12  15
ENDBRANCH   8  12
ENDBRANCH   5   8
ENDBRANCH   3   4
ENDBRANCH   2   3
ENDBRANCH   1   2
BRANCH   1  25
ATOM     25  C   UNL A   1      35.042  30.707  27.629  1.00  0.00     0.002 C 
BRANCH  25  26
ATOM     26  C   UNL A   1      35.302  32.168  28.011  1.00  0.00     0.021 C 
BRANCH  26  27
ATOM     27  C   UNL A   1      36.253  32.370  29.190  1.00  0.00     0.116 C 
BRANCH  27  28
ATOM     28  N   UNL A   1      35.959  31.468  30.290  1.00  0.00    -0.352 N 
ATOM     29  C   UNL A   1      36.645  30.367  30.726  1.00  0.00     0.251 C 
ATOM     30  H   UNL A   1      35.142  31.680  30.799  1.00  0.00     0.163 HD
ATOM     31  O   UNL A   1      36.124  29.617  31.555  1.00  0.00    -0.269 OA
BRANCH  29  32
ATOM     32  C   UNL A   1      37.994  30.062  30.203  1.00  0.00     0.039 A 
ATOM     33  C   UNL A   1      39.060  29.989  31.102  1.00  0.00     0.014 A 
ATOM     34  C   UNL A   1      38.220  29.881  28.834  1.00  0.00     0.014 A 
ATOM     35  C   UNL A   1      40.341  29.687  30.638  1.00  0.00     0.010 A 
ATOM     36  C   UNL A   1      39.488  29.517  28.380  1.00  0.00     0.010 A 
ATOM     37  C   UNL A   1      40.562  29.421  29.276  1.00  0.00    -0.014 A 
BRANCH  37  38
ATOM     38  C   UNL A   1      41.908  29.018  28.795  1.00  0.00     0.031 A 
ATOM     39  C   UNL A   1      43.026  30.021  28.707  1.00  0.00     0.074 A 
ATOM     40  C   UNL A   1      42.111  27.744  28.404  1.00  0.00     0.049 A 
ATOM     41  N   UNL A   1      44.263  29.843  28.321  1.00  0.00    -0.248 NA
ATOM     42  C   UNL A   1      42.706  31.408  29.077  1.00  0.00     0.031 C 
ATOM     43  C   UNL A   1      41.089  26.695  28.382  1.00  0.00     0.029 A 
ATOM     44  N   UNL A   1      43.241  27.115  27.948  1.00  0.00    -0.354 N 
ATOM     45  C   UNL A   1      44.869  31.092  28.395  1.00  0.00     0.074 A 
ATOM     46  C   UNL A   1      43.848  32.029  28.815  1.00  0.00     0.031 C 
ATOM     47  C   UNL A   1      41.645  25.547  27.965  1.00  0.00     0.029 A 
ATOM     48  C   UNL A   1      43.053  25.782  27.663  1.00  0.00     0.049 A 
ATOM     49  H   UNL A   1      44.105  27.572  27.836  1.00  0.00     0.167 HD
ATOM     50  C   UNL A   1      46.162  31.423  28.158  1.00  0.00     0.037 A 
ATOM     51  C   UNL A   1      43.918  24.854  27.213  1.00  0.00     0.037 A 
ATOM     52  C   UNL A   1      47.178  30.482  27.759  1.00  0.00     0.049 A 
ATOM     53  C   UNL A   1      45.353  25.240  26.983  1.00  0.00     0.074 A 
ATOM     54  C   UNL A   1      48.529  30.706  27.558  1.00  0.00     0.029 A 
ATOM     55  N   UNL A   1      46.955  29.137  27.501  1.00  0.00    -0.354 N 
ATOM     56  N   UNL A   1      45.925  26.412  27.132  1.00  0.00    -0.248 NA
ATOM     57  C   UNL A   1      46.262  24.176  26.538  1.00  0.00     0.031 C 
ATOM     58  C   UNL A   1      49.115  29.506  27.138  1.00  0.00     0.029 A 
ATOM     59  C   UNL A   1      48.138  28.524  27.121  1.00  0.00     0.049 A 
ATOM     60  H   UNL A   1      46.083  28.685  27.574  1.00  0.00     0.167 HD
ATOM     61  C   UNL A   1      47.265  26.222  26.811  1.00  0.00     0.074 A 
ATOM     62  C   UNL A   1      47.421  24.819  26.487  1.00  0.00     0.031 C 
ATOM     63  C   UNL A   1      48.274  27.128  26.787  1.00  0.00     0.037 A 
BRANCH  50  64
ATOM     64  C   UNL A   1      46.555  32.866  28.330  1.00  0.00     0.058 A 
ATOM     65  C   UNL A   1      46.460  33.785  27.272  1.00  0.00     0.135 A 
ATOM     66  C   UNL A   1      46.998  33.344  29.574  1.00  0.00     0.135 A 
ATOM     67  F   UNL A   1      46.056  33.381  26.057  1.00  0.00    -0.206 F 
ATOM     68  C   UNL A   1      46.817  35.121  27.435  1.00  0.00     0.059 A 
ATOM     69  C   UNL A   1      47.335  34.681  29.765  1.00  0.00     0.059 A 
ATOM     70  F   UNL A   1      47.108  32.508  30.618  1.00  0.00    -0.206 F 
ATOM     71  C   UNL A   1      47.254  35.559  28.685  1.00  0.00     0.060 A 
BRANCH  71  72
ATOM     72  S   UNL A   1      47.711  37.295  28.881  1.00  0.00     0.124 S 
ATOM     73  O   UNL A   1      48.475  37.533  27.660  1.00  0.00    -0.237 OA
ATOM     74  O   UNL A   1      46.411  37.954  28.953  1.00  0.00    -0.237 OA
ATOM     75  O   UNL A   1      48.485  37.306  30.118  1.00  0.00    -0.744 OA
ENDBRANCH  71  72
ENDBRANCH  50  64
BRANCH  51  76
ATOM     76  C   UNL A   1      43.455  23.461  26.983  1.00  0.00     0.058 A 
ATOM     77  C   UNL A   1      43.375  22.542  28.039  1.00  0.00     0.135 A 
ATOM     78  C   UNL A   1      43.065  23.026  25.706  1.00  0.00     0.135 A 
ATOM     79  F   UNL A   1      43.741  22.910  29.277  1.00  0.00    -0.206 F 
ATOM     80  C   UNL A   1      42.940  21.237  27.839  1.00  0.00     0.059 A 
ATOM     81  C   UNL A   1      42.603  21.733  25.484  1.00  0.00     0.059 A 
ATOM     82  F   UNL A   1      43.105  23.874  24.666  1.00  0.00    -0.206 F 
ATOM     83  C   UNL A   1      42.554  20.842  26.556  1.00  0.00     0.060 A 
BRANCH  83  84
ATOM     84  S   UNL A   1      41.937  19.163  26.313  1.00  0.00     0.124 S 
ATOM     85  O   UNL A   1      42.922  18.619  25.386  1.00  0.00    -0.237 OA
ATOM     86  O   UNL A   1      41.969  18.623  27.670  1.00  0.00    -0.237 OA
ATOM     87  O   UNL A   1      40.600  19.374  25.766  1.00  0.00    -0.744 OA
ENDBRANCH  83  84
ENDBRANCH  51  76
BRANCH  63  88
ATOM     88  C   UNL A   1      49.636  26.618  26.404  1.00  0.00     0.058 A 
ATOM     89  C   UNL A   1      50.118  26.725  25.090  1.00  0.00     0.135 A 
ATOM     90  C   UNL A   1      50.471  26.020  27.362  1.00  0.00     0.135 A 
ATOM     91  F   UNL A   1      49.358  27.285  24.135  1.00  0.00    -0.206 F 
ATOM     92  C   UNL A   1      51.363  26.219  24.728  1.00  0.00     0.059 A 
ATOM     93  C   UNL A   1      51.729  25.532  27.029  1.00  0.00     0.059 A 
ATOM     94  F   UNL A   1      50.063  25.904  28.637  1.00  0.00    -0.206 F 
ATOM     95  C   UNL A   1      52.158  25.618  25.705  1.00  0.00     0.060 A 
BRANCH  95  96
ATOM     96  S   UNL A   1      53.769  24.957  25.226  1.00  0.00     0.124 S 
ATOM     97  O   UNL A   1      54.036  25.700  23.998  1.00  0.00    -0.237 OA
ATOM     98  O   UNL A   1      54.605  25.303  26.371  1.00  0.00    -0.237 OA
ATOM     99  O   UNL A   1      53.512  23.531  25.054  1.00  0.00    -0.744 OA
ENDBRANCH  95  96
ENDBRANCH  63  88
ENDBRANCH  37  38
ENDBRANCH  29  32
ENDBRANCH  27  28
ENDBRANCH  26  27
ENDBRANCH  25  26
ENDBRANCH   1  25
TORSDOF 21
ENDMDL
