MODEL 1
REMARK VINA RESULT:     -14.4      0.000      0.000
REMARK SMILES Cc1ccc(C(=O)N2C[C@@H](C(=O)NCCCCCCNC(=O)c3ccc(-c4c5nc(c(-c6c(F)cc(S(=O)(=O)[O-])cc6F)c6ccc([nH]6)c(-c6c(F)cc(S(=O)(=O)[O-])cc6F)c6nc(c(-c7c(F)cc(S(=O)(=O)[O-])cc7F)c7ccc4[nH]7)C=C6)C=C5)cc3)C[C@H](C(=O)N3CCOCC3)C2)cc1F
REMARK SMILES IDX 17 1 16 2 15 3 14 4 13 5 11 6 12 7 10 9 8 10 9 11 99 12
REMARK SMILES IDX 90 13 89 14 6 15 7 16 5 17 1 18 2 19 3 20 101 21 4 22 100 23
REMARK SMILES IDX 102 24 91 25 92 26 93 27 94 28 98 29 95 30 97 31 96 32 18 33
REMARK SMILES IDX 19 34 20 35 21 36 22 38 23 39 24 40 88 41 25 42 87 43 26 44
REMARK SMILES IDX 27 45 28 46 81 47 29 48 86 49 80 50 82 51 30 52 85 53 79 54
REMARK SMILES IDX 78 55 31 57 65 58 44 59 64 60 45 61 48 62 63 63 83 64 46 65
REMARK SMILES IDX 47 66 62 68 84 69 49 70 32 71 33 72 42 73 34 74 35 75 41 76
REMARK SMILES IDX 43 77 36 78 37 79 38 80 39 81 40 82 66 83 67 84 76 85 68 86
REMARK SMILES IDX 69 87 75 88 77 89 70 90 71 91 72 92 73 93 74 94 50 95 51 96
REMARK SMILES IDX 60 97 52 98 53 99 59 100 61 101 54 102 55 103 56 104 57 105
REMARK SMILES IDX 58 106
REMARK H PARENT 13 8 20 37 82 56 48 67
REMARK Flexibility Score: inf
ROOT
ATOM      1  C   UNL A   1      34.061  28.654  26.342  1.00  0.00     0.002 C 
ENDROOT
BRANCH   1   2
ATOM      2  C   UNL A   1      32.820  28.273  27.164  1.00  0.00     0.002 C 
BRANCH   2   3
ATOM      3  C   UNL A   1      31.507  28.101  26.399  1.00  0.00     0.021 C 
BRANCH   3   4
ATOM      4  C   UNL A   1      31.656  27.850  24.909  1.00  0.00     0.116 C 
BRANCH   4   5
ATOM      5  N   UNL A   1      30.439  27.379  24.287  1.00  0.00    -0.356 N 
ATOM      6  C   UNL A   1      29.951  26.115  24.211  1.00  0.00     0.224 C 
ATOM      7  O   UNL A   1      28.824  25.945  23.741  1.00  0.00    -0.275 OA
ATOM      8  H   UNL A   1      29.887  28.072  23.858  1.00  0.00     0.163 HD
BRANCH   6   9
ATOM      9  C   UNL A   1      30.782  24.923  24.651  1.00  0.00     0.099 C 
ATOM     10  N   UNL A   1      31.429  22.585  24.148  1.00  0.00    -0.337 N 
ATOM     11  C   UNL A   1      30.737  23.771  23.663  1.00  0.00     0.133 C 
ATOM     12  C   UNL A   1      31.061  22.110  25.482  1.00  0.00     0.133 C 
ATOM     13  C   UNL A   1      31.134  23.215  26.556  1.00  0.00     0.099 C 
ATOM     14  C   UNL A   1      30.531  24.548  26.119  1.00  0.00     0.030 C 
BRANCH  10  15
ATOM     15  C   UNL A   1      32.251  21.914  23.249  1.00  0.00     0.254 C 
ATOM     16  O   UNL A   1      32.749  22.470  22.271  1.00  0.00    -0.269 OA
BRANCH  15  17
ATOM     17  C   UNL A   1      32.463  20.452  23.369  1.00  0.00     0.042 A 
ATOM     18  C   UNL A   1      33.961  16.419  23.229  1.00  0.00     0.047 C 
ATOM     19  C   UNL A   1      33.371  17.795  23.304  1.00  0.00    -0.015 A 
ATOM     20  C   UNL A   1      32.479  18.258  22.330  1.00  0.00     0.007 A 
ATOM     21  C   UNL A   1      33.764  18.666  24.325  1.00  0.00     0.126 A 
ATOM     22  C   UNL A   1      32.030  19.584  22.357  1.00  0.00     0.014 A 
ATOM     23  C   UNL A   1      33.326  19.985  24.363  1.00  0.00     0.053 A 
ATOM     24  F   UNL A   1      34.626  18.244  25.263  1.00  0.00    -0.207 F 
ENDBRANCH  15  17
ENDBRANCH  10  15
BRANCH  13  25
ATOM     25  C   UNL A   1      32.518  23.184  27.219  1.00  0.00     0.227 C 
ATOM     26  O   UNL A   1      32.639  22.546  28.272  1.00  0.00    -0.275 OA
ATOM     27  N   UNL A   1      33.636  23.606  26.542  1.00  0.00    -0.338 N 
ATOM     28  C   UNL A   1      33.876  24.908  25.922  1.00  0.00     0.148 C 
ATOM     29  C   UNL A   1      34.858  22.813  26.649  1.00  0.00     0.148 C 
ATOM     30  C   UNL A   1      34.526  24.714  24.544  1.00  0.00     0.181 C 
ATOM     31  C   UNL A   1      35.479  22.668  25.255  1.00  0.00     0.181 C 
ATOM     32  O   UNL A   1      35.745  23.957  24.670  1.00  0.00    -0.378 OA
ENDBRANCH  13  25
ENDBRANCH   6   9
ENDBRANCH   4   5
ENDBRANCH   3   4
ENDBRANCH   2   3
ENDBRANCH   1   2
BRANCH   1  33
ATOM     33  C   UNL A   1      34.967  29.766  26.884  1.00  0.00     0.021 C 
BRANCH  33  34
ATOM     34  C   UNL A   1      34.601  30.277  28.256  1.00  0.00     0.116 C 
BRANCH  34  35
ATOM     35  N   UNL A   1      35.620  31.128  28.841  1.00  0.00    -0.352 N 
ATOM     36  C   UNL A   1      36.357  30.573  29.885  1.00  0.00     0.251 C 
ATOM     37  H   UNL A   1      35.782  32.042  28.518  1.00  0.00     0.163 HD
ATOM     38  O   UNL A   1      35.985  30.614  31.041  1.00  0.00    -0.269 OA
BRANCH  36  39
ATOM     39  C   UNL A   1      37.439  29.645  29.433  1.00  0.00     0.039 A 
ATOM     40  C   UNL A   1      38.220  29.967  28.317  1.00  0.00     0.014 A 
ATOM     41  C   UNL A   1      37.824  28.601  30.278  1.00  0.00     0.014 A 
ATOM     42  C   UNL A   1      39.434  29.306  28.114  1.00  0.00     0.010 A 
ATOM     43  C   UNL A   1      39.062  28.036  30.147  1.00  0.00     0.010 A 
ATOM     44  C   UNL A   1      39.872  28.380  29.067  1.00  0.00    -0.014 A 
BRANCH  44  45
ATOM     45  C   UNL A   1      41.172  27.725  29.061  1.00  0.00     0.031 A 
ATOM     46  C   UNL A   1      41.342  26.350  28.575  1.00  0.00     0.074 A 
ATOM     47  C   UNL A   1      42.241  28.454  29.446  1.00  0.00     0.049 A 
ATOM     48  N   UNL A   1      42.271  25.561  28.992  1.00  0.00    -0.248 NA
ATOM     49  C   UNL A   1      40.481  25.749  27.562  1.00  0.00     0.031 C 
ATOM     50  C   UNL A   1      43.656  28.128  29.394  1.00  0.00     0.029 A 
ATOM     51  N   UNL A   1      42.191  29.632  30.186  1.00  0.00    -0.354 N 
ATOM     52  C   UNL A   1      42.320  24.487  28.136  1.00  0.00     0.074 A 
ATOM     53  C   UNL A   1      41.133  24.604  27.315  1.00  0.00     0.031 C 
ATOM     54  C   UNL A   1      44.296  28.891  30.301  1.00  0.00     0.029 A 
ATOM     55  C   UNL A   1      43.286  29.624  31.054  1.00  0.00     0.049 A 
ATOM     56  H   UNL A   1      41.511  30.341  30.112  1.00  0.00     0.167 HD
ATOM     57  C   UNL A   1      43.436  23.700  28.125  1.00  0.00     0.037 A 
ATOM     58  C   UNL A   1      43.020  29.508  32.392  1.00  0.00     0.037 A 
ATOM     59  C   UNL A   1      44.429  24.188  29.088  1.00  0.00     0.049 A 
ATOM     60  C   UNL A   1      43.486  28.191  32.980  1.00  0.00     0.074 A 
ATOM     61  C   UNL A   1      45.572  24.964  28.985  1.00  0.00     0.029 A 
ATOM     62  N   UNL A   1      44.119  24.158  30.435  1.00  0.00    -0.354 N 
ATOM     63  N   UNL A   1      44.037  27.230  32.289  1.00  0.00    -0.248 NA
ATOM     64  C   UNL A   1      43.335  27.832  34.390  1.00  0.00     0.031 C 
ATOM     65  C   UNL A   1      45.936  25.405  30.290  1.00  0.00     0.029 A 
ATOM     66  C   UNL A   1      45.019  24.890  31.187  1.00  0.00     0.049 A 
ATOM     67  H   UNL A   1      43.350  23.674  30.814  1.00  0.00     0.167 HD
ATOM     68  C   UNL A   1      44.279  26.151  33.095  1.00  0.00     0.074 A 
ATOM     69  C   UNL A   1      43.830  26.581  34.407  1.00  0.00     0.031 C 
ATOM     70  C   UNL A   1      44.805  24.982  32.622  1.00  0.00     0.037 A 
BRANCH  57  71
ATOM     71  C   UNL A   1      43.727  22.646  27.082  1.00  0.00     0.058 A 
ATOM     72  C   UNL A   1      42.917  21.493  26.975  1.00  0.00     0.135 A 
ATOM     73  C   UNL A   1      44.793  22.705  26.160  1.00  0.00     0.135 A 
ATOM     74  F   UNL A   1      41.822  21.331  27.729  1.00  0.00    -0.206 F 
ATOM     75  C   UNL A   1      43.197  20.443  26.101  1.00  0.00     0.059 A 
ATOM     76  C   UNL A   1      45.121  21.644  25.306  1.00  0.00     0.059 A 
ATOM     77  F   UNL A   1      45.535  23.814  26.030  1.00  0.00    -0.206 F 
ATOM     78  C   UNL A   1      44.319  20.511  25.290  1.00  0.00     0.060 A 
BRANCH  78  79
ATOM     79  S   UNL A   1      44.702  19.102  24.232  1.00  0.00     0.124 S 
ATOM     80  O   UNL A   1      46.103  18.847  24.555  1.00  0.00    -0.237 OA
ATOM     81  O   UNL A   1      43.750  18.101  24.703  1.00  0.00    -0.237 OA
ATOM     82  O   UNL A   1      44.461  19.613  22.886  1.00  0.00    -0.744 OA
ENDBRANCH  78  79
ENDBRANCH  57  71
BRANCH  58  83
ATOM     83  C   UNL A   1      41.778  30.277  32.764  1.00  0.00     0.058 A 
ATOM     84  C   UNL A   1      40.630  29.518  33.087  1.00  0.00     0.135 A 
ATOM     85  C   UNL A   1      41.851  31.575  33.299  1.00  0.00     0.135 A 
ATOM     86  F   UNL A   1      40.494  28.273  32.599  1.00  0.00    -0.206 F 
ATOM     87  C   UNL A   1      39.707  29.941  34.042  1.00  0.00     0.059 A 
ATOM     88  C   UNL A   1      40.925  32.024  34.252  1.00  0.00     0.059 A 
ATOM     89  F   UNL A   1      42.900  32.362  33.017  1.00  0.00    -0.206 F 
ATOM     90  C   UNL A   1      39.904  31.167  34.672  1.00  0.00     0.060 A 
BRANCH  90  91
ATOM     91  S   UNL A   1      38.881  31.551  36.119  1.00  0.00     0.124 S 
ATOM     92  O   UNL A   1      38.373  30.237  36.499  1.00  0.00    -0.237 OA
ATOM     93  O   UNL A   1      39.851  32.134  37.046  1.00  0.00    -0.237 OA
ATOM     94  O   UNL A   1      37.886  32.482  35.599  1.00  0.00    -0.744 OA
ENDBRANCH  90  91
ENDBRANCH  58  83
BRANCH  70  95
ATOM     95  C   UNL A   1      45.138  23.798  33.491  1.00  0.00     0.058 A 
ATOM     96  C   UNL A   1      44.172  22.863  33.896  1.00  0.00     0.135 A 
ATOM     97  C   UNL A   1      46.429  23.627  34.043  1.00  0.00     0.135 A 
ATOM     98  F   UNL A   1      42.891  22.989  33.516  1.00  0.00    -0.206 F 
ATOM     99  C   UNL A   1      44.486  21.781  34.719  1.00  0.00     0.059 A 
ATOM    100  C   UNL A   1      46.751  22.588  34.907  1.00  0.00     0.059 A 
ATOM    101  F   UNL A   1      47.443  24.448  33.738  1.00  0.00    -0.206 F 
ATOM    102  C   UNL A   1      45.783  21.645  35.209  1.00  0.00     0.060 A 
BRANCH 102 103
ATOM    103  S   UNL A   1      46.204  20.231  36.240  1.00  0.00     0.124 S 
ATOM    104  O   UNL A   1      45.737  20.649  37.558  1.00  0.00    -0.237 OA
ATOM    105  O   UNL A   1      45.431  19.170  35.601  1.00  0.00    -0.237 OA
ATOM    106  O   UNL A   1      47.653  20.126  36.100  1.00  0.00    -0.744 OA
ENDBRANCH 102 103
ENDBRANCH  70  95
ENDBRANCH  44  45
ENDBRANCH  36  39
ENDBRANCH  34  35
ENDBRANCH  33  34
ENDBRANCH   1  33
TORSDOF 19
ENDMDL
MODEL 2
REMARK VINA RESULT:     -13.9      1.581      2.745
REMARK SMILES Cc1ccc(C(=O)N2C[C@@H](C(=O)NCCCCCCNC(=O)c3ccc(-c4c5nc(c(-c6c(F)cc(S(=O)(=O)[O-])cc6F)c6ccc([nH]6)c(-c6c(F)cc(S(=O)(=O)[O-])cc6F)c6nc(c(-c7c(F)cc(S(=O)(=O)[O-])cc7F)c7ccc4[nH]7)C=C6)C=C5)cc3)C[C@H](C(=O)N3CCOCC3)C2)cc1F
REMARK SMILES IDX 17 1 16 2 15 3 14 4 13 5 11 6 12 7 10 9 8 10 9 11 99 12
REMARK SMILES IDX 90 13 89 14 6 15 7 16 5 17 1 18 2 19 3 20 101 21 4 22 100 23
REMARK SMILES IDX 102 24 91 25 92 26 93 27 94 28 98 29 95 30 97 31 96 32 18 33
REMARK SMILES IDX 19 34 20 35 21 36 22 38 23 39 24 40 88 41 25 42 87 43 26 44
REMARK SMILES IDX 27 45 28 46 81 47 29 48 86 49 80 50 82 51 30 52 85 53 79 54
REMARK SMILES IDX 78 55 31 57 65 58 44 59 64 60 45 61 48 62 63 63 83 64 46 65
REMARK SMILES IDX 47 66 62 68 84 69 49 70 32 71 33 72 42 73 34 74 35 75 41 76
REMARK SMILES IDX 43 77 36 78 37 79 38 80 39 81 40 82 66 83 67 84 76 85 68 86
REMARK SMILES IDX 69 87 75 88 77 89 70 90 71 91 72 92 73 93 74 94 50 95 51 96
REMARK SMILES IDX 60 97 52 98 53 99 59 100 61 101 54 102 55 103 56 104 57 105
REMARK SMILES IDX 58 106
REMARK H PARENT 13 8 20 37 82 56 48 67
REMARK Flexibility Score: inf
ROOT
ATOM      1  C   UNL A   1      33.072  31.815  27.749  1.00  0.00     0.002 C 
ENDROOT
BRANCH   1   2
ATOM      2  C   UNL A   1      32.631  31.043  26.496  1.00  0.00     0.002 C 
BRANCH   2   3
ATOM      3  C   UNL A   1      31.806  29.775  26.718  1.00  0.00     0.021 C 
BRANCH   3   4
ATOM      4  C   UNL A   1      32.268  28.558  25.937  1.00  0.00     0.116 C 
BRANCH   4   5
ATOM      5  N   UNL A   1      32.659  28.867  24.580  1.00  0.00    -0.356 N 
ATOM      6  C   UNL A   1      32.908  28.020  23.548  1.00  0.00     0.224 C 
ATOM      7  O   UNL A   1      33.107  28.498  22.429  1.00  0.00    -0.275 OA
ATOM      8  H   UNL A   1      32.758  29.824  24.375  1.00  0.00     0.163 HD
BRANCH   6   9
ATOM      9  C   UNL A   1      32.988  26.520  23.763  1.00  0.00     0.099 C 
ATOM     10  N   UNL A   1      34.461  24.610  24.327  1.00  0.00    -0.337 N 
ATOM     11  C   UNL A   1      34.351  26.060  24.247  1.00  0.00     0.133 C 
ATOM     12  C   UNL A   1      34.077  23.856  23.135  1.00  0.00     0.133 C 
ATOM     13  C   UNL A   1      32.675  24.229  22.611  1.00  0.00     0.099 C 
ATOM     14  C   UNL A   1      32.402  25.731  22.582  1.00  0.00     0.030 C 
BRANCH  10  15
ATOM     15  C   UNL A   1      35.072  24.080  25.459  1.00  0.00     0.254 C 
ATOM     16  O   UNL A   1      34.693  24.346  26.599  1.00  0.00    -0.269 OA
BRANCH  15  17
ATOM     17  C   UNL A   1      36.299  23.257  25.336  1.00  0.00     0.042 A 
ATOM     18  C   UNL A   1      39.547  20.486  25.884  1.00  0.00     0.047 C 
ATOM     19  C   UNL A   1      38.455  21.481  25.632  1.00  0.00    -0.015 A 
ATOM     20  C   UNL A   1      38.590  22.822  26.010  1.00  0.00     0.007 A 
ATOM     21  C   UNL A   1      37.245  21.059  25.070  1.00  0.00     0.126 A 
ATOM     22  C   UNL A   1      37.514  23.707  25.869  1.00  0.00     0.014 A 
ATOM     23  C   UNL A   1      36.170  21.928  24.926  1.00  0.00     0.053 A 
ATOM     24  F   UNL A   1      37.092  19.776  24.711  1.00  0.00    -0.207 F 
ENDBRANCH  15  17
ENDBRANCH  10  15
BRANCH  13  25
ATOM     25  C   UNL A   1      31.638  23.277  23.223  1.00  0.00     0.227 C 
ATOM     26  O   UNL A   1      31.399  22.222  22.621  1.00  0.00    -0.275 OA
ATOM     27  N   UNL A   1      31.196  23.444  24.512  1.00  0.00    -0.338 N 
ATOM     28  C   UNL A   1      30.575  24.627  25.106  1.00  0.00     0.148 C 
ATOM     29  C   UNL A   1      31.057  22.264  25.362  1.00  0.00     0.148 C 
ATOM     30  C   UNL A   1      31.169  24.882  26.499  1.00  0.00     0.181 C 
ATOM     31  C   UNL A   1      31.643  22.576  26.744  1.00  0.00     0.181 C 
ATOM     32  O   UNL A   1      30.997  23.720  27.333  1.00  0.00    -0.378 OA
ENDBRANCH  13  25
ENDBRANCH   6   9
ENDBRANCH   4   5
ENDBRANCH   3   4
ENDBRANCH   2   3
ENDBRANCH   1   2
BRANCH   1  33
ATOM     33  C   UNL A   1      34.430  32.525  27.712  1.00  0.00     0.021 C 
BRANCH  33  34
ATOM     34  C   UNL A   1      35.474  31.959  28.645  1.00  0.00     0.116 C 
BRANCH  34  35
ATOM     35  N   UNL A   1      35.199  30.594  29.050  1.00  0.00    -0.352 N 
ATOM     36  C   UNL A   1      35.842  29.596  28.319  1.00  0.00     0.251 C 
ATOM     37  H   UNL A   1      34.595  30.384  29.797  1.00  0.00     0.163 HD
ATOM     38  O   UNL A   1      35.383  29.142  27.291  1.00  0.00    -0.269 OA
BRANCH  36  39
ATOM     39  C   UNL A   1      37.271  29.388  28.709  1.00  0.00     0.039 A 
ATOM     40  C   UNL A   1      37.584  28.735  29.907  1.00  0.00     0.014 A 
ATOM     41  C   UNL A   1      38.266  29.617  27.757  1.00  0.00     0.014 A 
ATOM     42  C   UNL A   1      38.871  28.226  30.096  1.00  0.00     0.010 A 
ATOM     43  C   UNL A   1      39.489  29.021  27.889  1.00  0.00     0.010 A 
ATOM     44  C   UNL A   1      39.801  28.327  29.056  1.00  0.00    -0.014 A 
BRANCH  44  45
ATOM     45  C   UNL A   1      41.125  27.721  29.057  1.00  0.00     0.031 A 
ATOM     46  C   UNL A   1      41.351  26.359  28.558  1.00  0.00     0.074 A 
ATOM     47  C   UNL A   1      42.161  28.485  29.461  1.00  0.00     0.049 A 
ATOM     48  N   UNL A   1      42.305  25.601  28.976  1.00  0.00    -0.248 NA
ATOM     49  C   UNL A   1      40.525  25.738  27.529  1.00  0.00     0.031 C 
ATOM     50  C   UNL A   1      43.589  28.213  29.421  1.00  0.00     0.029 A 
ATOM     51  N   UNL A   1      42.060  29.652  30.214  1.00  0.00    -0.354 N 
ATOM     52  C   UNL A   1      42.403  24.539  28.109  1.00  0.00     0.074 A 
ATOM     53  C   UNL A   1      41.222  24.621  27.276  1.00  0.00     0.031 C 
ATOM     54  C   UNL A   1      44.190  28.989  30.343  1.00  0.00     0.029 A 
ATOM     55  C   UNL A   1      43.145  29.675  31.093  1.00  0.00     0.049 A 
ATOM     56  H   UNL A   1      41.354  30.336  30.140  1.00  0.00     0.167 HD
ATOM     57  C   UNL A   1      43.548  23.795  28.102  1.00  0.00     0.037 A 
ATOM     58  C   UNL A   1      42.870  29.534  32.428  1.00  0.00     0.037 A 
ATOM     59  C   UNL A   1      44.512  24.308  29.080  1.00  0.00     0.049 A 
ATOM     60  C   UNL A   1      43.379  28.228  33.006  1.00  0.00     0.074 A 
ATOM     61  C   UNL A   1      45.626  25.127  28.998  1.00  0.00     0.029 A 
ATOM     62  N   UNL A   1      44.189  24.251  30.424  1.00  0.00    -0.354 N 
ATOM     63  N   UNL A   1      43.972  27.297  32.310  1.00  0.00    -0.248 NA
ATOM     64  C   UNL A   1      43.226  27.848  34.410  1.00  0.00     0.031 C 
ATOM     65  C   UNL A   1      45.959  25.567  30.312  1.00  0.00     0.029 A 
ATOM     66  C   UNL A   1      45.053  25.007  31.193  1.00  0.00     0.049 A 
ATOM     67  H   UNL A   1      43.435  23.735  30.789  1.00  0.00     0.167 HD
ATOM     68  C   UNL A   1      44.247  26.219  33.107  1.00  0.00     0.074 A 
ATOM     69  C   UNL A   1      43.767  26.616  34.418  1.00  0.00     0.031 C 
ATOM     70  C   UNL A   1      44.821  25.075  32.627  1.00  0.00     0.037 A 
BRANCH  57  71
ATOM     71  C   UNL A   1      43.889  22.763  27.050  1.00  0.00     0.058 A 
ATOM     72  C   UNL A   1      43.118  21.588  26.915  1.00  0.00     0.135 A 
ATOM     73  C   UNL A   1      44.968  22.868  26.148  1.00  0.00     0.135 A 
ATOM     74  F   UNL A   1      42.016  21.382  27.648  1.00  0.00    -0.206 F 
ATOM     75  C   UNL A   1      43.445  20.559  26.032  1.00  0.00     0.059 A 
ATOM     76  C   UNL A   1      45.344  21.829  25.286  1.00  0.00     0.059 A 
ATOM     77  F   UNL A   1      45.677  24.001  26.044  1.00  0.00    -0.206 F 
ATOM     78  C   UNL A   1      44.578  20.672  25.242  1.00  0.00     0.060 A 
BRANCH  78  79
ATOM     79  S   UNL A   1      45.022  19.290  24.172  1.00  0.00     0.124 S 
ATOM     80  O   UNL A   1      44.262  18.190  24.761  1.00  0.00    -0.237 OA
ATOM     81  O   UNL A   1      44.558  19.753  22.869  1.00  0.00    -0.237 OA
ATOM     82  O   UNL A   1      46.470  19.193  24.326  1.00  0.00    -0.744 OA
ENDBRANCH  78  79
ENDBRANCH  57  71
BRANCH  58  83
ATOM     83  C   UNL A   1      41.596  30.252  32.794  1.00  0.00     0.058 A 
ATOM     84  C   UNL A   1      40.478  29.446  33.108  1.00  0.00     0.135 A 
ATOM     85  C   UNL A   1      41.614  31.549  33.333  1.00  0.00     0.135 A 
ATOM     86  F   UNL A   1      40.394  28.198  32.615  1.00  0.00    -0.206 F 
ATOM     87  C   UNL A   1      39.533  29.829  34.059  1.00  0.00     0.059 A 
ATOM     88  C   UNL A   1      40.665  31.958  34.282  1.00  0.00     0.059 A 
ATOM     89  F   UNL A   1      42.633  32.378  33.059  1.00  0.00    -0.206 F 
ATOM     90  C   UNL A   1      39.678  31.060  34.693  1.00  0.00     0.060 A 
BRANCH  90  91
ATOM     91  S   UNL A   1      38.631  31.399  36.135  1.00  0.00     0.124 S 
ATOM     92  O   UNL A   1      37.432  31.961  35.524  1.00  0.00    -0.237 OA
ATOM     93  O   UNL A   1      38.463  30.069  36.722  1.00  0.00    -0.237 OA
ATOM     94  O   UNL A   1      39.427  32.328  36.927  1.00  0.00    -0.744 OA
ENDBRANCH  90  91
ENDBRANCH  58  83
BRANCH  70  95
ATOM     95  C   UNL A   1      45.189  23.895  33.486  1.00  0.00     0.058 A 
ATOM     96  C   UNL A   1      44.246  22.942  33.904  1.00  0.00     0.135 A 
ATOM     97  C   UNL A   1      46.492  23.745  34.017  1.00  0.00     0.135 A 
ATOM     98  F   UNL A   1      42.957  23.046  33.545  1.00  0.00    -0.206 F 
ATOM     99  C   UNL A   1      44.593  21.863  34.719  1.00  0.00     0.059 A 
ATOM    100  C   UNL A   1      46.846  22.709  34.872  1.00  0.00     0.059 A 
ATOM    101  F   UNL A   1      47.485  24.585  33.698  1.00  0.00    -0.206 F 
ATOM    102  C   UNL A   1      45.899  21.749  35.187  1.00  0.00     0.060 A 
BRANCH 102 103
ATOM    103  S   UNL A   1      46.362  20.339  36.205  1.00  0.00     0.124 S 
ATOM    104  O   UNL A   1      45.793  19.215  35.468  1.00  0.00    -0.237 OA
ATOM    105  O   UNL A   1      47.818  20.436  36.187  1.00  0.00    -0.237 OA
ATOM    106  O   UNL A   1      45.728  20.623  37.489  1.00  0.00    -0.744 OA
ENDBRANCH 102 103
ENDBRANCH  70  95
ENDBRANCH  44  45
ENDBRANCH  36  39
ENDBRANCH  34  35
ENDBRANCH  33  34
ENDBRANCH   1  33
TORSDOF 19
ENDMDL
MODEL 3
REMARK VINA RESULT:     -13.9      1.512      2.940
REMARK SMILES Cc1ccc(C(=O)N2C[C@@H](C(=O)NCCCCCCNC(=O)c3ccc(-c4c5nc(c(-c6c(F)cc(S(=O)(=O)[O-])cc6F)c6ccc([nH]6)c(-c6c(F)cc(S(=O)(=O)[O-])cc6F)c6nc(c(-c7c(F)cc(S(=O)(=O)[O-])cc7F)c7ccc4[nH]7)C=C6)C=C5)cc3)C[C@H](C(=O)N3CCOCC3)C2)cc1F
REMARK SMILES IDX 17 1 16 2 15 3 14 4 13 5 11 6 12 7 10 9 8 10 9 11 99 12
REMARK SMILES IDX 90 13 89 14 6 15 7 16 5 17 1 18 2 19 3 20 101 21 4 22 100 23
REMARK SMILES IDX 102 24 91 25 92 26 93 27 94 28 98 29 95 30 97 31 96 32 18 33
REMARK SMILES IDX 19 34 20 35 21 36 22 38 23 39 24 40 88 41 25 42 87 43 26 44
REMARK SMILES IDX 27 45 28 46 81 47 29 48 86 49 80 50 82 51 30 52 85 53 79 54
REMARK SMILES IDX 78 55 31 57 65 58 44 59 64 60 45 61 48 62 63 63 83 64 46 65
REMARK SMILES IDX 47 66 62 68 84 69 49 70 32 71 33 72 42 73 34 74 35 75 41 76
REMARK SMILES IDX 43 77 36 78 37 79 38 80 39 81 40 82 66 83 67 84 76 85 68 86
REMARK SMILES IDX 69 87 75 88 77 89 70 90 71 91 72 92 73 93 74 94 50 95 51 96
REMARK SMILES IDX 60 97 52 98 53 99 59 100 61 101 54 102 55 103 56 104 57 105
REMARK SMILES IDX 58 106
REMARK H PARENT 13 8 20 37 82 56 48 67
REMARK Flexibility Score: inf
ROOT
ATOM      1  C   UNL A   1      32.731  28.819  27.220  1.00  0.00     0.002 C 
ENDROOT
BRANCH   1   2
ATOM      2  C   UNL A   1      31.530  27.870  27.085  1.00  0.00     0.002 C 
BRANCH   2   3
ATOM      3  C   UNL A   1      31.791  26.510  26.438  1.00  0.00     0.021 C 
BRANCH   3   4
ATOM      4  C   UNL A   1      30.597  25.889  25.735  1.00  0.00     0.116 C 
BRANCH   4   5
ATOM      5  N   UNL A   1      30.011  24.791  26.471  1.00  0.00    -0.356 N 
ATOM      6  C   UNL A   1      30.397  23.491  26.518  1.00  0.00     0.224 C 
ATOM      7  O   UNL A   1      29.830  22.737  27.313  1.00  0.00    -0.275 OA
ATOM      8  H   UNL A   1      29.221  25.018  27.012  1.00  0.00     0.163 HD
BRANCH   6   9
ATOM      9  C   UNL A   1      31.471  22.954  25.590  1.00  0.00     0.099 C 
ATOM     10  N   UNL A   1      32.278  22.835  23.251  1.00  0.00    -0.337 N 
ATOM     11  C   UNL A   1      31.326  23.452  24.163  1.00  0.00     0.133 C 
ATOM     12  C   UNL A   1      32.345  21.374  23.262  1.00  0.00     0.133 C 
ATOM     13  C   UNL A   1      32.546  20.790  24.675  1.00  0.00     0.099 C 
ATOM     14  C   UNL A   1      31.671  21.439  25.745  1.00  0.00     0.030 C 
BRANCH  10  15
ATOM     15  C   UNL A   1      32.918  23.667  22.338  1.00  0.00     0.254 C 
ATOM     16  O   UNL A   1      33.822  23.269  21.604  1.00  0.00    -0.269 OA
BRANCH  15  17
ATOM     17  C   UNL A   1      32.613  25.117  22.299  1.00  0.00     0.042 A 
ATOM     18  C   UNL A   1      31.609  29.205  23.202  1.00  0.00     0.047 C 
ATOM     19  C   UNL A   1      31.953  27.799  22.811  1.00  0.00    -0.015 A 
ATOM     20  C   UNL A   1      30.969  26.902  22.379  1.00  0.00     0.007 A 
ATOM     21  C   UNL A   1      33.269  27.343  22.942  1.00  0.00     0.126 A 
ATOM     22  C   UNL A   1      31.295  25.563  22.129  1.00  0.00     0.014 A 
ATOM     23  C   UNL A   1      33.605  26.016  22.698  1.00  0.00     0.053 A 
ATOM     24  F   UNL A   1      34.225  28.184  23.364  1.00  0.00    -0.207 F 
ENDBRANCH  15  17
ENDBRANCH  10  15
BRANCH  13  25
ATOM     25  C   UNL A   1      34.046  20.595  24.932  1.00  0.00     0.227 C 
ATOM     26  O   UNL A   1      34.530  19.479  24.703  1.00  0.00    -0.275 OA
ATOM     27  N   UNL A   1      34.875  21.670  25.138  1.00  0.00    -0.338 N 
ATOM     28  C   UNL A   1      34.759  22.717  26.153  1.00  0.00     0.148 C 
ATOM     29  C   UNL A   1      36.180  21.682  24.481  1.00  0.00     0.148 C 
ATOM     30  C   UNL A   1      35.041  24.087  25.520  1.00  0.00     0.181 C 
ATOM     31  C   UNL A   1      36.423  23.075  23.887  1.00  0.00     0.181 C 
ATOM     32  O   UNL A   1      36.343  24.092  24.903  1.00  0.00    -0.378 OA
ENDBRANCH  13  25
ENDBRANCH   6   9
ENDBRANCH   4   5
ENDBRANCH   3   4
ENDBRANCH   2   3
ENDBRANCH   1   2
BRANCH   1  33
ATOM     33  C   UNL A   1      33.944  28.574  26.315  1.00  0.00     0.021 C 
BRANCH  33  34
ATOM     34  C   UNL A   1      35.284  28.652  27.006  1.00  0.00     0.116 C 
BRANCH  34  35
ATOM     35  N   UNL A   1      35.756  30.012  27.188  1.00  0.00    -0.352 N 
ATOM     36  C   UNL A   1      36.030  30.397  28.499  1.00  0.00     0.251 C 
ATOM     37  H   UNL A   1      35.875  30.626  26.430  1.00  0.00     0.163 HD
ATOM     38  O   UNL A   1      35.176  30.837  29.242  1.00  0.00    -0.269 OA
BRANCH  36  39
ATOM     39  C   UNL A   1      37.349  29.908  29.007  1.00  0.00     0.039 A 
ATOM     40  C   UNL A   1      37.410  28.773  29.825  1.00  0.00     0.014 A 
ATOM     41  C   UNL A   1      38.518  30.433  28.453  1.00  0.00     0.014 A 
ATOM     42  C   UNL A   1      38.630  28.115  29.998  1.00  0.00     0.010 A 
ATOM     43  C   UNL A   1      39.687  29.727  28.525  1.00  0.00     0.010 A 
ATOM     44  C   UNL A   1      39.752  28.570  29.298  1.00  0.00    -0.014 A 
BRANCH  44  45
ATOM     45  C   UNL A   1      41.046  27.904  29.268  1.00  0.00     0.031 A 
ATOM     46  C   UNL A   1      41.197  26.530  28.770  1.00  0.00     0.074 A 
ATOM     47  C   UNL A   1      42.127  28.620  29.644  1.00  0.00     0.049 A 
ATOM     48  N   UNL A   1      42.124  25.730  29.168  1.00  0.00    -0.248 NA
ATOM     49  C   UNL A   1      40.317  25.945  27.765  1.00  0.00     0.031 C 
ATOM     50  C   UNL A   1      43.539  28.282  29.570  1.00  0.00     0.029 A 
ATOM     51  N   UNL A   1      42.099  29.793  30.393  1.00  0.00    -0.354 N 
ATOM     52  C   UNL A   1      42.152  24.662  28.304  1.00  0.00     0.074 A 
ATOM     53  C   UNL A   1      40.955  24.796  27.501  1.00  0.00     0.031 C 
ATOM     54  C   UNL A   1      44.198  29.032  30.473  1.00  0.00     0.029 A 
ATOM     55  C   UNL A   1      43.205  29.768  31.245  1.00  0.00     0.049 A 
ATOM     56  H   UNL A   1      41.424  30.508  30.334  1.00  0.00     0.167 HD
ATOM     57  C   UNL A   1      43.260  23.865  28.272  1.00  0.00     0.037 A 
ATOM     58  C   UNL A   1      42.957  29.645  32.587  1.00  0.00     0.037 A 
ATOM     59  C   UNL A   1      44.271  24.336  29.224  1.00  0.00     0.049 A 
ATOM     60  C   UNL A   1      43.419  28.319  33.159  1.00  0.00     0.074 A 
ATOM     61  C   UNL A   1      45.420  25.103  29.111  1.00  0.00     0.029 A 
ATOM     62  N   UNL A   1      43.979  24.300  30.575  1.00  0.00    -0.354 N 
ATOM     63  N   UNL A   1      43.951  27.358  32.453  1.00  0.00    -0.248 NA
ATOM     64  C   UNL A   1      43.284  27.951  34.567  1.00  0.00     0.031 C 
ATOM     65  C   UNL A   1      45.805  25.531  30.414  1.00  0.00     0.029 A 
ATOM     66  C   UNL A   1      44.896  25.017  31.320  1.00  0.00     0.049 A 
ATOM     67  H   UNL A   1      43.211  23.820  30.961  1.00  0.00     0.167 HD
ATOM     68  C   UNL A   1      44.195  26.272  33.247  1.00  0.00     0.074 A 
ATOM     69  C   UNL A   1      43.767  26.695  34.568  1.00  0.00     0.031 C 
ATOM     70  C   UNL A   1      44.703  25.100  32.759  1.00  0.00     0.037 A 
BRANCH  57  71
ATOM     71  C   UNL A   1      43.527  22.816  27.217  1.00  0.00     0.058 A 
ATOM     72  C   UNL A   1      42.781  21.616  27.188  1.00  0.00     0.135 A 
ATOM     73  C   UNL A   1      44.508  22.925  26.210  1.00  0.00     0.135 A 
ATOM     74  F   UNL A   1      41.764  21.400  28.031  1.00  0.00    -0.206 F 
ATOM     75  C   UNL A   1      43.051  20.573  26.302  1.00  0.00     0.059 A 
ATOM     76  C   UNL A   1      44.828  21.874  25.340  1.00  0.00     0.059 A 
ATOM     77  F   UNL A   1      45.169  24.074  26.009  1.00  0.00    -0.206 F 
ATOM     78  C   UNL A   1      44.097  20.696  25.400  1.00  0.00     0.060 A 
BRANCH  78  79
ATOM     79  S   UNL A   1      44.474  19.298  24.326  1.00  0.00     0.124 S 
ATOM     80  O   UNL A   1      43.364  18.390  24.602  1.00  0.00    -0.237 OA
ATOM     81  O   UNL A   1      44.471  19.920  23.007  1.00  0.00    -0.237 OA
ATOM     82  O   UNL A   1      45.777  18.844  24.804  1.00  0.00    -0.744 OA
ENDBRANCH  78  79
ENDBRANCH  57  71
BRANCH  58  83
ATOM     83  C   UNL A   1      41.728  30.422  32.981  1.00  0.00     0.058 A 
ATOM     84  C   UNL A   1      40.535  29.684  33.159  1.00  0.00     0.135 A 
ATOM     85  C   UNL A   1      41.821  31.648  33.663  1.00  0.00     0.135 A 
ATOM     86  F   UNL A   1      40.378  28.507  32.528  1.00  0.00    -0.206 F 
ATOM     87  C   UNL A   1      39.579  30.039  34.110  1.00  0.00     0.059 A 
ATOM     88  C   UNL A   1      40.863  32.030  34.613  1.00  0.00     0.059 A 
ATOM     89  F   UNL A   1      42.914  32.414  33.523  1.00  0.00    -0.206 F 
ATOM     90  C   UNL A   1      39.789  31.177  34.883  1.00  0.00     0.060 A 
BRANCH  90  91
ATOM     91  S   UNL A   1      38.704  31.444  36.312  1.00  0.00     0.124 S 
ATOM     92  O   UNL A   1      38.423  30.081  36.747  1.00  0.00    -0.237 OA
ATOM     93  O   UNL A   1      39.556  32.220  37.214  1.00  0.00    -0.237 OA
ATOM     94  O   UNL A   1      37.572  32.172  35.752  1.00  0.00    -0.744 OA
ENDBRANCH  90  91
ENDBRANCH  58  83
BRANCH  70  95
ATOM     95  C   UNL A   1      45.037  23.908  33.614  1.00  0.00     0.058 A 
ATOM     96  C   UNL A   1      44.059  23.013  34.078  1.00  0.00     0.135 A 
ATOM     97  C   UNL A   1      46.350  23.687  34.094  1.00  0.00     0.135 A 
ATOM     98  F   UNL A   1      42.765  23.189  33.769  1.00  0.00    -0.206 F 
ATOM     99  C   UNL A   1      44.376  21.922  34.888  1.00  0.00     0.059 A 
ATOM    100  C   UNL A   1      46.678  22.639  34.945  1.00  0.00     0.059 A 
ATOM    101  F   UNL A   1      47.376  24.466  33.728  1.00  0.00    -0.206 F 
ATOM    102  C   UNL A   1      45.692  21.737  35.306  1.00  0.00     0.060 A 
BRANCH 102 103
ATOM    103  S   UNL A   1      46.113  20.310  36.319  1.00  0.00     0.124 S 
ATOM    104  O   UNL A   1      47.546  20.167  36.084  1.00  0.00    -0.237 OA
ATOM    105  O   UNL A   1      45.733  20.779  37.647  1.00  0.00    -0.237 OA
ATOM    106  O   UNL A   1      45.284  19.243  35.767  1.00  0.00    -0.744 OA
ENDBRANCH 102 103
ENDBRANCH  70  95
ENDBRANCH  44  45
ENDBRANCH  36  39
ENDBRANCH  34  35
ENDBRANCH  33  34
ENDBRANCH   1  33
TORSDOF 19
ENDMDL
